MODEL 1
REMARK VINA RESULT:    -5.709      0.000      0.000
REMARK INTER + INTRA:          -7.571
REMARK INTER:                  -7.210
REMARK INTRA:                  -0.360
REMARK UNBOUND:                -0.360
REMARK SMILES O=C(C=Cc1ccc(O)cc1)c1ccc(O)cc1O
REMARK SMILES IDX 4 1 3 2 5 3 6 4 7 5 8 6 11 7 10 8 9 9 2 11 1 12 12 13 18 14
REMARK SMILES IDX 13 15 17 16 14 17 15 18 19 19 16 21
REMARK H PARENT 9 10 19 20 16 22
REMARK Flexibility Score: inf
ROOT
ATOM      1  C   UNL     1      26.402  24.653   5.465  1.00  0.00     0.012 C 
ATOM      2  C   UNL     1      26.612  23.799   6.478  1.00  0.00     0.053 C 
ENDROOT
BRANCH   1   3
ATOM      3  C   UNL     1      25.844  26.017   5.636  1.00  0.00    -0.025 A 
ATOM      4  C   UNL     1      24.990  26.616   4.686  1.00  0.00     0.012 A 
ATOM      5  C   UNL     1      24.500  27.909   4.892  1.00  0.00     0.047 A 
ATOM      6  C   UNL     1      24.859  28.626   6.036  1.00  0.00     0.115 A 
ATOM      7  C   UNL     1      26.211  26.753   6.776  1.00  0.00     0.012 A 
ATOM      8  C   UNL     1      25.718  28.045   6.978  1.00  0.00     0.047 A 
BRANCH   6   9
ATOM      9  O   UNL     1      24.361  29.913   6.227  1.00  0.00    -0.508 OA
ATOM     10  H   UNL     1      24.904  30.627   6.699  1.00  0.00     0.293 HD
ENDBRANCH   6   9
ENDBRANCH   1   3
BRANCH   2  11
ATOM     11  C   UNL     1      27.167  22.442   6.280  1.00  0.00     0.189 C 
ATOM     12  O   UNL     1      27.996  22.010   7.125  1.00  0.00    -0.289 OA
BRANCH  11  13
ATOM     13  C   UNL     1      26.811  21.587   5.121  1.00  0.00     0.064 A 
ATOM     14  C   UNL     1      25.474  21.199   4.896  1.00  0.00     0.130 A 
ATOM     15  C   UNL     1      27.816  21.115   4.257  1.00  0.00     0.020 A 
ATOM     16  C   UNL     1      25.160  20.367   3.811  1.00  0.00     0.093 A 
ATOM     17  C   UNL     1      27.494  20.290   3.178  1.00  0.00     0.047 A 
ATOM     18  C   UNL     1      26.165  19.913   2.951  1.00  0.00     0.119 A 
BRANCH  14  19
ATOM     19  O   UNL     1      24.459  21.650   5.740  1.00  0.00    -0.507 OA
ATOM     20  H   UNL     1      24.455  22.594   6.110  1.00  0.00     0.293 HD
ENDBRANCH  14  19
BRANCH  18  21
ATOM     21  O   UNL     1      25.832  19.091   1.878  1.00  0.00    -0.508 OA
ATOM     22  H   UNL     1      25.438  18.168   2.021  1.00  0.00     0.293 HD
ENDBRANCH  18  21
ENDBRANCH  11  13
ENDBRANCH   2  11
TORSDOF 6
ENDMDL
MODEL 2
REMARK VINA RESULT:    -5.708      1.930      7.459
REMARK INTER + INTRA:          -7.571
REMARK INTER:                  -6.913
REMARK INTRA:                  -0.658
REMARK UNBOUND:                -0.360
REMARK SMILES O=C(C=Cc1ccc(O)cc1)c1ccc(O)cc1O
REMARK SMILES IDX 4 1 3 2 5 3 6 4 7 5 8 6 11 7 10 8 9 9 2 11 1 12 12 13 18 14
REMARK SMILES IDX 13 15 17 16 14 17 15 18 19 19 16 21
REMARK H PARENT 9 10 19 20 16 22
REMARK Flexibility Score: inf
ROOT
ATOM      1  C   UNL     1      25.202  22.420   5.421  1.00  0.00     0.012 C 
ATOM      2  C   UNL     1      24.601  23.538   4.987  1.00  0.00     0.053 C 
ENDROOT
BRANCH   1   3
ATOM      3  C   UNL     1      25.907  21.462   4.534  1.00  0.00    -0.025 A 
ATOM      4  C   UNL     1      27.308  21.302   4.546  1.00  0.00     0.012 A 
ATOM      5  C   UNL     1      27.924  20.392   3.681  1.00  0.00     0.047 A 
ATOM      6  C   UNL     1      27.157  19.638   2.788  1.00  0.00     0.115 A 
ATOM      7  C   UNL     1      25.147  20.710   3.621  1.00  0.00     0.012 A 
ATOM      8  C   UNL     1      25.766  19.800   2.758  1.00  0.00     0.047 A 
BRANCH   6   9
ATOM      9  O   UNL     1      27.785  18.735   1.933  1.00  0.00    -0.508 OA
ATOM     10  H   UNL     1      27.780  18.865   0.928  1.00  0.00     0.293 HD
ENDBRANCH   6   9
ENDBRANCH   1   3
BRANCH   2  11
ATOM     11  C   UNL     1      23.902  24.475   5.892  1.00  0.00     0.189 C 
ATOM     12  O   UNL     1      22.813  24.102   6.407  1.00  0.00    -0.289 OA
BRANCH  11  13
ATOM     13  C   UNL     1      24.410  25.835   6.194  1.00  0.00     0.064 A 
ATOM     14  C   UNL     1      23.579  26.965   6.045  1.00  0.00     0.130 A 
ATOM     15  C   UNL     1      25.749  26.018   6.587  1.00  0.00     0.020 A 
ATOM     16  C   UNL     1      24.085  28.246   6.306  1.00  0.00     0.093 A 
ATOM     17  C   UNL     1      26.243  27.297   6.848  1.00  0.00     0.047 A 
ATOM     18  C   UNL     1      25.413  28.415   6.708  1.00  0.00     0.119 A 
BRANCH  14  19
ATOM     19  O   UNL     1      22.249  26.811   5.651  1.00  0.00    -0.507 OA
ATOM     20  H   UNL     1      21.723  27.576   5.244  1.00  0.00     0.293 HD
ENDBRANCH  14  19
BRANCH  18  21
ATOM     21  O   UNL     1      25.897  29.695   6.966  1.00  0.00    -0.508 OA
ATOM     22  H   UNL     1      26.586  30.132   6.365  1.00  0.00     0.293 HD
ENDBRANCH  18  21
ENDBRANCH  11  13
ENDBRANCH   2  11
TORSDOF 6
ENDMDL
MODEL 3
REMARK VINA RESULT:    -5.673      1.148      2.203
REMARK INTER + INTRA:          -7.526
REMARK INTER:                  -6.861
REMARK INTRA:                  -0.665
REMARK UNBOUND:                -0.360
REMARK SMILES O=C(C=Cc1ccc(O)cc1)c1ccc(O)cc1O
REMARK SMILES IDX 4 1 3 2 5 3 6 4 7 5 8 6 11 7 10 8 9 9 2 11 1 12 12 13 18 14
REMARK SMILES IDX 13 15 17 16 14 17 15 18 19 19 16 21
REMARK H PARENT 9 10 19 20 16 22
REMARK Flexibility Score: inf
ROOT
ATOM      1  C   UNL     1      25.782  23.876   5.676  1.00  0.00     0.012 C 
ATOM      2  C   UNL     1      24.900  22.898   5.931  1.00  0.00     0.053 C 
ENDROOT
BRANCH   1   3
ATOM      3  C   UNL     1      25.432  25.318   5.648  1.00  0.00    -0.025 A 
ATOM      4  C   UNL     1      25.394  26.115   6.811  1.00  0.00     0.012 A 
ATOM      5  C   UNL     1      25.047  27.467   6.730  1.00  0.00     0.047 A 
ATOM      6  C   UNL     1      24.726  28.041   5.497  1.00  0.00     0.115 A 
ATOM      7  C   UNL     1      25.093  25.901   4.416  1.00  0.00     0.012 A 
ATOM      8  C   UNL     1      24.747  27.254   4.338  1.00  0.00     0.047 A 
BRANCH   6   9
ATOM      9  O   UNL     1      24.384  29.390   5.433  1.00  0.00    -0.508 OA
ATOM     10  H   UNL     1      23.615  29.715   4.858  1.00  0.00     0.293 HD
ENDBRANCH   6   9
ENDBRANCH   1   3
BRANCH   2  11
ATOM     11  C   UNL     1      25.275  21.467   5.950  1.00  0.00     0.189 C 
ATOM     12  O   UNL     1      24.965  20.785   6.964  1.00  0.00    -0.289 OA
BRANCH  11  13
ATOM     13  C   UNL     1      26.019  20.814   4.845  1.00  0.00     0.064 A 
ATOM     14  C   UNL     1      27.420  20.666   4.909  1.00  0.00     0.130 A 
ATOM     15  C   UNL     1      25.336  20.378   3.694  1.00  0.00     0.020 A 
ATOM     16  C   UNL     1      28.111  20.073   3.842  1.00  0.00     0.093 A 
ATOM     17  C   UNL     1      26.032  19.786   2.639  1.00  0.00     0.047 A 
ATOM     18  C   UNL     1      27.421  19.632   2.709  1.00  0.00     0.119 A 
BRANCH  14  19
ATOM     19  O   UNL     1      28.121  21.094   6.037  1.00  0.00    -0.507 OA
ATOM     20  H   UNL     1      29.027  20.709   6.278  1.00  0.00     0.293 HD
ENDBRANCH  14  19
BRANCH  18  21
ATOM     21  O   UNL     1      28.125  19.042   1.662  1.00  0.00    -0.508 OA
ATOM     22  H   UNL     1      28.316  18.047   1.646  1.00  0.00     0.293 HD
ENDBRANCH  18  21
ENDBRANCH  11  13
ENDBRANCH   2  11
TORSDOF 6
ENDMDL
MODEL 4
REMARK VINA RESULT:    -5.287      4.375      5.847
REMARK INTER + INTRA:          -7.039
REMARK INTER:                  -6.316
REMARK INTRA:                  -0.723
REMARK UNBOUND:                -0.360
REMARK SMILES O=C(C=Cc1ccc(O)cc1)c1ccc(O)cc1O
REMARK SMILES IDX 4 1 3 2 5 3 6 4 7 5 8 6 11 7 10 8 9 9 2 11 1 12 12 13 18 14
REMARK SMILES IDX 13 15 17 16 14 17 15 18 19 19 16 21
REMARK H PARENT 9 10 19 20 16 22
REMARK Flexibility Score: inf
ROOT
ATOM      1  C   UNL     1      22.120  25.139   5.776  1.00  0.00     0.012 C 
ATOM      2  C   UNL     1      22.874  25.301   4.678  1.00  0.00     0.053 C 
ENDROOT
BRANCH   1   3
ATOM      3  C   UNL     1      20.656  24.901   5.745  1.00  0.00    -0.025 A 
ATOM      4  C   UNL     1      20.024  23.934   6.555  1.00  0.00     0.012 A 
ATOM      5  C   UNL     1      18.641  23.742   6.478  1.00  0.00     0.047 A 
ATOM      6  C   UNL     1      17.871  24.501   5.592  1.00  0.00     0.115 A 
ATOM      7  C   UNL     1      19.875  25.647   4.846  1.00  0.00     0.012 A 
ATOM      8  C   UNL     1      18.492  25.453   4.773  1.00  0.00     0.047 A 
BRANCH   6   9
ATOM      9  O   UNL     1      16.494  24.299   5.529  1.00  0.00    -0.508 OA
ATOM     10  H   UNL     1      15.955  24.061   6.354  1.00  0.00     0.293 HD
ENDBRANCH   6   9
ENDBRANCH   1   3
BRANCH   2  11
ATOM     11  C   UNL     1      24.333  25.541   4.737  1.00  0.00     0.189 C 
ATOM     12  O   UNL     1      24.782  26.596   4.216  1.00  0.00    -0.289 OA
BRANCH  11  13
ATOM     13  C   UNL     1      25.283  24.583   5.354  1.00  0.00     0.064 A 
ATOM     14  C   UNL     1      26.228  25.018   6.306  1.00  0.00     0.130 A 
ATOM     15  C   UNL     1      25.281  23.233   4.958  1.00  0.00     0.020 A 
ATOM     16  C   UNL     1      27.137  24.104   6.858  1.00  0.00     0.093 A 
ATOM     17  C   UNL     1      26.188  22.329   5.515  1.00  0.00     0.047 A 
ATOM     18  C   UNL     1      27.119  22.762   6.466  1.00  0.00     0.119 A 
BRANCH  14  19
ATOM     19  O   UNL     1      26.253  26.353   6.713  1.00  0.00    -0.507 OA
ATOM     20  H   UNL     1      26.631  27.082   6.119  1.00  0.00     0.293 HD
ENDBRANCH  14  19
BRANCH  18  21
ATOM     21  O   UNL     1      28.029  21.869   7.028  1.00  0.00    -0.508 OA
ATOM     22  H   UNL     1      28.034  21.675   8.023  1.00  0.00     0.293 HD
ENDBRANCH  18  21
ENDBRANCH  11  13
ENDBRANCH   2  11
TORSDOF 6
ENDMDL
MODEL 5
REMARK VINA RESULT:    -5.255     10.655     12.227
REMARK INTER + INTRA:          -6.998
REMARK INTER:                  -6.356
REMARK INTRA:                  -0.643
REMARK UNBOUND:                -0.360
REMARK SMILES O=C(C=Cc1ccc(O)cc1)c1ccc(O)cc1O
REMARK SMILES IDX 4 1 3 2 5 3 6 4 7 5 8 6 11 7 10 8 9 9 2 11 1 12 12 13 18 14
REMARK SMILES IDX 13 15 17 16 14 17 15 18 19 19 16 21
REMARK H PARENT 9 10 19 20 16 22
REMARK Flexibility Score: inf
ROOT
ATOM      1  C   UNL     1      16.169  24.810   4.333  1.00  0.00     0.012 C 
ATOM      2  C   UNL     1      15.493  23.661   4.180  1.00  0.00     0.053 C 
ENDROOT
BRANCH   1   3
ATOM      3  C   UNL     1      17.572  24.886   4.810  1.00  0.00    -0.025 A 
ATOM      4  C   UNL     1      18.529  25.745   4.229  1.00  0.00     0.012 A 
ATOM      5  C   UNL     1      19.841  25.770   4.711  1.00  0.00     0.047 A 
ATOM      6  C   UNL     1      20.221  24.938   5.767  1.00  0.00     0.115 A 
ATOM      7  C   UNL     1      17.969  24.043   5.862  1.00  0.00     0.012 A 
ATOM      8  C   UNL     1      19.282  24.071   6.341  1.00  0.00     0.047 A 
BRANCH   6   9
ATOM      9  O   UNL     1      21.532  24.976   6.236  1.00  0.00    -0.508 OA
ATOM     10  H   UNL     1      22.312  25.166   5.616  1.00  0.00     0.293 HD
ENDBRANCH   6   9
ENDBRANCH   1   3
BRANCH   2  11
ATOM     11  C   UNL     1      14.093  23.613   3.705  1.00  0.00     0.189 C 
ATOM     12  O   UNL     1      13.889  23.458   2.472  1.00  0.00    -0.289 OA
BRANCH  11  13
ATOM     13  C   UNL     1      12.930  23.768   4.613  1.00  0.00     0.064 A 
ATOM     14  C   UNL     1      11.997  22.722   4.774  1.00  0.00     0.130 A 
ATOM     15  C   UNL     1      12.718  24.984   5.288  1.00  0.00     0.020 A 
ATOM     16  C   UNL     1      10.888  22.897   5.613  1.00  0.00     0.093 A 
ATOM     17  C   UNL     1      11.612  25.148   6.124  1.00  0.00     0.047 A 
ATOM     18  C   UNL     1      10.693  24.105   6.289  1.00  0.00     0.119 A 
BRANCH  14  19
ATOM     19  O   UNL     1      12.182  21.508   4.112  1.00  0.00    -0.507 OA
ATOM     20  H   UNL     1      13.093  21.067   4.055  1.00  0.00     0.293 HD
ENDBRANCH  14  19
BRANCH  18  21
ATOM     21  O   UNL     1       9.587  24.258   7.121  1.00  0.00    -0.508 OA
ATOM     22  H   UNL     1       8.707  24.621   6.770  1.00  0.00     0.293 HD
ENDBRANCH  18  21
ENDBRANCH  11  13
ENDBRANCH   2  11
TORSDOF 6
ENDMDL
MODEL 6
REMARK VINA RESULT:    -5.133      9.396     10.918
REMARK INTER + INTRA:          -6.843
REMARK INTER:                  -6.254
REMARK INTRA:                  -0.589
REMARK UNBOUND:                -0.360
REMARK SMILES O=C(C=Cc1ccc(O)cc1)c1ccc(O)cc1O
REMARK SMILES IDX 4 1 3 2 5 3 6 4 7 5 8 6 11 7 10 8 9 9 2 11 1 12 12 13 18 14
REMARK SMILES IDX 13 15 17 16 14 17 15 18 19 19 16 21
REMARK H PARENT 9 10 19 20 16 22
REMARK Flexibility Score: inf
ROOT
ATOM      1  C   UNL     1      14.483  25.623   5.767  1.00  0.00     0.012 C 
ATOM      2  C   UNL     1      15.705  25.823   5.252  1.00  0.00     0.053 C 
ENDROOT
BRANCH   1   3
ATOM      3  C   UNL     1      13.539  26.717   6.103  1.00  0.00    -0.025 A 
ATOM      4  C   UNL     1      13.897  28.080   6.036  1.00  0.00     0.012 A 
ATOM      5  C   UNL     1      12.970  29.071   6.373  1.00  0.00     0.047 A 
ATOM      6  C   UNL     1      11.683  28.722   6.790  1.00  0.00     0.115 A 
ATOM      7  C   UNL     1      12.246  26.377   6.538  1.00  0.00     0.012 A 
ATOM      8  C   UNL     1      11.322  27.371   6.873  1.00  0.00     0.047 A 
BRANCH   6   9
ATOM      9  O   UNL     1      10.771  29.722   7.121  1.00  0.00    -0.508 OA
ATOM     10  H   UNL     1      10.826  30.219   8.003  1.00  0.00     0.293 HD
ENDBRANCH   6   9
ENDBRANCH   1   3
BRANCH   2  11
ATOM     11  C   UNL     1      16.630  24.714   4.929  1.00  0.00     0.189 C 
ATOM     12  O   UNL     1      16.153  23.683   4.383  1.00  0.00    -0.289 OA
BRANCH  11  13
ATOM     13  C   UNL     1      18.078  24.754   5.248  1.00  0.00     0.064 A 
ATOM     14  C   UNL     1      18.617  23.928   6.256  1.00  0.00     0.130 A 
ATOM     15  C   UNL     1      18.924  25.656   4.577  1.00  0.00     0.020 A 
ATOM     16  C   UNL     1      19.984  24.000   6.563  1.00  0.00     0.093 A 
ATOM     17  C   UNL     1      20.283  25.719   4.887  1.00  0.00     0.047 A 
ATOM     18  C   UNL     1      20.817  24.891   5.882  1.00  0.00     0.119 A 
BRANCH  14  19
ATOM     19  O   UNL     1      17.799  23.027   6.939  1.00  0.00    -0.507 OA
ATOM     20  H   UNL     1      18.127  22.106   7.204  1.00  0.00     0.293 HD
ENDBRANCH  14  19
BRANCH  18  21
ATOM     21  O   UNL     1      22.172  24.945   6.200  1.00  0.00    -0.508 OA
ATOM     22  H   UNL     1      22.504  25.441   7.019  1.00  0.00     0.293 HD
ENDBRANCH  18  21
ENDBRANCH  11  13
ENDBRANCH   2  11
TORSDOF 6
ENDMDL
MODEL 7
REMARK VINA RESULT:    -5.114      4.865      6.479
REMARK INTER + INTRA:          -6.819
REMARK INTER:                  -6.226
REMARK INTRA:                  -0.593
REMARK UNBOUND:                -0.360
REMARK SMILES O=C(C=Cc1ccc(O)cc1)c1ccc(O)cc1O
REMARK SMILES IDX 4 1 3 2 5 3 6 4 7 5 8 6 11 7 10 8 9 9 2 11 1 12 12 13 18 14
REMARK SMILES IDX 13 15 17 16 14 17 15 18 19 19 16 21
REMARK H PARENT 9 10 19 20 16 22
REMARK Flexibility Score: inf
ROOT
ATOM      1  C   UNL     1      21.086  25.593   4.893  1.00  0.00     0.012 C 
ATOM      2  C   UNL     1      21.884  25.959   5.907  1.00  0.00     0.053 C 
ENDROOT
BRANCH   1   3
ATOM      3  C   UNL     1      19.647  25.265   5.050  1.00  0.00    -0.025 A 
ATOM      4  C   UNL     1      19.177  24.338   6.004  1.00  0.00     0.012 A 
ATOM      5  C   UNL     1      17.811  24.057   6.103  1.00  0.00     0.047 A 
ATOM      6  C   UNL     1      16.898  24.685   5.252  1.00  0.00     0.115 A 
ATOM      7  C   UNL     1      18.722  25.879   4.189  1.00  0.00     0.012 A 
ATOM      8  C   UNL     1      17.356  25.596   4.292  1.00  0.00     0.047 A 
BRANCH   6   9
ATOM      9  O   UNL     1      15.540  24.395   5.365  1.00  0.00    -0.508 OA
ATOM     10  H   UNL     1      14.831  25.089   5.155  1.00  0.00     0.293 HD
ENDBRANCH   6   9
ENDBRANCH   1   3
BRANCH   2  11
ATOM     11  C   UNL     1      23.317  26.278   5.724  1.00  0.00     0.189 C 
ATOM     12  O   UNL     1      23.634  27.476   5.496  1.00  0.00    -0.289 OA
BRANCH  11  13
ATOM     13  C   UNL     1      24.383  25.248   5.769  1.00  0.00     0.064 A 
ATOM     14  C   UNL     1      25.596  25.495   6.447  1.00  0.00     0.130 A 
ATOM     15  C   UNL     1      24.214  24.026   5.091  1.00  0.00     0.020 A 
ATOM     16  C   UNL     1      26.604  24.520   6.454  1.00  0.00     0.093 A 
ATOM     17  C   UNL     1      25.223  23.061   5.107  1.00  0.00     0.047 A 
ATOM     18  C   UNL     1      26.421  23.305   5.788  1.00  0.00     0.119 A 
BRANCH  14  19
ATOM     19  O   UNL     1      25.790  26.700   7.122  1.00  0.00    -0.507 OA
ATOM     20  H   UNL     1      26.678  26.930   7.554  1.00  0.00     0.293 HD
ENDBRANCH  14  19
BRANCH  18  21
ATOM     21  O   UNL     1      27.434  22.349   5.809  1.00  0.00    -0.508 OA
ATOM     22  H   UNL     1      27.276  21.420   6.182  1.00  0.00     0.293 HD
ENDBRANCH  18  21
ENDBRANCH  11  13
ENDBRANCH   2  11
TORSDOF 6
ENDMDL
MODEL 8
REMARK VINA RESULT:    -5.034      3.283      7.068
REMARK INTER + INTRA:          -6.719
REMARK INTER:                  -6.058
REMARK INTRA:                  -0.661
REMARK UNBOUND:                -0.360
REMARK SMILES O=C(C=Cc1ccc(O)cc1)c1ccc(O)cc1O
REMARK SMILES IDX 4 1 3 2 5 3 6 4 7 5 8 6 11 7 10 8 9 9 2 11 1 12 12 13 18 14
REMARK SMILES IDX 13 15 17 16 14 17 15 18 19 19 16 21
REMARK H PARENT 9 10 19 20 16 22
REMARK Flexibility Score: inf
ROOT
ATOM      1  C   UNL     1      24.980  22.517   4.865  1.00  0.00     0.012 C 
ATOM      2  C   UNL     1      25.446  23.388   5.772  1.00  0.00     0.053 C 
ENDROOT
BRANCH   1   3
ATOM      3  C   UNL     1      25.818  21.487   4.202  1.00  0.00    -0.025 A 
ATOM      4  C   UNL     1      27.209  21.386   4.411  1.00  0.00     0.012 A 
ATOM      5  C   UNL     1      27.954  20.403   3.752  1.00  0.00     0.047 A 
ATOM      6  C   UNL     1      27.329  19.515   2.873  1.00  0.00     0.115 A 
ATOM      7  C   UNL     1      25.202  20.599   3.304  1.00  0.00     0.012 A 
ATOM      8  C   UNL     1      25.950  19.616   2.647  1.00  0.00     0.047 A 
BRANCH   6   9
ATOM      9  O   UNL     1      28.084  18.540   2.225  1.00  0.00    -0.508 OA
ATOM     10  H   UNL     1      27.715  17.612   2.051  1.00  0.00     0.293 HD
ENDBRANCH   6   9
ENDBRANCH   1   3
BRANCH   2  11
ATOM     11  C   UNL     1      24.590  24.408   6.416  1.00  0.00     0.189 C 
ATOM     12  O   UNL     1      25.147  25.289   7.125  1.00  0.00    -0.289 OA
BRANCH  11  13
ATOM     13  C   UNL     1      23.112  24.418   6.287  1.00  0.00     0.064 A 
ATOM     14  C   UNL     1      22.476  25.270   5.360  1.00  0.00     0.130 A 
ATOM     15  C   UNL     1      22.324  23.608   7.125  1.00  0.00     0.020 A 
ATOM     16  C   UNL     1      21.077  25.288   5.272  1.00  0.00     0.093 A 
ATOM     17  C   UNL     1      20.932  23.630   7.027  1.00  0.00     0.047 A 
ATOM     18  C   UNL     1      20.304  24.469   6.100  1.00  0.00     0.119 A 
BRANCH  14  19
ATOM     19  O   UNL     1      23.235  26.087   4.521  1.00  0.00    -0.507 OA
ATOM     20  H   UNL     1      23.479  25.801   3.579  1.00  0.00     0.293 HD
ENDBRANCH  14  19
BRANCH  18  21
ATOM     21  O   UNL     1      18.915  24.499   5.995  1.00  0.00    -0.508 OA
ATOM     22  H   UNL     1      18.423  23.921   5.322  1.00  0.00     0.293 HD
ENDBRANCH  18  21
ENDBRANCH  11  13
ENDBRANCH   2  11
TORSDOF 6
ENDMDL
MODEL 9
REMARK VINA RESULT:    -4.982      4.869      6.704
REMARK INTER + INTRA:          -6.653
REMARK INTER:                  -5.955
REMARK INTRA:                  -0.698
REMARK UNBOUND:                -0.360
REMARK SMILES O=C(C=Cc1ccc(O)cc1)c1ccc(O)cc1O
REMARK SMILES IDX 4 1 3 2 5 3 6 4 7 5 8 6 11 7 10 8 9 9 2 11 1 12 12 13 18 14
REMARK SMILES IDX 13 15 17 16 14 17 15 18 19 19 16 21
REMARK H PARENT 9 10 19 20 16 22
REMARK Flexibility Score: inf
ROOT
ATOM      1  C   UNL     1      21.084  25.619   5.241  1.00  0.00     0.012 C 
ATOM      2  C   UNL     1      21.573  26.694   5.879  1.00  0.00     0.053 C 
ENDROOT
BRANCH   1   3
ATOM      3  C   UNL     1      19.637  25.318   5.118  1.00  0.00    -0.025 A 
ATOM      4  C   UNL     1      18.805  25.951   4.170  1.00  0.00     0.012 A 
ATOM      5  C   UNL     1      17.444  25.638   4.103  1.00  0.00     0.047 A 
ATOM      6  C   UNL     1      16.891  24.701   4.980  1.00  0.00     0.115 A 
ATOM      7  C   UNL     1      19.067  24.390   6.006  1.00  0.00     0.012 A 
ATOM      8  C   UNL     1      17.706  24.079   5.935  1.00  0.00     0.047 A 
BRANCH   6   9
ATOM      9  O   UNL     1      15.534  24.400   4.900  1.00  0.00    -0.508 OA
ATOM     10  H   UNL     1      15.195  23.626   4.338  1.00  0.00     0.293 HD
ENDBRANCH   6   9
ENDBRANCH   1   3
BRANCH   2  11
ATOM     11  C   UNL     1      23.022  26.969   5.991  1.00  0.00     0.189 C 
ATOM     12  O   UNL     1      23.397  28.172   6.014  1.00  0.00    -0.289 OA
BRANCH  11  13
ATOM     13  C   UNL     1      24.044  25.895   6.048  1.00  0.00     0.064 A 
ATOM     14  C   UNL     1      25.048  25.805   5.062  1.00  0.00     0.130 A 
ATOM     15  C   UNL     1      23.992  24.924   7.064  1.00  0.00     0.020 A 
ATOM     16  C   UNL     1      25.989  24.766   5.115  1.00  0.00     0.093 A 
ATOM     17  C   UNL     1      24.934  23.895   7.110  1.00  0.00     0.047 A 
ATOM     18  C   UNL     1      25.936  23.813   6.136  1.00  0.00     0.119 A 
BRANCH  14  19
ATOM     19  O   UNL     1      25.119  26.754   4.041  1.00  0.00    -0.507 OA
ATOM     20  H   UNL     1      25.091  27.748   4.237  1.00  0.00     0.293 HD
ENDBRANCH  14  19
BRANCH  18  21
ATOM     21  O   UNL     1      26.881  22.790   6.172  1.00  0.00    -0.508 OA
ATOM     22  H   UNL     1      26.759  21.937   5.638  1.00  0.00     0.293 HD
ENDBRANCH  18  21
ENDBRANCH  11  13
ENDBRANCH   2  11
TORSDOF 6
ENDMDL
