MODEL 1
REMARK VINA RESULT:    -4.768      0.000      0.000
REMARK INTER + INTRA:          -5.541
REMARK INTER:                  -5.465
REMARK INTRA:                  -0.076
REMARK UNBOUND:                -0.076
REMARK SMILES C=Cc1ccc(O)c(OC)c1
REMARK SMILES IDX 8 1 6 2 5 3 4 4 3 5 11 6 9 7 10 8 7 9 2 11 1 12
REMARK H PARENT 7 10
REMARK Flexibility Score: inf
ROOT
ATOM      1  C   UNL     1       8.274  -8.250  42.475  1.00  0.00     0.161 A 
ATOM      2  C   UNL     1       8.285  -8.653  43.822  1.00  0.00     0.157 A 
ATOM      3  C   UNL     1       7.531  -9.758  44.227  1.00  0.00     0.051 A 
ATOM      4  C   UNL     1       6.769 -10.471  43.301  1.00  0.00     0.012 A 
ATOM      5  C   UNL     1       6.754 -10.098  41.949  1.00  0.00    -0.022 A 
ATOM      6  C   UNL     1       7.502  -8.975  41.544  1.00  0.00     0.058 A 
ENDROOT
BRANCH   1   7
ATOM      7  O   UNL     1       9.035  -7.130  42.100  1.00  0.00    -0.493 OA
ATOM      8  C   UNL     1       8.561  -6.068  41.278  1.00  0.00     0.278 C 
ENDBRANCH   1   7
BRANCH   2   9
ATOM      9  O   UNL     1       9.037  -7.966  44.775  1.00  0.00    -0.504 OA
ATOM     10  H   UNL     1       9.978  -8.245  45.025  1.00  0.00     0.293 HD
ENDBRANCH   2   9
BRANCH   5  11
ATOM     11  C   UNL     1       5.921 -10.887  41.008  1.00  0.00     0.000 C 
ATOM     12  C   UNL     1       6.296 -11.216  39.771  1.00  0.00     0.009 C 
ENDBRANCH   5  11
TORSDOF 3
ENDMDL
MODEL 2
REMARK VINA RESULT:    -4.477      1.711      3.951
REMARK INTER + INTRA:          -5.207
REMARK INTER:                  -5.093
REMARK INTRA:                  -0.115
REMARK UNBOUND:                -0.076
REMARK SMILES C=Cc1ccc(O)c(OC)c1
REMARK SMILES IDX 8 1 6 2 5 3 4 4 3 5 11 6 9 7 10 8 7 9 2 11 1 12
REMARK H PARENT 7 10
REMARK Flexibility Score: inf
ROOT
ATOM      1  C   UNL     1       7.598  -9.126  42.497  1.00  0.00     0.161 A 
ATOM      2  C   UNL     1       7.835  -8.860  43.856  1.00  0.00     0.157 A 
ATOM      3  C   UNL     1       8.123  -7.558  44.275  1.00  0.00     0.051 A 
ATOM      4  C   UNL     1       8.174  -6.514  43.351  1.00  0.00     0.012 A 
ATOM      5  C   UNL     1       7.926  -6.751  41.991  1.00  0.00    -0.022 A 
ATOM      6  C   UNL     1       7.649  -8.066  41.567  1.00  0.00     0.058 A 
ENDROOT
BRANCH   1   7
ATOM      7  O   UNL     1       7.319 -10.446  42.106  1.00  0.00    -0.493 OA
ATOM      8  C   UNL     1       6.056 -10.899  41.626  1.00  0.00     0.278 C 
ENDBRANCH   1   7
BRANCH   2   9
ATOM      9  O   UNL     1       7.790  -9.878  44.809  1.00  0.00    -0.504 OA
ATOM     10  H   UNL     1       7.754  -9.687  45.803  1.00  0.00     0.293 HD
ENDBRANCH   2   9
BRANCH   5  11
ATOM     11  C   UNL     1       7.998  -5.605  41.049  1.00  0.00     0.000 C 
ATOM     12  C   UNL     1       7.936  -4.326  41.420  1.00  0.00     0.009 C 
ENDBRANCH   5  11
TORSDOF 3
ENDMDL
MODEL 3
REMARK VINA RESULT:    -4.276     14.212     15.272
REMARK INTER + INTRA:          -4.977
REMARK INTER:                  -4.867
REMARK INTRA:                  -0.109
REMARK UNBOUND:                -0.076
REMARK SMILES C=Cc1ccc(O)c(OC)c1
REMARK SMILES IDX 8 1 6 2 5 3 4 4 3 5 11 6 9 7 10 8 7 9 2 11 1 12
REMARK H PARENT 7 10
REMARK Flexibility Score: inf
ROOT
ATOM      1  C   UNL     1      22.047 -13.691  46.564  1.00  0.00     0.161 A 
ATOM      2  C   UNL     1      22.674 -12.569  47.133  1.00  0.00     0.157 A 
ATOM      3  C   UNL     1      22.272 -11.282  46.765  1.00  0.00     0.051 A 
ATOM      4  C   UNL     1      21.245 -11.100  45.838  1.00  0.00     0.012 A 
ATOM      5  C   UNL     1      20.594 -12.204  45.268  1.00  0.00    -0.022 A 
ATOM      6  C   UNL     1      21.010 -13.501  45.628  1.00  0.00     0.058 A 
ENDROOT
BRANCH   1   7
ATOM      7  O   UNL     1      22.480 -14.971  46.947  1.00  0.00    -0.493 OA
ATOM      8  C   UNL     1      23.479 -15.725  46.267  1.00  0.00     0.278 C 
ENDBRANCH   1   7
BRANCH   2   9
ATOM      9  O   UNL     1      23.703 -12.711  48.065  1.00  0.00    -0.504 OA
ATOM     10  H   UNL     1      24.248 -11.923  48.393  1.00  0.00     0.293 HD
ENDBRANCH   2   9
BRANCH   5  11
ATOM     11  C   UNL     1      19.512 -11.954  44.283  1.00  0.00     0.000 C 
ATOM     12  C   UNL     1      18.765 -10.850  44.254  1.00  0.00     0.009 C 
ENDBRANCH   5  11
TORSDOF 3
ENDMDL
MODEL 4
REMARK VINA RESULT:    -4.237     16.462     17.423
REMARK INTER + INTRA:          -4.933
REMARK INTER:                  -4.827
REMARK INTRA:                  -0.106
REMARK UNBOUND:                -0.076
REMARK SMILES C=Cc1ccc(O)c(OC)c1
REMARK SMILES IDX 8 1 6 2 5 3 4 4 3 5 11 6 9 7 10 8 7 9 2 11 1 12
REMARK H PARENT 7 10
REMARK Flexibility Score: inf
ROOT
ATOM      1  C   UNL     1      24.069 -11.954  47.024  1.00  0.00     0.161 A 
ATOM      2  C   UNL     1      22.671 -12.062  46.919  1.00  0.00     0.157 A 
ATOM      3  C   UNL     1      22.074 -13.319  46.789  1.00  0.00     0.051 A 
ATOM      4  C   UNL     1      22.856 -14.473  46.769  1.00  0.00     0.012 A 
ATOM      5  C   UNL     1      24.252 -14.394  46.888  1.00  0.00    -0.022 A 
ATOM      6  C   UNL     1      24.854 -13.125  47.004  1.00  0.00     0.058 A 
ENDROOT
BRANCH   1   7
ATOM      7  O   UNL     1      24.640 -10.676  47.144  1.00  0.00    -0.493 OA
ATOM      8  C   UNL     1      25.073  -9.877  46.048  1.00  0.00     0.278 C 
ENDBRANCH   1   7
BRANCH   2   9
ATOM      9  O   UNL     1      21.857 -10.929  46.938  1.00  0.00    -0.504 OA
ATOM     10  H   UNL     1      22.234  -9.991  46.888  1.00  0.00     0.293 HD
ENDBRANCH   2   9
BRANCH   5  11
ATOM     11  C   UNL     1      25.037 -15.653  46.854  1.00  0.00     0.000 C 
ATOM     12  C   UNL     1      24.562 -16.842  47.228  1.00  0.00     0.009 C 
ENDBRANCH   5  11
TORSDOF 3
ENDMDL
MODEL 5
REMARK VINA RESULT:    -4.224      2.346      4.051
REMARK INTER + INTRA:          -4.917
REMARK INTER:                  -4.825
REMARK INTRA:                  -0.092
REMARK UNBOUND:                -0.076
REMARK SMILES C=Cc1ccc(O)c(OC)c1
REMARK SMILES IDX 8 1 6 2 5 3 4 4 3 5 11 6 9 7 10 8 7 9 2 11 1 12
REMARK H PARENT 7 10
REMARK Flexibility Score: inf
ROOT
ATOM      1  C   UNL     1       6.672 -10.119  41.790  1.00  0.00     0.161 A 
ATOM      2  C   UNL     1       6.427 -10.850  42.965  1.00  0.00     0.157 A 
ATOM      3  C   UNL     1       7.019 -10.458  44.169  1.00  0.00     0.051 A 
ATOM      4  C   UNL     1       7.852  -9.340  44.216  1.00  0.00     0.012 A 
ATOM      5  C   UNL     1       8.100  -8.585  43.060  1.00  0.00    -0.022 A 
ATOM      6  C   UNL     1       7.514  -8.988  41.843  1.00  0.00     0.058 A 
ENDROOT
BRANCH   1   7
ATOM      7  O   UNL     1       6.070 -10.543  40.594  1.00  0.00    -0.493 OA
ATOM      8  C   UNL     1       6.698 -11.370  39.620  1.00  0.00     0.278 C 
ENDBRANCH   1   7
BRANCH   2   9
ATOM      9  O   UNL     1       5.598 -11.972  42.958  1.00  0.00    -0.504 OA
ATOM     10  H   UNL     1       5.820 -12.804  42.425  1.00  0.00     0.293 HD
ENDBRANCH   2   9
BRANCH   5  11
ATOM     11  C   UNL     1       8.998  -7.408  43.164  1.00  0.00     0.000 C 
ATOM     12  C   UNL     1       8.617  -6.151  42.932  1.00  0.00     0.009 C 
ENDBRANCH   5  11
TORSDOF 3
ENDMDL
MODEL 6
REMARK VINA RESULT:    -4.197     13.738     14.714
REMARK INTER + INTRA:          -4.887
REMARK INTER:                  -4.799
REMARK INTRA:                  -0.088
REMARK UNBOUND:                -0.076
REMARK SMILES C=Cc1ccc(O)c(OC)c1
REMARK SMILES IDX 8 1 6 2 5 3 4 4 3 5 11 6 9 7 10 8 7 9 2 11 1 12
REMARK H PARENT 7 10
REMARK Flexibility Score: inf
ROOT
ATOM      1  C   UNL     1      22.139 -12.712  46.466  1.00  0.00     0.161 A 
ATOM      2  C   UNL     1      21.541 -13.984  46.500  1.00  0.00     0.157 A 
ATOM      3  C   UNL     1      20.371 -14.227  45.775  1.00  0.00     0.051 A 
ATOM      4  C   UNL     1      19.790 -13.214  45.011  1.00  0.00     0.012 A 
ATOM      5  C   UNL     1      20.375 -11.941  44.949  1.00  0.00    -0.022 A 
ATOM      6  C   UNL     1      21.547 -11.693  45.691  1.00  0.00     0.058 A 
ENDROOT
BRANCH   1   7
ATOM      7  O   UNL     1      23.309 -12.496  47.212  1.00  0.00    -0.493 OA
ATOM      8  C   UNL     1      24.083 -11.301  47.176  1.00  0.00     0.278 C 
ENDBRANCH   1   7
BRANCH   2   9
ATOM      9  O   UNL     1      22.095 -15.022  47.251  1.00  0.00    -0.504 OA
ATOM     10  H   UNL     1      22.568 -15.807  46.821  1.00  0.00     0.293 HD
ENDBRANCH   2   9
BRANCH   5  11
ATOM     11  C   UNL     1      19.713 -10.898  44.126  1.00  0.00     0.000 C 
ATOM     12  C   UNL     1      18.419 -10.588  44.211  1.00  0.00     0.009 C 
ENDBRANCH   5  11
TORSDOF 3
ENDMDL
MODEL 7
REMARK VINA RESULT:    -4.167      7.814      9.854
REMARK INTER + INTRA:          -4.852
REMARK INTER:                  -4.746
REMARK INTRA:                  -0.106
REMARK UNBOUND:                -0.076
REMARK SMILES C=Cc1ccc(O)c(OC)c1
REMARK SMILES IDX 8 1 6 2 5 3 4 4 3 5 11 6 9 7 10 8 7 9 2 11 1 12
REMARK H PARENT 7 10
REMARK Flexibility Score: inf
ROOT
ATOM      1  C   UNL     1       6.924  -2.311  37.686  1.00  0.00     0.161 A 
ATOM      2  C   UNL     1       7.593  -3.163  36.790  1.00  0.00     0.157 A 
ATOM      3  C   UNL     1       7.494  -2.948  35.413  1.00  0.00     0.051 A 
ATOM      4  C   UNL     1       6.736  -1.887  34.917  1.00  0.00     0.012 A 
ATOM      5  C   UNL     1       6.072  -1.013  35.790  1.00  0.00    -0.022 A 
ATOM      6  C   UNL     1       6.160  -1.239  37.178  1.00  0.00     0.058 A 
ENDROOT
BRANCH   1   7
ATOM      7  O   UNL     1       7.036  -2.558  39.064  1.00  0.00    -0.493 OA
ATOM      8  C   UNL     1       7.972  -1.920  39.928  1.00  0.00     0.278 C 
ENDBRANCH   1   7
BRANCH   2   9
ATOM      9  O   UNL     1       8.361  -4.233  37.250  1.00  0.00    -0.504 OA
ATOM     10  H   UNL     1       7.945  -5.100  37.568  1.00  0.00     0.293 HD
ENDBRANCH   2   9
BRANCH   5  11
ATOM     11  C   UNL     1       5.275   0.096  35.209  1.00  0.00     0.000 C 
ATOM     12  C   UNL     1       5.774   1.036  34.405  1.00  0.00     0.009 C 
ENDBRANCH   5  11
TORSDOF 3
ENDMDL
MODEL 8
REMARK VINA RESULT:    -4.070      7.410      9.055
REMARK INTER + INTRA:          -4.741
REMARK INTER:                  -4.629
REMARK INTRA:                  -0.112
REMARK UNBOUND:                -0.076
REMARK SMILES C=Cc1ccc(O)c(OC)c1
REMARK SMILES IDX 8 1 6 2 5 3 4 4 3 5 11 6 9 7 10 8 7 9 2 11 1 12
REMARK H PARENT 7 10
REMARK Flexibility Score: inf
ROOT
ATOM      1  C   UNL     1       7.482  -3.525  36.176  1.00  0.00     0.161 A 
ATOM      2  C   UNL     1       6.656  -2.425  35.888  1.00  0.00     0.157 A 
ATOM      3  C   UNL     1       6.234  -1.579  36.917  1.00  0.00     0.051 A 
ATOM      4  C   UNL     1       6.631  -1.814  38.233  1.00  0.00     0.012 A 
ATOM      5  C   UNL     1       7.467  -2.896  38.544  1.00  0.00    -0.022 A 
ATOM      6  C   UNL     1       7.881  -3.758  37.509  1.00  0.00     0.058 A 
ENDROOT
BRANCH   1   7
ATOM      7  O   UNL     1       7.883  -4.363  35.122  1.00  0.00    -0.493 OA
ATOM      8  C   UNL     1       9.179  -4.358  34.532  1.00  0.00     0.278 C 
ENDBRANCH   1   7
BRANCH   2   9
ATOM      9  O   UNL     1       6.241  -2.157  34.583  1.00  0.00    -0.504 OA
ATOM     10  H   UNL     1       5.269  -1.995  34.347  1.00  0.00     0.293 HD
ENDBRANCH   2   9
BRANCH   5  11
ATOM     11  C   UNL     1       7.854  -3.105  39.962  1.00  0.00     0.000 C 
ATOM     12  C   UNL     1       8.219  -2.126  40.790  1.00  0.00     0.009 C 
ENDBRANCH   5  11
TORSDOF 3
ENDMDL
