MODEL 1
REMARK VINA RESULT:    -5.328      0.000      0.000
REMARK INTER + INTRA:          -5.484
REMARK INTER:                  -5.484
REMARK INTRA:                   0.000
REMARK UNBOUND:                 0.000
REMARK SMILES O=c1ccc2ccc(O)cc2o1
REMARK SMILES IDX 6 1 7 2 8 3 10 4 11 5 5 6 4 7 3 8 2 9 1 10 12 11 9 12
REMARK H PARENT 9 13
REMARK Flexibility Score: inf
ROOT
ATOM      1  C   UNL     1      16.623 -32.528 -20.993  1.00  0.00     0.016 A 
ATOM      2  C   UNL     1      17.307 -33.748 -21.012  1.00  0.00     0.047 A 
ATOM      3  C   UNL     1      18.645 -33.803 -21.421  1.00  0.00     0.119 A 
ATOM      4  C   UNL     1      19.305 -32.629 -21.814  1.00  0.00     0.094 A 
ATOM      5  C   UNL     1      18.630 -31.403 -21.798  1.00  0.00     0.142 A 
ATOM      6  C   UNL     1      17.279 -31.353 -21.385  1.00  0.00     0.018 A 
ATOM      7  C   UNL     1      16.631 -30.114 -21.380  1.00  0.00     0.019 A 
ATOM      8  C   UNL     1      17.328 -28.975 -21.779  1.00  0.00     0.094 A 
ATOM      9  C   UNL     1      18.664 -29.101 -22.175  1.00  0.00     0.336 A 
ATOM     10  O   UNL     1      19.310 -28.084 -22.539  1.00  0.00    -0.246 OA
ATOM     11  O   UNL     1      19.259 -30.292 -22.171  1.00  0.00    -0.423 OA
ENDROOT
BRANCH   3  12
ATOM     12  O   UNL     1      19.309 -35.027 -21.433  1.00  0.00    -0.508 OA
ATOM     13  H   UNL     1      19.289 -35.650 -20.635  1.00  0.00     0.293 HD
ENDBRANCH   3  12
TORSDOF 1
ENDMDL
MODEL 2
REMARK VINA RESULT:    -5.305     14.095     14.767
REMARK INTER + INTRA:          -5.460
REMARK INTER:                  -5.460
REMARK INTRA:                   0.000
REMARK UNBOUND:                 0.000
REMARK SMILES O=c1ccc2ccc(O)cc2o1
REMARK SMILES IDX 6 1 7 2 8 3 10 4 11 5 5 6 4 7 3 8 2 9 1 10 12 11 9 12
REMARK H PARENT 9 13
REMARK Flexibility Score: inf
ROOT
ATOM      1  C   UNL     1      10.568 -26.840 -11.349  1.00  0.00     0.016 A 
ATOM      2  C   UNL     1      11.318 -26.152 -10.390  1.00  0.00     0.047 A 
ATOM      3  C   UNL     1      11.134 -24.777 -10.202  1.00  0.00     0.119 A 
ATOM      4  C   UNL     1      10.193 -24.084 -10.978  1.00  0.00     0.094 A 
ATOM      5  C   UNL     1       9.437 -24.764 -11.939  1.00  0.00     0.142 A 
ATOM      6  C   UNL     1       9.626 -26.152 -12.126  1.00  0.00     0.018 A 
ATOM      7  C   UNL     1       8.857 -26.805 -13.094  1.00  0.00     0.019 A 
ATOM      8  C   UNL     1       7.934 -26.074 -13.841  1.00  0.00     0.094 A 
ATOM      9  C   UNL     1       7.800 -24.702 -13.601  1.00  0.00     0.336 A 
ATOM     10  O   UNL     1       6.972 -24.026 -14.265  1.00  0.00    -0.246 OA
ATOM     11  O   UNL     1       8.544 -24.105 -12.674  1.00  0.00    -0.423 OA
ENDROOT
BRANCH   3  12
ATOM     12  O   UNL     1      11.891 -24.108  -9.243  1.00  0.00    -0.508 OA
ATOM     13  H   UNL     1      12.654 -24.563  -8.756  1.00  0.00     0.293 HD
ENDBRANCH   3  12
TORSDOF 1
ENDMDL
MODEL 3
REMARK VINA RESULT:    -5.225     15.117     16.391
REMARK INTER + INTRA:          -5.377
REMARK INTER:                  -5.377
REMARK INTRA:                   0.000
REMARK UNBOUND:                 0.000
REMARK SMILES O=c1ccc2ccc(O)cc2o1
REMARK SMILES IDX 6 1 7 2 8 3 10 4 11 5 5 6 4 7 3 8 2 9 1 10 12 11 9 12
REMARK H PARENT 9 13
REMARK Flexibility Score: inf
ROOT
ATOM      1  C   UNL     1       9.263 -25.228 -10.704  1.00  0.00     0.016 A 
ATOM      2  C   UNL     1       8.551 -25.473  -9.527  1.00  0.00     0.047 A 
ATOM      3  C   UNL     1       7.215 -25.071  -9.412  1.00  0.00     0.119 A 
ATOM      4  C   UNL     1       6.585 -24.419 -10.482  1.00  0.00     0.094 A 
ATOM      5  C   UNL     1       7.290 -24.169 -11.666  1.00  0.00     0.142 A 
ATOM      6  C   UNL     1       8.638 -24.576 -11.777  1.00  0.00     0.018 A 
ATOM      7  C   UNL     1       9.317 -24.313 -12.971  1.00  0.00     0.019 A 
ATOM      8  C   UNL     1       8.650 -23.662 -14.007  1.00  0.00     0.094 A 
ATOM      9  C   UNL     1       7.314 -23.288 -13.826  1.00  0.00     0.336 A 
ATOM     10  O   UNL     1       6.695 -22.699 -14.751  1.00  0.00    -0.246 OA
ATOM     11  O   UNL     1       6.691 -23.551 -12.680  1.00  0.00    -0.423 OA
ENDROOT
BRANCH   3  12
ATOM     12  O   UNL     1       6.520 -25.324  -8.231  1.00  0.00    -0.508 OA
ATOM     13  H   UNL     1       6.545 -24.677  -7.452  1.00  0.00     0.293 HD
ENDBRANCH   3  12
TORSDOF 1
ENDMDL
MODEL 4
REMARK VINA RESULT:    -5.194      9.513     10.674
REMARK INTER + INTRA:          -5.346
REMARK INTER:                  -5.346
REMARK INTRA:                   0.000
REMARK UNBOUND:                 0.000
REMARK SMILES O=c1ccc2ccc(O)cc2o1
REMARK SMILES IDX 6 1 7 2 8 3 10 4 11 5 5 6 4 7 3 8 2 9 1 10 12 11 9 12
REMARK H PARENT 9 13
REMARK Flexibility Score: inf
ROOT
ATOM      1  C   UNL     1       8.439 -32.431 -20.653  1.00  0.00     0.016 A 
ATOM      2  C   UNL     1       7.734 -31.223 -20.639  1.00  0.00     0.047 A 
ATOM      3  C   UNL     1       7.626 -30.481 -19.457  1.00  0.00     0.119 A 
ATOM      4  C   UNL     1       8.227 -30.949 -18.279  1.00  0.00     0.094 A 
ATOM      5  C   UNL     1       8.935 -32.157 -18.283  1.00  0.00     0.142 A 
ATOM      6  C   UNL     1       9.042 -32.902 -19.478  1.00  0.00     0.018 A 
ATOM      7  C   UNL     1       9.755 -34.104 -19.452  1.00  0.00     0.019 A 
ATOM      8  C   UNL     1      10.335 -34.529 -18.258  1.00  0.00     0.094 A 
ATOM      9  C   UNL     1      10.189 -33.739 -17.113  1.00  0.00     0.336 A 
ATOM     10  O   UNL     1      10.705 -34.106 -16.025  1.00  0.00    -0.246 OA
ATOM     11  O   UNL     1       9.505 -32.598 -17.164  1.00  0.00    -0.423 OA
ENDROOT
BRANCH   3  12
ATOM     12  O   UNL     1       6.919 -29.281 -19.461  1.00  0.00    -0.508 OA
ATOM     13  H   UNL     1       7.004 -28.618 -20.223  1.00  0.00     0.293 HD
ENDBRANCH   3  12
TORSDOF 1
ENDMDL
MODEL 5
REMARK VINA RESULT:    -5.190      8.433      9.258
REMARK INTER + INTRA:          -5.342
REMARK INTER:                  -5.342
REMARK INTRA:                   0.000
REMARK UNBOUND:                 0.000
REMARK SMILES O=c1ccc2ccc(O)cc2o1
REMARK SMILES IDX 6 1 7 2 8 3 10 4 11 5 5 6 4 7 3 8 2 9 1 10 12 11 9 12
REMARK H PARENT 9 13
REMARK Flexibility Score: inf
ROOT
ATOM      1  C   UNL     1       7.608 -32.299 -19.779  1.00  0.00     0.016 A 
ATOM      2  C   UNL     1       8.480 -33.377 -19.598  1.00  0.00     0.047 A 
ATOM      3  C   UNL     1       9.845 -33.237 -19.875  1.00  0.00     0.119 A 
ATOM      4  C   UNL     1      10.343 -32.010 -20.337  1.00  0.00     0.094 A 
ATOM      5  C   UNL     1       9.478 -30.925 -20.521  1.00  0.00     0.142 A 
ATOM      6  C   UNL     1       8.101 -31.070 -20.240  1.00  0.00     0.018 A 
ATOM      7  C   UNL     1       7.262 -29.970 -20.434  1.00  0.00     0.019 A 
ATOM      8  C   UNL     1       7.802 -28.770 -20.895  1.00  0.00     0.094 A 
ATOM      9  C   UNL     1       9.176 -28.699 -21.152  1.00  0.00     0.336 A 
ATOM     10  O   UNL     1       9.682 -27.624 -21.569  1.00  0.00    -0.246 OA
ATOM     11  O   UNL     1       9.953 -29.761 -20.959  1.00  0.00    -0.423 OA
ENDROOT
BRANCH   3  12
ATOM     12  O   UNL     1      10.699 -34.322 -19.689  1.00  0.00    -0.508 OA
ATOM     13  H   UNL     1      11.697 -34.243 -19.840  1.00  0.00     0.293 HD
ENDBRANCH   3  12
TORSDOF 1
ENDMDL
MODEL 6
REMARK VINA RESULT:    -5.171      7.752      9.342
REMARK INTER + INTRA:          -5.322
REMARK INTER:                  -5.322
REMARK INTRA:                   0.000
REMARK UNBOUND:                 0.000
REMARK SMILES O=c1ccc2ccc(O)cc2o1
REMARK SMILES IDX 6 1 7 2 8 3 10 4 11 5 5 6 4 7 3 8 2 9 1 10 12 11 9 12
REMARK H PARENT 9 13
REMARK Flexibility Score: inf
ROOT
ATOM      1  C   UNL     1       8.104 -33.334 -19.458  1.00  0.00     0.016 A 
ATOM      2  C   UNL     1       7.596 -32.135 -19.968  1.00  0.00     0.047 A 
ATOM      3  C   UNL     1       8.464 -31.118 -20.381  1.00  0.00     0.119 A 
ATOM      4  C   UNL     1       9.852 -31.300 -20.284  1.00  0.00     0.094 A 
ATOM      5  C   UNL     1      10.370 -32.497 -19.776  1.00  0.00     0.142 A 
ATOM      6  C   UNL     1       9.490 -33.521 -19.360  1.00  0.00     0.018 A 
ATOM      7  C   UNL     1      10.036 -34.705 -18.856  1.00  0.00     0.019 A 
ATOM      8  C   UNL     1      11.421 -34.841 -18.779  1.00  0.00     0.094 A 
ATOM      9  C   UNL     1      12.231 -33.785 -19.210  1.00  0.00     0.336 A 
ATOM     10  O   UNL     1      13.485 -33.888 -19.147  1.00  0.00    -0.246 OA
ATOM     11  O   UNL     1      11.686 -32.668 -19.685  1.00  0.00    -0.423 OA
ENDROOT
BRANCH   3  12
ATOM     12  O   UNL     1       7.940 -29.930 -20.885  1.00  0.00    -0.508 OA
ATOM     13  H   UNL     1       7.573 -29.870 -21.828  1.00  0.00     0.293 HD
ENDBRANCH   3  12
TORSDOF 1
ENDMDL
MODEL 7
REMARK VINA RESULT:    -5.120      8.591     10.312
REMARK INTER + INTRA:          -5.269
REMARK INTER:                  -5.269
REMARK INTRA:                   0.000
REMARK UNBOUND:                 0.000
REMARK SMILES O=c1ccc2ccc(O)cc2o1
REMARK SMILES IDX 6 1 7 2 8 3 10 4 11 5 5 6 4 7 3 8 2 9 1 10 12 11 9 12
REMARK H PARENT 9 13
REMARK Flexibility Score: inf
ROOT
ATOM      1  C   UNL     1       7.103 -29.597 -20.602  1.00  0.00     0.016 A 
ATOM      2  C   UNL     1       7.635 -28.369 -21.006  1.00  0.00     0.047 A 
ATOM      3  C   UNL     1       9.012 -28.231 -21.221  1.00  0.00     0.119 A 
ATOM      4  C   UNL     1       9.863 -29.330 -21.030  1.00  0.00     0.094 A 
ATOM      5  C   UNL     1       9.339 -30.563 -20.627  1.00  0.00     0.142 A 
ATOM      6  C   UNL     1       7.949 -30.698 -20.411  1.00  0.00     0.018 A 
ATOM      7  C   UNL     1       7.455 -31.942 -20.008  1.00  0.00     0.019 A 
ATOM      8  C   UNL     1       8.340 -33.004 -19.832  1.00  0.00     0.094 A 
ATOM      9  C   UNL     1       9.704 -32.798 -20.064  1.00  0.00     0.336 A 
ATOM     10  O   UNL     1      10.518 -33.746 -19.910  1.00  0.00    -0.246 OA
ATOM     11  O   UNL     1      10.149 -31.604 -20.447  1.00  0.00    -0.423 OA
ENDROOT
BRANCH   3  12
ATOM     12  O   UNL     1       9.525 -27.000 -21.623  1.00  0.00    -0.508 OA
ATOM     13  H   UNL     1       9.303 -26.603 -22.528  1.00  0.00     0.293 HD
ENDBRANCH   3  12
TORSDOF 1
ENDMDL
MODEL 8
REMARK VINA RESULT:    -5.087      7.736      8.689
REMARK INTER + INTRA:          -5.236
REMARK INTER:                  -5.236
REMARK INTRA:                   0.000
REMARK UNBOUND:                 0.000
REMARK SMILES O=c1ccc2ccc(O)cc2o1
REMARK SMILES IDX 6 1 7 2 8 3 10 4 11 5 5 6 4 7 3 8 2 9 1 10 12 11 9 12
REMARK H PARENT 9 13
REMARK Flexibility Score: inf
ROOT
ATOM      1  C   UNL     1       9.784 -34.571 -18.980  1.00  0.00     0.016 A 
ATOM      2  C   UNL     1      11.140 -34.816 -18.740  1.00  0.00     0.047 A 
ATOM      3  C   UNL     1      12.096 -33.832 -19.018  1.00  0.00     0.119 A 
ATOM      4  C   UNL     1      11.694 -32.594 -19.541  1.00  0.00     0.094 A 
ATOM      5  C   UNL     1      10.340 -32.339 -19.784  1.00  0.00     0.142 A 
ATOM      6  C   UNL     1       9.378 -33.335 -19.502  1.00  0.00     0.018 A 
ATOM      7  C   UNL     1       8.033 -33.053 -19.755  1.00  0.00     0.019 A 
ATOM      8  C   UNL     1       7.681 -31.808 -20.275  1.00  0.00     0.094 A 
ATOM      9  C   UNL     1       8.688 -30.870 -20.530  1.00  0.00     0.336 A 
ATOM     10  O   UNL     1       8.390 -29.740 -21.000  1.00  0.00    -0.246 OA
ATOM     11  O   UNL     1       9.962 -31.164 -20.280  1.00  0.00    -0.423 OA
ENDROOT
BRANCH   3  12
ATOM     12  O   UNL     1      13.442 -34.094 -18.773  1.00  0.00    -0.508 OA
ATOM     13  H   UNL     1      13.789 -35.040 -18.672  1.00  0.00     0.293 HD
ENDBRANCH   3  12
TORSDOF 1
ENDMDL
MODEL 9
REMARK VINA RESULT:    -5.053      2.510      3.705
REMARK INTER + INTRA:          -5.201
REMARK INTER:                  -5.201
REMARK INTRA:                   0.000
REMARK UNBOUND:                 0.000
REMARK SMILES O=c1ccc2ccc(O)cc2o1
REMARK SMILES IDX 6 1 7 2 8 3 10 4 11 5 5 6 4 7 3 8 2 9 1 10 12 11 9 12
REMARK H PARENT 9 13
REMARK Flexibility Score: inf
ROOT
ATOM      1  C   UNL     1      18.211 -31.023 -21.410  1.00  0.00     0.016 A 
ATOM      2  C   UNL     1      19.213 -31.934 -21.757  1.00  0.00     0.047 A 
ATOM      3  C   UNL     1      18.958 -33.310 -21.729  1.00  0.00     0.119 A 
ATOM      4  C   UNL     1      17.691 -33.780 -21.353  1.00  0.00     0.094 A 
ATOM      5  C   UNL     1      16.681 -32.875 -21.005  1.00  0.00     0.142 A 
ATOM      6  C   UNL     1      16.943 -31.487 -21.033  1.00  0.00     0.018 A 
ATOM      7  C   UNL     1      15.915 -30.608 -20.680  1.00  0.00     0.019 A 
ATOM      8  C   UNL     1      14.673 -31.121 -20.312  1.00  0.00     0.094 A 
ATOM      9  C   UNL     1      14.485 -32.507 -20.308  1.00  0.00     0.336 A 
ATOM     10  O   UNL     1      13.369 -32.990 -19.978  1.00  0.00    -0.246 OA
ATOM     11  O   UNL     1      15.480 -33.323 -20.648  1.00  0.00    -0.423 OA
ENDROOT
BRANCH   3  12
ATOM     12  O   UNL     1      19.969 -34.203 -22.078  1.00  0.00    -0.508 OA
ATOM     13  H   UNL     1      20.543 -34.655 -21.376  1.00  0.00     0.293 HD
ENDBRANCH   3  12
TORSDOF 1
ENDMDL
