MODEL 1
REMARK VINA RESULT:    -3.955      0.000      0.000
REMARK INTER + INTRA:          -8.951
REMARK INTER:                  -7.192
REMARK INTRA:                  -1.760
REMARK UNBOUND:                -1.760
REMARK SMILES CCCCCC=CCC=CCCCCCCCC(=O)[O-]
REMARK SMILES IDX 11 1 12 2 13 3 14 4 15 5 16 6 17 7 18 8 19 9 20 10 10 11
REMARK SMILES IDX 9 12 8 13 7 14 6 15 5 16 4 17 3 18 2 19 1 20
REMARK H PARENT
REMARK Flexibility Score: inf
ROOT
ATOM      1  C   UNL     1      29.054 175.206  22.108  1.00  0.00     0.027 C 
ENDROOT
BRANCH   1   2
ATOM      2  C   UNL     1      28.562 174.742  23.486  1.00  0.00     0.004 C 
BRANCH   2   3
ATOM      3  C   UNL     1      29.631 174.884  24.582  1.00  0.00     0.000 C 
BRANCH   3   4
ATOM      4  C   UNL     1      30.887 174.022  24.332  1.00  0.00     0.000 C 
BRANCH   4   5
ATOM      5  C   UNL     1      30.740 172.603  24.910  1.00  0.00     0.000 C 
BRANCH   5   6
ATOM      6  C   UNL     1      30.535 171.534  23.821  1.00  0.00     0.006 C 
BRANCH   6   7
ATOM      7  C   UNL     1      31.768 170.652  23.562  1.00  0.00     0.053 C 
BRANCH   7   8
ATOM      8  C   UNL     1      32.289 170.032  24.822  1.00  0.00     0.041 C 
ATOM      9  O   UNL     1      31.602 169.172  25.436  1.00  0.00    -0.550 OA
ATOM     10  O   UNL     1      33.546 170.377  25.300  1.00  0.00    -0.550 OA
ENDBRANCH   7   8
ENDBRANCH   6   7
ENDBRANCH   5   6
ENDBRANCH   4   5
ENDBRANCH   3   4
ENDBRANCH   2   3
ENDBRANCH   1   2
BRANCH   1  11
ATOM     11  C   UNL     1      28.989 174.089  21.105  1.00  0.00    -0.031 C 
ATOM     12  C   UNL     1      30.024 173.256  20.912  1.00  0.00    -0.027 C 
BRANCH  12  13
ATOM     13  C   UNL     1      29.969 172.154  19.893  1.00  0.00     0.054 C 
BRANCH  13  14
ATOM     14  C   UNL     1      31.350 171.635  19.604  1.00  0.00    -0.027 C 
ATOM     15  C   UNL     1      31.700 170.371  19.888  1.00  0.00    -0.031 C 
BRANCH  15  16
ATOM     16  C   UNL     1      33.070 169.843  19.566  1.00  0.00     0.027 C 
BRANCH  16  17
ATOM     17  C   UNL     1      33.222 169.594  18.057  1.00  0.00     0.004 C 
BRANCH  17  18
ATOM     18  C   UNL     1      34.663 169.804  17.566  1.00  0.00     0.000 C 
BRANCH  18  19
ATOM     19  C   UNL     1      34.789 170.990  16.598  1.00  0.00    -0.003 C 
ATOM     20  C   UNL     1      33.436 171.658  16.372  1.00  0.00     0.004 C 
ENDBRANCH  18  19
ENDBRANCH  17  18
ENDBRANCH  16  17
ENDBRANCH  15  16
ENDBRANCH  13  14
ENDBRANCH  12  13
ENDBRANCH   1  11
TORSDOF 14
ENDMDL
MODEL 2
REMARK VINA RESULT:    -3.951     15.447     18.534
REMARK INTER + INTRA:          -8.944
REMARK INTER:                  -7.484
REMARK INTRA:                  -1.461
REMARK UNBOUND:                -1.760
REMARK SMILES CCCCCC=CCC=CCCCCCCCC(=O)[O-]
REMARK SMILES IDX 11 1 12 2 13 3 14 4 15 5 16 6 17 7 18 8 19 9 20 10 10 11
REMARK SMILES IDX 9 12 8 13 7 14 6 15 5 16 4 17 3 18 2 19 1 20
REMARK H PARENT
REMARK Flexibility Score: inf
ROOT
ATOM      1  C   UNL     1      39.387 186.400  30.261  1.00  0.00     0.027 C 
ENDROOT
BRANCH   1   2
ATOM      2  C   UNL     1      40.501 185.551  30.886  1.00  0.00     0.004 C 
BRANCH   2   3
ATOM      3  C   UNL     1      41.650 186.398  31.457  1.00  0.00     0.000 C 
BRANCH   3   4
ATOM      4  C   UNL     1      41.208 187.354  32.585  1.00  0.00     0.000 C 
BRANCH   4   5
ATOM      5  C   UNL     1      41.275 186.687  33.971  1.00  0.00     0.000 C 
BRANCH   5   6
ATOM      6  C   UNL     1      42.506 185.776  34.135  1.00  0.00     0.006 C 
BRANCH   6   7
ATOM      7  C   UNL     1      42.169 184.309  34.444  1.00  0.00     0.053 C 
BRANCH   7   8
ATOM      8  C   UNL     1      42.945 183.361  33.581  1.00  0.00     0.041 C 
ATOM      9  O   UNL     1      42.797 182.117  33.715  1.00  0.00    -0.550 OA
ATOM     10  O   UNL     1      43.804 183.851  32.606  1.00  0.00    -0.550 OA
ENDBRANCH   7   8
ENDBRANCH   6   7
ENDBRANCH   5   6
ENDBRANCH   4   5
ENDBRANCH   3   4
ENDBRANCH   2   3
ENDBRANCH   1   2
BRANCH   1  11
ATOM     11  C   UNL     1      38.069 186.149  30.937  1.00  0.00    -0.031 C 
ATOM     12  C   UNL     1      37.970 185.348  32.010  1.00  0.00    -0.027 C 
BRANCH  12  13
ATOM     13  C   UNL     1      36.649 185.078  32.672  1.00  0.00     0.054 C 
BRANCH  13  14
ATOM     14  C   UNL     1      35.615 184.699  31.649  1.00  0.00    -0.027 C 
ATOM     15  C   UNL     1      35.453 183.428  31.251  1.00  0.00    -0.031 C 
BRANCH  15  16
ATOM     16  C   UNL     1      34.394 183.045  30.254  1.00  0.00     0.027 C 
BRANCH  16  17
ATOM     17  C   UNL     1      33.455 181.975  30.833  1.00  0.00     0.004 C 
BRANCH  17  18
ATOM     18  C   UNL     1      33.904 181.484  32.219  1.00  0.00     0.000 C 
BRANCH  18  19
ATOM     19  C   UNL     1      34.028 179.954  32.290  1.00  0.00    -0.003 C 
ATOM     20  C   UNL     1      32.876 179.277  31.553  1.00  0.00     0.004 C 
ENDBRANCH  18  19
ENDBRANCH  17  18
ENDBRANCH  16  17
ENDBRANCH  15  16
ENDBRANCH  13  14
ENDBRANCH  12  13
ENDBRANCH   1  11
TORSDOF 14
ENDMDL
MODEL 3
REMARK VINA RESULT:    -3.946     16.306     19.425
REMARK INTER + INTRA:          -8.935
REMARK INTER:                  -7.245
REMARK INTRA:                  -1.690
REMARK UNBOUND:                -1.760
REMARK SMILES CCCCCC=CCC=CCCCCCCCC(=O)[O-]
REMARK SMILES IDX 11 1 12 2 13 3 14 4 15 5 16 6 17 7 18 8 19 9 20 10 10 11
REMARK SMILES IDX 9 12 8 13 7 14 6 15 5 16 4 17 3 18 2 19 1 20
REMARK H PARENT
REMARK Flexibility Score: inf
ROOT
ATOM      1  C   UNL     1      39.391 186.114  30.350  1.00  0.00     0.027 C 
ENDROOT
BRANCH   1   2
ATOM      2  C   UNL     1      40.611 185.475  31.026  1.00  0.00     0.004 C 
BRANCH   2   3
ATOM      3  C   UNL     1      41.716 186.495  31.352  1.00  0.00     0.000 C 
BRANCH   3   4
ATOM      4  C   UNL     1      41.624 187.066  32.783  1.00  0.00     0.000 C 
BRANCH   4   5
ATOM      5  C   UNL     1      41.309 185.976  33.823  1.00  0.00     0.000 C 
BRANCH   5   6
ATOM      6  C   UNL     1      42.565 185.474  34.559  1.00  0.00     0.006 C 
BRANCH   6   7
ATOM      7  C   UNL     1      42.890 183.992  34.315  1.00  0.00     0.053 C 
BRANCH   7   8
ATOM      8  C   UNL     1      44.091 183.817  33.436  1.00  0.00     0.041 C 
ATOM      9  O   UNL     1      45.217 183.568  33.943  1.00  0.00    -0.550 OA
ATOM     10  O   UNL     1      43.959 183.895  32.055  1.00  0.00    -0.550 OA
ENDBRANCH   7   8
ENDBRANCH   6   7
ENDBRANCH   5   6
ENDBRANCH   4   5
ENDBRANCH   3   4
ENDBRANCH   2   3
ENDBRANCH   1   2
BRANCH   1  11
ATOM     11  C   UNL     1      38.209 186.143  31.279  1.00  0.00    -0.031 C 
ATOM     12  C   UNL     1      37.934 187.220  32.032  1.00  0.00    -0.027 C 
BRANCH  12  13
ATOM     13  C   UNL     1      36.767 187.242  32.978  1.00  0.00     0.054 C 
BRANCH  13  14
ATOM     14  C   UNL     1      36.305 185.842  33.275  1.00  0.00    -0.027 C 
ATOM     15  C   UNL     1      35.020 185.481  33.132  1.00  0.00    -0.031 C 
BRANCH  15  16
ATOM     16  C   UNL     1      34.566 184.072  33.395  1.00  0.00     0.027 C 
BRANCH  16  17
ATOM     17  C   UNL     1      35.529 183.057  32.760  1.00  0.00     0.004 C 
BRANCH  17  18
ATOM     18  C   UNL     1      34.821 182.103  31.785  1.00  0.00     0.000 C 
BRANCH  18  19
ATOM     19  C   UNL     1      33.829 182.830  30.864  1.00  0.00    -0.003 C 
ATOM     20  C   UNL     1      34.556 183.523  29.715  1.00  0.00     0.004 C 
ENDBRANCH  18  19
ENDBRANCH  17  18
ENDBRANCH  16  17
ENDBRANCH  15  16
ENDBRANCH  13  14
ENDBRANCH  12  13
ENDBRANCH   1  11
TORSDOF 14
ENDMDL
MODEL 4
REMARK VINA RESULT:    -3.931      2.076      3.660
REMARK INTER + INTRA:          -8.908
REMARK INTER:                  -7.407
REMARK INTRA:                  -1.501
REMARK UNBOUND:                -1.760
REMARK SMILES CCCCCC=CCC=CCCCCCCCC(=O)[O-]
REMARK SMILES IDX 11 1 12 2 13 3 14 4 15 5 16 6 17 7 18 8 19 9 20 10 10 11
REMARK SMILES IDX 9 12 8 13 7 14 6 15 5 16 4 17 3 18 2 19 1 20
REMARK H PARENT
REMARK Flexibility Score: inf
ROOT
ATOM      1  C   UNL     1      29.955 172.233  19.710  1.00  0.00     0.027 C 
ENDROOT
BRANCH   1   2
ATOM      2  C   UNL     1      29.650 172.861  21.077  1.00  0.00     0.004 C 
BRANCH   2   3
ATOM      3  C   UNL     1      30.139 174.315  21.190  1.00  0.00     0.000 C 
BRANCH   3   4
ATOM      4  C   UNL     1      29.140 175.247  21.907  1.00  0.00     0.000 C 
BRANCH   4   5
ATOM      5  C   UNL     1      27.932 174.477  22.472  1.00  0.00     0.000 C 
BRANCH   5   6
ATOM      6  C   UNL     1      28.090 174.134  23.965  1.00  0.00     0.006 C 
BRANCH   6   7
ATOM      7  C   UNL     1      29.236 174.881  24.667  1.00  0.00     0.053 C 
BRANCH   7   8
ATOM      8  C   UNL     1      30.266 173.941  25.214  1.00  0.00     0.041 C 
ATOM      9  O   UNL     1      30.326 173.718  26.452  1.00  0.00    -0.550 OA
ATOM     10  O   UNL     1      31.138 173.286  24.353  1.00  0.00    -0.550 OA
ENDBRANCH   7   8
ENDBRANCH   6   7
ENDBRANCH   5   6
ENDBRANCH   4   5
ENDBRANCH   3   4
ENDBRANCH   2   3
ENDBRANCH   1   2
BRANCH   1  11
ATOM     11  C   UNL     1      31.276 171.517  19.724  1.00  0.00    -0.031 C 
ATOM     12  C   UNL     1      31.357 170.188  19.553  1.00  0.00    -0.027 C 
BRANCH  12  13
ATOM     13  C   UNL     1      32.675 169.468  19.590  1.00  0.00     0.054 C 
BRANCH  13  14
ATOM     14  C   UNL     1      33.605 170.020  18.546  1.00  0.00    -0.027 C 
ATOM     15  C   UNL     1      34.327 169.215  17.751  1.00  0.00    -0.031 C 
BRANCH  15  16
ATOM     16  C   UNL     1      35.229 169.768  16.683  1.00  0.00     0.027 C 
BRANCH  16  17
ATOM     17  C   UNL     1      34.730 171.137  16.197  1.00  0.00     0.004 C 
BRANCH  17  18
ATOM     18  C   UNL     1      33.796 171.027  14.981  1.00  0.00     0.000 C 
BRANCH  18  19
ATOM     19  C   UNL     1      32.525 171.876  15.135  1.00  0.00    -0.003 C 
ATOM     20  C   UNL     1      31.415 171.081  15.816  1.00  0.00     0.004 C 
ENDBRANCH  18  19
ENDBRANCH  17  18
ENDBRANCH  16  17
ENDBRANCH  15  16
ENDBRANCH  13  14
ENDBRANCH  12  13
ENDBRANCH   1  11
TORSDOF 14
ENDMDL
MODEL 5
REMARK VINA RESULT:    -3.901      1.144      2.183
REMARK INTER + INTRA:          -8.854
REMARK INTER:                  -7.195
REMARK INTRA:                  -1.658
REMARK UNBOUND:                -1.760
REMARK SMILES CCCCCC=CCC=CCCCCCCCC(=O)[O-]
REMARK SMILES IDX 11 1 12 2 13 3 14 4 15 5 16 6 17 7 18 8 19 9 20 10 10 11
REMARK SMILES IDX 9 12 8 13 7 14 6 15 5 16 4 17 3 18 2 19 1 20
REMARK H PARENT
REMARK Flexibility Score: inf
ROOT
ATOM      1  C   UNL     1      29.065 173.645  20.889  1.00  0.00     0.027 C 
ENDROOT
BRANCH   1   2
ATOM      2  C   UNL     1      29.264 174.991  21.597  1.00  0.00     0.004 C 
BRANCH   2   3
ATOM      3  C   UNL     1      28.497 175.086  22.927  1.00  0.00     0.000 C 
BRANCH   3   4
ATOM      4  C   UNL     1      28.960 174.055  23.979  1.00  0.00     0.000 C 
BRANCH   4   5
ATOM      5  C   UNL     1      30.472 174.145  24.253  1.00  0.00     0.000 C 
BRANCH   5   6
ATOM      6  C   UNL     1      31.089 172.788  24.642  1.00  0.00     0.006 C 
BRANCH   6   7
ATOM      7  C   UNL     1      30.565 171.599  23.821  1.00  0.00     0.053 C 
BRANCH   7   8
ATOM      8  C   UNL     1      31.491 170.423  23.882  1.00  0.00     0.041 C 
ATOM      9  O   UNL     1      31.032 169.252  23.821  1.00  0.00    -0.550 OA
ATOM     10  O   UNL     1      32.863 170.622  23.970  1.00  0.00    -0.550 OA
ENDBRANCH   7   8
ENDBRANCH   6   7
ENDBRANCH   5   6
ENDBRANCH   4   5
ENDBRANCH   3   4
ENDBRANCH   2   3
ENDBRANCH   1   2
BRANCH   1  11
ATOM     11  C   UNL     1      30.383 172.979  20.608  1.00  0.00    -0.031 C 
ATOM     12  C   UNL     1      30.450 171.754  20.064  1.00  0.00    -0.027 C 
BRANCH  12  13
ATOM     13  C   UNL     1      31.767 171.079  19.804  1.00  0.00     0.054 C 
BRANCH  13  14
ATOM     14  C   UNL     1      32.055 171.037  18.329  1.00  0.00    -0.027 C 
ATOM     15  C   UNL     1      31.068 171.058  17.420  1.00  0.00    -0.031 C 
BRANCH  15  16
ATOM     16  C   UNL     1      31.358 171.052  15.945  1.00  0.00     0.027 C 
BRANCH  16  17
ATOM     17  C   UNL     1      32.652 171.821  15.637  1.00  0.00     0.004 C 
BRANCH  17  18
ATOM     18  C   UNL     1      33.788 170.899  15.164  1.00  0.00     0.000 C 
BRANCH  18  19
ATOM     19  C   UNL     1      35.022 170.968  16.078  1.00  0.00    -0.003 C 
ATOM     20  C   UNL     1      35.245 169.642  16.799  1.00  0.00     0.004 C 
ENDBRANCH  18  19
ENDBRANCH  17  18
ENDBRANCH  16  17
ENDBRANCH  15  16
ENDBRANCH  13  14
ENDBRANCH  12  13
ENDBRANCH   1  11
TORSDOF 14
ENDMDL
MODEL 6
REMARK VINA RESULT:    -3.827      2.118      3.222
REMARK INTER + INTRA:          -8.718
REMARK INTER:                  -7.093
REMARK INTRA:                  -1.625
REMARK UNBOUND:                -1.760
REMARK SMILES CCCCCC=CCC=CCCCCCCCC(=O)[O-]
REMARK SMILES IDX 11 1 12 2 13 3 14 4 15 5 16 6 17 7 18 8 19 9 20 10 10 11
REMARK SMILES IDX 9 12 8 13 7 14 6 15 5 16 4 17 3 18 2 19 1 20
REMARK H PARENT
REMARK Flexibility Score: inf
ROOT
ATOM      1  C   UNL     1      28.916 175.638  21.625  1.00  0.00     0.027 C 
ENDROOT
BRANCH   1   2
ATOM      2  C   UNL     1      27.511 175.591  21.009  1.00  0.00     0.004 C 
BRANCH   2   3
ATOM      3  C   UNL     1      26.410 176.001  22.001  1.00  0.00     0.000 C 
BRANCH   3   4
ATOM      4  C   UNL     1      26.062 174.899  23.025  1.00  0.00     0.000 C 
BRANCH   4   5
ATOM      5  C   UNL     1      26.455 175.296  24.459  1.00  0.00     0.000 C 
BRANCH   5   6
ATOM      6  C   UNL     1      27.521 174.363  25.064  1.00  0.00     0.006 C 
BRANCH   6   7
ATOM      7  C   UNL     1      28.927 174.979  25.142  1.00  0.00     0.053 C 
BRANCH   7   8
ATOM      8  C   UNL     1      30.001 173.938  25.064  1.00  0.00     0.041 C 
ATOM      9  O   UNL     1      31.133 174.229  24.594  1.00  0.00    -0.550 OA
ATOM     10  O   UNL     1      29.764 172.655  25.542  1.00  0.00    -0.550 OA
ENDBRANCH   7   8
ENDBRANCH   6   7
ENDBRANCH   5   6
ENDBRANCH   4   5
ENDBRANCH   3   4
ENDBRANCH   2   3
ENDBRANCH   1   2
BRANCH   1  11
ATOM     11  C   UNL     1      29.662 174.357  21.373  1.00  0.00    -0.031 C 
ATOM     12  C   UNL     1      29.112 173.161  21.631  1.00  0.00    -0.027 C 
BRANCH  12  13
ATOM     13  C   UNL     1      29.865 171.881  21.402  1.00  0.00     0.054 C 
BRANCH  13  14
ATOM     14  C   UNL     1      30.505 171.884  20.042  1.00  0.00    -0.027 C 
ATOM     15  C   UNL     1      31.616 171.176  19.786  1.00  0.00    -0.031 C 
BRANCH  15  16
ATOM     16  C   UNL     1      32.234 171.151  18.415  1.00  0.00     0.027 C 
BRANCH  16  17
ATOM     17  C   UNL     1      32.965 169.823  18.167  1.00  0.00     0.004 C 
BRANCH  17  18
ATOM     18  C   UNL     1      33.658 169.778  16.795  1.00  0.00     0.000 C 
BRANCH  18  19
ATOM     19  C   UNL     1      34.840 170.755  16.700  1.00  0.00    -0.003 C 
ATOM     20  C   UNL     1      34.914 171.391  15.315  1.00  0.00     0.004 C 
ENDBRANCH  18  19
ENDBRANCH  17  18
ENDBRANCH  16  17
ENDBRANCH  15  16
ENDBRANCH  13  14
ENDBRANCH  12  13
ENDBRANCH   1  11
TORSDOF 14
ENDMDL
MODEL 7
REMARK VINA RESULT:    -3.711      2.729      4.510
REMARK INTER + INTRA:          -8.508
REMARK INTER:                  -6.836
REMARK INTRA:                  -1.672
REMARK UNBOUND:                -1.760
REMARK SMILES CCCCCC=CCC=CCCCCCCCC(=O)[O-]
REMARK SMILES IDX 11 1 12 2 13 3 14 4 15 5 16 6 17 7 18 8 19 9 20 10 10 11
REMARK SMILES IDX 9 12 8 13 7 14 6 15 5 16 4 17 3 18 2 19 1 20
REMARK H PARENT
REMARK Flexibility Score: inf
ROOT
ATOM      1  C   UNL     1      30.738 171.980  20.142  1.00  0.00     0.027 C 
ENDROOT
BRANCH   1   2
ATOM      2  C   UNL     1      29.675 171.950  21.248  1.00  0.00     0.004 C 
BRANCH   2   3
ATOM      3  C   UNL     1      30.185 171.313  22.551  1.00  0.00     0.000 C 
BRANCH   3   4
ATOM      4  C   UNL     1      29.609 171.969  23.824  1.00  0.00     0.000 C 
BRANCH   4   5
ATOM      5  C   UNL     1      30.568 173.015  24.421  1.00  0.00     0.000 C 
BRANCH   5   6
ATOM      6  C   UNL     1      30.214 174.454  24.004  1.00  0.00     0.006 C 
BRANCH   6   7
ATOM      7  C   UNL     1      28.706 174.724  23.881  1.00  0.00     0.053 C 
BRANCH   7   8
ATOM      8  C   UNL     1      28.331 175.205  22.513  1.00  0.00     0.041 C 
ATOM      9  O   UNL     1      29.220 175.602  21.715  1.00  0.00    -0.550 OA
ATOM     10  O   UNL     1      27.002 175.183  22.108  1.00  0.00    -0.550 OA
ENDBRANCH   7   8
ENDBRANCH   6   7
ENDBRANCH   5   6
ENDBRANCH   4   5
ENDBRANCH   3   4
ENDBRANCH   2   3
ENDBRANCH   1   2
BRANCH   1  11
ATOM     11  C   UNL     1      31.237 170.597  19.831  1.00  0.00    -0.031 C 
ATOM     12  C   UNL     1      32.548 170.329  19.726  1.00  0.00    -0.027 C 
BRANCH  12  13
ATOM     13  C   UNL     1      33.047 168.952  19.392  1.00  0.00     0.054 C 
BRANCH  13  14
ATOM     14  C   UNL     1      33.764 168.959  18.071  1.00  0.00    -0.027 C 
ATOM     15  C   UNL     1      34.511 170.003  17.682  1.00  0.00    -0.031 C 
BRANCH  15  16
ATOM     16  C   UNL     1      35.257 169.994  16.376  1.00  0.00     0.027 C 
BRANCH  16  17
ATOM     17  C   UNL     1      34.772 171.126  15.458  1.00  0.00     0.004 C 
BRANCH  17  18
ATOM     18  C   UNL     1      33.505 171.815  15.990  1.00  0.00     0.000 C 
BRANCH  18  19
ATOM     19  C   UNL     1      32.252 171.451  15.180  1.00  0.00    -0.003 C 
ATOM     20  C   UNL     1      31.057 171.207  16.097  1.00  0.00     0.004 C 
ENDBRANCH  18  19
ENDBRANCH  17  18
ENDBRANCH  16  17
ENDBRANCH  15  16
ENDBRANCH  13  14
ENDBRANCH  12  13
ENDBRANCH   1  11
TORSDOF 14
ENDMDL
MODEL 8
REMARK VINA RESULT:    -3.686     16.218     19.519
REMARK INTER + INTRA:          -8.463
REMARK INTER:                  -6.158
REMARK INTRA:                  -2.305
REMARK UNBOUND:                -1.760
REMARK SMILES CCCCCC=CCC=CCCCCCCCC(=O)[O-]
REMARK SMILES IDX 11 1 12 2 13 3 14 4 15 5 16 6 17 7 18 8 19 9 20 10 10 11
REMARK SMILES IDX 9 12 8 13 7 14 6 15 5 16 4 17 3 18 2 19 1 20
REMARK H PARENT
REMARK Flexibility Score: inf
ROOT
ATOM      1  C   UNL     1      41.724 184.465  34.671  1.00  0.00     0.027 C 
ENDROOT
BRANCH   1   2
ATOM      2  C   UNL     1      42.541 185.250  33.637  1.00  0.00     0.004 C 
BRANCH   2   3
ATOM      3  C   UNL     1      42.192 184.871  32.187  1.00  0.00     0.000 C 
BRANCH   3   4
ATOM      4  C   UNL     1      41.604 186.040  31.370  1.00  0.00     0.000 C 
BRANCH   4   5
ATOM      5  C   UNL     1      40.142 185.785  30.963  1.00  0.00     0.000 C 
BRANCH   5   6
ATOM      6  C   UNL     1      39.235 187.008  31.201  1.00  0.00     0.006 C 
BRANCH   6   7
ATOM      7  C   UNL     1      39.533 187.770  32.502  1.00  0.00     0.053 C 
BRANCH   7   8
ATOM      8  C   UNL     1      38.279 188.198  33.201  1.00  0.00     0.041 C 
ATOM      9  O   UNL     1      37.243 188.467  32.537  1.00  0.00    -0.550 OA
ATOM     10  O   UNL     1      38.245 188.266  34.588  1.00  0.00    -0.550 OA
ENDBRANCH   7   8
ENDBRANCH   6   7
ENDBRANCH   5   6
ENDBRANCH   4   5
ENDBRANCH   3   4
ENDBRANCH   2   3
ENDBRANCH   1   2
BRANCH   1  11
ATOM     11  C   UNL     1      40.297 184.936  34.708  1.00  0.00    -0.031 C 
ATOM     12  C   UNL     1      39.283 184.138  34.339  1.00  0.00    -0.027 C 
BRANCH  12  13
ATOM     13  C   UNL     1      37.859 184.616  34.353  1.00  0.00     0.054 C 
BRANCH  13  14
ATOM     14  C   UNL     1      37.145 184.180  33.104  1.00  0.00    -0.027 C 
ATOM     15  C   UNL     1      36.416 185.038  32.375  1.00  0.00    -0.031 C 
BRANCH  15  16
ATOM     16  C   UNL     1      35.733 184.609  31.106  1.00  0.00     0.027 C 
BRANCH  16  17
ATOM     17  C   UNL     1      35.265 183.149  31.201  1.00  0.00     0.004 C 
BRANCH  17  18
ATOM     18  C   UNL     1      34.142 182.822  30.204  1.00  0.00     0.000 C 
BRANCH  18  19
ATOM     19  C   UNL     1      32.950 182.118  30.870  1.00  0.00    -0.003 C 
ATOM     20  C   UNL     1      32.685 182.685  32.261  1.00  0.00     0.004 C 
ENDBRANCH  18  19
ENDBRANCH  17  18
ENDBRANCH  16  17
ENDBRANCH  15  16
ENDBRANCH  13  14
ENDBRANCH  12  13
ENDBRANCH   1  11
TORSDOF 14
ENDMDL
MODEL 9
REMARK VINA RESULT:    -3.588     18.159     20.349
REMARK INTER + INTRA:          -8.284
REMARK INTER:                  -5.887
REMARK INTRA:                  -2.397
REMARK UNBOUND:                -1.760
REMARK SMILES CCCCCC=CCC=CCCCCCCCC(=O)[O-]
REMARK SMILES IDX 11 1 12 2 13 3 14 4 15 5 16 6 17 7 18 8 19 9 20 10 10 11
REMARK SMILES IDX 9 12 8 13 7 14 6 15 5 16 4 17 3 18 2 19 1 20
REMARK H PARENT
REMARK Flexibility Score: inf
ROOT
ATOM      1  C   UNL     1      39.224 186.509  30.517  1.00  0.00     0.027 C 
ENDROOT
BRANCH   1   2
ATOM      2  C   UNL     1      40.251 185.641  31.256  1.00  0.00     0.004 C 
BRANCH   2   3
ATOM      3  C   UNL     1      41.626 186.320  31.383  1.00  0.00     0.000 C 
BRANCH   3   4
ATOM      4  C   UNL     1      41.907 186.882  32.792  1.00  0.00     0.000 C 
BRANCH   4   5
ATOM      5  C   UNL     1      41.052 186.195  33.872  1.00  0.00     0.000 C 
BRANCH   5   6
ATOM      6  C   UNL     1      41.870 185.242  34.763  1.00  0.00     0.006 C 
BRANCH   6   7
ATOM      7  C   UNL     1      43.105 184.639  34.075  1.00  0.00     0.053 C 
BRANCH   7   8
ATOM      8  C   UNL     1      42.848 183.250  33.576  1.00  0.00     0.041 C 
ATOM      9  O   UNL     1      43.749 182.373  33.649  1.00  0.00    -0.550 OA
ATOM     10  O   UNL     1      41.601 182.915  33.061  1.00  0.00    -0.550 OA
ENDBRANCH   7   8
ENDBRANCH   6   7
ENDBRANCH   5   6
ENDBRANCH   4   5
ENDBRANCH   3   4
ENDBRANCH   2   3
ENDBRANCH   1   2
BRANCH   1  11
ATOM     11  C   UNL     1      38.255 187.140  31.477  1.00  0.00    -0.031 C 
ATOM     12  C   UNL     1      38.541 188.289  32.110  1.00  0.00    -0.027 C 
BRANCH  12  13
ATOM     13  C   UNL     1      37.583 188.909  33.087  1.00  0.00     0.054 C 
BRANCH  13  14
ATOM     14  C   UNL     1      36.715 187.854  33.715  1.00  0.00    -0.027 C 
ATOM     15  C   UNL     1      35.380 187.874  33.585  1.00  0.00    -0.031 C 
BRANCH  15  16
ATOM     16  C   UNL     1      34.516 186.797  34.183  1.00  0.00     0.027 C 
BRANCH  16  17
ATOM     17  C   UNL     1      34.539 185.530  33.314  1.00  0.00     0.004 C 
BRANCH  17  18
ATOM     18  C   UNL     1      35.434 184.427  33.902  1.00  0.00     0.000 C 
BRANCH  18  19
ATOM     19  C   UNL     1      36.697 184.184  33.062  1.00  0.00    -0.003 C 
ATOM     20  C   UNL     1      37.952 184.253  33.928  1.00  0.00     0.004 C 
ENDBRANCH  18  19
ENDBRANCH  17  18
ENDBRANCH  16  17
ENDBRANCH  15  16
ENDBRANCH  13  14
ENDBRANCH  12  13
ENDBRANCH   1  11
TORSDOF 14
ENDMDL
