MODEL 1
REMARK VINA RESULT:    -6.802      0.000      0.000
REMARK INTER + INTRA:         -11.136
REMARK INTER:                  -9.784
REMARK INTRA:                  -1.352
REMARK UNBOUND:                -1.352
REMARK SMILES O=c1c(O[C@H]2O[C@H](CO)[C@@H](O)[C@@H](O)[C@@H]2O)c(-c2ccc(O)cc2)oc2cc(O)cc(O)c12
REMARK SMILES IDX 4 1 3 2 16 3 24 4 2 5 25 6 1 7 32 8 26 9 30 10 27 11 29 12
REMARK SMILES IDX 17 13 18 14 19 15 20 16 23 17 22 18 21 19 31 21 28 23 5 25
REMARK SMILES IDX 14 26 6 27 12 28 7 29 10 30 15 31 13 33 8 35 9 36 11 38
REMARK H PARENT 21 20 31 22 28 24 15 32 13 34 9 37 11 39
REMARK Flexibility Score: inf
ROOT
ATOM      1  O   UNL     1       8.048 -15.459  10.044  1.00  0.00    -0.454 OA
ENDROOT
BRANCH   1   2
ATOM      2  C   UNL     1       6.915 -15.778   9.264  1.00  0.00     0.214 A 
ATOM      3  C   UNL     1       7.114 -16.086   7.905  1.00  0.00     0.180 A 
ATOM      4  O   UNL     1       6.078 -16.294   7.104  1.00  0.00    -0.452 OA
ATOM      5  C   UNL     1       5.587 -15.769   9.756  1.00  0.00     0.239 A 
ATOM      6  C   UNL     1       4.820 -16.292   7.522  1.00  0.00     0.146 A 
ATOM      7  O   UNL     1       5.364 -15.437  10.946  1.00  0.00    -0.285 OA
ATOM      8  C   UNL     1       4.511 -16.085   8.890  1.00  0.00     0.111 A 
ATOM      9  C   UNL     1       3.804 -16.494   6.585  1.00  0.00     0.094 A 
ATOM     10  C   UNL     1       3.144 -16.159   9.295  1.00  0.00     0.134 A 
ATOM     11  C   UNL     1       2.469 -16.494   6.980  1.00  0.00     0.123 A 
ATOM     12  C   UNL     1       2.145 -16.326   8.328  1.00  0.00     0.093 A 
BRANCH   3  13
ATOM     13  C   UNL     1       8.467 -16.160   7.315  1.00  0.00     0.021 A 
ATOM     14  C   UNL     1       9.345 -17.202   7.655  1.00  0.00     0.016 A 
ATOM     15  C   UNL     1      10.616 -17.272   7.074  1.00  0.00     0.047 A 
ATOM     16  C   UNL     1      11.014 -16.314   6.136  1.00  0.00     0.115 A 
ATOM     17  C   UNL     1       8.862 -15.215   6.356  1.00  0.00     0.016 A 
ATOM     18  C   UNL     1      10.132 -15.288   5.775  1.00  0.00     0.047 A 
BRANCH  16  19
ATOM     19  O   UNL     1      12.283 -16.394   5.568  1.00  0.00    -0.508 OA
ATOM     20  H   UNL     1      13.064 -15.867   5.941  1.00  0.00     0.293 HD
ENDBRANCH  16  19
ENDBRANCH   3  13
BRANCH  10  21
ATOM     21  O   UNL     1       2.724 -16.109  10.627  1.00  0.00    -0.507 OA
ATOM     22  H   UNL     1       1.884 -15.649  10.944  1.00  0.00     0.293 HD
ENDBRANCH  10  21
BRANCH  11  23
ATOM     23  O   UNL     1       1.469 -16.675   6.026  1.00  0.00    -0.508 OA
ATOM     24  H   UNL     1       0.737 -15.987   5.889  1.00  0.00     0.293 HD
ENDBRANCH  11  23
ENDBRANCH   1   2
BRANCH   1  25
ATOM     25  C   UNL     1       8.608 -16.230  11.114  1.00  0.00     0.339 C 
ATOM     26  C   UNL     1       8.529 -15.458  12.445  1.00  0.00     0.214 C 
ATOM     27  O   UNL     1       9.940 -16.630  10.828  1.00  0.00    -0.332 OA
ATOM     28  C   UNL     1       9.520 -14.276  12.463  1.00  0.00     0.180 C 
ATOM     29  C   UNL     1      10.803 -15.515  10.672  1.00  0.00     0.179 C 
ATOM     30  C   UNL     1      10.915 -14.736  12.006  1.00  0.00     0.177 C 
BRANCH  26  31
ATOM     31  O   UNL     1       8.820 -16.340  13.500  1.00  0.00    -0.384 OA
ATOM     32  H   UNL     1       8.241 -16.079  14.264  1.00  0.00     0.211 HD
ENDBRANCH  26  31
BRANCH  28  33
ATOM     33  O   UNL     1       9.061 -13.243  11.629  1.00  0.00    -0.387 OA
ATOM     34  H   UNL     1       8.092 -13.401  11.483  1.00  0.00     0.211 HD
ENDBRANCH  28  33
BRANCH  29  35
ATOM     35  C   UNL     1      12.169 -16.040  10.210  1.00  0.00     0.191 C 
BRANCH  35  36
ATOM     36  O   UNL     1      12.782 -15.119   9.350  1.00  0.00    -0.394 OA
ATOM     37  H   UNL     1      13.048 -14.348   9.916  1.00  0.00     0.210 HD
ENDBRANCH  35  36
ENDBRANCH  29  35
BRANCH  30  38
ATOM     38  O   UNL     1      11.741 -13.607  11.855  1.00  0.00    -0.387 OA
ATOM     39  H   UNL     1      11.788 -13.157  12.737  1.00  0.00     0.211 HD
ENDBRANCH  30  38
ENDBRANCH   1  25
TORSDOF 11
ENDMDL
MODEL 2
REMARK VINA RESULT:    -6.618      2.553      4.377
REMARK INTER + INTRA:         -10.872
REMARK INTER:                  -9.781
REMARK INTRA:                  -1.090
REMARK UNBOUND:                -1.352
REMARK SMILES O=c1c(O[C@H]2O[C@H](CO)[C@@H](O)[C@@H](O)[C@@H]2O)c(-c2ccc(O)cc2)oc2cc(O)cc(O)c12
REMARK SMILES IDX 4 1 3 2 16 3 24 4 2 5 25 6 1 7 32 8 26 9 30 10 27 11 29 12
REMARK SMILES IDX 17 13 18 14 19 15 20 16 23 17 22 18 21 19 31 21 28 23 5 25
REMARK SMILES IDX 14 26 6 27 12 28 7 29 10 30 15 31 13 33 8 35 9 36 11 38
REMARK H PARENT 21 20 31 22 28 24 15 32 13 34 9 37 11 39
REMARK Flexibility Score: inf
ROOT
ATOM      1  O   UNL     1       8.754 -15.473  11.955  1.00  0.00    -0.454 OA
ENDROOT
BRANCH   1   2
ATOM      2  C   UNL     1       8.517 -15.529  10.564  1.00  0.00     0.214 A 
ATOM      3  C   UNL     1       9.470 -16.178   9.757  1.00  0.00     0.180 A 
ATOM      4  O   UNL     1       9.349 -16.172   8.436  1.00  0.00    -0.452 OA
ATOM      5  C   UNL     1       7.398 -14.939   9.927  1.00  0.00     0.239 A 
ATOM      6  C   UNL     1       8.320 -15.630   7.800  1.00  0.00     0.146 A 
ATOM      7  O   UNL     1       6.559 -14.297  10.606  1.00  0.00    -0.285 OA
ATOM      8  C   UNL     1       7.256 -15.032   8.521  1.00  0.00     0.111 A 
ATOM      9  C   UNL     1       8.309 -15.656   6.404  1.00  0.00     0.094 A 
ATOM     10  C   UNL     1       6.142 -14.523   7.786  1.00  0.00     0.134 A 
ATOM     11  C   UNL     1       7.250 -15.094   5.695  1.00  0.00     0.123 A 
ATOM     12  C   UNL     1       6.175 -14.530   6.386  1.00  0.00     0.093 A 
BRANCH   3  13
ATOM     13  C   UNL     1      10.647 -16.857  10.338  1.00  0.00     0.021 A 
ATOM     14  C   UNL     1      10.513 -18.081  11.013  1.00  0.00     0.016 A 
ATOM     15  C   UNL     1      11.637 -18.723  11.540  1.00  0.00     0.047 A 
ATOM     16  C   UNL     1      12.907 -18.160  11.384  1.00  0.00     0.115 A 
ATOM     17  C   UNL     1      11.926 -16.307  10.162  1.00  0.00     0.016 A 
ATOM     18  C   UNL     1      13.050 -16.952  10.689  1.00  0.00     0.047 A 
BRANCH  16  19
ATOM     19  O   UNL     1      14.018 -18.809  11.917  1.00  0.00    -0.508 OA
ATOM     20  H   UNL     1      13.924 -19.515  12.637  1.00  0.00     0.293 HD
ENDBRANCH  16  19
ENDBRANCH   3  13
BRANCH  10  21
ATOM     21  O   UNL     1       4.975 -14.036   8.382  1.00  0.00    -0.507 OA
ATOM     22  H   UNL     1       4.789 -13.061   8.561  1.00  0.00     0.293 HD
ENDBRANCH  10  21
BRANCH  11  23
ATOM     23  O   UNL     1       7.269 -15.111   4.302  1.00  0.00    -0.508 OA
ATOM     24  H   UNL     1       6.413 -15.162   3.762  1.00  0.00     0.293 HD
ENDBRANCH  11  23
ENDBRANCH   1   2
BRANCH   1  25
ATOM     25  C   UNL     1       9.711 -14.655  12.638  1.00  0.00     0.339 C 
ATOM     26  C   UNL     1       9.733 -14.978  14.144  1.00  0.00     0.214 C 
ATOM     27  O   UNL     1       9.473 -13.273  12.411  1.00  0.00    -0.332 OA
ATOM     28  C   UNL     1       8.452 -14.474  14.841  1.00  0.00     0.180 C 
ATOM     29  C   UNL     1       8.207 -12.868  12.905  1.00  0.00     0.179 C 
ATOM     30  C   UNL     1       8.162 -13.017  14.446  1.00  0.00     0.177 C 
BRANCH  26  31
ATOM     31  O   UNL     1      10.861 -14.371  14.723  1.00  0.00    -0.384 OA
ATOM     32  H   UNL     1      11.660 -14.813  14.333  1.00  0.00     0.211 HD
ENDBRANCH  26  31
BRANCH  28  33
ATOM     33  O   UNL     1       7.360 -15.288  14.499  1.00  0.00    -0.387 OA
ATOM     34  H   UNL     1       6.620 -14.682  14.233  1.00  0.00     0.211 HD
ENDBRANCH  28  33
BRANCH  29  35
ATOM     35  C   UNL     1       7.977 -11.415  12.471  1.00  0.00     0.191 C 
BRANCH  35  36
ATOM     36  O   UNL     1       7.002 -11.351  11.467  1.00  0.00    -0.394 OA
ATOM     37  H   UNL     1       6.173 -11.030  11.907  1.00  0.00     0.210 HD
ENDBRANCH  35  36
ENDBRANCH  29  35
BRANCH  30  38
ATOM     38  O   UNL     1       6.899 -12.651  14.945  1.00  0.00    -0.387 OA
ATOM     39  H   UNL     1       6.563 -13.413  15.483  1.00  0.00     0.211 HD
ENDBRANCH  30  38
ENDBRANCH   1  25
TORSDOF 11
ENDMDL
MODEL 3
REMARK VINA RESULT:    -6.496      3.109      6.266
REMARK INTER + INTRA:         -10.696
REMARK INTER:                  -9.108
REMARK INTRA:                  -1.588
REMARK UNBOUND:                -1.352
REMARK SMILES O=c1c(O[C@H]2O[C@H](CO)[C@@H](O)[C@@H](O)[C@@H]2O)c(-c2ccc(O)cc2)oc2cc(O)cc(O)c12
REMARK SMILES IDX 4 1 3 2 16 3 24 4 2 5 25 6 1 7 32 8 26 9 30 10 27 11 29 12
REMARK SMILES IDX 17 13 18 14 19 15 20 16 23 17 22 18 21 19 31 21 28 23 5 25
REMARK SMILES IDX 14 26 6 27 12 28 7 29 10 30 15 31 13 33 8 35 9 36 11 38
REMARK H PARENT 21 20 31 22 28 24 15 32 13 34 9 37 11 39
REMARK Flexibility Score: inf
ROOT
ATOM      1  O   UNL     1       8.046 -14.860  12.646  1.00  0.00    -0.454 OA
ENDROOT
BRANCH   1   2
ATOM      2  C   UNL     1       8.185 -16.254  12.469  1.00  0.00     0.214 A 
ATOM      3  C   UNL     1       7.557 -16.844  11.356  1.00  0.00     0.180 A 
ATOM      4  O   UNL     1       7.571 -18.161  11.196  1.00  0.00    -0.452 OA
ATOM      5  C   UNL     1       8.886 -17.100  13.362  1.00  0.00     0.239 A 
ATOM      6  C   UNL     1       8.212 -18.988  12.009  1.00  0.00     0.146 A 
ATOM      7  O   UNL     1       9.406 -16.620  14.400  1.00  0.00    -0.285 OA
ATOM      8  C   UNL     1       8.955 -18.492  13.109  1.00  0.00     0.111 A 
ATOM      9  C   UNL     1       8.135 -20.361  11.762  1.00  0.00     0.094 A 
ATOM     10  C   UNL     1       9.680 -19.424  13.912  1.00  0.00     0.134 A 
ATOM     11  C   UNL     1       8.789 -21.266  12.594  1.00  0.00     0.123 A 
ATOM     12  C   UNL     1       9.555 -20.796  13.663  1.00  0.00     0.093 A 
BRANCH   3  13
ATOM     13  C   UNL     1       6.839 -16.035  10.349  1.00  0.00     0.021 A 
ATOM     14  C   UNL     1       7.485 -15.597   9.182  1.00  0.00     0.016 A 
ATOM     15  C   UNL     1       6.789 -14.850   8.227  1.00  0.00     0.047 A 
ATOM     16  C   UNL     1       5.437 -14.547   8.420  1.00  0.00     0.115 A 
ATOM     17  C   UNL     1       5.476 -15.749  10.527  1.00  0.00     0.016 A 
ATOM     18  C   UNL     1       4.781 -15.003   9.571  1.00  0.00     0.047 A 
BRANCH  16  19
ATOM     19  O   UNL     1       4.757 -13.798   7.463  1.00  0.00    -0.508 OA
ATOM     20  H   UNL     1       4.143 -13.036   7.725  1.00  0.00     0.293 HD
ENDBRANCH  16  19
ENDBRANCH   3  13
BRANCH  10  21
ATOM     21  O   UNL     1      10.556 -19.051  14.936  1.00  0.00    -0.507 OA
ATOM     22  H   UNL     1      11.373 -18.473  14.806  1.00  0.00     0.293 HD
ENDBRANCH  10  21
BRANCH  11  23
ATOM     23  O   UNL     1       8.681 -22.633  12.343  1.00  0.00    -0.508 OA
ATOM     24  H   UNL     1       7.792 -23.115  12.411  1.00  0.00     0.293 HD
ENDBRANCH  11  23
ENDBRANCH   1   2
BRANCH   1  25
ATOM     25  C   UNL     1       8.903 -13.832  12.136  1.00  0.00     0.339 C 
ATOM     26  C   UNL     1      10.139 -13.651  13.039  1.00  0.00     0.214 C 
ATOM     27  O   UNL     1       8.205 -12.607  11.966  1.00  0.00    -0.332 OA
ATOM     28  C   UNL     1       9.756 -12.994  14.381  1.00  0.00     0.180 C 
ATOM     29  C   UNL     1       7.707 -12.109  13.197  1.00  0.00     0.179 C 
ATOM     30  C   UNL     1       8.880 -11.754  14.144  1.00  0.00     0.177 C 
BRANCH  26  31
ATOM     31  O   UNL     1      11.078 -12.850  12.367  1.00  0.00    -0.384 OA
ATOM     32  H   UNL     1      11.712 -12.510  13.052  1.00  0.00     0.211 HD
ENDBRANCH  26  31
BRANCH  28  33
ATOM     33  O   UNL     1       9.074 -13.913  15.195  1.00  0.00    -0.387 OA
ATOM     34  H   UNL     1       9.416 -14.815  14.961  1.00  0.00     0.211 HD
ENDBRANCH  28  33
BRANCH  29  35
ATOM     35  C   UNL     1       6.838 -10.882  12.890  1.00  0.00     0.191 C 
BRANCH  35  36
ATOM     36  O   UNL     1       5.842 -10.730  13.864  1.00  0.00    -0.394 OA
ATOM     37  H   UNL     1       6.269 -10.952  14.732  1.00  0.00     0.210 HD
ENDBRANCH  35  36
ENDBRANCH  29  35
BRANCH  30  38
ATOM     38  O   UNL     1       8.398 -11.290  15.382  1.00  0.00    -0.387 OA
ATOM     39  H   UNL     1       8.939 -11.726  16.090  1.00  0.00     0.211 HD
ENDBRANCH  30  38
ENDBRANCH   1  25
TORSDOF 11
ENDMDL
MODEL 4
REMARK VINA RESULT:    -6.393      2.535      4.399
REMARK INTER + INTRA:         -10.548
REMARK INTER:                  -9.741
REMARK INTRA:                  -0.807
REMARK UNBOUND:                -1.352
REMARK SMILES O=c1c(O[C@H]2O[C@H](CO)[C@@H](O)[C@@H](O)[C@@H]2O)c(-c2ccc(O)cc2)oc2cc(O)cc(O)c12
REMARK SMILES IDX 4 1 3 2 16 3 24 4 2 5 25 6 1 7 32 8 26 9 30 10 27 11 29 12
REMARK SMILES IDX 17 13 18 14 19 15 20 16 23 17 22 18 21 19 31 21 28 23 5 25
REMARK SMILES IDX 14 26 6 27 12 28 7 29 10 30 15 31 13 33 8 35 9 36 11 38
REMARK H PARENT 21 20 31 22 28 24 15 32 13 34 9 37 11 39
REMARK Flexibility Score: inf
ROOT
ATOM      1  O   UNL     1       9.371 -15.791  12.220  1.00  0.00    -0.454 OA
ENDROOT
BRANCH   1   2
ATOM      2  C   UNL     1       9.015 -15.780  10.853  1.00  0.00     0.214 A 
ATOM      3  C   UNL     1       9.921 -16.337   9.931  1.00  0.00     0.180 A 
ATOM      4  O   UNL     1       9.684 -16.263   8.628  1.00  0.00    -0.452 OA
ATOM      5  C   UNL     1       7.821 -15.209  10.350  1.00  0.00     0.239 A 
ATOM      6  C   UNL     1       8.582 -15.735   8.115  1.00  0.00     0.146 A 
ATOM      7  O   UNL     1       7.018 -14.646  11.135  1.00  0.00    -0.285 OA
ATOM      8  C   UNL     1       7.561 -15.229   8.958  1.00  0.00     0.111 A 
ATOM      9  C   UNL     1       8.450 -15.683   6.725  1.00  0.00     0.094 A 
ATOM     10  C   UNL     1       6.366 -14.733   8.352  1.00  0.00     0.134 A 
ATOM     11  C   UNL     1       7.311 -15.132   6.144  1.00  0.00     0.123 A 
ATOM     12  C   UNL     1       6.278 -14.659   6.957  1.00  0.00     0.093 A 
BRANCH   3  13
ATOM     13  C   UNL     1      11.171 -16.991  10.368  1.00  0.00     0.021 A 
ATOM     14  C   UNL     1      11.148 -18.252  10.985  1.00  0.00     0.016 A 
ATOM     15  C   UNL     1      12.340 -18.870  11.376  1.00  0.00     0.047 A 
ATOM     16  C   UNL     1      13.567 -18.244  11.139  1.00  0.00     0.115 A 
ATOM     17  C   UNL     1      12.407 -16.377  10.110  1.00  0.00     0.016 A 
ATOM     18  C   UNL     1      13.598 -16.997  10.500  1.00  0.00     0.047 A 
BRANCH  16  19
ATOM     19  O   UNL     1      14.747 -18.869  11.536  1.00  0.00    -0.508 OA
ATOM     20  H   UNL     1      14.921 -19.103  12.506  1.00  0.00     0.293 HD
ENDBRANCH  16  19
ENDBRANCH   3  13
BRANCH  10  21
ATOM     21  O   UNL     1       5.237 -14.336   9.073  1.00  0.00    -0.507 OA
ATOM     22  H   UNL     1       5.160 -13.468   9.583  1.00  0.00     0.293 HD
ENDBRANCH  10  21
BRANCH  11  23
ATOM     23  O   UNL     1       7.208 -15.070   4.756  1.00  0.00    -0.508 OA
ATOM     24  H   UNL     1       7.326 -15.895   4.179  1.00  0.00     0.293 HD
ENDBRANCH  11  23
ENDBRANCH   1   2
BRANCH   1  25
ATOM     25  C   UNL     1       8.816 -14.984  13.266  1.00  0.00     0.339 C 
ATOM     26  C   UNL     1       9.510 -13.610  13.323  1.00  0.00     0.214 C 
ATOM     27  O   UNL     1       8.875 -15.645  14.522  1.00  0.00    -0.332 OA
ATOM     28  C   UNL     1      10.950 -13.735  13.861  1.00  0.00     0.180 C 
ATOM     29  C   UNL     1      10.212 -15.910  14.915  1.00  0.00     0.179 C 
ATOM     30  C   UNL     1      10.975 -14.582  15.144  1.00  0.00     0.177 C 
BRANCH  26  31
ATOM     31  O   UNL     1       8.763 -12.759  14.155  1.00  0.00    -0.384 OA
ATOM     32  H   UNL     1       7.991 -13.286  14.491  1.00  0.00     0.211 HD
ENDBRANCH  26  31
BRANCH  28  33
ATOM     33  O   UNL     1      11.783 -14.315  12.890  1.00  0.00    -0.387 OA
ATOM     34  H   UNL     1      12.491 -14.812  13.377  1.00  0.00     0.211 HD
ENDBRANCH  28  33
BRANCH  29  35
ATOM     35  C   UNL     1      10.165 -16.761  16.191  1.00  0.00     0.191 C 
BRANCH  35  36
ATOM     36  O   UNL     1      10.635 -16.026  17.288  1.00  0.00    -0.394 OA
ATOM     37  H   UNL     1       9.959 -15.319  17.456  1.00  0.00     0.210 HD
ENDBRANCH  35  36
ENDBRANCH  29  35
BRANCH  30  38
ATOM     38  O   UNL     1      12.312 -14.831  15.502  1.00  0.00    -0.387 OA
ATOM     39  H   UNL     1      12.692 -13.977  15.834  1.00  0.00     0.211 HD
ENDBRANCH  30  38
ENDBRANCH   1  25
TORSDOF 11
ENDMDL
MODEL 5
REMARK VINA RESULT:    -6.339      5.054      7.243
REMARK INTER + INTRA:         -10.471
REMARK INTER:                  -8.858
REMARK INTRA:                  -1.612
REMARK UNBOUND:                -1.352
REMARK SMILES O=c1c(O[C@H]2O[C@H](CO)[C@@H](O)[C@@H](O)[C@@H]2O)c(-c2ccc(O)cc2)oc2cc(O)cc(O)c12
REMARK SMILES IDX 4 1 3 2 16 3 24 4 2 5 25 6 1 7 32 8 26 9 30 10 27 11 29 12
REMARK SMILES IDX 17 13 18 14 19 15 20 16 23 17 22 18 21 19 31 21 28 23 5 25
REMARK SMILES IDX 14 26 6 27 12 28 7 29 10 30 15 31 13 33 8 35 9 36 11 38
REMARK H PARENT 21 20 31 22 28 24 15 32 13 34 9 37 11 39
REMARK Flexibility Score: inf
ROOT
ATOM      1  O   UNL     1      10.669 -16.786  12.997  1.00  0.00    -0.454 OA
ENDROOT
BRANCH   1   2
ATOM      2  C   UNL     1      11.121 -18.112  12.819  1.00  0.00     0.214 A 
ATOM      3  C   UNL     1      11.782 -18.428  11.616  1.00  0.00     0.180 A 
ATOM      4  O   UNL     1      12.138 -19.678  11.354  1.00  0.00    -0.452 OA
ATOM      5  C   UNL     1      10.918 -19.151  13.758  1.00  0.00     0.239 A 
ATOM      6  C   UNL     1      11.964 -20.680  12.204  1.00  0.00     0.146 A 
ATOM      7  O   UNL     1      10.277 -18.922  14.815  1.00  0.00    -0.285 OA
ATOM      8  C   UNL     1      11.393 -20.456  13.482  1.00  0.00     0.111 A 
ATOM      9  C   UNL     1      12.351 -21.964  11.812  1.00  0.00     0.094 A 
ATOM     10  C   UNL     1      11.290 -21.561  14.382  1.00  0.00     0.134 A 
ATOM     11  C   UNL     1      12.181 -23.046  12.671  1.00  0.00     0.123 A 
ATOM     12  C   UNL     1      11.652 -22.842  13.947  1.00  0.00     0.093 A 
BRANCH   3  13
ATOM     13  C   UNL     1      12.075 -17.400  10.597  1.00  0.00     0.021 A 
ATOM     14  C   UNL     1      13.279 -16.678  10.626  1.00  0.00     0.016 A 
ATOM     15  C   UNL     1      13.553 -15.722   9.643  1.00  0.00     0.047 A 
ATOM     16  C   UNL     1      12.637 -15.489   8.613  1.00  0.00     0.115 A 
ATOM     17  C   UNL     1      11.169 -17.180   9.548  1.00  0.00     0.016 A 
ATOM     18  C   UNL     1      11.445 -16.224   8.565  1.00  0.00     0.047 A 
BRANCH  16  19
ATOM     19  O   UNL     1      12.921 -14.531   7.642  1.00  0.00    -0.508 OA
ATOM     20  H   UNL     1      13.748 -13.949   7.699  1.00  0.00     0.293 HD
ENDBRANCH  16  19
ENDBRANCH   3  13
BRANCH  10  21
ATOM     21  O   UNL     1      10.875 -21.444  15.711  1.00  0.00    -0.507 OA
ATOM     22  H   UNL     1      10.231 -22.075  16.165  1.00  0.00     0.293 HD
ENDBRANCH  10  21
BRANCH  11  23
ATOM     23  O   UNL     1      12.553 -24.322  12.252  1.00  0.00    -0.508 OA
ATOM     24  H   UNL     1      12.308 -25.148  12.787  1.00  0.00     0.293 HD
ENDBRANCH  11  23
ENDBRANCH   1   2
BRANCH   1  25
ATOM     25  C   UNL     1      11.388 -15.697  13.588  1.00  0.00     0.339 C 
ATOM     26  C   UNL     1      11.168 -15.659  15.113  1.00  0.00     0.214 C 
ATOM     27  O   UNL     1      11.045 -14.457  12.987  1.00  0.00    -0.332 OA
ATOM     28  C   UNL     1       9.733 -15.209  15.458  1.00  0.00     0.180 C 
ATOM     29  C   UNL     1       9.672 -14.146  13.165  1.00  0.00     0.179 C 
ATOM     30  C   UNL     1       9.362 -13.943  14.669  1.00  0.00     0.177 C 
BRANCH  26  31
ATOM     31  O   UNL     1      12.096 -14.772  15.684  1.00  0.00    -0.384 OA
ATOM     32  H   UNL     1      12.638 -14.401  14.939  1.00  0.00     0.211 HD
ENDBRANCH  26  31
BRANCH  28  33
ATOM     33  O   UNL     1       8.819 -16.236  15.170  1.00  0.00    -0.387 OA
ATOM     34  H   UNL     1       7.951 -15.971  15.574  1.00  0.00     0.211 HD
ENDBRANCH  28  33
BRANCH  29  35
ATOM     35  C   UNL     1       9.367 -12.883  12.350  1.00  0.00     0.191 C 
BRANCH  35  36
ATOM     36  O   UNL     1       9.480 -11.741  13.154  1.00  0.00    -0.394 OA
ATOM     37  H   UNL     1      10.308 -11.279  12.862  1.00  0.00     0.210 HD
ENDBRANCH  35  36
ENDBRANCH  29  35
BRANCH  30  38
ATOM     38  O   UNL     1       7.996 -13.667  14.862  1.00  0.00    -0.387 OA
ATOM     39  H   UNL     1       7.867 -12.695  14.710  1.00  0.00     0.211 HD
ENDBRANCH  30  38
ENDBRANCH   1  25
TORSDOF 11
ENDMDL
MODEL 6
REMARK VINA RESULT:    -6.329      1.920      5.112
REMARK INTER + INTRA:         -10.456
REMARK INTER:                  -9.059
REMARK INTRA:                  -1.397
REMARK UNBOUND:                -1.352
REMARK SMILES O=c1c(O[C@H]2O[C@H](CO)[C@@H](O)[C@@H](O)[C@@H]2O)c(-c2ccc(O)cc2)oc2cc(O)cc(O)c12
REMARK SMILES IDX 4 1 3 2 16 3 24 4 2 5 25 6 1 7 32 8 26 9 30 10 27 11 29 12
REMARK SMILES IDX 17 13 18 14 19 15 20 16 23 17 22 18 21 19 31 21 28 23 5 25
REMARK SMILES IDX 14 26 6 27 12 28 7 29 10 30 15 31 13 33 8 35 9 36 11 38
REMARK H PARENT 21 20 31 22 28 24 15 32 13 34 9 37 11 39
REMARK Flexibility Score: inf
ROOT
ATOM      1  O   UNL     1      10.370 -15.769   9.931  1.00  0.00    -0.454 OA
ENDROOT
BRANCH   1   2
ATOM      2  C   UNL     1       8.987 -15.848  10.204  1.00  0.00     0.214 A 
ATOM      3  C   UNL     1       8.573 -15.766  11.547  1.00  0.00     0.180 A 
ATOM      4  O   UNL     1       7.298 -15.935  11.869  1.00  0.00    -0.452 OA
ATOM      5  C   UNL     1       7.994 -16.043   9.214  1.00  0.00     0.239 A 
ATOM      6  C   UNL     1       6.338 -16.123  10.975  1.00  0.00     0.146 A 
ATOM      7  O   UNL     1       8.329 -16.184   8.011  1.00  0.00    -0.285 OA
ATOM      8  C   UNL     1       6.630 -16.129   9.588  1.00  0.00     0.111 A 
ATOM      9  C   UNL     1       5.031 -16.319  11.428  1.00  0.00     0.094 A 
ATOM     10  C   UNL     1       5.548 -16.268   8.667  1.00  0.00     0.134 A 
ATOM     11  C   UNL     1       3.993 -16.524  10.523  1.00  0.00     0.123 A 
ATOM     12  C   UNL     1       4.254 -16.500   9.152  1.00  0.00     0.093 A 
BRANCH   3  13
ATOM     13  C   UNL     1       9.534 -15.522  12.642  1.00  0.00     0.021 A 
ATOM     14  C   UNL     1       9.894 -14.215  13.008  1.00  0.00     0.016 A 
ATOM     15  C   UNL     1      10.789 -13.997  14.060  1.00  0.00     0.047 A 
ATOM     16  C   UNL     1      11.319 -15.080  14.768  1.00  0.00     0.115 A 
ATOM     17  C   UNL     1      10.050 -16.605  13.372  1.00  0.00     0.016 A 
ATOM     18  C   UNL     1      10.944 -16.385  14.425  1.00  0.00     0.047 A 
BRANCH  16  19
ATOM     19  O   UNL     1      12.213 -14.849  15.812  1.00  0.00    -0.508 OA
ATOM     20  H   UNL     1      12.689 -15.610  16.280  1.00  0.00     0.293 HD
ENDBRANCH  16  19
ENDBRANCH   3  13
BRANCH  10  21
ATOM     21  O   UNL     1       5.686 -16.153   7.281  1.00  0.00    -0.507 OA
ATOM     22  H   UNL     1       5.928 -16.916   6.666  1.00  0.00     0.293 HD
ENDBRANCH  10  21
BRANCH  11  23
ATOM     23  O   UNL     1       2.700 -16.741  10.997  1.00  0.00    -0.508 OA
ATOM     24  H   UNL     1       2.456 -17.586  11.501  1.00  0.00     0.293 HD
ENDBRANCH  11  23
ENDBRANCH   1   2
BRANCH   1  25
ATOM     25  C   UNL     1      11.252 -16.850   9.604  1.00  0.00     0.339 C 
ATOM     26  C   UNL     1      12.601 -16.694  10.332  1.00  0.00     0.214 C 
ATOM     27  O   UNL     1      11.433 -16.970   8.201  1.00  0.00    -0.332 OA
ATOM     28  C   UNL     1      13.424 -15.532   9.737  1.00  0.00     0.180 C 
ATOM     29  C   UNL     1      12.033 -15.810   7.646  1.00  0.00     0.179 C 
ATOM     30  C   UNL     1      13.466 -15.631   8.204  1.00  0.00     0.177 C 
BRANCH  26  31
ATOM     31  O   UNL     1      13.321 -17.896  10.215  1.00  0.00    -0.384 OA
ATOM     32  H   UNL     1      13.513 -18.026   9.249  1.00  0.00     0.211 HD
ENDBRANCH  26  31
BRANCH  28  33
ATOM     33  O   UNL     1      12.871 -14.299  10.121  1.00  0.00    -0.387 OA
ATOM     34  H   UNL     1      12.197 -14.492  10.824  1.00  0.00     0.211 HD
ENDBRANCH  28  33
BRANCH  29  35
ATOM     35  C   UNL     1      12.037 -15.969   6.120  1.00  0.00     0.191 C 
BRANCH  35  36
ATOM     36  O   UNL     1      13.337 -16.211   5.656  1.00  0.00    -0.394 OA
ATOM     37  H   UNL     1      13.330 -17.131   5.282  1.00  0.00     0.210 HD
ENDBRANCH  35  36
ENDBRANCH  29  35
BRANCH  30  38
ATOM     38  O   UNL     1      14.059 -14.465   7.686  1.00  0.00    -0.387 OA
ATOM     39  H   UNL     1      14.912 -14.735   7.256  1.00  0.00     0.211 HD
ENDBRANCH  30  38
ENDBRANCH   1  25
TORSDOF 11
ENDMDL
MODEL 7
REMARK VINA RESULT:    -6.294      2.888      6.219
REMARK INTER + INTRA:         -10.406
REMARK INTER:                  -9.162
REMARK INTRA:                  -1.244
REMARK UNBOUND:                -1.352
REMARK SMILES O=c1c(O[C@H]2O[C@H](CO)[C@@H](O)[C@@H](O)[C@@H]2O)c(-c2ccc(O)cc2)oc2cc(O)cc(O)c12
REMARK SMILES IDX 4 1 3 2 16 3 24 4 2 5 25 6 1 7 32 8 26 9 30 10 27 11 29 12
REMARK SMILES IDX 17 13 18 14 19 15 20 16 23 17 22 18 21 19 31 21 28 23 5 25
REMARK SMILES IDX 14 26 6 27 12 28 7 29 10 30 15 31 13 33 8 35 9 36 11 38
REMARK H PARENT 21 20 31 22 28 24 15 32 13 34 9 37 11 39
REMARK Flexibility Score: inf
ROOT
ATOM      1  O   UNL     1      12.705 -16.836   8.017  1.00  0.00    -0.454 OA
ENDROOT
BRANCH   1   2
ATOM      2  C   UNL     1      11.321 -16.580   8.136  1.00  0.00     0.214 A 
ATOM      3  C   UNL     1      10.724 -16.757   9.399  1.00  0.00     0.180 A 
ATOM      4  O   UNL     1       9.412 -16.628   9.545  1.00  0.00    -0.452 OA
ATOM      5  C   UNL     1      10.491 -16.193   7.056  1.00  0.00     0.239 A 
ATOM      6  C   UNL     1       8.599 -16.271   8.561  1.00  0.00     0.146 A 
ATOM      7  O   UNL     1      10.976 -16.086   5.902  1.00  0.00    -0.285 OA
ATOM      8  C   UNL     1       9.108 -15.977   7.271  1.00  0.00     0.111 A 
ATOM      9  C   UNL     1       7.229 -16.194   8.821  1.00  0.00     0.094 A 
ATOM     10  C   UNL     1       8.195 -15.532   6.267  1.00  0.00     0.134 A 
ATOM     11  C   UNL     1       6.339 -15.827   7.814  1.00  0.00     0.123 A 
ATOM     12  C   UNL     1       6.823 -15.501   6.546  1.00  0.00     0.093 A 
BRANCH   3  13
ATOM     13  C   UNL     1      11.518 -17.118  10.590  1.00  0.00     0.021 A 
ATOM     14  C   UNL     1      12.201 -18.344  10.657  1.00  0.00     0.016 A 
ATOM     15  C   UNL     1      12.966 -18.666  11.782  1.00  0.00     0.047 A 
ATOM     16  C   UNL     1      13.072 -17.762  12.843  1.00  0.00     0.115 A 
ATOM     17  C   UNL     1      11.647 -16.204  11.647  1.00  0.00     0.016 A 
ATOM     18  C   UNL     1      12.414 -16.527  12.771  1.00  0.00     0.047 A 
BRANCH  16  19
ATOM     19  O   UNL     1      13.834 -18.097  13.959  1.00  0.00    -0.508 OA
ATOM     20  H   UNL     1      13.414 -18.207  14.875  1.00  0.00     0.293 HD
ENDBRANCH  16  19
ENDBRANCH   3  13
BRANCH  10  21
ATOM     21  O   UNL     1       8.587 -15.083   5.003  1.00  0.00    -0.507 OA
ATOM     22  H   UNL     1       9.293 -14.380   4.841  1.00  0.00     0.293 HD
ENDBRANCH  10  21
BRANCH  11  23
ATOM     23  O   UNL     1       4.973 -15.779   8.088  1.00  0.00    -0.508 OA
ATOM     24  H   UNL     1       4.605 -15.214   8.845  1.00  0.00     0.293 HD
ENDBRANCH  11  23
ENDBRANCH   1   2
BRANCH   1  25
ATOM     25  C   UNL     1      13.782 -16.002   8.462  1.00  0.00     0.339 C 
ATOM     26  C   UNL     1      13.985 -14.812   7.505  1.00  0.00     0.214 C 
ATOM     27  O   UNL     1      14.982 -16.744   8.626  1.00  0.00    -0.332 OA
ATOM     28  C   UNL     1      14.586 -15.275   6.161  1.00  0.00     0.180 C 
ATOM     29  C   UNL     1      15.423 -17.311   7.403  1.00  0.00     0.179 C 
ATOM     30  C   UNL     1      15.796 -16.192   6.399  1.00  0.00     0.177 C 
BRANCH  26  31
ATOM     31  O   UNL     1      14.843 -13.881   8.114  1.00  0.00    -0.384 OA
ATOM     32  H   UNL     1      14.603 -13.853   9.078  1.00  0.00     0.211 HD
ENDBRANCH  26  31
BRANCH  28  33
ATOM     33  O   UNL     1      13.616 -15.951   5.402  1.00  0.00    -0.387 OA
ATOM     34  H   UNL     1      12.958 -15.270   5.104  1.00  0.00     0.211 HD
ENDBRANCH  28  33
BRANCH  29  35
ATOM     35  C   UNL     1      16.622 -18.217   7.710  1.00  0.00     0.191 C 
BRANCH  35  36
ATOM     36  O   UNL     1      16.955 -18.987   6.588  1.00  0.00    -0.394 OA
ATOM     37  H   UNL     1      16.866 -19.935   6.868  1.00  0.00     0.210 HD
ENDBRANCH  35  36
ENDBRANCH  29  35
BRANCH  30  38
ATOM     38  O   UNL     1      16.203 -16.742   5.170  1.00  0.00    -0.387 OA
ATOM     39  H   UNL     1      15.392 -16.830   4.605  1.00  0.00     0.211 HD
ENDBRANCH  30  38
ENDBRANCH   1  25
TORSDOF 11
ENDMDL
MODEL 8
REMARK VINA RESULT:    -6.242      2.102      7.229
REMARK INTER + INTRA:         -10.331
REMARK INTER:                  -9.030
REMARK INTRA:                  -1.301
REMARK UNBOUND:                -1.352
REMARK SMILES O=c1c(O[C@H]2O[C@H](CO)[C@@H](O)[C@@H](O)[C@@H]2O)c(-c2ccc(O)cc2)oc2cc(O)cc(O)c12
REMARK SMILES IDX 4 1 3 2 16 3 24 4 2 5 25 6 1 7 32 8 26 9 30 10 27 11 29 12
REMARK SMILES IDX 17 13 18 14 19 15 20 16 23 17 22 18 21 19 31 21 28 23 5 25
REMARK SMILES IDX 14 26 6 27 12 28 7 29 10 30 15 31 13 33 8 35 9 36 11 38
REMARK H PARENT 21 20 31 22 28 24 15 32 13 34 9 37 11 39
REMARK Flexibility Score: inf
ROOT
ATOM      1  O   UNL     1       8.569 -15.590   9.617  1.00  0.00    -0.454 OA
ENDROOT
BRANCH   1   2
ATOM      2  C   UNL     1       8.679 -15.653  11.024  1.00  0.00     0.214 A 
ATOM      3  C   UNL     1       7.490 -15.680  11.777  1.00  0.00     0.180 A 
ATOM      4  O   UNL     1       7.533 -15.637  13.102  1.00  0.00    -0.452 OA
ATOM      5  C   UNL     1       9.909 -15.653  11.723  1.00  0.00     0.239 A 
ATOM      6  C   UNL     1       8.663 -15.633  13.796  1.00  0.00     0.146 A 
ATOM      7  O   UNL     1      10.990 -15.566  11.088  1.00  0.00    -0.285 OA
ATOM      8  C   UNL     1       9.917 -15.699  13.139  1.00  0.00     0.111 A 
ATOM      9  C   UNL     1       8.591 -15.557  15.189  1.00  0.00     0.094 A 
ATOM     10  C   UNL     1      11.099 -15.758  13.938  1.00  0.00     0.134 A 
ATOM     11  C   UNL     1       9.753 -15.544  15.956  1.00  0.00     0.123 A 
ATOM     12  C   UNL     1      10.998 -15.643  15.330  1.00  0.00     0.093 A 
BRANCH   3  13
ATOM     13  C   UNL     1       6.162 -15.724  11.132  1.00  0.00     0.021 A 
ATOM     14  C   UNL     1       5.711 -14.660  10.335  1.00  0.00     0.016 A 
ATOM     15  C   UNL     1       4.461 -14.723   9.713  1.00  0.00     0.047 A 
ATOM     16  C   UNL     1       3.655 -15.855   9.867  1.00  0.00     0.115 A 
ATOM     17  C   UNL     1       5.360 -16.869  11.264  1.00  0.00     0.016 A 
ATOM     18  C   UNL     1       4.110 -16.931  10.640  1.00  0.00     0.047 A 
BRANCH  16  19
ATOM     19  O   UNL     1       2.410 -15.903   9.245  1.00  0.00    -0.508 OA
ATOM     20  H   UNL     1       2.101 -16.726   8.740  1.00  0.00     0.293 HD
ENDBRANCH  16  19
ENDBRANCH   3  13
BRANCH  10  21
ATOM     21  O   UNL     1      12.380 -15.962  13.418  1.00  0.00    -0.507 OA
ATOM     22  H   UNL     1      13.236 -15.744  13.907  1.00  0.00     0.293 HD
ENDBRANCH  10  21
BRANCH  11  23
ATOM     23  O   UNL     1       9.661 -15.446  17.343  1.00  0.00    -0.508 OA
ATOM     24  H   UNL     1       8.883 -15.851  17.852  1.00  0.00     0.293 HD
ENDBRANCH  11  23
ENDBRANCH   1   2
BRANCH   1  25
ATOM     25  C   UNL     1       8.238 -16.662   8.725  1.00  0.00     0.339 C 
ATOM     26  C   UNL     1       9.506 -17.414   8.278  1.00  0.00     0.214 C 
ATOM     27  O   UNL     1       7.492 -16.199   7.608  1.00  0.00    -0.332 OA
ATOM     28  C   UNL     1      10.351 -16.558   7.313  1.00  0.00     0.180 C 
ATOM     29  C   UNL     1       8.230 -15.272   6.829  1.00  0.00     0.179 C 
ATOM     30  C   UNL     1       9.467 -15.964   6.204  1.00  0.00     0.177 C 
BRANCH  26  31
ATOM     31  O   UNL     1       9.125 -18.610   7.645  1.00  0.00    -0.384 OA
ATOM     32  H   UNL     1       8.137 -18.585   7.549  1.00  0.00     0.211 HD
ENDBRANCH  26  31
BRANCH  28  33
ATOM     33  O   UNL     1      10.994 -15.525   8.015  1.00  0.00    -0.387 OA
ATOM     34  H   UNL     1      11.355 -14.896   7.337  1.00  0.00     0.211 HD
ENDBRANCH  28  33
BRANCH  29  35
ATOM     35  C   UNL     1       7.292 -14.713   5.752  1.00  0.00     0.191 C 
BRANCH  35  36
ATOM     36  O   UNL     1       7.584 -13.367   5.498  1.00  0.00    -0.394 OA
ATOM     37  H   UNL     1       8.572 -13.305   5.440  1.00  0.00     0.210 HD
ENDBRANCH  35  36
ENDBRANCH  29  35
BRANCH  30  38
ATOM     38  O   UNL     1      10.226 -15.045   5.457  1.00  0.00    -0.387 OA
ATOM     39  H   UNL     1      10.340 -14.234   6.016  1.00  0.00     0.211 HD
ENDBRANCH  30  38
ENDBRANCH   1  25
TORSDOF 11
ENDMDL
MODEL 9
REMARK VINA RESULT:    -6.164      6.699      9.700
REMARK INTER + INTRA:         -10.218
REMARK INTER:                  -8.702
REMARK INTRA:                  -1.516
REMARK UNBOUND:                -1.352
REMARK SMILES O=c1c(O[C@H]2O[C@H](CO)[C@@H](O)[C@@H](O)[C@@H]2O)c(-c2ccc(O)cc2)oc2cc(O)cc(O)c12
REMARK SMILES IDX 4 1 3 2 16 3 24 4 2 5 25 6 1 7 32 8 26 9 30 10 27 11 29 12
REMARK SMILES IDX 17 13 18 14 19 15 20 16 23 17 22 18 21 19 31 21 28 23 5 25
REMARK SMILES IDX 14 26 6 27 12 28 7 29 10 30 15 31 13 33 8 35 9 36 11 38
REMARK H PARENT 21 20 31 22 28 24 15 32 13 34 9 37 11 39
REMARK Flexibility Score: inf
ROOT
ATOM      1  O   UNL     1      11.894 -19.914  14.422  1.00  0.00    -0.454 OA
ENDROOT
BRANCH   1   2
ATOM      2  C   UNL     1      12.187 -21.290  14.295  1.00  0.00     0.214 A 
ATOM      3  C   UNL     1      13.366 -21.653  13.618  1.00  0.00     0.180 A 
ATOM      4  O   UNL     1      13.639 -22.930  13.381  1.00  0.00    -0.452 OA
ATOM      5  C   UNL     1      11.348 -22.325  14.773  1.00  0.00     0.239 A 
ATOM      6  C   UNL     1      12.880 -23.929  13.808  1.00  0.00     0.146 A 
ATOM      7  O   UNL     1      10.257 -22.041  15.326  1.00  0.00    -0.285 OA
ATOM      8  C   UNL     1      11.718 -23.679  14.580  1.00  0.00     0.111 A 
ATOM      9  C   UNL     1      13.247 -25.235  13.476  1.00  0.00     0.094 A 
ATOM     10  C   UNL     1      10.976 -24.797  15.069  1.00  0.00     0.134 A 
ATOM     11  C   UNL     1      12.476 -26.315  13.899  1.00  0.00     0.123 A 
ATOM     12  C   UNL     1      11.347 -26.093  14.690  1.00  0.00     0.093 A 
BRANCH   3  13
ATOM     13  C   UNL     1      14.321 -20.641  13.121  1.00  0.00     0.021 A 
ATOM     14  C   UNL     1      15.378 -20.191  13.928  1.00  0.00     0.016 A 
ATOM     15  C   UNL     1      16.288 -19.248  13.439  1.00  0.00     0.047 A 
ATOM     16  C   UNL     1      16.161 -18.758  12.136  1.00  0.00     0.115 A 
ATOM     17  C   UNL     1      14.212 -20.166  11.805  1.00  0.00     0.016 A 
ATOM     18  C   UNL     1      15.123 -19.224  11.317  1.00  0.00     0.047 A 
BRANCH  16  19
ATOM     19  O   UNL     1      17.071 -17.817  11.662  1.00  0.00    -0.508 OA
ATOM     20  H   UNL     1      17.196 -17.651  10.671  1.00  0.00     0.293 HD
ENDBRANCH  16  19
ENDBRANCH   3  13
BRANCH  10  21
ATOM     21  O   UNL     1       9.897 -24.687  15.951  1.00  0.00    -0.507 OA
ATOM     22  H   UNL     1       9.360 -25.469  16.296  1.00  0.00     0.293 HD
ENDBRANCH  10  21
BRANCH  11  23
ATOM     23  O   UNL     1      12.848 -27.609  13.539  1.00  0.00    -0.508 OA
ATOM     24  H   UNL     1      12.202 -28.386  13.617  1.00  0.00     0.293 HD
ENDBRANCH  11  23
ENDBRANCH   1   2
BRANCH   1  25
ATOM     25  C   UNL     1      10.801 -19.202  13.830  1.00  0.00     0.339 C 
ATOM     26  C   UNL     1      11.310 -18.164  12.812  1.00  0.00     0.214 C 
ATOM     27  O   UNL     1       9.977 -18.597  14.816  1.00  0.00    -0.332 OA
ATOM     28  C   UNL     1      12.004 -16.982  13.521  1.00  0.00     0.180 C 
ATOM     29  C   UNL     1      10.687 -17.634  15.577  1.00  0.00     0.179 C 
ATOM     30  C   UNL     1      11.130 -16.458  14.673  1.00  0.00     0.177 C 
BRANCH  26  31
ATOM     31  O   UNL     1      10.221 -17.695  12.058  1.00  0.00    -0.384 OA
ATOM     32  H   UNL     1      10.067 -16.751  12.327  1.00  0.00     0.211 HD
ENDBRANCH  26  31
BRANCH  28  33
ATOM     33  O   UNL     1      13.257 -17.379  14.014  1.00  0.00    -0.387 OA
ATOM     34  H   UNL     1      13.887 -16.632  13.837  1.00  0.00     0.211 HD
ENDBRANCH  28  33
BRANCH  29  35
ATOM     35  C   UNL     1       9.767 -17.159  16.709  1.00  0.00     0.191 C 
BRANCH  35  36
ATOM     36  O   UNL     1      10.498 -16.452  17.672  1.00  0.00    -0.394 OA
ATOM     37  H   UNL     1      10.888 -17.133  18.279  1.00  0.00     0.210 HD
ENDBRANCH  35  36
ENDBRANCH  29  35
BRANCH  30  38
ATOM     38  O   UNL     1      11.866 -15.513  15.410  1.00  0.00    -0.387 OA
ATOM     39  H   UNL     1      12.694 -15.961  15.721  1.00  0.00     0.211 HD
ENDBRANCH  30  38
ENDBRANCH   1  25
TORSDOF 11
ENDMDL
