MODEL 1
REMARK VINA RESULT:    -1.419      0.000      0.000
REMARK INTER + INTRA:          -2.809
REMARK INTER:                  -1.917
REMARK INTRA:                  -0.891
REMARK UNBOUND:                -0.891
REMARK SMILES CC[C@H](CC[C@H](C)[C@H]1CC[C@@H]2[C@H]3CC(=O)C4=CC(=O)CC[C@@]4(C)[C@@H]3CC[C@@]21C)C(C)C
REMARK SMILES IDX 4 1 3 2 2 3 1 4 29 5 30 6 31 7 5 8 6 9 7 10 8 11 9 12 27 13
REMARK SMILES IDX 10 14 11 15 26 16 28 17 12 18 25 19 24 20 13 21 22 22 14 23
REMARK SMILES IDX 16 24 21 25 23 26 15 27 17 28 20 29 18 30 19 31
REMARK H PARENT
REMARK Flexibility Score: inf
ROOT
ATOM      1  C   UNL     1     -23.063  13.984 -30.636  1.00  0.00     0.004 C 
ENDROOT
BRANCH   1   2
ATOM      2  C   UNL     1     -24.530  14.153 -30.152  1.00  0.00    -0.009 C 
BRANCH   2   3
ATOM      3  C   UNL     1     -25.225  15.348 -30.868  1.00  0.00     0.000 C 
ATOM      4  C   UNL     1     -26.259  16.112 -30.040  1.00  0.00     0.004 C 
ENDBRANCH   2   3
BRANCH   2   5
ATOM      5  C   UNL     1     -25.344  12.810 -30.107  1.00  0.00    -0.014 C 
ATOM      6  C   UNL     1     -26.702  12.839 -30.835  1.00  0.00     0.007 C 
ATOM      7  C   UNL     1     -25.516  12.262 -28.682  1.00  0.00     0.007 C 
ENDBRANCH   2   5
ENDBRANCH   1   2
BRANCH   1   8
ATOM      8  C   UNL     1     -22.103  13.575 -29.499  1.00  0.00     0.004 C 
BRANCH   8   9
ATOM      9  C   UNL     1     -21.440  12.190 -29.731  1.00  0.00    -0.011 C 
ATOM     10  C   UNL     1     -22.333  11.074 -29.142  1.00  0.00     0.008 C 
BRANCH   9  11
ATOM     11  C   UNL     1     -19.966  12.193 -29.182  1.00  0.00    -0.002 C 
ATOM     12  C   UNL     1     -19.656  11.186 -28.081  1.00  0.00     0.005 C 
ATOM     13  C   UNL     1     -18.806  12.035 -30.211  1.00  0.00    -0.026 C 
ATOM     14  C   UNL     1     -18.147  11.267 -27.933  1.00  0.00     0.005 C 
ATOM     15  C   UNL     1     -17.581  11.617 -29.329  1.00  0.00    -0.001 C 
ATOM     16  C   UNL     1     -18.568  13.378 -30.956  1.00  0.00     0.007 C 
ATOM     17  C   UNL     1     -19.081  10.913 -31.246  1.00  0.00     0.012 C 
ATOM     18  C   UNL     1     -16.455  12.694 -29.265  1.00  0.00     0.004 C 
ATOM     19  C   UNL     1     -17.203  13.430 -31.648  1.00  0.00     0.005 C 
ATOM     20  C   UNL     1     -16.000  13.106 -30.702  1.00  0.00     0.003 C 
ATOM     21  C   UNL     1     -15.253  12.153 -28.463  1.00  0.00     0.085 C 
ATOM     22  C   UNL     1     -14.877  14.219 -30.697  1.00  0.00    -0.000 C 
ATOM     23  C   UNL     1     -14.088  13.090 -28.495  1.00  0.00     0.159 C 
ATOM     24  C   UNL     1     -13.751  13.815 -29.739  1.00  0.00     0.005 C 
ATOM     25  C   UNL     1     -14.296  14.358 -32.142  1.00  0.00     0.020 C 
ATOM     26  C   UNL     1     -15.429  15.585 -30.207  1.00  0.00     0.017 C 
ATOM     27  O   UNL     1     -13.349  13.187 -27.476  1.00  0.00    -0.295 OA
ATOM     28  C   UNL     1     -12.478  14.205 -29.948  1.00  0.00     0.055 C 
ATOM     29  C   UNL     1     -13.072  15.277 -32.218  1.00  0.00     0.081 C 
ATOM     30  C   UNL     1     -12.073  14.932 -31.160  1.00  0.00     0.156 C 
ATOM     31  O   UNL     1     -10.875  15.300 -31.292  1.00  0.00    -0.295 OA
ENDBRANCH   9  11
ENDBRANCH   8   9
ENDBRANCH   1   8
TORSDOF 6
ENDMDL
MODEL 2
REMARK VINA RESULT:    -0.092      3.695      9.627
REMARK INTER + INTRA:          -1.015
REMARK INTER:                  -0.574
REMARK INTRA:                  -0.441
REMARK UNBOUND:                -0.891
REMARK SMILES CC[C@H](CC[C@H](C)[C@H]1CC[C@@H]2[C@H]3CC(=O)C4=CC(=O)CC[C@@]4(C)[C@@H]3CC[C@@]21C)C(C)C
REMARK SMILES IDX 4 1 3 2 2 3 1 4 29 5 30 6 31 7 5 8 6 9 7 10 8 11 9 12 27 13
REMARK SMILES IDX 10 14 11 15 26 16 28 17 12 18 25 19 24 20 13 21 22 22 14 23
REMARK SMILES IDX 16 24 21 25 23 26 15 27 17 28 20 29 18 30 19 31
REMARK H PARENT
REMARK Flexibility Score: inf
ROOT
ATOM      1  C   UNL     1     -15.454  11.387 -29.817  1.00  0.00     0.004 C 
ENDROOT
BRANCH   1   2
ATOM      2  C   UNL     1     -14.971  12.777 -29.318  1.00  0.00    -0.009 C 
BRANCH   2   3
ATOM      3  C   UNL     1     -13.747  12.639 -28.366  1.00  0.00     0.000 C 
ATOM      4  C   UNL     1     -12.859  11.414 -28.593  1.00  0.00     0.004 C 
ENDBRANCH   2   3
BRANCH   2   5
ATOM      5  C   UNL     1     -14.840  13.852 -30.456  1.00  0.00    -0.014 C 
ATOM      6  C   UNL     1     -15.345  13.407 -31.843  1.00  0.00     0.007 C 
ATOM      7  C   UNL     1     -13.423  14.435 -30.567  1.00  0.00     0.007 C 
ENDBRANCH   2   5
ENDBRANCH   1   2
BRANCH   1   8
ATOM      8  C   UNL     1     -16.916  11.088 -29.426  1.00  0.00     0.004 C 
BRANCH   8   9
ATOM      9  C   UNL     1     -17.452  12.025 -28.310  1.00  0.00    -0.011 C 
ATOM     10  C   UNL     1     -17.745  11.207 -27.032  1.00  0.00     0.008 C 
BRANCH   9  11
ATOM     11  C   UNL     1     -18.679  12.856 -28.839  1.00  0.00    -0.002 C 
ATOM     12  C   UNL     1     -18.348  14.101 -29.652  1.00  0.00     0.005 C 
ATOM     13  C   UNL     1     -19.762  12.105 -29.671  1.00  0.00    -0.026 C 
ATOM     14  C   UNL     1     -19.694  14.540 -30.202  1.00  0.00     0.005 C 
ATOM     15  C   UNL     1     -20.534  13.256 -30.400  1.00  0.00    -0.001 C 
ATOM     16  C   UNL     1     -20.681  11.280 -28.729  1.00  0.00     0.007 C 
ATOM     17  C   UNL     1     -19.142  11.167 -30.740  1.00  0.00     0.012 C 
ATOM     18  C   UNL     1     -22.009  13.427 -29.922  1.00  0.00     0.004 C 
ATOM     19  C   UNL     1     -21.997  10.875 -29.401  1.00  0.00     0.005 C 
ATOM     20  C   UNL     1     -22.784  12.073 -30.026  1.00  0.00     0.003 C 
ATOM     21  C   UNL     1     -22.715  14.509 -30.765  1.00  0.00     0.085 C 
ATOM     22  C   UNL     1     -24.280  12.182 -29.526  1.00  0.00    -0.000 C 
ATOM     23  C   UNL     1     -24.172  14.609 -30.445  1.00  0.00     0.159 C 
ATOM     24  C   UNL     1     -24.962  13.385 -30.185  1.00  0.00     0.005 C 
ATOM     25  C   UNL     1     -25.043  10.877 -29.927  1.00  0.00     0.020 C 
ATOM     26  C   UNL     1     -24.355  12.396 -27.990  1.00  0.00     0.017 C 
ATOM     27  O   UNL     1     -24.734  15.738 -30.484  1.00  0.00    -0.295 OA
ATOM     28  C   UNL     1     -26.287  13.395 -30.429  1.00  0.00     0.055 C 
ATOM     29  C   UNL     1     -26.550  10.948 -29.656  1.00  0.00     0.081 C 
ATOM     30  C   UNL     1     -27.134  12.217 -30.190  1.00  0.00     0.156 C 
ATOM     31  O   UNL     1     -28.373  12.289 -30.406  1.00  0.00    -0.295 OA
ENDBRANCH   9  11
ENDBRANCH   8   9
ENDBRANCH   1   8
TORSDOF 6
ENDMDL
MODEL 3
REMARK VINA RESULT:     1.239      1.708      2.942
REMARK INTER + INTRA:           0.782
REMARK INTER:                   0.564
REMARK INTRA:                   0.218
REMARK UNBOUND:                -0.891
REMARK SMILES CC[C@H](CC[C@H](C)[C@H]1CC[C@@H]2[C@H]3CC(=O)C4=CC(=O)CC[C@@]4(C)[C@@H]3CC[C@@]21C)C(C)C
REMARK SMILES IDX 4 1 3 2 2 3 1 4 29 5 30 6 31 7 5 8 6 9 7 10 8 11 9 12 27 13
REMARK SMILES IDX 10 14 11 15 26 16 28 17 12 18 25 19 24 20 13 21 22 22 14 23
REMARK SMILES IDX 16 24 21 25 23 26 15 27 17 28 20 29 18 30 19 31
REMARK H PARENT
REMARK Flexibility Score: inf
ROOT
ATOM      1  C   UNL     1     -24.658  11.776 -29.513  1.00  0.00     0.004 C 
ENDROOT
BRANCH   1   2
ATOM      2  C   UNL     1     -25.979  12.560 -29.746  1.00  0.00    -0.009 C 
BRANCH   2   3
ATOM      3  C   UNL     1     -26.526  12.327 -31.185  1.00  0.00     0.000 C 
ATOM      4  C   UNL     1     -26.358  10.913 -31.743  1.00  0.00     0.004 C 
ENDBRANCH   2   3
BRANCH   2   5
ATOM      5  C   UNL     1     -27.022  12.410 -28.581  1.00  0.00    -0.014 C 
ATOM      6  C   UNL     1     -27.004  11.053 -27.851  1.00  0.00     0.007 C 
ATOM      7  C   UNL     1     -28.454  12.765 -29.010  1.00  0.00     0.007 C 
ENDBRANCH   2   5
ENDBRANCH   1   2
BRANCH   1   8
ATOM      8  C   UNL     1     -23.433  12.472 -30.142  1.00  0.00     0.004 C 
BRANCH   8   9
ATOM      9  C   UNL     1     -22.109  11.691 -29.922  1.00  0.00    -0.011 C 
ATOM     10  C   UNL     1     -22.191  10.875 -28.612  1.00  0.00     0.008 C 
BRANCH   9  11
ATOM     11  C   UNL     1     -20.880  12.670 -29.996  1.00  0.00    -0.002 C 
ATOM     12  C   UNL     1     -21.147  14.117 -29.603  1.00  0.00     0.005 C 
ATOM     13  C   UNL     1     -19.587  12.273 -29.221  1.00  0.00    -0.026 C 
ATOM     14  C   UNL     1     -19.762  14.738 -29.549  1.00  0.00     0.005 C 
ATOM     15  C   UNL     1     -18.788  13.617 -29.118  1.00  0.00    -0.001 C 
ATOM     16  C   UNL     1     -18.809  11.180 -30.005  1.00  0.00     0.007 C 
ATOM     17  C   UNL     1     -19.889  11.763 -27.787  1.00  0.00     0.012 C 
ATOM     18  C   UNL     1     -17.463  13.626 -29.941  1.00  0.00     0.004 C 
ATOM     19  C   UNL     1     -17.353  11.054 -29.546  1.00  0.00     0.005 C 
ATOM     20  C   UNL     1     -16.565  12.405 -29.558  1.00  0.00     0.003 C 
ATOM     21  C   UNL     1     -16.699  14.944 -29.697  1.00  0.00     0.085 C 
ATOM     22  C   UNL     1     -15.219  12.349 -30.385  1.00  0.00    -0.000 C 
ATOM     23  C   UNL     1     -15.353  14.943 -30.347  1.00  0.00     0.159 C 
ATOM     24  C   UNL     1     -14.527  13.716 -30.344  1.00  0.00     0.005 C 
ATOM     25  C   UNL     1     -14.276  11.278 -29.745  1.00  0.00     0.020 C 
ATOM     26  C   UNL     1     -15.479  12.010 -31.878  1.00  0.00     0.017 C 
ATOM     27  O   UNL     1     -14.898  16.020 -30.821  1.00  0.00    -0.295 OA
ATOM     28  C   UNL     1     -13.186  13.827 -30.420  1.00  0.00     0.055 C 
ATOM     29  C   UNL     1     -12.869  11.267 -30.352  1.00  0.00     0.081 C 
ATOM     30  C   UNL     1     -12.305  12.651 -30.425  1.00  0.00     0.156 C 
ATOM     31  O   UNL     1     -11.059  12.809 -30.529  1.00  0.00    -0.295 OA
ENDBRANCH   9  11
ENDBRANCH   8   9
ENDBRANCH   1   8
TORSDOF 6
ENDMDL
