MODEL 1
REMARK VINA RESULT:    -4.274      0.000      0.000
REMARK INTER + INTRA:         -10.277
REMARK INTER:                  -7.772
REMARK INTRA:                  -2.505
REMARK UNBOUND:                -2.505
REMARK SMILES CCCCCC=CCC=CCCCCCCCC(=O)[O-]
REMARK SMILES IDX 11 1 12 2 13 3 14 4 15 5 16 6 17 7 18 8 19 9 20 10 10 11
REMARK SMILES IDX 9 12 8 13 7 14 6 15 5 16 4 17 3 18 2 19 1 20
REMARK H PARENT
REMARK Flexibility Score: inf
ROOT
ATOM      1  C   UNL     1      -2.788  -1.603  -4.861  1.00  0.00     0.027 C 
ENDROOT
BRANCH   1   2
ATOM      2  C   UNL     1      -3.443  -2.888  -4.342  1.00  0.00     0.004 C 
BRANCH   2   3
ATOM      3  C   UNL     1      -3.911  -3.804  -5.486  1.00  0.00     0.000 C 
BRANCH   3   4
ATOM      4  C   UNL     1      -4.097  -5.263  -5.023  1.00  0.00     0.000 C 
BRANCH   4   5
ATOM      5  C   UNL     1      -2.910  -5.806  -4.210  1.00  0.00     0.000 C 
BRANCH   5   6
ATOM      6  C   UNL     1      -1.706  -6.180  -5.086  1.00  0.00     0.006 C 
BRANCH   6   7
ATOM      7  C   UNL     1      -0.503  -5.284  -4.778  1.00  0.00     0.053 C 
BRANCH   7   8
ATOM      8  C   UNL     1       0.315  -5.869  -3.671  1.00  0.00     0.041 C 
ATOM      9  O   UNL     1       1.319  -6.585  -3.934  1.00  0.00    -0.550 OA
ATOM     10  O   UNL     1      -0.055  -5.663  -2.349  1.00  0.00    -0.550 OA
ENDBRANCH   7   8
ENDBRANCH   6   7
ENDBRANCH   5   6
ENDBRANCH   4   5
ENDBRANCH   3   4
ENDBRANCH   2   3
ENDBRANCH   1   2
BRANCH   1  11
ATOM     11  C   UNL     1      -2.907  -1.494  -6.362  1.00  0.00    -0.031 C 
ATOM     12  C   UNL     1      -3.191  -0.364  -7.036  1.00  0.00    -0.027 C 
BRANCH  12  13
ATOM     13  C   UNL     1      -3.481   0.970  -6.396  1.00  0.00     0.054 C 
BRANCH  13  14
ATOM     14  C   UNL     1      -4.670   1.645  -7.035  1.00  0.00    -0.027 C 
ATOM     15  C   UNL     1      -5.652   2.275  -6.362  1.00  0.00    -0.031 C 
BRANCH  15  16
ATOM     16  C   UNL     1      -5.751   2.368  -4.857  1.00  0.00     0.027 C 
BRANCH  16  17
ATOM     17  C   UNL     1      -6.714   1.315  -4.295  1.00  0.00     0.004 C 
BRANCH  17  18
ATOM     18  C   UNL     1      -5.994   0.011  -3.923  1.00  0.00     0.000 C 
BRANCH  18  19
ATOM     19  C   UNL     1      -6.754  -1.208  -4.457  1.00  0.00    -0.003 C 
ATOM     20  C   UNL     1      -6.612  -1.326  -5.972  1.00  0.00     0.004 C 
ENDBRANCH  18  19
ENDBRANCH  17  18
ENDBRANCH  16  17
ENDBRANCH  15  16
ENDBRANCH  13  14
ENDBRANCH  12  13
ENDBRANCH   1  11
TORSDOF 14
ENDMDL
MODEL 2
REMARK VINA RESULT:    -4.128      2.984      7.593
REMARK INTER + INTRA:         -10.012
REMARK INTER:                  -7.385
REMARK INTRA:                  -2.627
REMARK UNBOUND:                -2.505
REMARK SMILES CCCCCC=CCC=CCCCCCCCC(=O)[O-]
REMARK SMILES IDX 11 1 12 2 13 3 14 4 15 5 16 6 17 7 18 8 19 9 20 10 10 11
REMARK SMILES IDX 9 12 8 13 7 14 6 15 5 16 4 17 3 18 2 19 1 20
REMARK H PARENT
REMARK Flexibility Score: inf
ROOT
ATOM      1  C   UNL     1      -4.534  -5.296  -4.597  1.00  0.00     0.027 C 
ENDROOT
BRANCH   1   2
ATOM      2  C   UNL     1      -4.342  -3.781  -4.736  1.00  0.00     0.004 C 
BRANCH   2   3
ATOM      3  C   UNL     1      -2.918  -3.340  -4.358  1.00  0.00     0.000 C 
BRANCH   3   4
ATOM      4  C   UNL     1      -2.032  -3.111  -5.601  1.00  0.00     0.000 C 
BRANCH   4   5
ATOM      5  C   UNL     1      -2.763  -2.405  -6.755  1.00  0.00     0.000 C 
BRANCH   5   6
ATOM      6  C   UNL     1      -2.831  -0.882  -6.576  1.00  0.00     0.006 C 
BRANCH   6   7
ATOM      7  C   UNL     1      -4.282  -0.409  -6.443  1.00  0.00     0.053 C 
BRANCH   7   8
ATOM      8  C   UNL     1      -4.474   0.336  -5.161  1.00  0.00     0.041 C 
ATOM      9  O   UNL     1      -4.705   1.574  -5.175  1.00  0.00    -0.550 OA
ATOM     10  O   UNL     1      -4.352  -0.327  -3.946  1.00  0.00    -0.550 OA
ENDBRANCH   7   8
ENDBRANCH   6   7
ENDBRANCH   5   6
ENDBRANCH   4   5
ENDBRANCH   3   4
ENDBRANCH   2   3
ENDBRANCH   1   2
BRANCH   1  11
ATOM     11  C   UNL     1      -4.710  -5.952  -5.946  1.00  0.00    -0.031 C 
ATOM     12  C   UNL     1      -3.721  -6.511  -6.669  1.00  0.00    -0.027 C 
BRANCH  12  13
ATOM     13  C   UNL     1      -2.267  -6.532  -6.268  1.00  0.00     0.054 C 
BRANCH  13  14
ATOM     14  C   UNL     1      -1.940  -7.746  -5.434  1.00  0.00    -0.027 C 
ATOM     15  C   UNL     1      -1.530  -7.711  -4.151  1.00  0.00    -0.031 C 
BRANCH  15  16
ATOM     16  C   UNL     1      -1.280  -6.453  -3.354  1.00  0.00     0.027 C 
BRANCH  16  17
ATOM     17  C   UNL     1       0.007  -5.751  -3.805  1.00  0.00     0.004 C 
BRANCH  17  18
ATOM     18  C   UNL     1       1.187  -6.727  -3.925  1.00  0.00     0.000 C 
BRANCH  18  19
ATOM     19  C   UNL     1       1.830  -6.643  -5.313  1.00  0.00    -0.003 C 
ATOM     20  C   UNL     1       1.286  -5.454  -6.101  1.00  0.00     0.004 C 
ENDBRANCH  18  19
ENDBRANCH  17  18
ENDBRANCH  16  17
ENDBRANCH  15  16
ENDBRANCH  13  14
ENDBRANCH  12  13
ENDBRANCH   1  11
TORSDOF 14
ENDMDL
MODEL 3
REMARK VINA RESULT:    -4.127      1.202      2.551
REMARK INTER + INTRA:         -10.010
REMARK INTER:                  -7.461
REMARK INTRA:                  -2.549
REMARK UNBOUND:                -2.505
REMARK SMILES CCCCCC=CCC=CCCCCCCCC(=O)[O-]
REMARK SMILES IDX 11 1 12 2 13 3 14 4 15 5 16 6 17 7 18 8 19 9 20 10 10 11
REMARK SMILES IDX 9 12 8 13 7 14 6 15 5 16 4 17 3 18 2 19 1 20
REMARK H PARENT
REMARK Flexibility Score: inf
ROOT
ATOM      1  C   UNL     1      -4.964  -3.577  -4.875  1.00  0.00     0.027 C 
ENDROOT
BRANCH   1   2
ATOM      2  C   UNL     1      -4.785  -5.100  -4.885  1.00  0.00     0.004 C 
BRANCH   2   3
ATOM      3  C   UNL     1      -4.019  -5.586  -6.127  1.00  0.00     0.000 C 
BRANCH   3   4
ATOM      4  C   UNL     1      -2.722  -6.333  -5.754  1.00  0.00     0.000 C 
BRANCH   4   5
ATOM      5  C   UNL     1      -1.442  -5.553  -6.101  1.00  0.00     0.000 C 
BRANCH   5   6
ATOM      6  C   UNL     1      -0.560  -5.276  -4.875  1.00  0.00     0.006 C 
BRANCH   6   7
ATOM      7  C   UNL     1      -1.321  -5.558  -3.576  1.00  0.00     0.053 C 
BRANCH   7   8
ATOM      8  C   UNL     1      -0.387  -6.053  -2.519  1.00  0.00     0.041 C 
ATOM      9  O   UNL     1       0.835  -5.747  -2.557  1.00  0.00    -0.550 OA
ATOM     10  O   UNL     1      -0.854  -6.891  -1.514  1.00  0.00    -0.550 OA
ENDBRANCH   7   8
ENDBRANCH   6   7
ENDBRANCH   5   6
ENDBRANCH   4   5
ENDBRANCH   3   4
ENDBRANCH   2   3
ENDBRANCH   1   2
BRANCH   1  11
ATOM     11  C   UNL     1      -3.796  -2.892  -4.207  1.00  0.00    -0.031 C 
ATOM     12  C   UNL     1      -2.828  -2.212  -4.848  1.00  0.00    -0.027 C 
BRANCH  12  13
ATOM     13  C   UNL     1      -2.728  -2.061  -6.346  1.00  0.00     0.054 C 
BRANCH  13  14
ATOM     14  C   UNL     1      -2.880  -0.621  -6.769  1.00  0.00    -0.027 C 
ATOM     15  C   UNL     1      -4.052  -0.024  -7.061  1.00  0.00    -0.031 C 
BRANCH  15  16
ATOM     16  C   UNL     1      -5.399  -0.708  -7.062  1.00  0.00     0.027 C 
BRANCH  16  17
ATOM     17  C   UNL     1      -6.343  -0.085  -6.026  1.00  0.00     0.004 C 
BRANCH  17  18
ATOM     18  C   UNL     1      -5.579   0.564  -4.863  1.00  0.00     0.000 C 
BRANCH  18  19
ATOM     19  C   UNL     1      -5.884   2.063  -4.775  1.00  0.00    -0.003 C 
ATOM     20  C   UNL     1      -7.371   2.336  -4.989  1.00  0.00     0.004 C 
ENDBRANCH  18  19
ENDBRANCH  17  18
ENDBRANCH  16  17
ENDBRANCH  15  16
ENDBRANCH  13  14
ENDBRANCH  12  13
ENDBRANCH   1  11
TORSDOF 14
ENDMDL
MODEL 4
REMARK VINA RESULT:    -4.108      3.166      7.282
REMARK INTER + INTRA:          -9.975
REMARK INTER:                  -7.443
REMARK INTRA:                  -2.533
REMARK UNBOUND:                -2.505
REMARK SMILES CCCCCC=CCC=CCCCCCCCC(=O)[O-]
REMARK SMILES IDX 11 1 12 2 13 3 14 4 15 5 16 6 17 7 18 8 19 9 20 10 10 11
REMARK SMILES IDX 9 12 8 13 7 14 6 15 5 16 4 17 3 18 2 19 1 20
REMARK H PARENT
REMARK Flexibility Score: inf
ROOT
ATOM      1  C   UNL     1      -4.271  -2.664  -4.107  1.00  0.00     0.027 C 
ENDROOT
BRANCH   1   2
ATOM      2  C   UNL     1      -3.210  -1.682  -4.614  1.00  0.00     0.004 C 
BRANCH   2   3
ATOM      3  C   UNL     1      -2.562  -2.154  -5.926  1.00  0.00     0.000 C 
BRANCH   3   4
ATOM      4  C   UNL     1      -2.946  -1.255  -7.120  1.00  0.00     0.000 C 
BRANCH   4   5
ATOM      5  C   UNL     1      -3.155   0.220  -6.737  1.00  0.00     0.000 C 
BRANCH   5   6
ATOM      6  C   UNL     1      -4.594   0.701  -6.976  1.00  0.00     0.006 C 
BRANCH   6   7
ATOM      7  C   UNL     1      -5.025   1.699  -5.897  1.00  0.00     0.053 C 
BRANCH   7   8
ATOM      8  C   UNL     1      -5.899   1.031  -4.885  1.00  0.00     0.041 C 
ATOM      9  O   UNL     1      -5.487   0.852  -3.708  1.00  0.00    -0.550 OA
ATOM     10  O   UNL     1      -7.154   0.562  -5.252  1.00  0.00    -0.550 OA
ENDBRANCH   7   8
ENDBRANCH   6   7
ENDBRANCH   5   6
ENDBRANCH   4   5
ENDBRANCH   3   4
ENDBRANCH   2   3
ENDBRANCH   1   2
BRANCH   1  11
ATOM     11  C   UNL     1      -5.502  -2.643  -4.983  1.00  0.00    -0.031 C 
ATOM     12  C   UNL     1      -6.091  -3.730  -5.515  1.00  0.00    -0.027 C 
BRANCH  12  13
ATOM     13  C   UNL     1      -5.591  -5.144  -5.358  1.00  0.00     0.054 C 
BRANCH  13  14
ATOM     14  C   UNL     1      -4.448  -5.435  -6.299  1.00  0.00    -0.027 C 
ATOM     15  C   UNL     1      -3.257  -5.945  -5.929  1.00  0.00    -0.031 C 
BRANCH  15  16
ATOM     16  C   UNL     1      -2.852  -6.261  -4.508  1.00  0.00     0.027 C 
BRANCH  16  17
ATOM     17  C   UNL     1      -1.788  -5.281  -3.999  1.00  0.00     0.004 C 
BRANCH  17  18
ATOM     18  C   UNL     1      -0.554  -5.239  -4.913  1.00  0.00     0.000 C 
BRANCH  18  19
ATOM     19  C   UNL     1       0.608  -6.032  -4.305  1.00  0.00    -0.003 C 
ATOM     20  C   UNL     1       0.530  -6.040  -2.780  1.00  0.00     0.004 C 
ENDBRANCH  18  19
ENDBRANCH  17  18
ENDBRANCH  16  17
ENDBRANCH  15  16
ENDBRANCH  13  14
ENDBRANCH  12  13
ENDBRANCH   1  11
TORSDOF 14
ENDMDL
MODEL 5
REMARK VINA RESULT:    -4.051      3.523      7.955
REMARK INTER + INTRA:          -9.872
REMARK INTER:                  -7.788
REMARK INTRA:                  -2.084
REMARK UNBOUND:                -2.505
REMARK SMILES CCCCCC=CCC=CCCCCCCCC(=O)[O-]
REMARK SMILES IDX 11 1 12 2 13 3 14 4 15 5 16 6 17 7 18 8 19 9 20 10 10 11
REMARK SMILES IDX 9 12 8 13 7 14 6 15 5 16 4 17 3 18 2 19 1 20
REMARK H PARENT
REMARK Flexibility Score: inf
ROOT
ATOM      1  C   UNL     1      -3.188  -3.083  -4.181  1.00  0.00     0.027 C 
ENDROOT
BRANCH   1   2
ATOM      2  C   UNL     1      -2.169  -2.678  -5.252  1.00  0.00     0.004 C 
BRANCH   2   3
ATOM      3  C   UNL     1      -2.841  -2.053  -6.487  1.00  0.00     0.000 C 
BRANCH   3   4
ATOM      4  C   UNL     1      -2.947  -0.518  -6.375  1.00  0.00     0.000 C 
BRANCH   4   5
ATOM      5  C   UNL     1      -4.261   0.050  -6.938  1.00  0.00     0.000 C 
BRANCH   5   6
ATOM      6  C   UNL     1      -5.494  -0.386  -6.133  1.00  0.00     0.006 C 
BRANCH   6   7
ATOM      7  C   UNL     1      -5.321  -0.064  -4.646  1.00  0.00     0.053 C 
BRANCH   7   8
ATOM      8  C   UNL     1      -6.035   1.203  -4.298  1.00  0.00     0.041 C 
ATOM      9  O   UNL     1      -5.478   2.318  -4.486  1.00  0.00    -0.550 OA
ATOM     10  O   UNL     1      -7.298   1.154  -3.722  1.00  0.00    -0.550 OA
ENDBRANCH   7   8
ENDBRANCH   6   7
ENDBRANCH   5   6
ENDBRANCH   4   5
ENDBRANCH   3   4
ENDBRANCH   2   3
ENDBRANCH   1   2
BRANCH   1  11
ATOM     11  C   UNL     1      -4.393  -3.753  -4.796  1.00  0.00    -0.031 C 
ATOM     12  C   UNL     1      -4.586  -5.083  -4.866  1.00  0.00    -0.027 C 
BRANCH  12  13
ATOM     13  C   UNL     1      -3.607  -6.123  -4.380  1.00  0.00     0.054 C 
BRANCH  13  14
ATOM     14  C   UNL     1      -2.554  -6.420  -5.419  1.00  0.00    -0.027 C 
ATOM     15  C   UNL     1      -1.227  -6.284  -5.230  1.00  0.00    -0.031 C 
BRANCH  15  16
ATOM     16  C   UNL     1      -0.578  -5.765  -3.969  1.00  0.00     0.027 C 
BRANCH  16  17
ATOM     17  C   UNL     1       0.814  -6.375  -3.765  1.00  0.00     0.004 C 
BRANCH  17  18
ATOM     18  C   UNL     1       1.075  -6.747  -2.298  1.00  0.00     0.000 C 
BRANCH  18  19
ATOM     19  C   UNL     1      -0.183  -7.332  -1.647  1.00  0.00    -0.003 C 
ATOM     20  C   UNL     1      -0.284  -8.835  -1.896  1.00  0.00     0.004 C 
ENDBRANCH  18  19
ENDBRANCH  17  18
ENDBRANCH  16  17
ENDBRANCH  15  16
ENDBRANCH  13  14
ENDBRANCH  12  13
ENDBRANCH   1  11
TORSDOF 14
ENDMDL
MODEL 6
REMARK VINA RESULT:    -4.013      1.439      3.045
REMARK INTER + INTRA:          -9.802
REMARK INTER:                  -7.218
REMARK INTRA:                  -2.585
REMARK UNBOUND:                -2.505
REMARK SMILES CCCCCC=CCC=CCCCCCCCC(=O)[O-]
REMARK SMILES IDX 11 1 12 2 13 3 14 4 15 5 16 6 17 7 18 8 19 9 20 10 10 11
REMARK SMILES IDX 9 12 8 13 7 14 6 15 5 16 4 17 3 18 2 19 1 20
REMARK H PARENT
REMARK Flexibility Score: inf
ROOT
ATOM      1  C   UNL     1      -2.202  -2.863  -5.593  1.00  0.00     0.027 C 
ENDROOT
BRANCH   1   2
ATOM      2  C   UNL     1      -1.201  -3.989  -5.870  1.00  0.00     0.004 C 
BRANCH   2   3
ATOM      3  C   UNL     1      -1.767  -5.045  -6.835  1.00  0.00     0.000 C 
BRANCH   3   4
ATOM      4  C   UNL     1      -1.609  -6.478  -6.287  1.00  0.00     0.000 C 
BRANCH   4   5
ATOM      5  C   UNL     1      -2.410  -6.736  -4.999  1.00  0.00     0.000 C 
BRANCH   5   6
ATOM      6  C   UNL     1      -1.542  -7.275  -3.853  1.00  0.00     0.006 C 
BRANCH   6   7
ATOM      7  C   UNL     1      -1.042  -6.135  -2.960  1.00  0.00     0.053 C 
BRANCH   7   8
ATOM      8  C   UNL     1       0.449  -6.040  -3.018  1.00  0.00     0.041 C 
ATOM      9  O   UNL     1       1.052  -6.179  -4.115  1.00  0.00    -0.550 OA
ATOM     10  O   UNL     1       1.179  -5.844  -1.852  1.00  0.00    -0.550 OA
ENDBRANCH   7   8
ENDBRANCH   6   7
ENDBRANCH   5   6
ENDBRANCH   4   5
ENDBRANCH   3   4
ENDBRANCH   2   3
ENDBRANCH   1   2
BRANCH   1  11
ATOM     11  C   UNL     1      -2.971  -3.114  -4.318  1.00  0.00    -0.031 C 
ATOM     12  C   UNL     1      -4.206  -3.645  -4.252  1.00  0.00    -0.027 C 
BRANCH  12  13
ATOM     13  C   UNL     1      -5.041  -4.036  -5.446  1.00  0.00     0.054 C 
BRANCH  13  14
ATOM     14  C   UNL     1      -6.283  -3.187  -5.554  1.00  0.00    -0.027 C 
ATOM     15  C   UNL     1      -6.365  -2.025  -6.230  1.00  0.00    -0.031 C 
BRANCH  15  16
ATOM     16  C   UNL     1      -5.217  -1.355  -6.947  1.00  0.00     0.027 C 
BRANCH  16  17
ATOM     17  C   UNL     1      -4.938   0.040  -6.375  1.00  0.00     0.004 C 
BRANCH  17  18
ATOM     18  C   UNL     1      -5.001   0.060  -4.841  1.00  0.00     0.000 C 
BRANCH  18  19
ATOM     19  C   UNL     1      -5.955   1.152  -4.344  1.00  0.00    -0.003 C 
ATOM     20  C   UNL     1      -7.300   0.561  -3.929  1.00  0.00     0.004 C 
ENDBRANCH  18  19
ENDBRANCH  17  18
ENDBRANCH  16  17
ENDBRANCH  15  16
ENDBRANCH  13  14
ENDBRANCH  12  13
ENDBRANCH   1  11
TORSDOF 14
ENDMDL
MODEL 7
REMARK VINA RESULT:    -3.880      1.364      2.800
REMARK INTER + INTRA:          -9.560
REMARK INTER:                  -7.465
REMARK INTRA:                  -2.094
REMARK UNBOUND:                -2.505
REMARK SMILES CCCCCC=CCC=CCCCCCCCC(=O)[O-]
REMARK SMILES IDX 11 1 12 2 13 3 14 4 15 5 16 6 17 7 18 8 19 9 20 10 10 11
REMARK SMILES IDX 9 12 8 13 7 14 6 15 5 16 4 17 3 18 2 19 1 20
REMARK H PARENT
REMARK Flexibility Score: inf
ROOT
ATOM      1  C   UNL     1      -2.532  -1.641  -5.379  1.00  0.00     0.027 C 
ENDROOT
BRANCH   1   2
ATOM      2  C   UNL     1      -2.464  -2.827  -6.348  1.00  0.00     0.004 C 
BRANCH   2   3
ATOM      3  C   UNL     1      -3.646  -3.795  -6.165  1.00  0.00     0.000 C 
BRANCH   3   4
ATOM      4  C   UNL     1      -3.942  -4.075  -4.677  1.00  0.00     0.000 C 
BRANCH   4   5
ATOM      5  C   UNL     1      -4.021  -5.573  -4.337  1.00  0.00     0.000 C 
BRANCH   5   6
ATOM      6  C   UNL     1      -2.856  -6.381  -4.926  1.00  0.00     0.006 C 
BRANCH   6   7
ATOM      7  C   UNL     1      -1.898  -6.846  -3.824  1.00  0.00     0.053 C 
BRANCH   7   8
ATOM      8  C   UNL     1      -0.848  -5.811  -3.572  1.00  0.00     0.041 C 
ATOM      9  O   UNL     1      -0.504  -5.529  -2.393  1.00  0.00    -0.550 OA
ATOM     10  O   UNL     1      -0.281  -5.122  -4.637  1.00  0.00    -0.550 OA
ENDBRANCH   7   8
ENDBRANCH   6   7
ENDBRANCH   5   6
ENDBRANCH   4   5
ENDBRANCH   3   4
ENDBRANCH   2   3
ENDBRANCH   1   2
BRANCH   1  11
ATOM     11  C   UNL     1      -3.336  -0.503  -5.962  1.00  0.00    -0.031 C 
ATOM     12  C   UNL     1      -4.454   0.012  -5.418  1.00  0.00    -0.027 C 
BRANCH  12  13
ATOM     13  C   UNL     1      -5.112  -0.494  -4.159  1.00  0.00     0.054 C 
BRANCH  13  14
ATOM     14  C   UNL     1      -6.336  -1.320  -4.467  1.00  0.00    -0.027 C 
ATOM     15  C   UNL     1      -7.596  -0.844  -4.508  1.00  0.00    -0.031 C 
BRANCH  15  16
ATOM     16  C   UNL     1      -7.996   0.580  -4.204  1.00  0.00     0.027 C 
BRANCH  16  17
ATOM     17  C   UNL     1      -8.475   1.308  -5.466  1.00  0.00     0.004 C 
BRANCH  17  18
ATOM     18  C   UNL     1      -7.392   2.226  -6.052  1.00  0.00     0.000 C 
BRANCH  18  19
ATOM     19  C   UNL     1      -6.659   2.988  -4.943  1.00  0.00    -0.003 C 
ATOM     20  C   UNL     1      -7.189   4.414  -4.812  1.00  0.00     0.004 C 
ENDBRANCH  18  19
ENDBRANCH  17  18
ENDBRANCH  16  17
ENDBRANCH  15  16
ENDBRANCH  13  14
ENDBRANCH  12  13
ENDBRANCH   1  11
TORSDOF 14
ENDMDL
MODEL 8
REMARK VINA RESULT:    -3.785      3.424      9.093
REMARK INTER + INTRA:          -9.387
REMARK INTER:                  -7.764
REMARK INTRA:                  -1.624
REMARK UNBOUND:                -2.505
REMARK SMILES CCCCCC=CCC=CCCCCCCCC(=O)[O-]
REMARK SMILES IDX 11 1 12 2 13 3 14 4 15 5 16 6 17 7 18 8 19 9 20 10 10 11
REMARK SMILES IDX 9 12 8 13 7 14 6 15 5 16 4 17 3 18 2 19 1 20
REMARK H PARENT
REMARK Flexibility Score: inf
ROOT
ATOM      1  C   UNL     1      -1.742  -5.953  -4.707  1.00  0.00     0.027 C 
ENDROOT
BRANCH   1   2
ATOM      2  C   UNL     1      -2.631  -4.729  -4.456  1.00  0.00     0.004 C 
BRANCH   2   3
ATOM      3  C   UNL     1      -3.131  -4.097  -5.766  1.00  0.00     0.000 C 
BRANCH   3   4
ATOM      4  C   UNL     1      -2.130  -3.068  -6.333  1.00  0.00     0.000 C 
BRANCH   4   5
ATOM      5  C   UNL     1      -2.762  -1.698  -6.632  1.00  0.00     0.000 C 
BRANCH   5   6
ATOM      6  C   UNL     1      -4.284  -1.685  -6.435  1.00  0.00     0.006 C 
BRANCH   6   7
ATOM      7  C   UNL     1      -4.756  -0.333  -5.890  1.00  0.00     0.053 C 
BRANCH   7   8
ATOM      8  C   UNL     1      -4.916  -0.395  -4.405  1.00  0.00     0.041 C 
ATOM      9  O   UNL     1      -5.158   0.653  -3.748  1.00  0.00    -0.550 OA
ATOM     10  O   UNL     1      -4.752  -1.602  -3.737  1.00  0.00    -0.550 OA
ENDBRANCH   7   8
ENDBRANCH   6   7
ENDBRANCH   5   6
ENDBRANCH   4   5
ENDBRANCH   3   4
ENDBRANCH   2   3
ENDBRANCH   1   2
BRANCH   1  11
ATOM     11  C   UNL     1      -0.348  -5.738  -4.167  1.00  0.00    -0.031 C 
ATOM     12  C   UNL     1       0.079  -6.127  -2.952  1.00  0.00    -0.027 C 
BRANCH  12  13
ATOM     13  C   UNL     1      -0.780  -6.803  -1.912  1.00  0.00     0.054 C 
BRANCH  13  14
ATOM     14  C   UNL     1      -0.452  -8.270  -1.792  1.00  0.00    -0.027 C 
ATOM     15  C   UNL     1       0.546  -8.778  -1.043  1.00  0.00    -0.031 C 
BRANCH  15  16
ATOM     16  C   UNL     1       1.531  -7.961  -0.241  1.00  0.00     0.027 C 
BRANCH  16  17
ATOM     17  C   UNL     1       2.974  -8.229  -0.687  1.00  0.00     0.004 C 
BRANCH  17  18
ATOM     18  C   UNL     1       3.316  -7.511  -2.001  1.00  0.00     0.000 C 
BRANCH  18  19
ATOM     19  C   UNL     1       3.411  -8.507  -3.162  1.00  0.00    -0.003 C 
ATOM     20  C   UNL     1       2.903  -7.887  -4.462  1.00  0.00     0.004 C 
ENDBRANCH  18  19
ENDBRANCH  17  18
ENDBRANCH  16  17
ENDBRANCH  15  16
ENDBRANCH  13  14
ENDBRANCH  12  13
ENDBRANCH   1  11
TORSDOF 14
ENDMDL
MODEL 9
REMARK VINA RESULT:    -3.733      1.265      2.318
REMARK INTER + INTRA:          -9.293
REMARK INTER:                  -7.497
REMARK INTRA:                  -1.796
REMARK UNBOUND:                -2.505
REMARK SMILES CCCCCC=CCC=CCCCCCCCC(=O)[O-]
REMARK SMILES IDX 11 1 12 2 13 3 14 4 15 5 16 6 17 7 18 8 19 9 20 10 10 11
REMARK SMILES IDX 9 12 8 13 7 14 6 15 5 16 4 17 3 18 2 19 1 20
REMARK H PARENT
REMARK Flexibility Score: inf
ROOT
ATOM      1  C   UNL     1      -3.136  -1.833  -4.511  1.00  0.00     0.027 C 
ENDROOT
BRANCH   1   2
ATOM      2  C   UNL     1      -3.757  -3.185  -4.143  1.00  0.00     0.004 C 
BRANCH   2   3
ATOM      3  C   UNL     1      -4.109  -4.020  -5.387  1.00  0.00     0.000 C 
BRANCH   3   4
ATOM      4  C   UNL     1      -3.650  -5.487  -5.251  1.00  0.00     0.000 C 
BRANCH   4   5
ATOM      5  C   UNL     1      -2.262  -5.755  -5.858  1.00  0.00     0.000 C 
BRANCH   5   6
ATOM      6  C   UNL     1      -1.172  -5.950  -4.795  1.00  0.00     0.006 C 
BRANCH   6   7
ATOM      7  C   UNL     1      -1.760  -6.536  -3.507  1.00  0.00     0.053 C 
BRANCH   7   8
ATOM      8  C   UNL     1      -0.699  -6.671  -2.462  1.00  0.00     0.041 C 
ATOM      9  O   UNL     1      -0.716  -7.645  -1.663  1.00  0.00    -0.550 OA
ATOM     10  O   UNL     1       0.284  -5.697  -2.338  1.00  0.00    -0.550 OA
ENDBRANCH   7   8
ENDBRANCH   6   7
ENDBRANCH   5   6
ENDBRANCH   4   5
ENDBRANCH   3   4
ENDBRANCH   2   3
ENDBRANCH   1   2
BRANCH   1  11
ATOM     11  C   UNL     1      -2.646  -1.825  -5.940  1.00  0.00    -0.031 C 
ATOM     12  C   UNL     1      -2.894  -0.852  -6.836  1.00  0.00    -0.027 C 
BRANCH  12  13
ATOM     13  C   UNL     1      -3.739   0.369  -6.571  1.00  0.00     0.054 C 
BRANCH  13  14
ATOM     14  C   UNL     1      -5.149   0.187  -7.075  1.00  0.00    -0.027 C 
ATOM     15  C   UNL     1      -6.232   0.021  -6.291  1.00  0.00    -0.031 C 
BRANCH  15  16
ATOM     16  C   UNL     1      -6.207  -0.060  -4.783  1.00  0.00     0.027 C 
BRANCH  16  17
ATOM     17  C   UNL     1      -6.226   1.336  -4.148  1.00  0.00     0.004 C 
BRANCH  17  18
ATOM     18  C   UNL     1      -7.386   2.195  -4.672  1.00  0.00     0.000 C 
BRANCH  18  19
ATOM     19  C   UNL     1      -6.867   3.494  -5.298  1.00  0.00    -0.003 C 
ATOM     20  C   UNL     1      -7.441   4.716  -4.585  1.00  0.00     0.004 C 
ENDBRANCH  18  19
ENDBRANCH  17  18
ENDBRANCH  16  17
ENDBRANCH  15  16
ENDBRANCH  13  14
ENDBRANCH  12  13
ENDBRANCH   1  11
TORSDOF 14
ENDMDL
