MODEL 1
REMARK VINA RESULT:    -3.320      0.000      0.000
REMARK INTER + INTRA:          -5.015
REMARK INTER:                  -4.484
REMARK INTRA:                  -0.531
REMARK UNBOUND:                -0.531
REMARK SMILES [NH3+]CCCC[C@H]([NH3+])C(=O)[O-]
REMARK SMILES IDX 4 1 3 2 2 3 1 4 5 8 6 9 7 10 8 14 9 15 10 16
REMARK H PARENT 1 5 1 6 1 7 7 11 7 12 7 13
REMARK Flexibility Score: inf
ROOT
ATOM      1  C   UNL     1     112.506 114.534  98.964  1.00  0.00     0.012 C 
ENDROOT
BRANCH   1   2
ATOM      2  C   UNL     1     112.991 115.818  99.653  1.00  0.00     0.061 C 
BRANCH   2   3
ATOM      3  C   UNL     1     112.103 116.222 100.841  1.00  0.00     0.258 C 
BRANCH   3   4
ATOM      4  N   UNL     1     112.414 115.456 102.050  1.00  0.00    -0.358 N 
ATOM      5  H   UNL     1     113.143 115.968 102.597  1.00  0.00     0.344 HD
ATOM      6  H   UNL     1     111.562 115.360 102.648  1.00  0.00     0.344 HD
ATOM      7  H   UNL     1     112.785 114.512 101.798  1.00  0.00     0.344 HD
ENDBRANCH   3   4
ENDBRANCH   2   3
ENDBRANCH   1   2
BRANCH   1   8
ATOM      8  C   UNL     1     113.676 113.561  98.736  1.00  0.00     0.072 C 
BRANCH   8   9
ATOM      9  C   UNL     1     114.665 113.467  99.921  1.00  0.00     0.227 C 
BRANCH   9  10
ATOM     10  N   UNL     1     116.050 113.266  99.470  1.00  0.00    -0.350 N 
ATOM     11  H   UNL     1     116.331 114.042  98.828  1.00  0.00     0.345 HD
ATOM     12  H   UNL     1     116.162 112.353  98.975  1.00  0.00     0.345 HD
ATOM     13  H   UNL     1     116.690 113.279 100.298  1.00  0.00     0.345 HD
ENDBRANCH   9  10
BRANCH   9  14
ATOM     14  C   UNL     1     114.249 112.403 100.906  1.00  0.00     0.099 C 
ATOM     15  O   UNL     1     113.576 112.719 101.921  1.00  0.00    -0.544 OA
ATOM     16  O   UNL     1     114.559 111.066 100.682  1.00  0.00    -0.544 OA
ENDBRANCH   9  14
ENDBRANCH   8   9
ENDBRANCH   1   8
TORSDOF 7
ENDMDL
MODEL 2
REMARK VINA RESULT:    -3.315     12.081     13.014
REMARK INTER + INTRA:          -5.009
REMARK INTER:                  -4.443
REMARK INTRA:                  -0.566
REMARK UNBOUND:                -0.531
REMARK SMILES [NH3+]CCCC[C@H]([NH3+])C(=O)[O-]
REMARK SMILES IDX 4 1 3 2 2 3 1 4 5 8 6 9 7 10 8 14 9 15 10 16
REMARK H PARENT 1 5 1 6 1 7 7 11 7 12 7 13
REMARK Flexibility Score: inf
ROOT
ATOM      1  C   UNL     1     101.581 108.934  98.952  1.00  0.00     0.012 C 
ENDROOT
BRANCH   1   2
ATOM      2  C   UNL     1     100.219 108.755  99.640  1.00  0.00     0.061 C 
BRANCH   2   3
ATOM      3  C   UNL     1     100.308 107.894 100.911  1.00  0.00     0.258 C 
BRANCH   3   4
ATOM      4  N   UNL     1     101.667 107.849 101.454  1.00  0.00    -0.358 N 
ATOM      5  H   UNL     1     101.903 108.785 101.855  1.00  0.00     0.344 HD
ATOM      6  H   UNL     1     101.730 107.138 102.218  1.00  0.00     0.344 HD
ATOM      7  H   UNL     1     102.355 107.625 100.699  1.00  0.00     0.344 HD
ENDBRANCH   3   4
ENDBRANCH   2   3
ENDBRANCH   1   2
BRANCH   1   8
ATOM      8  C   UNL     1     101.879 110.424  98.709  1.00  0.00     0.072 C 
BRANCH   8   9
ATOM      9  C   UNL     1     101.414 111.359  99.849  1.00  0.00     0.227 C 
BRANCH   9  10
ATOM     10  N   UNL     1     100.977 112.669  99.345  1.00  0.00    -0.350 N 
ATOM     11  H   UNL     1     101.195 112.749  98.326  1.00  0.00     0.345 HD
ATOM     12  H   UNL     1     101.443 113.451  99.858  1.00  0.00     0.345 HD
ATOM     13  H   UNL     1      99.942 112.759  99.465  1.00  0.00     0.345 HD
ENDBRANCH   9  10
BRANCH   9  14
ATOM     14  C   UNL     1     102.475 111.506 100.912  1.00  0.00     0.099 C 
ATOM     15  O   UNL     1     102.477 110.734 101.905  1.00  0.00    -0.544 OA
ATOM     16  O   UNL     1     103.483 112.455 100.783  1.00  0.00    -0.544 OA
ENDBRANCH   9  14
ENDBRANCH   8   9
ENDBRANCH   1   8
TORSDOF 7
ENDMDL
MODEL 3
REMARK VINA RESULT:    -3.304     12.145     13.067
REMARK INTER + INTRA:          -4.994
REMARK INTER:                  -4.459
REMARK INTRA:                  -0.534
REMARK UNBOUND:                -0.531
REMARK SMILES [NH3+]CCCC[C@H]([NH3+])C(=O)[O-]
REMARK SMILES IDX 4 1 3 2 2 3 1 4 5 8 6 9 7 10 8 14 9 15 10 16
REMARK H PARENT 1 5 1 6 1 7 7 11 7 12 7 13
REMARK Flexibility Score: inf
ROOT
ATOM      1  C   UNL     1     111.848 102.244  99.015  1.00  0.00     0.012 C 
ENDROOT
BRANCH   1   2
ATOM      2  C   UNL     1     112.650 101.167  99.761  1.00  0.00     0.061 C 
BRANCH   2   3
ATOM      3  C   UNL     1     113.460 101.740 100.935  1.00  0.00     0.258 C 
BRANCH   3   4
ATOM      4  N   UNL     1     112.654 101.872 102.151  1.00  0.00    -0.358 N 
ATOM      5  H   UNL     1     113.097 102.585 102.775  1.00  0.00     0.344 HD
ATOM      6  H   UNL     1     111.689 102.197 101.914  1.00  0.00     0.344 HD
ATOM      7  H   UNL     1     112.610 100.961 102.661  1.00  0.00     0.344 HD
ENDBRANCH   3   4
ENDBRANCH   2   3
ENDBRANCH   1   2
BRANCH   1   8
ATOM      8  C   UNL     1     110.386 101.803  98.823  1.00  0.00     0.072 C 
BRANCH   8   9
ATOM      9  C   UNL     1     109.819 100.960  99.989  1.00  0.00     0.227 C 
BRANCH   9  10
ATOM     10  N   UNL     1     108.936  99.885  99.514  1.00  0.00    -0.350 N 
ATOM     11  H   UNL     1     108.939  99.858  98.469  1.00  0.00     0.345 HD
ATOM     12  H   UNL     1     107.956 100.018  99.851  1.00  0.00     0.345 HD
ATOM     13  H   UNL     1     109.289  98.965  99.865  1.00  0.00     0.345 HD
ENDBRANCH   9  10
BRANCH   9  14
ATOM     14  C   UNL     1     109.128 101.825 101.013  1.00  0.00     0.099 C 
ATOM     15  O   UNL     1     109.767 102.240 102.016  1.00  0.00    -0.544 OA
ATOM     16  O   UNL     1     107.804 102.213 100.840  1.00  0.00    -0.544 OA
ENDBRANCH   9  14
ENDBRANCH   8   9
ENDBRANCH   1   8
TORSDOF 7
ENDMDL
MODEL 4
REMARK VINA RESULT:    -3.271     11.853     12.670
REMARK INTER + INTRA:          -4.949
REMARK INTER:                  -4.399
REMARK INTRA:                  -0.550
REMARK UNBOUND:                -0.531
REMARK SMILES [NH3+]CCCC[C@H]([NH3+])C(=O)[O-]
REMARK SMILES IDX 4 1 3 2 2 3 1 4 5 8 6 9 7 10 8 14 9 15 10 16
REMARK H PARENT 1 5 1 6 1 7 7 11 7 12 7 13
REMARK Flexibility Score: inf
ROOT
ATOM      1  C   UNL     1     112.643 101.914  99.430  1.00  0.00     0.012 C 
ENDROOT
BRANCH   1   2
ATOM      2  C   UNL     1     113.456 101.514 100.670  1.00  0.00     0.061 C 
BRANCH   2   3
ATOM      3  C   UNL     1     113.180 102.426 101.877  1.00  0.00     0.258 C 
BRANCH   3   4
ATOM      4  N   UNL     1     112.454 101.731 102.941  1.00  0.00    -0.358 N 
ATOM      5  H   UNL     1     111.765 101.074 102.508  1.00  0.00     0.344 HD
ATOM      6  H   UNL     1     113.115 101.173 103.528  1.00  0.00     0.344 HD
ATOM      7  H   UNL     1     111.935 102.415 103.537  1.00  0.00     0.344 HD
ENDBRANCH   3   4
ENDBRANCH   2   3
ENDBRANCH   1   2
BRANCH   1   8
ATOM      8  C   UNL     1     111.317 101.136  99.371  1.00  0.00     0.072 C 
BRANCH   8   9
ATOM      9  C   UNL     1     110.068 101.982  99.712  1.00  0.00     0.227 C 
BRANCH   9  10
ATOM     10  N   UNL     1     110.352 103.424  99.678  1.00  0.00    -0.350 N 
ATOM     11  H   UNL     1     110.352 103.763  98.688  1.00  0.00     0.345 HD
ATOM     12  H   UNL     1     111.274 103.643 100.116  1.00  0.00     0.345 HD
ATOM     13  H   UNL     1     109.603 103.937 100.198  1.00  0.00     0.345 HD
ENDBRANCH   9  10
BRANCH   9  14
ATOM     14  C   UNL     1     109.465 101.573 101.033  1.00  0.00     0.099 C 
ATOM     15  O   UNL     1     108.913 100.448 101.147  1.00  0.00    -0.544 OA
ATOM     16  O   UNL     1     109.555 102.405 102.143  1.00  0.00    -0.544 OA
ENDBRANCH   9  14
ENDBRANCH   8   9
ENDBRANCH   1   8
TORSDOF 7
ENDMDL
MODEL 5
REMARK VINA RESULT:    -3.266     12.367     13.175
REMARK INTER + INTRA:          -4.942
REMARK INTER:                  -4.471
REMARK INTRA:                  -0.471
REMARK UNBOUND:                -0.531
REMARK SMILES [NH3+]CCCC[C@H]([NH3+])C(=O)[O-]
REMARK SMILES IDX 4 1 3 2 2 3 1 4 5 8 6 9 7 10 8 14 9 15 10 16
REMARK H PARENT 1 5 1 6 1 7 7 11 7 12 7 13
REMARK Flexibility Score: inf
ROOT
ATOM      1  C   UNL     1     100.359 108.994  99.428  1.00  0.00     0.012 C 
ENDROOT
BRANCH   1   2
ATOM      2  C   UNL     1     100.244 107.882 100.482  1.00  0.00     0.061 C 
BRANCH   2   3
ATOM      3  C   UNL     1     101.358 107.953 101.539  1.00  0.00     0.258 C 
BRANCH   3   4
ATOM      4  N   UNL     1     101.104 108.990 102.542  1.00  0.00    -0.358 N 
ATOM      5  H   UNL     1     100.074 109.165 102.594  1.00  0.00     0.344 HD
ATOM      6  H   UNL     1     101.432 108.674 103.482  1.00  0.00     0.344 HD
ATOM      7  H   UNL     1     101.581 109.881 102.275  1.00  0.00     0.344 HD
ENDBRANCH   3   4
ENDBRANCH   2   3
ENDBRANCH   1   2
BRANCH   1   8
ATOM      8  C   UNL     1     101.826 109.208  99.017  1.00  0.00     0.072 C 
BRANCH   8   9
ATOM      9  C   UNL     1     102.196 110.680  98.722  1.00  0.00     0.227 C 
BRANCH   9  10
ATOM     10  N   UNL     1     103.649 110.872  98.604  1.00  0.00    -0.350 N 
ATOM     11  H   UNL     1     103.986 111.508  99.362  1.00  0.00     0.345 HD
ATOM     12  H   UNL     1     103.907 111.275  97.676  1.00  0.00     0.345 HD
ATOM     13  H   UNL     1     104.131 109.949  98.714  1.00  0.00     0.345 HD
ENDBRANCH   9  10
BRANCH   9  14
ATOM     14  C   UNL     1     101.601 111.616  99.744  1.00  0.00     0.099 C 
ATOM     15  O   UNL     1     100.754 112.476  99.387  1.00  0.00    -0.544 OA
ATOM     16  O   UNL     1     101.938 111.509 101.089  1.00  0.00    -0.544 OA
ENDBRANCH   9  14
ENDBRANCH   8   9
ENDBRANCH   1   8
TORSDOF 7
ENDMDL
MODEL 6
REMARK VINA RESULT:    -3.250     11.833     12.607
REMARK INTER + INTRA:          -4.921
REMARK INTER:                  -4.673
REMARK INTRA:                  -0.248
REMARK UNBOUND:                -0.531
REMARK SMILES [NH3+]CCCC[C@H]([NH3+])C(=O)[O-]
REMARK SMILES IDX 4 1 3 2 2 3 1 4 5 8 6 9 7 10 8 14 9 15 10 16
REMARK H PARENT 1 5 1 6 1 7 7 11 7 12 7 13
REMARK Flexibility Score: inf
ROOT
ATOM      1  C   UNL     1     112.855 101.447 100.014  1.00  0.00     0.012 C 
ENDROOT
BRANCH   1   2
ATOM      2  C   UNL     1     111.631 101.769  99.142  1.00  0.00     0.061 C 
BRANCH   2   3
ATOM      3  C   UNL     1     110.465 100.796  99.379  1.00  0.00     0.258 C 
BRANCH   3   4
ATOM      4  N   UNL     1     109.246 101.487  99.804  1.00  0.00    -0.358 N 
ATOM      5  H   UNL     1     108.433 100.838  99.694  1.00  0.00     0.344 HD
ATOM      6  H   UNL     1     109.315 101.759 100.811  1.00  0.00     0.344 HD
ATOM      7  H   UNL     1     109.081 102.334  99.214  1.00  0.00     0.344 HD
ENDBRANCH   3   4
ENDBRANCH   2   3
ENDBRANCH   1   2
BRANCH   1   8
ATOM      8  C   UNL     1     112.952 102.422 101.201  1.00  0.00     0.072 C 
BRANCH   8   9
ATOM      9  C   UNL     1     112.228 101.940 102.480  1.00  0.00     0.227 C 
BRANCH   9  10
ATOM     10  N   UNL     1     110.992 102.695 102.732  1.00  0.00    -0.350 N 
ATOM     11  H   UNL     1     111.169 103.718 102.613  1.00  0.00     0.345 HD
ATOM     12  H   UNL     1     110.627 102.519 103.694  1.00  0.00     0.345 HD
ATOM     13  H   UNL     1     110.262 102.407 102.039  1.00  0.00     0.345 HD
ENDBRANCH   9  10
BRANCH   9  14
ATOM     14  C   UNL     1     113.143 101.969 103.679  1.00  0.00     0.099 C 
ATOM     15  O   UNL     1     114.283 101.440 103.609  1.00  0.00    -0.544 OA
ATOM     16  O   UNL     1     112.762 102.619 104.848  1.00  0.00    -0.544 OA
ENDBRANCH   9  14
ENDBRANCH   8   9
ENDBRANCH   1   8
TORSDOF 7
ENDMDL
MODEL 7
REMARK VINA RESULT:    -3.216      2.206      3.814
REMARK INTER + INTRA:          -4.875
REMARK INTER:                  -4.316
REMARK INTRA:                  -0.559
REMARK UNBOUND:                -0.531
REMARK SMILES [NH3+]CCCC[C@H]([NH3+])C(=O)[O-]
REMARK SMILES IDX 4 1 3 2 2 3 1 4 5 8 6 9 7 10 8 14 9 15 10 16
REMARK H PARENT 1 5 1 6 1 7 7 11 7 12 7 13
REMARK Flexibility Score: inf
ROOT
ATOM      1  C   UNL     1     114.230 114.629  99.374  1.00  0.00     0.012 C 
ENDROOT
BRANCH   1   2
ATOM      2  C   UNL     1     114.774 113.194  99.437  1.00  0.00     0.061 C 
BRANCH   2   3
ATOM      3  C   UNL     1     115.402 112.860 100.800  1.00  0.00     0.258 C 
BRANCH   3   4
ATOM      4  N   UNL     1     114.527 112.021 101.621  1.00  0.00    -0.358 N 
ATOM      5  H   UNL     1     114.252 112.554 102.476  1.00  0.00     0.344 HD
ATOM      6  H   UNL     1     113.659 111.776 101.093  1.00  0.00     0.344 HD
ATOM      7  H   UNL     1     115.026 111.150 101.915  1.00  0.00     0.344 HD
ENDBRANCH   3   4
ENDBRANCH   2   3
ENDBRANCH   1   2
BRANCH   1   8
ATOM      8  C   UNL     1     112.718 114.628  99.088  1.00  0.00     0.072 C 
BRANCH   8   9
ATOM      9  C   UNL     1     111.852 114.089 100.251  1.00  0.00     0.227 C 
BRANCH   9  10
ATOM     10  N   UNL     1     110.426 114.030  99.896  1.00  0.00    -0.350 N 
ATOM     11  H   UNL     1     110.174 114.851  99.300  1.00  0.00     0.345 HD
ATOM     12  H   UNL     1     109.821 114.024 100.747  1.00  0.00     0.345 HD
ATOM     13  H   UNL     1     110.241 113.159  99.347  1.00  0.00     0.345 HD
ENDBRANCH   9  10
BRANCH   9  14
ATOM     14  C   UNL     1     112.069 114.880 101.517  1.00  0.00     0.099 C 
ATOM     15  O   UNL     1     112.608 114.330 102.513  1.00  0.00    -0.544 OA
ATOM     16  O   UNL     1     111.728 116.226 101.582  1.00  0.00    -0.544 OA
ENDBRANCH   9  14
ENDBRANCH   8   9
ENDBRANCH   1   8
TORSDOF 7
ENDMDL
MODEL 8
REMARK VINA RESULT:    -3.194     10.980     12.210
REMARK INTER + INTRA:          -4.845
REMARK INTER:                  -4.281
REMARK INTRA:                  -0.564
REMARK UNBOUND:                -0.531
REMARK SMILES [NH3+]CCCC[C@H]([NH3+])C(=O)[O-]
REMARK SMILES IDX 4 1 3 2 2 3 1 4 5 8 6 9 7 10 8 14 9 15 10 16
REMARK H PARENT 1 5 1 6 1 7 7 11 7 12 7 13
REMARK Flexibility Score: inf
ROOT
ATOM      1  C   UNL     1     111.331 100.886  99.426  1.00  0.00     0.012 C 
ENDROOT
BRANCH   1   2
ATOM      2  C   UNL     1     109.826 101.192  99.382  1.00  0.00     0.061 C 
BRANCH   2   3
ATOM      3  C   UNL     1     109.075 100.638 100.604  1.00  0.00     0.258 C 
BRANCH   3   4
ATOM      4  N   UNL     1     108.685 101.696 101.539  1.00  0.00    -0.358 N 
ATOM      5  H   UNL     1     109.472 101.863 102.208  1.00  0.00     0.344 HD
ATOM      6  H   UNL     1     108.498 102.586 101.024  1.00  0.00     0.344 HD
ATOM      7  H   UNL     1     107.839 101.410 102.082  1.00  0.00     0.344 HD
ENDBRANCH   3   4
ENDBRANCH   2   3
ENDBRANCH   1   2
BRANCH   1   8
ATOM      8  C   UNL     1     112.154 102.183  99.351  1.00  0.00     0.072 C 
BRANCH   8   9
ATOM      9  C   UNL     1     111.842 103.201 100.473  1.00  0.00     0.227 C 
BRANCH   9  10
ATOM     10  N   UNL     1     112.420 104.524 100.195  1.00  0.00    -0.350 N 
ATOM     11  H   UNL     1     112.056 104.887  99.285  1.00  0.00     0.345 HD
ATOM     12  H   UNL     1     113.463 104.485 100.157  1.00  0.00     0.345 HD
ATOM     13  H   UNL     1     112.137 105.191 100.950  1.00  0.00     0.345 HD
ENDBRANCH   9  10
BRANCH   9  14
ATOM     14  C   UNL     1     112.274 102.686 101.823  1.00  0.00     0.099 C 
ATOM     15  O   UNL     1     111.411 102.447 102.707  1.00  0.00    -0.544 OA
ATOM     16  O   UNL     1     113.613 102.424 102.089  1.00  0.00    -0.544 OA
ENDBRANCH   9  14
ENDBRANCH   8   9
ENDBRANCH   1   8
TORSDOF 7
ENDMDL
MODEL 9
REMARK VINA RESULT:    -3.190     13.122     13.781
REMARK INTER + INTRA:          -4.840
REMARK INTER:                  -4.616
REMARK INTRA:                  -0.224
REMARK UNBOUND:                -0.531
REMARK SMILES [NH3+]CCCC[C@H]([NH3+])C(=O)[O-]
REMARK SMILES IDX 4 1 3 2 2 3 1 4 5 8 6 9 7 10 8 14 9 15 10 16
REMARK H PARENT 1 5 1 6 1 7 7 11 7 12 7 13
REMARK Flexibility Score: inf
ROOT
ATOM      1  C   UNL     1     100.685 108.443  99.416  1.00  0.00     0.012 C 
ENDROOT
BRANCH   1   2
ATOM      2  C   UNL     1     100.756 109.977  99.429  1.00  0.00     0.061 C 
BRANCH   2   3
ATOM      3  C   UNL     1     102.045 110.514  98.784  1.00  0.00     0.258 C 
BRANCH   3   4
ATOM      4  N   UNL     1     103.153 109.563  98.890  1.00  0.00    -0.358 N 
ATOM      5  H   UNL     1     102.797 108.671  99.302  1.00  0.00     0.344 HD
ATOM      6  H   UNL     1     103.544 109.354  97.943  1.00  0.00     0.344 HD
ATOM      7  H   UNL     1     103.903 109.944  99.512  1.00  0.00     0.344 HD
ENDBRANCH   3   4
ENDBRANCH   2   3
ENDBRANCH   1   2
BRANCH   1   8
ATOM      8  C   UNL     1     100.286 107.903 100.801  1.00  0.00     0.072 C 
BRANCH   8   9
ATOM      9  C   UNL     1     101.319 108.187 101.916  1.00  0.00     0.227 C 
BRANCH   9  10
ATOM     10  N   UNL     1     102.610 107.535 101.652  1.00  0.00    -0.350 N 
ATOM     11  H   UNL     1     102.761 106.755 102.332  1.00  0.00     0.345 HD
ATOM     12  H   UNL     1     103.402 108.212 101.725  1.00  0.00     0.345 HD
ATOM     13  H   UNL     1     102.604 107.130 100.687  1.00  0.00     0.345 HD
ENDBRANCH   9  10
BRANCH   9  14
ATOM     14  C   UNL     1     100.784 107.813 103.276  1.00  0.00     0.099 C 
ATOM     15  O   UNL     1      99.628 107.326 103.382  1.00  0.00    -0.544 OA
ATOM     16  O   UNL     1     101.572 107.953 104.413  1.00  0.00    -0.544 OA
ENDBRANCH   9  14
ENDBRANCH   8   9
ENDBRANCH   1   8
TORSDOF 7
ENDMDL
