MODEL 1
REMARK VINA RESULT:    -4.430      0.000      0.000
REMARK INTER + INTRA:          -5.562
REMARK INTER:                  -5.337
REMARK INTRA:                  -0.225
REMARK UNBOUND:                -0.225
REMARK SMILES Oc1cc(O)c2c(c1)O[C@H](c1ccc(O)c(O)c1)[C@@H](O)C2
REMARK SMILES IDX 21 1 19 2 10 3 9 4 7 5 8 6 2 7 3 8 4 9 6 10 20 11 11 13
REMARK SMILES IDX 18 14 12 15 16 16 13 17 14 18 17 19 15 21 5 23 1 25
REMARK H PARENT 20 12 17 20 15 22 5 24 1 26
REMARK Flexibility Score: inf
ROOT
ATOM      1  C   UNL     1      71.407  39.996  22.373  1.00  0.00     0.079 C 
ATOM      2  C   UNL     1      72.882  40.088  21.949  1.00  0.00     0.164 C 
ATOM      3  C   UNL     1      73.191  41.508  21.436  1.00  0.00     0.232 C 
ATOM      4  O   UNL     1      72.305  41.839  20.366  1.00  0.00    -0.482 OA
ATOM      5  C   UNL     1      70.959  41.458  20.362  1.00  0.00     0.131 A 
ATOM      6  C   UNL     1      70.112  41.971  19.376  1.00  0.00     0.093 A 
ATOM      7  C   UNL     1      68.759  41.620  19.358  1.00  0.00     0.122 A 
ATOM      8  C   UNL     1      68.250  40.761  20.334  1.00  0.00     0.092 A 
ATOM      9  C   UNL     1      69.084  40.238  21.330  1.00  0.00     0.126 A 
ATOM     10  C   UNL     1      70.464  40.556  21.328  1.00  0.00     0.039 A 
ENDROOT
BRANCH   2  11
ATOM     11  O   UNL     1      73.693  39.778  23.053  1.00  0.00    -0.389 OA
ATOM     12  H   UNL     1      73.961  40.640  23.467  1.00  0.00     0.211 HD
ENDBRANCH   2  11
BRANCH   3  13
ATOM     13  C   UNL     1      74.620  41.624  20.961  1.00  0.00    -0.001 A 
ATOM     14  C   UNL     1      74.959  41.306  19.634  1.00  0.00     0.057 A 
ATOM     15  C   UNL     1      75.633  42.007  21.854  1.00  0.00     0.012 A 
ATOM     16  C   UNL     1      76.287  41.386  19.199  1.00  0.00     0.157 A 
ATOM     17  C   UNL     1      76.960  42.088  21.423  1.00  0.00     0.050 A 
ATOM     18  C   UNL     1      77.293  41.780  20.097  1.00  0.00     0.157 A 
BRANCH  16  19
ATOM     19  O   UNL     1      76.586  41.069  17.875  1.00  0.00    -0.504 OA
ATOM     20  H   UNL     1      76.584  41.767  17.141  1.00  0.00     0.293 HD
ENDBRANCH  16  19
BRANCH  18  21
ATOM     21  O   UNL     1      78.618  41.863  19.670  1.00  0.00    -0.504 OA
ATOM     22  H   UNL     1      79.042  42.750  19.424  1.00  0.00     0.293 HD
ENDBRANCH  18  21
ENDBRANCH   3  13
BRANCH   9  23
ATOM     23  O   UNL     1      68.509  39.422  22.307  1.00  0.00    -0.507 OA
ATOM     24  H   UNL     1      67.721  39.705  22.874  1.00  0.00     0.293 HD
ENDBRANCH   9  23
BRANCH   7  25
ATOM     25  O   UNL     1      67.908  42.125  18.376  1.00  0.00    -0.508 OA
ATOM     26  H   UNL     1      67.249  42.868  18.578  1.00  0.00     0.293 HD
ENDBRANCH   7  25
TORSDOF 6
ENDMDL
MODEL 2
REMARK VINA RESULT:    -4.387      1.431      7.201
REMARK INTER + INTRA:          -5.510
REMARK INTER:                  -5.491
REMARK INTRA:                  -0.019
REMARK UNBOUND:                -0.225
REMARK SMILES Oc1cc(O)c2c(c1)O[C@H](c1ccc(O)c(O)c1)[C@@H](O)C2
REMARK SMILES IDX 21 1 19 2 10 3 9 4 7 5 8 6 2 7 3 8 4 9 6 10 20 11 11 13
REMARK SMILES IDX 18 14 12 15 16 16 13 17 14 18 17 19 15 21 5 23 1 25
REMARK H PARENT 20 12 17 20 15 22 5 24 1 26
REMARK Flexibility Score: inf
ROOT
ATOM      1  C   UNL     1      74.956  42.027  18.783  1.00  0.00     0.079 C 
ATOM      2  C   UNL     1      73.513  41.525  18.960  1.00  0.00     0.164 C 
ATOM      3  C   UNL     1      72.935  42.054  20.287  1.00  0.00     0.232 C 
ATOM      4  O   UNL     1      73.775  41.658  21.372  1.00  0.00    -0.482 OA
ATOM      5  C   UNL     1      75.169  41.635  21.269  1.00  0.00     0.131 A 
ATOM      6  C   UNL     1      75.931  41.416  22.421  1.00  0.00     0.093 A 
ATOM      7  C   UNL     1      77.327  41.403  22.351  1.00  0.00     0.122 A 
ATOM      8  C   UNL     1      77.963  41.620  21.127  1.00  0.00     0.092 A 
ATOM      9  C   UNL     1      77.217  41.843  19.964  1.00  0.00     0.126 A 
ATOM     10  C   UNL     1      75.803  41.813  20.020  1.00  0.00     0.039 A 
ENDROOT
BRANCH   2  11
ATOM     11  O   UNL     1      72.740  41.972  17.875  1.00  0.00    -0.389 OA
ATOM     12  H   UNL     1      71.916  41.419  17.859  1.00  0.00     0.211 HD
ENDBRANCH   2  11
BRANCH   3  13
ATOM     13  C   UNL     1      71.534  41.540  20.521  1.00  0.00    -0.001 A 
ATOM     14  C   UNL     1      70.453  42.049  19.780  1.00  0.00     0.057 A 
ATOM     15  C   UNL     1      71.290  40.580  21.517  1.00  0.00     0.012 A 
ATOM     16  C   UNL     1      69.151  41.594  20.015  1.00  0.00     0.157 A 
ATOM     17  C   UNL     1      69.991  40.124  21.754  1.00  0.00     0.050 A 
ATOM     18  C   UNL     1      68.917  40.626  21.006  1.00  0.00     0.157 A 
BRANCH  16  19
ATOM     19  O   UNL     1      68.104  42.117  19.257  1.00  0.00    -0.504 OA
ATOM     20  H   UNL     1      68.244  42.868  18.591  1.00  0.00     0.293 HD
ENDBRANCH  16  19
BRANCH  18  21
ATOM     21  O   UNL     1      67.622  40.168  21.245  1.00  0.00    -0.504 OA
ATOM     22  H   UNL     1      67.176  40.283  22.148  1.00  0.00     0.293 HD
ENDBRANCH  18  21
ENDBRANCH   3  13
BRANCH   9  23
ATOM     23  O   UNL     1      77.909  42.101  18.778  1.00  0.00    -0.507 OA
ATOM     24  H   UNL     1      77.639  41.719  17.882  1.00  0.00     0.293 HD
ENDBRANCH   9  23
BRANCH   7  25
ATOM     25  O   UNL     1      78.093  41.183  23.494  1.00  0.00    -0.508 OA
ATOM     26  H   UNL     1      78.828  40.485  23.513  1.00  0.00     0.293 HD
ENDBRANCH   7  25
TORSDOF 6
ENDMDL
MODEL 3
REMARK VINA RESULT:    -4.371      1.252      6.853
REMARK INTER + INTRA:          -5.490
REMARK INTER:                  -5.413
REMARK INTRA:                  -0.077
REMARK UNBOUND:                -0.225
REMARK SMILES Oc1cc(O)c2c(c1)O[C@H](c1ccc(O)c(O)c1)[C@@H](O)C2
REMARK SMILES IDX 21 1 19 2 10 3 9 4 7 5 8 6 2 7 3 8 4 9 6 10 20 11 11 13
REMARK SMILES IDX 18 14 12 15 16 16 13 17 14 18 17 19 15 21 5 23 1 25
REMARK H PARENT 20 12 17 20 15 22 5 24 1 26
REMARK Flexibility Score: inf
ROOT
ATOM      1  C   UNL     1      74.297  41.612  22.372  1.00  0.00     0.079 C 
ATOM      2  C   UNL     1      72.835  41.841  21.958  1.00  0.00     0.164 C 
ATOM      3  C   UNL     1      72.487  40.949  20.750  1.00  0.00     0.232 C 
ATOM      4  O   UNL     1      73.393  41.212  19.678  1.00  0.00    -0.482 OA
ATOM      5  C   UNL     1      74.752  41.465  19.892  1.00  0.00     0.131 A 
ATOM      6  C   UNL     1      75.611  41.532  18.790  1.00  0.00     0.093 A 
ATOM      7  C   UNL     1      76.976  41.767  18.975  1.00  0.00     0.122 A 
ATOM      8  C   UNL     1      77.486  41.926  20.265  1.00  0.00     0.092 A 
ATOM      9  C   UNL     1      76.641  41.861  21.380  1.00  0.00     0.126 A 
ATOM     10  C   UNL     1      75.251  41.667  21.197  1.00  0.00     0.039 A 
ENDROOT
BRANCH   2  11
ATOM     11  O   UNL     1      72.000  41.538  23.047  1.00  0.00    -0.389 OA
ATOM     12  H   UNL     1      72.592  41.349  23.822  1.00  0.00     0.211 HD
ENDBRANCH   2  11
BRANCH   3  13
ATOM     13  C   UNL     1      71.071  41.184  20.281  1.00  0.00    -0.001 A 
ATOM     14  C   UNL     1      69.986  40.620  20.975  1.00  0.00     0.057 A 
ATOM     15  C   UNL     1      70.825  41.929  19.117  1.00  0.00     0.012 A 
ATOM     16  C   UNL     1      68.674  40.813  20.526  1.00  0.00     0.157 A 
ATOM     17  C   UNL     1      69.517  42.124  18.666  1.00  0.00     0.050 A 
ATOM     18  C   UNL     1      68.438  41.569  19.366  1.00  0.00     0.157 A 
BRANCH  16  19
ATOM     19  O   UNL     1      67.623  40.244  21.243  1.00  0.00    -0.504 OA
ATOM     20  H   UNL     1      67.658  39.291  21.585  1.00  0.00     0.293 HD
ENDBRANCH  16  19
BRANCH  18  21
ATOM     21  O   UNL     1      67.133  41.766  18.914  1.00  0.00    -0.504 OA
ATOM     22  H   UNL     1      66.559  42.524  19.263  1.00  0.00     0.293 HD
ENDBRANCH  18  21
ENDBRANCH   3  13
BRANCH   9  23
ATOM     23  O   UNL     1      77.216  41.981  22.647  1.00  0.00    -0.507 OA
ATOM     24  H   UNL     1      76.698  41.853  23.507  1.00  0.00     0.293 HD
ENDBRANCH   9  23
BRANCH   7  25
ATOM     25  O   UNL     1      77.839  41.838  17.882  1.00  0.00    -0.508 OA
ATOM     26  H   UNL     1      78.424  41.054  17.618  1.00  0.00     0.293 HD
ENDBRANCH   7  25
TORSDOF 6
ENDMDL
MODEL 4
REMARK VINA RESULT:    -4.131      1.450      7.245
REMARK INTER + INTRA:          -5.201
REMARK INTER:                  -5.209
REMARK INTRA:                   0.008
REMARK UNBOUND:                -0.225
REMARK SMILES Oc1cc(O)c2c(c1)O[C@H](c1ccc(O)c(O)c1)[C@@H](O)C2
REMARK SMILES IDX 21 1 19 2 10 3 9 4 7 5 8 6 2 7 3 8 4 9 6 10 20 11 11 13
REMARK SMILES IDX 18 14 12 15 16 16 13 17 14 18 17 19 15 21 5 23 1 25
REMARK H PARENT 20 12 17 20 15 22 5 24 1 26
REMARK Flexibility Score: inf
ROOT
ATOM      1  C   UNL     1      74.959  42.050  18.803  1.00  0.00     0.079 C 
ATOM      2  C   UNL     1      73.514  41.568  19.015  1.00  0.00     0.164 C 
ATOM      3  C   UNL     1      72.968  42.125  20.345  1.00  0.00     0.232 C 
ATOM      4  O   UNL     1      73.824  41.735  21.420  1.00  0.00    -0.482 OA
ATOM      5  C   UNL     1      75.216  41.693  21.291  1.00  0.00     0.131 A 
ATOM      6  C   UNL     1      75.996  41.482  22.431  1.00  0.00     0.093 A 
ATOM      7  C   UNL     1      77.391  41.451  22.334  1.00  0.00     0.122 A 
ATOM      8  C   UNL     1      78.006  41.642  21.095  1.00  0.00     0.092 A 
ATOM      9  C   UNL     1      77.240  41.856  19.943  1.00  0.00     0.126 A 
ATOM     10  C   UNL     1      75.827  41.845  20.027  1.00  0.00     0.039 A 
ENDROOT
BRANCH   2  11
ATOM     11  O   UNL     1      72.725  42.009  17.939  1.00  0.00    -0.389 OA
ATOM     12  H   UNL     1      73.023  41.507  17.136  1.00  0.00     0.211 HD
ENDBRANCH   2  11
BRANCH   3  13
ATOM     13  C   UNL     1      71.565  41.632  20.614  1.00  0.00    -0.001 A 
ATOM     14  C   UNL     1      71.328  40.661  21.604  1.00  0.00     0.057 A 
ATOM     15  C   UNL     1      70.489  42.104  19.846  1.00  0.00     0.012 A 
ATOM     16  C   UNL     1      70.034  40.182  21.836  1.00  0.00     0.157 A 
ATOM     17  C   UNL     1      69.196  41.628  20.076  1.00  0.00     0.050 A 
ATOM     18  C   UNL     1      68.961  40.668  21.070  1.00  0.00     0.157 A 
BRANCH  16  19
ATOM     19  O   UNL     1      69.834  39.224  22.829  1.00  0.00    -0.504 OA
ATOM     20  H   UNL     1      70.414  38.396  22.903  1.00  0.00     0.293 HD
ENDBRANCH  16  19
BRANCH  18  21
ATOM     21  O   UNL     1      67.669  40.196  21.296  1.00  0.00    -0.504 OA
ATOM     22  H   UNL     1      67.281  40.139  22.231  1.00  0.00     0.293 HD
ENDBRANCH  18  21
ENDBRANCH   3  13
BRANCH   9  23
ATOM     23  O   UNL     1      77.912  42.087  18.741  1.00  0.00    -0.507 OA
ATOM     24  H   UNL     1      77.702  41.594  17.883  1.00  0.00     0.293 HD
ENDBRANCH   9  23
BRANCH   7  25
ATOM     25  O   UNL     1      78.176  41.238  23.466  1.00  0.00    -0.508 OA
ATOM     26  H   UNL     1      78.051  40.421  24.051  1.00  0.00     0.293 HD
ENDBRANCH   7  25
TORSDOF 6
ENDMDL
MODEL 5
REMARK VINA RESULT:    -2.965      1.691      3.304
REMARK INTER + INTRA:          -3.796
REMARK INTER:                  -4.042
REMARK INTRA:                   0.246
REMARK UNBOUND:                -0.225
REMARK SMILES Oc1cc(O)c2c(c1)O[C@H](c1ccc(O)c(O)c1)[C@@H](O)C2
REMARK SMILES IDX 21 1 19 2 10 3 9 4 7 5 8 6 2 7 3 8 4 9 6 10 20 11 11 13
REMARK SMILES IDX 18 14 12 15 16 16 13 17 14 18 17 19 15 21 5 23 1 25
REMARK H PARENT 20 12 17 20 15 22 5 24 1 26
REMARK Flexibility Score: inf
ROOT
ATOM      1  C   UNL     1      72.266  41.774  18.668  1.00  0.00     0.079 C 
ATOM      2  C   UNL     1      73.573  41.934  19.462  1.00  0.00     0.164 C 
ATOM      3  C   UNL     1      73.818  40.679  20.322  1.00  0.00     0.232 C 
ATOM      4  O   UNL     1      72.698  40.452  21.178  1.00  0.00    -0.482 OA
ATOM      5  C   UNL     1      71.381  40.669  20.760  1.00  0.00     0.131 A 
ATOM      6  C   UNL     1      70.331  40.254  21.584  1.00  0.00     0.093 A 
ATOM      7  C   UNL     1      69.004  40.444  21.185  1.00  0.00     0.122 A 
ATOM      8  C   UNL     1      68.728  41.041  19.954  1.00  0.00     0.092 A 
ATOM      9  C   UNL     1      69.767  41.463  19.115  1.00  0.00     0.126 A 
ATOM     10  C   UNL     1      71.111  41.313  19.533  1.00  0.00     0.039 A 
ENDROOT
BRANCH   2  11
ATOM     11  O   UNL     1      74.633  42.125  18.559  1.00  0.00    -0.389 OA
ATOM     12  H   UNL     1      75.324  41.446  18.776  1.00  0.00     0.211 HD
ENDBRANCH   2  11
BRANCH   3  13
ATOM     13  C   UNL     1      75.069  40.819  21.157  1.00  0.00    -0.001 A 
ATOM     14  C   UNL     1      75.026  40.613  22.547  1.00  0.00     0.057 A 
ATOM     15  C   UNL     1      76.280  41.203  20.559  1.00  0.00     0.012 A 
ATOM     16  C   UNL     1      76.178  40.770  23.327  1.00  0.00     0.157 A 
ATOM     17  C   UNL     1      77.432  41.360  21.334  1.00  0.00     0.050 A 
ATOM     18  C   UNL     1      77.388  41.144  22.718  1.00  0.00     0.157 A 
BRANCH  16  19
ATOM     19  O   UNL     1      76.099  40.552  24.701  1.00  0.00    -0.504 OA
ATOM     20  H   UNL     1      76.767  39.970  25.193  1.00  0.00     0.293 HD
ENDBRANCH  16  19
BRANCH  18  21
ATOM     21  O   UNL     1      78.539  41.301  23.489  1.00  0.00    -0.504 OA
ATOM     22  H   UNL     1      78.503  41.691  24.424  1.00  0.00     0.293 HD
ENDBRANCH  18  21
ENDBRANCH   3  13
BRANCH   9  23
ATOM     23  O   UNL     1      69.429  42.011  17.875  1.00  0.00    -0.507 OA
ATOM     24  H   UNL     1      70.026  41.954  17.061  1.00  0.00     0.293 HD
ENDBRANCH   9  23
BRANCH   7  25
ATOM     25  O   UNL     1      67.952  40.034  22.002  1.00  0.00    -0.508 OA
ATOM     26  H   UNL     1      67.786  40.462  22.905  1.00  0.00     0.293 HD
ENDBRANCH   7  25
TORSDOF 6
ENDMDL
MODEL 6
REMARK VINA RESULT:    -2.856      1.433      6.951
REMARK INTER + INTRA:          -3.665
REMARK INTER:                  -3.693
REMARK INTRA:                   0.028
REMARK UNBOUND:                -0.225
REMARK SMILES Oc1cc(O)c2c(c1)O[C@H](c1ccc(O)c(O)c1)[C@@H](O)C2
REMARK SMILES IDX 21 1 19 2 10 3 9 4 7 5 8 6 2 7 3 8 4 9 6 10 20 11 11 13
REMARK SMILES IDX 18 14 12 15 16 16 13 17 14 18 17 19 15 21 5 23 1 25
REMARK H PARENT 20 12 17 20 15 22 5 24 1 26
REMARK Flexibility Score: inf
ROOT
ATOM      1  C   UNL     1      75.599  40.959  22.544  1.00  0.00     0.079 C 
ATOM      2  C   UNL     1      74.139  41.276  22.183  1.00  0.00     0.164 C 
ATOM      3  C   UNL     1      73.793  40.657  20.815  1.00  0.00     0.232 C 
ATOM      4  O   UNL     1      74.703  41.135  19.824  1.00  0.00    -0.482 OA
ATOM      5  C   UNL     1      76.062  41.332  20.089  1.00  0.00     0.131 A 
ATOM      6  C   UNL     1      76.925  41.624  19.029  1.00  0.00     0.093 A 
ATOM      7  C   UNL     1      78.291  41.810  19.262  1.00  0.00     0.122 A 
ATOM      8  C   UNL     1      78.796  41.694  20.558  1.00  0.00     0.092 A 
ATOM      9  C   UNL     1      77.947  41.401  21.633  1.00  0.00     0.126 A 
ATOM     10  C   UNL     1      76.557  41.255  21.409  1.00  0.00     0.039 A 
ENDROOT
BRANCH   2  11
ATOM     11  O   UNL     1      73.299  40.755  23.183  1.00  0.00    -0.389 OA
ATOM     12  H   UNL     1      73.878  40.523  23.955  1.00  0.00     0.211 HD
ENDBRANCH   2  11
BRANCH   3  13
ATOM     13  C   UNL     1      72.379  40.990  20.400  1.00  0.00    -0.001 A 
ATOM     14  C   UNL     1      71.285  40.419  21.074  1.00  0.00     0.057 A 
ATOM     15  C   UNL     1      72.143  41.838  19.307  1.00  0.00     0.012 A 
ATOM     16  C   UNL     1      69.974  40.704  20.674  1.00  0.00     0.157 A 
ATOM     17  C   UNL     1      70.836  42.125  18.905  1.00  0.00     0.050 A 
ATOM     18  C   UNL     1      69.747  41.562  19.585  1.00  0.00     0.157 A 
BRANCH  16  19
ATOM     19  O   UNL     1      68.913  40.125  21.368  1.00  0.00    -0.504 OA
ATOM     20  H   UNL     1      69.054  39.582  22.213  1.00  0.00     0.293 HD
ENDBRANCH  16  19
BRANCH  18  21
ATOM     21  O   UNL     1      68.444  41.851  19.182  1.00  0.00    -0.504 OA
ATOM     22  H   UNL     1      67.683  41.201  19.340  1.00  0.00     0.293 HD
ENDBRANCH  18  21
ENDBRANCH   3  13
BRANCH   9  23
ATOM     23  O   UNL     1      78.518  41.251  22.899  1.00  0.00    -0.507 OA
ATOM     24  H   UNL     1      78.057  40.776  23.663  1.00  0.00     0.293 HD
ENDBRANCH   9  23
BRANCH   7  25
ATOM     25  O   UNL     1      79.157  42.104  18.211  1.00  0.00    -0.508 OA
ATOM     26  H   UNL     1      78.878  42.711  17.449  1.00  0.00     0.293 HD
ENDBRANCH   7  25
TORSDOF 6
ENDMDL
MODEL 7
REMARK VINA RESULT:    -1.603      1.760      6.993
REMARK INTER + INTRA:          -2.155
REMARK INTER:                  -2.477
REMARK INTRA:                   0.322
REMARK UNBOUND:                -0.225
REMARK SMILES Oc1cc(O)c2c(c1)O[C@H](c1ccc(O)c(O)c1)[C@@H](O)C2
REMARK SMILES IDX 21 1 19 2 10 3 9 4 7 5 8 6 2 7 3 8 4 9 6 10 20 11 11 13
REMARK SMILES IDX 18 14 12 15 16 16 13 17 14 18 17 19 15 21 5 23 1 25
REMARK H PARENT 20 12 17 20 15 22 5 24 1 26
REMARK Flexibility Score: inf
ROOT
ATOM      1  C   UNL     1      76.079  41.667  19.909  1.00  0.00     0.079 C 
ATOM      2  C   UNL     1      74.670  41.487  19.321  1.00  0.00     0.164 C 
ATOM      3  C   UNL     1      73.626  42.125  20.260  1.00  0.00     0.232 C 
ATOM      4  O   UNL     1      73.737  41.555  21.564  1.00  0.00    -0.482 OA
ATOM      5  C   UNL     1      74.971  41.231  22.138  1.00  0.00     0.131 A 
ATOM      6  C   UNL     1      75.015  40.849  23.482  1.00  0.00     0.093 A 
ATOM      7  C   UNL     1      76.237  40.536  24.085  1.00  0.00     0.122 A 
ATOM      8  C   UNL     1      77.418  40.615  23.345  1.00  0.00     0.092 A 
ATOM      9  C   UNL     1      77.393  40.996  21.998  1.00  0.00     0.126 A 
ATOM     10  C   UNL     1      76.155  41.272  21.370  1.00  0.00     0.039 A 
ENDROOT
BRANCH   2  11
ATOM     11  O   UNL     1      74.625  42.094  18.054  1.00  0.00    -0.389 OA
ATOM     12  H   UNL     1      75.546  42.400  17.846  1.00  0.00     0.211 HD
ENDBRANCH   2  11
BRANCH   3  13
ATOM     13  C   UNL     1      72.222  41.924  19.740  1.00  0.00    -0.001 A 
ATOM     14  C   UNL     1      71.182  41.567  20.616  1.00  0.00     0.057 A 
ATOM     15  C   UNL     1      71.951  42.047  18.368  1.00  0.00     0.012 A 
ATOM     16  C   UNL     1      69.886  41.353  20.133  1.00  0.00     0.157 A 
ATOM     17  C   UNL     1      70.658  41.835  17.883  1.00  0.00     0.050 A 
ATOM     18  C   UNL     1      69.621  41.489  18.760  1.00  0.00     0.157 A 
BRANCH  16  19
ATOM     19  O   UNL     1      68.878  41.005  21.031  1.00  0.00    -0.504 OA
ATOM     20  H   UNL     1      68.671  40.041  21.262  1.00  0.00     0.293 HD
ENDBRANCH  16  19
BRANCH  18  21
ATOM     21  O   UNL     1      68.332  41.278  18.272  1.00  0.00    -0.504 OA
ATOM     22  H   UNL     1      68.030  41.664  17.385  1.00  0.00     0.293 HD
ENDBRANCH  18  21
ENDBRANCH   3  13
BRANCH   9  23
ATOM     23  O   UNL     1      78.611  41.102  21.323  1.00  0.00    -0.507 OA
ATOM     24  H   UNL     1      79.163  40.302  21.042  1.00  0.00     0.293 HD
ENDBRANCH   9  23
BRANCH   7  25
ATOM     25  O   UNL     1      76.289  40.153  25.424  1.00  0.00    -0.508 OA
ATOM     26  H   UNL     1      75.446  39.975  25.957  1.00  0.00     0.293 HD
ENDBRANCH   7  25
TORSDOF 6
ENDMDL
