MODEL 1
REMARK VINA RESULT:    -5.229      0.000      0.000
REMARK INTER + INTRA:          -6.918
REMARK INTER:                  -6.757
REMARK INTRA:                  -0.161
REMARK UNBOUND:                -0.161
REMARK SMILES CCCCCCC(=O)[O-]
REMARK SMILES IDX 5 1 6 2 7 3 8 4 9 5 4 6 3 7 2 8 1 9
REMARK H PARENT
REMARK Flexibility Score: inf
ROOT
ATOM      1  C   UNL     1      12.486  34.924  23.102  1.00  0.00     0.006 C 
ENDROOT
BRANCH   1   2
ATOM      2  C   UNL     1      11.123  34.228  23.166  1.00  0.00     0.053 C 
BRANCH   2   3
ATOM      3  C   UNL     1      10.948  33.539  24.482  1.00  0.00     0.041 C 
ATOM      4  O   UNL     1      10.533  32.351  24.524  1.00  0.00    -0.550 OA
ATOM      5  O   UNL     1      11.197  34.224  25.664  1.00  0.00    -0.550 OA
ENDBRANCH   2   3
ENDBRANCH   1   2
BRANCH   1   6
ATOM      6  C   UNL     1      12.850  35.288  21.657  1.00  0.00     0.000 C 
BRANCH   6   7
ATOM      7  C   UNL     1      13.008  36.804  21.495  1.00  0.00    -0.000 C 
BRANCH   7   8
ATOM      8  C   UNL     1      12.529  37.544  22.750  1.00  0.00    -0.003 C 
ATOM      9  C   UNL     1      13.444  38.719  23.080  1.00  0.00     0.004 C 
ENDBRANCH   7   8
ENDBRANCH   6   7
ENDBRANCH   1   6
TORSDOF 5
ENDMDL
MODEL 2
REMARK VINA RESULT:    -5.205      0.091      1.084
REMARK INTER + INTRA:          -6.888
REMARK INTER:                  -6.747
REMARK INTRA:                  -0.141
REMARK UNBOUND:                -0.161
REMARK SMILES CCCCCCC(=O)[O-]
REMARK SMILES IDX 5 1 6 2 7 3 8 4 9 5 4 6 3 7 2 8 1 9
REMARK H PARENT
REMARK Flexibility Score: inf
ROOT
ATOM      1  C   UNL     1      12.535  35.002  23.161  1.00  0.00     0.006 C 
ENDROOT
BRANCH   1   2
ATOM      2  C   UNL     1      11.144  34.362  23.209  1.00  0.00     0.053 C 
BRANCH   2   3
ATOM      3  C   UNL     1      10.944  33.639  24.503  1.00  0.00     0.041 C 
ATOM      4  O   UNL     1      11.207  34.210  25.594  1.00  0.00    -0.550 OA
ATOM      5  O   UNL     1      10.514  32.319  24.502  1.00  0.00    -0.550 OA
ENDBRANCH   2   3
ENDBRANCH   1   2
BRANCH   1   6
ATOM      6  C   UNL     1      12.946  35.316  21.716  1.00  0.00     0.000 C 
BRANCH   6   7
ATOM      7  C   UNL     1      13.068  36.828  21.496  1.00  0.00    -0.000 C 
BRANCH   7   8
ATOM      8  C   UNL     1      12.524  37.604  22.701  1.00  0.00    -0.003 C 
ATOM      9  C   UNL     1      13.460  38.744  23.091  1.00  0.00     0.004 C 
ENDBRANCH   7   8
ENDBRANCH   6   7
ENDBRANCH   1   6
TORSDOF 5
ENDMDL
MODEL 3
REMARK VINA RESULT:    -5.072      3.151      4.866
REMARK INTER + INTRA:          -6.716
REMARK INTER:                  -6.458
REMARK INTRA:                  -0.258
REMARK UNBOUND:                -0.161
REMARK SMILES CCCCCCC(=O)[O-]
REMARK SMILES IDX 5 1 6 2 7 3 8 4 9 5 4 6 3 7 2 8 1 9
REMARK H PARENT
REMARK Flexibility Score: inf
ROOT
ATOM      1  C   UNL     1      11.558  35.932  22.138  1.00  0.00     0.006 C 
ENDROOT
BRANCH   1   2
ATOM      2  C   UNL     1      11.917  37.110  23.049  1.00  0.00     0.053 C 
BRANCH   2   3
ATOM      3  C   UNL     1      13.040  37.903  22.461  1.00  0.00     0.041 C 
ATOM      4  O   UNL     1      13.615  38.791  23.146  1.00  0.00    -0.550 OA
ATOM      5  O   UNL     1      13.420  37.697  21.142  1.00  0.00    -0.550 OA
ENDBRANCH   2   3
ENDBRANCH   1   2
BRANCH   1   6
ATOM      6  C   UNL     1      12.033  34.604  22.742  1.00  0.00     0.000 C 
BRANCH   6   7
ATOM      7  C   UNL     1      12.003  34.655  24.274  1.00  0.00    -0.000 C 
BRANCH   7   8
ATOM      8  C   UNL     1      11.207  33.477  24.847  1.00  0.00    -0.003 C 
ATOM      9  C   UNL     1      10.430  32.752  23.752  1.00  0.00     0.004 C 
ENDBRANCH   7   8
ENDBRANCH   6   7
ENDBRANCH   1   6
TORSDOF 5
ENDMDL
MODEL 4
REMARK VINA RESULT:    -5.062      1.049      1.658
REMARK INTER + INTRA:          -6.704
REMARK INTER:                  -6.505
REMARK INTRA:                  -0.199
REMARK UNBOUND:                -0.161
REMARK SMILES CCCCCCC(=O)[O-]
REMARK SMILES IDX 5 1 6 2 7 3 8 4 9 5 4 6 3 7 2 8 1 9
REMARK H PARENT
REMARK Flexibility Score: inf
ROOT
ATOM      1  C   UNL     1      11.254  35.541  24.153  1.00  0.00     0.006 C 
ENDROOT
BRANCH   1   2
ATOM      2  C   UNL     1      11.530  34.137  23.608  1.00  0.00     0.053 C 
BRANCH   2   3
ATOM      3  C   UNL     1      10.887  33.103  24.477  1.00  0.00     0.041 C 
ATOM      4  O   UNL     1      11.004  33.167  25.730  1.00  0.00    -0.550 OA
ATOM      5  O   UNL     1      10.201  32.041  23.903  1.00  0.00    -0.550 OA
ENDBRANCH   2   3
ENDBRANCH   1   2
BRANCH   1   6
ATOM      6  C   UNL     1      11.172  36.566  23.014  1.00  0.00     0.000 C 
BRANCH   6   7
ATOM      7  C   UNL     1      12.074  36.160  21.843  1.00  0.00    -0.000 C 
BRANCH   7   8
ATOM      8  C   UNL     1      13.149  37.221  21.583  1.00  0.00    -0.003 C 
ATOM      9  C   UNL     1      13.203  38.241  22.717  1.00  0.00     0.004 C 
ENDBRANCH   7   8
ENDBRANCH   6   7
ENDBRANCH   1   6
TORSDOF 5
ENDMDL
MODEL 5
REMARK VINA RESULT:    -4.954      3.160      4.712
REMARK INTER + INTRA:          -6.564
REMARK INTER:                  -6.312
REMARK INTRA:                  -0.252
REMARK UNBOUND:                -0.161
REMARK SMILES CCCCCCC(=O)[O-]
REMARK SMILES IDX 5 1 6 2 7 3 8 4 9 5 4 6 3 7 2 8 1 9
REMARK H PARENT
REMARK Flexibility Score: inf
ROOT
ATOM      1  C   UNL     1      11.388  36.024  22.241  1.00  0.00     0.006 C 
ENDROOT
BRANCH   1   2
ATOM      2  C   UNL     1      11.943  37.227  23.009  1.00  0.00     0.053 C 
BRANCH   2   3
ATOM      3  C   UNL     1      13.058  37.867  22.245  1.00  0.00     0.041 C 
ATOM      4  O   UNL     1      13.729  38.798  22.764  1.00  0.00    -0.550 OA
ATOM      5  O   UNL     1      13.327  37.468  20.942  1.00  0.00    -0.550 OA
ENDBRANCH   2   3
ENDBRANCH   1   2
BRANCH   1   6
ATOM      6  C   UNL     1      11.961  34.710  22.788  1.00  0.00     0.000 C 
BRANCH   6   7
ATOM      7  C   UNL     1      10.886  33.910  23.533  1.00  0.00    -0.000 C 
BRANCH   7   8
ATOM      8  C   UNL     1      11.374  33.502  24.929  1.00  0.00    -0.003 C 
ATOM      9  C   UNL     1      12.430  34.472  25.449  1.00  0.00     0.004 C 
ENDBRANCH   7   8
ENDBRANCH   6   7
ENDBRANCH   1   6
TORSDOF 5
ENDMDL
MODEL 6
REMARK VINA RESULT:    -4.914      2.380      4.429
REMARK INTER + INTRA:          -6.512
REMARK INTER:                  -6.254
REMARK INTRA:                  -0.258
REMARK UNBOUND:                -0.161
REMARK SMILES CCCCCCC(=O)[O-]
REMARK SMILES IDX 5 1 6 2 7 3 8 4 9 5 4 6 3 7 2 8 1 9
REMARK H PARENT
REMARK Flexibility Score: inf
ROOT
ATOM      1  C   UNL     1      12.300  35.438  23.157  1.00  0.00     0.006 C 
ENDROOT
BRANCH   1   2
ATOM      2  C   UNL     1      11.815  36.887  23.052  1.00  0.00     0.053 C 
BRANCH   2   3
ATOM      3  C   UNL     1      10.355  36.974  23.364  1.00  0.00     0.041 C 
ATOM      4  O   UNL     1       9.965  37.555  24.411  1.00  0.00    -0.550 OA
ATOM      5  O   UNL     1       9.427  36.373  22.524  1.00  0.00    -0.550 OA
ENDBRANCH   2   3
ENDBRANCH   1   2
BRANCH   1   6
ATOM      6  C   UNL     1      12.364  34.984  24.621  1.00  0.00     0.000 C 
BRANCH   6   7
ATOM      7  C   UNL     1      11.567  33.691  24.831  1.00  0.00    -0.000 C 
BRANCH   7   8
ATOM      8  C   UNL     1      10.668  33.398  23.624  1.00  0.00    -0.003 C 
ATOM      9  C   UNL     1      10.131  31.970  23.670  1.00  0.00     0.004 C 
ENDBRANCH   7   8
ENDBRANCH   6   7
ENDBRANCH   1   6
TORSDOF 5
ENDMDL
MODEL 7
REMARK VINA RESULT:    -4.714      2.339      2.682
REMARK INTER + INTRA:          -6.253
REMARK INTER:                  -6.040
REMARK INTRA:                  -0.213
REMARK UNBOUND:                -0.161
REMARK SMILES CCCCCCC(=O)[O-]
REMARK SMILES IDX 5 1 6 2 7 3 8 4 9 5 4 6 3 7 2 8 1 9
REMARK H PARENT
REMARK Flexibility Score: inf
ROOT
ATOM      1  C   UNL     1      11.335  35.063  24.098  1.00  0.00     0.006 C 
ENDROOT
BRANCH   1   2
ATOM      2  C   UNL     1      10.279  34.812  23.017  1.00  0.00     0.053 C 
BRANCH   2   3
ATOM      3  C   UNL     1       9.427  36.026  22.824  1.00  0.00     0.041 C 
ATOM      4  O   UNL     1       8.623  36.088  21.857  1.00  0.00    -0.550 OA
ATOM      5  O   UNL     1       9.556  37.109  23.684  1.00  0.00    -0.550 OA
ENDBRANCH   2   3
ENDBRANCH   1   2
BRANCH   1   6
ATOM      6  C   UNL     1      12.726  35.240  23.476  1.00  0.00     0.000 C 
BRANCH   6   7
ATOM      7  C   UNL     1      12.642  35.291  21.946  1.00  0.00    -0.000 C 
BRANCH   7   8
ATOM      8  C   UNL     1      13.120  36.649  21.416  1.00  0.00    -0.003 C 
ATOM      9  C   UNL     1      12.995  37.732  22.483  1.00  0.00     0.004 C 
ENDBRANCH   7   8
ENDBRANCH   6   7
ENDBRANCH   1   6
TORSDOF 5
ENDMDL
MODEL 8
REMARK VINA RESULT:    -4.243      1.751      2.423
REMARK INTER + INTRA:          -5.644
REMARK INTER:                  -5.336
REMARK INTRA:                  -0.308
REMARK UNBOUND:                -0.161
REMARK SMILES CCCCCCC(=O)[O-]
REMARK SMILES IDX 5 1 6 2 7 3 8 4 9 5 4 6 3 7 2 8 1 9
REMARK H PARENT
REMARK Flexibility Score: inf
ROOT
ATOM      1  C   UNL     1      12.792  35.441  23.870  1.00  0.00     0.006 C 
ENDROOT
BRANCH   1   2
ATOM      2  C   UNL     1      12.684  34.043  24.485  1.00  0.00     0.053 C 
BRANCH   2   3
ATOM      3  C   UNL     1      11.515  33.969  25.415  1.00  0.00     0.041 C 
ATOM      4  O   UNL     1      11.204  34.964  26.122  1.00  0.00    -0.550 OA
ATOM      5  O   UNL     1      10.798  32.786  25.536  1.00  0.00    -0.550 OA
ENDBRANCH   2   3
ENDBRANCH   1   2
BRANCH   1   6
ATOM      6  C   UNL     1      12.859  35.365  22.339  1.00  0.00     0.000 C 
BRANCH   6   7
ATOM      7  C   UNL     1      11.630  36.022  21.701  1.00  0.00    -0.000 C 
BRANCH   7   8
ATOM      8  C   UNL     1      10.621  36.454  22.771  1.00  0.00    -0.003 C 
ATOM      9  C   UNL     1       9.278  35.756  22.576  1.00  0.00     0.004 C 
ENDBRANCH   7   8
ENDBRANCH   6   7
ENDBRANCH   1   6
TORSDOF 5
ENDMDL
MODEL 9
REMARK VINA RESULT:    -4.107      2.539      3.778
REMARK INTER + INTRA:          -5.469
REMARK INTER:                  -5.169
REMARK INTRA:                  -0.299
REMARK UNBOUND:                -0.161
REMARK SMILES CCCCCCC(=O)[O-]
REMARK SMILES IDX 5 1 6 2 7 3 8 4 9 5 4 6 3 7 2 8 1 9
REMARK H PARENT
REMARK Flexibility Score: inf
ROOT
ATOM      1  C   UNL     1      11.402  36.073  22.072  1.00  0.00     0.006 C 
ENDROOT
BRANCH   1   2
ATOM      2  C   UNL     1      10.132  36.208  22.919  1.00  0.00     0.053 C 
BRANCH   2   3
ATOM      3  C   UNL     1       9.013  35.423  22.312  1.00  0.00     0.041 C 
ATOM      4  O   UNL     1       8.217  35.974  21.506  1.00  0.00    -0.550 OA
ATOM      5  O   UNL     1       8.818  34.097  22.674  1.00  0.00    -0.550 OA
ENDBRANCH   2   3
ENDBRANCH   1   2
BRANCH   1   6
ATOM      6  C   UNL     1      12.651  36.006  22.960  1.00  0.00     0.000 C 
BRANCH   6   7
ATOM      7  C   UNL     1      12.292  35.553  24.380  1.00  0.00    -0.000 C 
BRANCH   7   8
ATOM      8  C   UNL     1      12.465  34.037  24.532  1.00  0.00    -0.003 C 
ATOM      9  C   UNL     1      11.269  33.415  25.250  1.00  0.00     0.004 C 
ENDBRANCH   7   8
ENDBRANCH   6   7
ENDBRANCH   1   6
TORSDOF 5
ENDMDL
