MODEL 1
REMARK VINA RESULT:    -2.146      0.000      0.000
REMARK INTER + INTRA:          -2.146
REMARK INTER:                  -2.146
REMARK INTRA:                   0.000
REMARK UNBOUND:                 0.000
REMARK SMILES CC(=O)[O-]
REMARK SMILES IDX 1 1 2 2 3 3 4 4
REMARK H PARENT
REMARK Flexibility Score: inf
ROOT
ATOM      1  C   UNL     1     115.549 100.476  94.730  1.00  0.00     0.063 C 
ATOM      2  C   UNL     1     116.842 101.161  95.014  1.00  0.00     0.038 C 
ATOM      3  O   UNL     1     116.868 102.187  95.742  1.00  0.00    -0.550 OA
ATOM      4  O   UNL     1     118.030 100.637  94.519  1.00  0.00    -0.550 OA
ENDROOT
TORSDOF 0
ENDMDL
MODEL 2
REMARK VINA RESULT:    -2.120      1.466      2.165
REMARK INTER + INTRA:          -2.120
REMARK INTER:                  -2.120
REMARK INTRA:                   0.000
REMARK UNBOUND:                 0.000
REMARK SMILES CC(=O)[O-]
REMARK SMILES IDX 1 1 2 2 3 3 4 4
REMARK H PARENT
REMARK Flexibility Score: inf
ROOT
ATOM      1  C   UNL     1     117.813 100.759  94.575  1.00  0.00     0.063 C 
ATOM      2  C   UNL     1     116.469 101.127  95.102  1.00  0.00     0.038 C 
ATOM      3  O   UNL     1     115.485 100.365  94.915  1.00  0.00    -0.550 OA
ATOM      4  O   UNL     1     116.308 102.287  95.850  1.00  0.00    -0.550 OA
ENDROOT
TORSDOF 0
ENDMDL
MODEL 3
REMARK VINA RESULT:    -1.976     23.256     23.542
REMARK INTER + INTRA:          -1.976
REMARK INTER:                  -1.976
REMARK INTRA:                   0.000
REMARK UNBOUND:                 0.000
REMARK SMILES CC(=O)[O-]
REMARK SMILES IDX 1 1 2 2 3 3 4 4
REMARK H PARENT
REMARK Flexibility Score: inf
ROOT
ATOM      1  C   UNL     1     101.600 118.051  91.464  1.00  0.00     0.063 C 
ATOM      2  C   UNL     1     100.290 117.513  91.927  1.00  0.00     0.038 C 
ATOM      3  O   UNL     1      99.712 118.024  92.921  1.00  0.00    -0.550 OA
ATOM      4  O   UNL     1      99.676 116.481  91.229  1.00  0.00    -0.550 OA
ENDROOT
TORSDOF 0
ENDMDL
MODEL 4
REMARK VINA RESULT:    -1.949     22.809     23.106
REMARK INTER + INTRA:          -1.949
REMARK INTER:                  -1.949
REMARK INTRA:                   0.000
REMARK UNBOUND:                 0.000
REMARK SMILES CC(=O)[O-]
REMARK SMILES IDX 1 1 2 2 3 3 4 4
REMARK H PARENT
REMARK Flexibility Score: inf
ROOT
ATOM      1  C   UNL     1      99.986 118.095  92.374  1.00  0.00     0.063 C 
ATOM      2  C   UNL     1     101.031 117.480  91.507  1.00  0.00     0.038 C 
ATOM      3  O   UNL     1     100.798 116.400  90.905  1.00  0.00    -0.550 OA
ATOM      4  O   UNL     1     102.247 118.124  91.319  1.00  0.00    -0.550 OA
ENDROOT
TORSDOF 0
ENDMDL
MODEL 5
REMARK VINA RESULT:    -1.885     22.950     23.260
REMARK INTER + INTRA:          -1.885
REMARK INTER:                  -1.885
REMARK INTRA:                   0.000
REMARK UNBOUND:                 0.000
REMARK SMILES CC(=O)[O-]
REMARK SMILES IDX 1 1 2 2 3 3 4 4
REMARK H PARENT
REMARK Flexibility Score: inf
ROOT
ATOM      1  C   UNL     1      99.594 116.001  90.940  1.00  0.00     0.063 C 
ATOM      2  C   UNL     1     100.311 117.052  91.716  1.00  0.00     0.038 C 
ATOM      3  O   UNL     1     101.421 117.488  91.315  1.00  0.00    -0.550 OA
ATOM      4  O   UNL     1      99.730 117.593  92.856  1.00  0.00    -0.550 OA
ENDROOT
TORSDOF 0
ENDMDL
MODEL 6
REMARK VINA RESULT:    -1.873     23.117     23.162
REMARK INTER + INTRA:          -1.873
REMARK INTER:                  -1.873
REMARK INTRA:                   0.000
REMARK UNBOUND:                 0.000
REMARK SMILES CC(=O)[O-]
REMARK SMILES IDX 1 1 2 2 3 3 4 4
REMARK H PARENT
REMARK Flexibility Score: inf
ROOT
ATOM      1  C   UNL     1      99.536 115.872  90.750  1.00  0.00     0.063 C 
ATOM      2  C   UNL     1     100.019 116.717  91.879  1.00  0.00     0.038 C 
ATOM      3  O   UNL     1      99.685 116.443  93.062  1.00  0.00    -0.550 OA
ATOM      4  O   UNL     1     100.883 117.777  91.636  1.00  0.00    -0.550 OA
ENDROOT
TORSDOF 0
ENDMDL
MODEL 7
REMARK VINA RESULT:    -1.781     22.027     22.286
REMARK INTER + INTRA:          -1.781
REMARK INTER:                  -1.781
REMARK INTRA:                   0.000
REMARK UNBOUND:                 0.000
REMARK SMILES CC(=O)[O-]
REMARK SMILES IDX 1 1 2 2 3 3 4 4
REMARK H PARENT
REMARK Flexibility Score: inf
ROOT
ATOM      1  C   UNL     1     100.852 115.928  90.309  1.00  0.00     0.063 C 
ATOM      2  C   UNL     1     101.941 116.941  90.409  1.00  0.00     0.038 C 
ATOM      3  O   UNL     1     102.863 116.965  89.553  1.00  0.00    -0.550 OA
ATOM      4  O   UNL     1     101.912 117.896  91.417  1.00  0.00    -0.550 OA
ENDROOT
TORSDOF 0
ENDMDL
MODEL 8
REMARK VINA RESULT:    -0.286     18.565     19.078
REMARK INTER + INTRA:          -0.286
REMARK INTER:                  -0.286
REMARK INTRA:                   0.000
REMARK UNBOUND:                 0.000
REMARK SMILES CC(=O)[O-]
REMARK SMILES IDX 1 1 2 2 3 3 4 4
REMARK H PARENT
REMARK Flexibility Score: inf
ROOT
ATOM      1  C   UNL     1     101.453 112.342  90.222  1.00  0.00     0.063 C 
ATOM      2  C   UNL     1     101.388 110.912  89.808  1.00  0.00     0.038 C 
ATOM      3  O   UNL     1     100.516 110.531  88.985  1.00  0.00    -0.550 OA
ATOM      4  O   UNL     1     102.325 110.005  90.287  1.00  0.00    -0.550 OA
ENDROOT
TORSDOF 0
ENDMDL
