MODEL 1
REMARK VINA RESULT:    -4.195      0.000      0.000
REMARK INTER + INTRA:          -9.064
REMARK INTER:                  -7.138
REMARK INTRA:                  -1.926
REMARK UNBOUND:                -1.926
REMARK SMILES CCCCCCCCCCCCCC(=O)[O-]
REMARK SMILES IDX 8 1 9 2 10 3 11 4 12 5 13 6 14 7 15 8 16 9 7 10 6 11 5 12
REMARK SMILES IDX 4 13 3 14 2 15 1 16
REMARK H PARENT
REMARK Flexibility Score: inf
ROOT
ATOM      1  C   UNL     1      16.126   7.369   6.124  1.00  0.00     0.000 C 
ENDROOT
BRANCH   1   2
ATOM      2  C   UNL     1      16.767   6.521   5.010  1.00  0.00     0.000 C 
BRANCH   2   3
ATOM      3  C   UNL     1      18.303   6.584   5.025  1.00  0.00     0.000 C 
BRANCH   3   4
ATOM      4  C   UNL     1      18.882   7.161   3.722  1.00  0.00     0.000 C 
BRANCH   4   5
ATOM      5  C   UNL     1      17.864   8.019   2.946  1.00  0.00     0.006 C 
BRANCH   5   6
ATOM      6  C   UNL     1      18.455   9.291   2.316  1.00  0.00     0.053 C 
BRANCH   6   7
ATOM      7  C   UNL     1      17.398  10.162   1.709  1.00  0.00     0.041 C 
ATOM      8  O   UNL     1      17.338  10.309   0.461  1.00  0.00    -0.550 OA
ATOM      9  O   UNL     1      16.500  10.838   2.526  1.00  0.00    -0.550 OA
ENDBRANCH   6   7
ENDBRANCH   5   6
ENDBRANCH   4   5
ENDBRANCH   3   4
ENDBRANCH   2   3
ENDBRANCH   1   2
BRANCH   1  10
ATOM     10  C   UNL     1      17.068   8.463   6.651  1.00  0.00     0.000 C 
BRANCH  10  11
ATOM     11  C   UNL     1      16.688   9.865   6.143  1.00  0.00    -0.000 C 
BRANCH  11  12
ATOM     12  C   UNL     1      17.916  10.705   5.755  1.00  0.00    -0.000 C 
BRANCH  12  13
ATOM     13  C   UNL     1      19.243  10.009   6.095  1.00  0.00    -0.000 C 
BRANCH  13  14
ATOM     14  C   UNL     1      19.965  10.734   7.237  1.00  0.00    -0.000 C 
BRANCH  14  15
ATOM     15  C   UNL     1      20.592   9.734   8.215  1.00  0.00    -0.003 C 
ATOM     16  C   UNL     1      20.679   8.341   7.599  1.00  0.00     0.004 C 
ENDBRANCH  14  15
ENDBRANCH  13  14
ENDBRANCH  12  13
ENDBRANCH  11  12
ENDBRANCH  10  11
ENDBRANCH   1  10
TORSDOF 12
ENDMDL
MODEL 2
REMARK VINA RESULT:    -4.053      1.871      3.874
REMARK INTER + INTRA:          -8.822
REMARK INTER:                  -6.829
REMARK INTRA:                  -1.993
REMARK UNBOUND:                -1.926
REMARK SMILES CCCCCCCCCCCCCC(=O)[O-]
REMARK SMILES IDX 8 1 9 2 10 3 11 4 12 5 13 6 14 7 15 8 16 9 7 10 6 11 5 12
REMARK SMILES IDX 4 13 3 14 2 15 1 16
REMARK H PARENT
REMARK Flexibility Score: inf
ROOT
ATOM      1  C   UNL     1      19.547  10.982   6.575  1.00  0.00     0.000 C 
ENDROOT
BRANCH   1   2
ATOM      2  C   UNL     1      18.555  10.604   5.461  1.00  0.00     0.000 C 
BRANCH   2   3
ATOM      3  C   UNL     1      17.140  10.324   5.995  1.00  0.00     0.000 C 
BRANCH   3   4
ATOM      4  C   UNL     1      16.132  10.035   4.869  1.00  0.00     0.000 C 
BRANCH   4   5
ATOM      5  C   UNL     1      15.875   8.530   4.672  1.00  0.00     0.006 C 
BRANCH   5   6
ATOM      6  C   UNL     1      16.005   8.048   3.217  1.00  0.00     0.053 C 
BRANCH   6   7
ATOM      7  C   UNL     1      17.372   7.512   2.921  1.00  0.00     0.041 C 
ATOM      8  O   UNL     1      17.569   6.269   2.879  1.00  0.00    -0.550 OA
ATOM      9  O   UNL     1      18.435   8.385   2.725  1.00  0.00    -0.550 OA
ENDBRANCH   6   7
ENDBRANCH   5   6
ENDBRANCH   4   5
ENDBRANCH   3   4
ENDBRANCH   2   3
ENDBRANCH   1   2
BRANCH   1  10
ATOM     10  C   UNL     1      19.160  10.389   7.939  1.00  0.00     0.000 C 
BRANCH  10  11
ATOM     11  C   UNL     1      20.192   9.372   8.455  1.00  0.00    -0.000 C 
BRANCH  11  12
ATOM     12  C   UNL     1      20.731   8.459   7.340  1.00  0.00    -0.000 C 
BRANCH  12  13
ATOM     13  C   UNL     1      20.052   7.082   7.322  1.00  0.00    -0.000 C 
BRANCH  13  14
ATOM     14  C   UNL     1      18.988   7.010   6.220  1.00  0.00    -0.000 C 
BRANCH  14  15
ATOM     15  C   UNL     1      17.701   6.357   6.737  1.00  0.00    -0.003 C 
ATOM     16  C   UNL     1      17.187   7.066   7.986  1.00  0.00     0.004 C 
ENDBRANCH  14  15
ENDBRANCH  13  14
ENDBRANCH  12  13
ENDBRANCH  11  12
ENDBRANCH  10  11
ENDBRANCH   1  10
TORSDOF 12
ENDMDL
MODEL 3
REMARK VINA RESULT:    -3.939      1.619      2.789
REMARK INTER + INTRA:          -8.629
REMARK INTER:                  -6.976
REMARK INTRA:                  -1.653
REMARK UNBOUND:                -1.926
REMARK SMILES CCCCCCCCCCCCCC(=O)[O-]
REMARK SMILES IDX 8 1 9 2 10 3 11 4 12 5 13 6 14 7 15 8 16 9 7 10 6 11 5 12
REMARK SMILES IDX 4 13 3 14 2 15 1 16
REMARK H PARENT
REMARK Flexibility Score: inf
ROOT
ATOM      1  C   UNL     1      16.036   8.298   4.992  1.00  0.00     0.000 C 
ENDROOT
BRANCH   1   2
ATOM      2  C   UNL     1      16.475   9.506   5.840  1.00  0.00     0.000 C 
BRANCH   2   3
ATOM      3  C   UNL     1      17.128  10.615   4.999  1.00  0.00     0.000 C 
BRANCH   3   4
ATOM      4  C   UNL     1      18.290  10.094   4.137  1.00  0.00     0.000 C 
BRANCH   4   5
ATOM      5  C   UNL     1      17.973  10.124   2.630  1.00  0.00     0.006 C 
BRANCH   5   6
ATOM      6  C   UNL     1      18.513   8.917   1.843  1.00  0.00     0.053 C 
BRANCH   6   7
ATOM      7  C   UNL     1      17.439   7.919   1.535  1.00  0.00     0.041 C 
ATOM      8  O   UNL     1      17.732   6.709   1.352  1.00  0.00    -0.550 OA
ATOM      9  O   UNL     1      16.118   8.333   1.416  1.00  0.00    -0.550 OA
ENDBRANCH   6   7
ENDBRANCH   5   6
ENDBRANCH   4   5
ENDBRANCH   3   4
ENDBRANCH   2   3
ENDBRANCH   1   2
BRANCH   1  10
ATOM     10  C   UNL     1      16.728   6.993   5.417  1.00  0.00     0.000 C 
BRANCH  10  11
ATOM     11  C   UNL     1      16.859   6.865   6.945  1.00  0.00    -0.000 C 
BRANCH  11  12
ATOM     12  C   UNL     1      18.324   6.808   7.409  1.00  0.00    -0.000 C 
BRANCH  12  13
ATOM     13  C   UNL     1      19.315   7.147   6.285  1.00  0.00    -0.000 C 
BRANCH  13  14
ATOM     14  C   UNL     1      20.630   7.690   6.860  1.00  0.00    -0.000 C 
BRANCH  14  15
ATOM     15  C   UNL     1      20.366   8.779   7.906  1.00  0.00    -0.003 C 
ATOM     16  C   UNL     1      20.089  10.125   7.244  1.00  0.00     0.004 C 
ENDBRANCH  14  15
ENDBRANCH  13  14
ENDBRANCH  12  13
ENDBRANCH  11  12
ENDBRANCH  10  11
ENDBRANCH   1  10
TORSDOF 12
ENDMDL
MODEL 4
REMARK VINA RESULT:    -3.884      3.224      5.633
REMARK INTER + INTRA:          -8.536
REMARK INTER:                  -6.900
REMARK INTRA:                  -1.636
REMARK UNBOUND:                -1.926
REMARK SMILES CCCCCCCCCCCCCC(=O)[O-]
REMARK SMILES IDX 8 1 9 2 10 3 11 4 12 5 13 6 14 7 15 8 16 9 7 10 6 11 5 12
REMARK SMILES IDX 4 13 3 14 2 15 1 16
REMARK H PARENT
REMARK Flexibility Score: inf
ROOT
ATOM      1  C   UNL     1      17.251  10.821   5.795  1.00  0.00     0.000 C 
ENDROOT
BRANCH   1   2
ATOM      2  C   UNL     1      18.749  10.558   5.555  1.00  0.00     0.000 C 
BRANCH   2   3
ATOM      3  C   UNL     1      19.614  10.883   6.784  1.00  0.00     0.000 C 
BRANCH   3   4
ATOM      4  C   UNL     1      19.461   9.840   7.904  1.00  0.00     0.000 C 
BRANCH   4   5
ATOM      5  C   UNL     1      20.659   8.875   7.986  1.00  0.00     0.006 C 
BRANCH   5   6
ATOM      6  C   UNL     1      20.578   7.679   7.023  1.00  0.00     0.053 C 
BRANCH   6   7
ATOM      7  C   UNL     1      21.768   6.776   7.145  1.00  0.00     0.041 C 
ATOM      8  O   UNL     1      22.302   6.291   6.114  1.00  0.00    -0.550 OA
ATOM      9  O   UNL     1      22.265   6.445   8.399  1.00  0.00    -0.550 OA
ENDBRANCH   6   7
ENDBRANCH   5   6
ENDBRANCH   4   5
ENDBRANCH   3   4
ENDBRANCH   2   3
ENDBRANCH   1   2
BRANCH   1  10
ATOM     10  C   UNL     1      16.359   9.689   5.262  1.00  0.00     0.000 C 
BRANCH  10  11
ATOM     11  C   UNL     1      16.694   8.326   5.892  1.00  0.00    -0.000 C 
BRANCH  11  12
ATOM     12  C   UNL     1      16.373   7.148   4.957  1.00  0.00    -0.000 C 
BRANCH  12  13
ATOM     13  C   UNL     1      17.601   6.275   4.660  1.00  0.00    -0.000 C 
BRANCH  13  14
ATOM     14  C   UNL     1      18.717   7.102   4.010  1.00  0.00    -0.000 C 
BRANCH  14  15
ATOM     15  C   UNL     1      18.405   7.386   2.536  1.00  0.00    -0.003 C 
ATOM     16  C   UNL     1      18.435   8.883   2.244  1.00  0.00     0.004 C 
ENDBRANCH  14  15
ENDBRANCH  13  14
ENDBRANCH  12  13
ENDBRANCH  11  12
ENDBRANCH  10  11
ENDBRANCH   1  10
TORSDOF 12
ENDMDL
MODEL 5
REMARK VINA RESULT:    -3.877      3.302      5.740
REMARK INTER + INTRA:          -8.523
REMARK INTER:                  -6.712
REMARK INTRA:                  -1.811
REMARK UNBOUND:                -1.926
REMARK SMILES CCCCCCCCCCCCCC(=O)[O-]
REMARK SMILES IDX 8 1 9 2 10 3 11 4 12 5 13 6 14 7 15 8 16 9 7 10 6 11 5 12
REMARK SMILES IDX 4 13 3 14 2 15 1 16
REMARK H PARENT
REMARK Flexibility Score: inf
ROOT
ATOM      1  C   UNL     1      18.166   9.757   3.801  1.00  0.00     0.000 C 
ENDROOT
BRANCH   1   2
ATOM      2  C   UNL     1      17.740  10.257   5.193  1.00  0.00     0.000 C 
BRANCH   2   3
ATOM      3  C   UNL     1      16.434   9.610   5.683  1.00  0.00     0.000 C 
BRANCH   3   4
ATOM      4  C   UNL     1      16.064   8.350   4.882  1.00  0.00     0.000 C 
BRANCH   4   5
ATOM      5  C   UNL     1      16.076   7.073   5.743  1.00  0.00     0.006 C 
BRANCH   5   6
ATOM      6  C   UNL     1      17.468   6.445   5.929  1.00  0.00     0.053 C 
BRANCH   6   7
ATOM      7  C   UNL     1      17.977   6.611   7.328  1.00  0.00     0.041 C 
ATOM      8  O   UNL     1      19.182   6.365   7.596  1.00  0.00    -0.550 OA
ATOM      9  O   UNL     1      17.112   7.002   8.342  1.00  0.00    -0.550 OA
ENDBRANCH   6   7
ENDBRANCH   5   6
ENDBRANCH   4   5
ENDBRANCH   3   4
ENDBRANCH   2   3
ENDBRANCH   1   2
BRANCH   1  10
ATOM     10  C   UNL     1      17.800  10.743   2.681  1.00  0.00     0.000 C 
BRANCH  10  11
ATOM     11  C   UNL     1      16.758  10.169   1.705  1.00  0.00    -0.000 C 
BRANCH  11  12
ATOM     12  C   UNL     1      17.385   9.695   0.384  1.00  0.00    -0.000 C 
BRANCH  12  13
ATOM     13  C   UNL     1      17.194   8.189   0.144  1.00  0.00    -0.000 C 
BRANCH  13  14
ATOM     14  C   UNL     1      16.427   7.543   1.304  1.00  0.00    -0.000 C 
BRANCH  14  15
ATOM     15  C   UNL     1      17.057   6.204   1.704  1.00  0.00    -0.003 C 
ATOM     16  C   UNL     1      18.419   6.410   2.359  1.00  0.00     0.004 C 
ENDBRANCH  14  15
ENDBRANCH  13  14
ENDBRANCH  12  13
ENDBRANCH  11  12
ENDBRANCH  10  11
ENDBRANCH   1  10
TORSDOF 12
ENDMDL
MODEL 6
REMARK VINA RESULT:    -3.866      2.380      4.153
REMARK INTER + INTRA:          -8.505
REMARK INTER:                  -7.271
REMARK INTRA:                  -1.233
REMARK UNBOUND:                -1.926
REMARK SMILES CCCCCCCCCCCCCC(=O)[O-]
REMARK SMILES IDX 8 1 9 2 10 3 11 4 12 5 13 6 14 7 15 8 16 9 7 10 6 11 5 12
REMARK SMILES IDX 4 13 3 14 2 15 1 16
REMARK H PARENT
REMARK Flexibility Score: inf
ROOT
ATOM      1  C   UNL     1      18.911  10.375   5.582  1.00  0.00     0.000 C 
ENDROOT
BRANCH   1   2
ATOM      2  C   UNL     1      17.470  10.850   5.323  1.00  0.00     0.000 C 
BRANCH   2   3
ATOM      3  C   UNL     1      16.471   9.687   5.214  1.00  0.00     0.000 C 
BRANCH   3   4
ATOM      4  C   UNL     1      16.636   8.661   6.348  1.00  0.00     0.000 C 
BRANCH   4   5
ATOM      5  C   UNL     1      16.450   7.209   5.869  1.00  0.00     0.006 C 
BRANCH   5   6
ATOM      6  C   UNL     1      17.756   6.496   5.479  1.00  0.00     0.053 C 
BRANCH   6   7
ATOM      7  C   UNL     1      17.994   6.525   4.000  1.00  0.00     0.041 C 
ATOM      8  O   UNL     1      17.030   6.393   3.201  1.00  0.00    -0.550 OA
ATOM      9  O   UNL     1      19.285   6.663   3.505  1.00  0.00    -0.550 OA
ENDBRANCH   6   7
ENDBRANCH   5   6
ENDBRANCH   4   5
ENDBRANCH   3   4
ENDBRANCH   2   3
ENDBRANCH   1   2
BRANCH   1  10
ATOM     10  C   UNL     1      19.541  11.039   6.816  1.00  0.00     0.000 C 
BRANCH  10  11
ATOM     11  C   UNL     1      20.371  10.054   7.658  1.00  0.00    -0.000 C 
BRANCH  11  12
ATOM     12  C   UNL     1      20.165   8.592   7.230  1.00  0.00    -0.000 C 
BRANCH  12  13
ATOM     13  C   UNL     1      21.352   7.692   7.604  1.00  0.00    -0.000 C 
BRANCH  13  14
ATOM     14  C   UNL     1      21.617   6.651   6.508  1.00  0.00    -0.000 C 
BRANCH  14  15
ATOM     15  C   UNL     1      23.116   6.358   6.378  1.00  0.00    -0.003 C 
ATOM     16  C   UNL     1      23.413   5.554   5.117  1.00  0.00     0.004 C 
ENDBRANCH  14  15
ENDBRANCH  13  14
ENDBRANCH  12  13
ENDBRANCH  11  12
ENDBRANCH  10  11
ENDBRANCH   1  10
TORSDOF 12
ENDMDL
MODEL 7
REMARK VINA RESULT:    -3.835      3.687      5.591
REMARK INTER + INTRA:          -8.451
REMARK INTER:                  -6.847
REMARK INTRA:                  -1.604
REMARK UNBOUND:                -1.926
REMARK SMILES CCCCCCCCCCCCCC(=O)[O-]
REMARK SMILES IDX 8 1 9 2 10 3 11 4 12 5 13 6 14 7 15 8 16 9 7 10 6 11 5 12
REMARK SMILES IDX 4 13 3 14 2 15 1 16
REMARK H PARENT
REMARK Flexibility Score: inf
ROOT
ATOM      1  C   UNL     1      18.667  10.180   6.456  1.00  0.00     0.000 C 
ENDROOT
BRANCH   1   2
ATOM      2  C   UNL     1      19.991  10.280   7.236  1.00  0.00     0.000 C 
BRANCH   2   3
ATOM      3  C   UNL     1      20.398   8.948   7.887  1.00  0.00     0.000 C 
BRANCH   3   4
ATOM      4  C   UNL     1      20.651   7.839   6.852  1.00  0.00     0.000 C 
BRANCH   4   5
ATOM      5  C   UNL     1      21.485   6.674   7.418  1.00  0.00     0.006 C 
BRANCH   5   6
ATOM      6  C   UNL     1      22.933   6.620   6.901  1.00  0.00     0.053 C 
BRANCH   6   7
ATOM      7  C   UNL     1      23.103   5.610   5.808  1.00  0.00     0.041 C 
ATOM      8  O   UNL     1      22.775   5.894   4.627  1.00  0.00    -0.550 OA
ATOM      9  O   UNL     1      23.591   4.343   6.101  1.00  0.00    -0.550 OA
ENDBRANCH   6   7
ENDBRANCH   5   6
ENDBRANCH   4   5
ENDBRANCH   3   4
ENDBRANCH   2   3
ENDBRANCH   1   2
BRANCH   1  10
ATOM     10  C   UNL     1      18.837  10.489   4.960  1.00  0.00     0.000 C 
BRANCH  10  11
ATOM     11  C   UNL     1      17.652   9.990   4.116  1.00  0.00    -0.000 C 
BRANCH  11  12
ATOM     12  C   UNL     1      16.971   8.754   4.726  1.00  0.00    -0.000 C 
BRANCH  12  13
ATOM     13  C   UNL     1      17.717   7.449   4.408  1.00  0.00    -0.000 C 
BRANCH  13  14
ATOM     14  C   UNL     1      17.567   6.439   5.553  1.00  0.00    -0.000 C 
BRANCH  14  15
ATOM     15  C   UNL     1      16.602   6.960   6.624  1.00  0.00    -0.003 C 
ATOM     16  C   UNL     1      17.247   6.936   8.006  1.00  0.00     0.004 C 
ENDBRANCH  14  15
ENDBRANCH  13  14
ENDBRANCH  12  13
ENDBRANCH  11  12
ENDBRANCH  10  11
ENDBRANCH   1  10
TORSDOF 12
ENDMDL
MODEL 8
REMARK VINA RESULT:    -3.761      3.889      6.088
REMARK INTER + INTRA:          -8.326
REMARK INTER:                  -6.909
REMARK INTRA:                  -1.417
REMARK UNBOUND:                -1.926
REMARK SMILES CCCCCCCCCCCCCC(=O)[O-]
REMARK SMILES IDX 8 1 9 2 10 3 11 4 12 5 13 6 14 7 15 8 16 9 7 10 6 11 5 12
REMARK SMILES IDX 4 13 3 14 2 15 1 16
REMARK H PARENT
REMARK Flexibility Score: inf
ROOT
ATOM      1  C   UNL     1      19.250  10.632   6.253  1.00  0.00     0.000 C 
ENDROOT
BRANCH   1   2
ATOM      2  C   UNL     1      19.998  10.687   7.597  1.00  0.00     0.000 C 
BRANCH   2   3
ATOM      3  C   UNL     1      20.703   9.364   7.939  1.00  0.00     0.000 C 
BRANCH   3   4
ATOM      4  C   UNL     1      19.911   8.134   7.465  1.00  0.00     0.000 C 
BRANCH   4   5
ATOM      5  C   UNL     1      20.816   7.025   6.898  1.00  0.00     0.006 C 
BRANCH   5   6
ATOM      6  C   UNL     1      22.249   7.027   7.457  1.00  0.00     0.053 C 
BRANCH   6   7
ATOM      7  C   UNL     1      22.479   5.904   8.423  1.00  0.00     0.041 C 
ATOM      8  O   UNL     1      21.564   5.071   8.653  1.00  0.00    -0.550 OA
ATOM      9  O   UNL     1      23.691   5.800   9.093  1.00  0.00    -0.550 OA
ENDBRANCH   6   7
ENDBRANCH   5   6
ENDBRANCH   4   5
ENDBRANCH   3   4
ENDBRANCH   2   3
ENDBRANCH   1   2
BRANCH   1  10
ATOM     10  C   UNL     1      17.766  11.010   6.385  1.00  0.00     0.000 C 
BRANCH  10  11
ATOM     11  C   UNL     1      16.842   9.780   6.391  1.00  0.00    -0.000 C 
BRANCH  11  12
ATOM     12  C   UNL     1      16.089   9.600   5.062  1.00  0.00    -0.000 C 
BRANCH  12  13
ATOM     13  C   UNL     1      15.913   8.124   4.676  1.00  0.00    -0.000 C 
BRANCH  13  14
ATOM     14  C   UNL     1      16.319   7.202   5.833  1.00  0.00    -0.000 C 
BRANCH  14  15
ATOM     15  C   UNL     1      17.374   6.186   5.384  1.00  0.00    -0.003 C 
ATOM     16  C   UNL     1      18.239   6.748   4.260  1.00  0.00     0.004 C 
ENDBRANCH  14  15
ENDBRANCH  13  14
ENDBRANCH  12  13
ENDBRANCH  11  12
ENDBRANCH  10  11
ENDBRANCH   1  10
TORSDOF 12
ENDMDL
MODEL 9
REMARK VINA RESULT:    -3.760      2.091      3.330
REMARK INTER + INTRA:          -8.325
REMARK INTER:                  -6.703
REMARK INTRA:                  -1.621
REMARK UNBOUND:                -1.926
REMARK SMILES CCCCCCCCCCCCCC(=O)[O-]
REMARK SMILES IDX 8 1 9 2 10 3 11 4 12 5 13 6 14 7 15 8 16 9 7 10 6 11 5 12
REMARK SMILES IDX 4 13 3 14 2 15 1 16
REMARK H PARENT
REMARK Flexibility Score: inf
ROOT
ATOM      1  C   UNL     1      18.501  10.316   4.087  1.00  0.00     0.000 C 
ENDROOT
BRANCH   1   2
ATOM      2  C   UNL     1      17.093   9.878   3.647  1.00  0.00     0.000 C 
BRANCH   2   3
ATOM      3  C   UNL     1      16.182   9.528   4.835  1.00  0.00     0.000 C 
BRANCH   3   4
ATOM      4  C   UNL     1      15.876   8.023   4.920  1.00  0.00     0.000 C 
BRANCH   4   5
ATOM      5  C   UNL     1      16.788   7.178   4.011  1.00  0.00     0.006 C 
BRANCH   5   6
ATOM      6  C   UNL     1      16.049   6.424   2.893  1.00  0.00     0.053 C 
BRANCH   6   7
ATOM      7  C   UNL     1      16.783   6.491   1.588  1.00  0.00     0.041 C 
ATOM      8  O   UNL     1      16.473   7.359   0.731  1.00  0.00    -0.550 OA
ATOM      9  O   UNL     1      17.786   5.572   1.306  1.00  0.00    -0.550 OA
ENDBRANCH   6   7
ENDBRANCH   5   6
ENDBRANCH   4   5
ENDBRANCH   3   4
ENDBRANCH   2   3
ENDBRANCH   1   2
BRANCH   1  10
ATOM     10  C   UNL     1      18.497  11.067   5.428  1.00  0.00     0.000 C 
BRANCH  10  11
ATOM     11  C   UNL     1      19.391  10.394   6.484  1.00  0.00    -0.000 C 
BRANCH  11  12
ATOM     12  C   UNL     1      18.580   9.677   7.575  1.00  0.00    -0.000 C 
BRANCH  12  13
ATOM     13  C   UNL     1      18.682   8.147   7.480  1.00  0.00    -0.000 C 
BRANCH  13  14
ATOM     14  C   UNL     1      19.646   7.731   6.362  1.00  0.00    -0.000 C 
BRANCH  14  15
ATOM     15  C   UNL     1      20.802   6.889   6.915  1.00  0.00    -0.003 C 
ATOM     16  C   UNL     1      21.630   7.683   7.921  1.00  0.00     0.004 C 
ENDBRANCH  14  15
ENDBRANCH  13  14
ENDBRANCH  12  13
ENDBRANCH  11  12
ENDBRANCH  10  11
ENDBRANCH   1  10
TORSDOF 12
ENDMDL
