MODEL 1
REMARK VINA RESULT:    -3.644      0.000      0.000
REMARK INTER + INTRA:          -4.614
REMARK INTER:                  -4.390
REMARK INTRA:                  -0.224
REMARK UNBOUND:                -0.224
REMARK SMILES OCC(O)CO
REMARK SMILES IDX 3 1 5 2 6 3 2 5 1 6 4 8
REMARK H PARENT 6 4 1 7 4 9
REMARK Flexibility Score: inf
ROOT
ATOM      1  C   UNL     1      16.038  33.581  35.572  1.00  0.00     0.165 C 
ENDROOT
BRANCH   1   2
ATOM      2  C   UNL     1      14.536  33.874  35.446  1.00  0.00     0.190 C 
BRANCH   2   3
ATOM      3  O   UNL     1      14.274  34.554  34.249  1.00  0.00    -0.394 OA
ATOM      4  H   UNL     1      13.432  35.058  34.397  1.00  0.00     0.210 HD
ENDBRANCH   2   3
ENDBRANCH   1   2
BRANCH   1   5
ATOM      5  C   UNL     1      16.701  33.383  34.202  1.00  0.00     0.190 C 
BRANCH   5   6
ATOM      6  O   UNL     1      17.154  34.609  33.696  1.00  0.00    -0.394 OA
ATOM      7  H   UNL     1      16.950  35.286  34.392  1.00  0.00     0.210 HD
ENDBRANCH   5   6
ENDBRANCH   1   5
BRANCH   1   8
ATOM      8  O   UNL     1      16.676  34.638  36.241  1.00  0.00    -0.388 OA
ATOM      9  H   UNL     1      17.532  34.805  35.765  1.00  0.00     0.211 HD
ENDBRANCH   1   8
TORSDOF 5
ENDMDL
MODEL 2
REMARK VINA RESULT:    -3.641      1.170      2.520
REMARK INTER + INTRA:          -4.610
REMARK INTER:                  -4.387
REMARK INTRA:                  -0.224
REMARK UNBOUND:                -0.224
REMARK SMILES OCC(O)CO
REMARK SMILES IDX 3 1 5 2 6 3 2 5 1 6 4 8
REMARK H PARENT 6 4 1 7 4 9
REMARK Flexibility Score: inf
ROOT
ATOM      1  C   UNL     1      16.234  33.290  35.817  1.00  0.00     0.165 C 
ENDROOT
BRANCH   1   2
ATOM      2  C   UNL     1      16.785  33.328  34.383  1.00  0.00     0.190 C 
BRANCH   2   3
ATOM      3  O   UNL     1      17.223  34.621  34.067  1.00  0.00    -0.394 OA
ATOM      4  H   UNL     1      16.559  35.242  34.464  1.00  0.00     0.210 HD
ENDBRANCH   2   3
ENDBRANCH   1   2
BRANCH   1   5
ATOM      5  C   UNL     1      14.812  33.862  35.899  1.00  0.00     0.190 C 
BRANCH   5   6
ATOM      6  O   UNL     1      14.380  34.285  34.635  1.00  0.00    -0.394 OA
ATOM      7  H   UNL     1      14.545  33.524  34.020  1.00  0.00     0.210 HD
ENDBRANCH   5   6
ENDBRANCH   1   5
BRANCH   1   8
ATOM      8  O   UNL     1      16.224  31.968  36.290  1.00  0.00    -0.388 OA
ATOM      9  H   UNL     1      16.270  31.377  35.492  1.00  0.00     0.211 HD
ENDBRANCH   1   8
TORSDOF 5
ENDMDL
MODEL 3
REMARK VINA RESULT:    -3.548     10.982     11.574
REMARK INTER + INTRA:          -4.498
REMARK INTER:                  -4.495
REMARK INTRA:                  -0.003
REMARK UNBOUND:                -0.224
REMARK SMILES OCC(O)CO
REMARK SMILES IDX 3 1 5 2 6 3 2 5 1 6 4 8
REMARK H PARENT 6 4 1 7 4 9
REMARK Flexibility Score: inf
ROOT
ATOM      1  C   UNL     1      24.830  27.709  34.073  1.00  0.00     0.165 C 
ENDROOT
BRANCH   1   2
ATOM      2  C   UNL     1      24.743  26.780  32.853  1.00  0.00     0.190 C 
BRANCH   2   3
ATOM      3  O   UNL     1      24.921  27.514  31.673  1.00  0.00    -0.394 OA
ATOM      4  H   UNL     1      24.588  26.938  30.937  1.00  0.00     0.210 HD
ENDBRANCH   2   3
ENDBRANCH   1   2
BRANCH   1   5
ATOM      5  C   UNL     1      25.743  27.135  35.166  1.00  0.00     0.190 C 
BRANCH   5   6
ATOM      6  O   UNL     1      25.348  27.600  36.427  1.00  0.00    -0.394 OA
ATOM      7  H   UNL     1      25.664  26.924  37.081  1.00  0.00     0.210 HD
ENDBRANCH   5   6
ENDBRANCH   1   5
BRANCH   1   8
ATOM      8  O   UNL     1      25.318  28.966  33.683  1.00  0.00    -0.388 OA
ATOM      9  H   UNL     1      25.019  29.617  34.371  1.00  0.00     0.211 HD
ENDBRANCH   1   8
TORSDOF 5
ENDMDL
MODEL 4
REMARK VINA RESULT:    -3.484     11.015     11.505
REMARK INTER + INTRA:          -4.421
REMARK INTER:                  -4.418
REMARK INTRA:                  -0.003
REMARK UNBOUND:                -0.224
REMARK SMILES OCC(O)CO
REMARK SMILES IDX 3 1 5 2 6 3 2 5 1 6 4 8
REMARK H PARENT 6 4 1 7 4 9
REMARK Flexibility Score: inf
ROOT
ATOM      1  C   UNL     1      25.496  27.754  34.062  1.00  0.00     0.165 C 
ENDROOT
BRANCH   1   2
ATOM      2  C   UNL     1      24.895  27.513  35.455  1.00  0.00     0.190 C 
BRANCH   2   3
ATOM      3  O   UNL     1      25.835  27.822  36.448  1.00  0.00    -0.394 OA
ATOM      4  H   UNL     1      25.420  28.526  37.010  1.00  0.00     0.210 HD
ENDBRANCH   2   3
ENDBRANCH   1   2
BRANCH   1   5
ATOM      5  C   UNL     1      24.843  26.866  32.995  1.00  0.00     0.190 C 
BRANCH   5   6
ATOM      6  O   UNL     1      24.903  27.485  31.739  1.00  0.00    -0.394 OA
ATOM      7  H   UNL     1      24.075  27.221  31.262  1.00  0.00     0.210 HD
ENDBRANCH   5   6
ENDBRANCH   1   5
BRANCH   1   8
ATOM      8  O   UNL     1      25.336  29.101  33.699  1.00  0.00    -0.388 OA
ATOM      9  H   UNL     1      26.190  29.561  33.917  1.00  0.00     0.211 HD
ENDBRANCH   1   8
TORSDOF 5
ENDMDL
MODEL 5
REMARK VINA RESULT:    -3.473      5.141      5.714
REMARK INTER + INTRA:          -4.407
REMARK INTER:                  -4.183
REMARK INTRA:                  -0.224
REMARK UNBOUND:                -0.224
REMARK SMILES OCC(O)CO
REMARK SMILES IDX 3 1 5 2 6 3 2 5 1 6 4 8
REMARK H PARENT 6 4 1 7 4 9
REMARK Flexibility Score: inf
ROOT
ATOM      1  C   UNL     1      17.271  28.918  36.120  1.00  0.00     0.165 C 
ENDROOT
BRANCH   1   2
ATOM      2  C   UNL     1      16.538  28.522  37.411  1.00  0.00     0.190 C 
BRANCH   2   3
ATOM      3  O   UNL     1      17.237  28.997  38.529  1.00  0.00    -0.394 OA
ATOM      4  H   UNL     1      17.347  29.973  38.390  1.00  0.00     0.210 HD
ENDBRANCH   2   3
ENDBRANCH   1   2
BRANCH   1   5
ATOM      5  C   UNL     1      17.451  30.438  36.007  1.00  0.00     0.190 C 
BRANCH   5   6
ATOM      6  O   UNL     1      16.413  31.104  36.672  1.00  0.00    -0.394 OA
ATOM      7  H   UNL     1      16.012  30.441  37.291  1.00  0.00     0.210 HD
ENDBRANCH   5   6
ENDBRANCH   1   5
BRANCH   1   8
ATOM      8  O   UNL     1      18.532  28.302  36.078  1.00  0.00    -0.388 OA
ATOM      9  H   UNL     1      18.487  27.603  35.373  1.00  0.00     0.211 HD
ENDBRANCH   1   8
TORSDOF 5
ENDMDL
MODEL 6
REMARK VINA RESULT:    -3.447      3.738      4.513
REMARK INTER + INTRA:          -4.376
REMARK INTER:                  -4.361
REMARK INTRA:                  -0.015
REMARK UNBOUND:                -0.224
REMARK SMILES OCC(O)CO
REMARK SMILES IDX 3 1 5 2 6 3 2 5 1 6 4 8
REMARK H PARENT 6 4 1 7 4 9
REMARK Flexibility Score: inf
ROOT
ATOM      1  C   UNL     1      13.056  35.753  32.512  1.00  0.00     0.165 C 
ENDROOT
BRANCH   1   2
ATOM      2  C   UNL     1      12.746  35.731  34.017  1.00  0.00     0.190 C 
BRANCH   2   3
ATOM      3  O   UNL     1      12.874  37.018  34.556  1.00  0.00    -0.394 OA
ATOM      4  H   UNL     1      11.998  37.232  34.968  1.00  0.00     0.210 HD
ENDBRANCH   2   3
ENDBRANCH   1   2
BRANCH   1   5
ATOM      5  C   UNL     1      12.937  37.165  31.923  1.00  0.00     0.190 C 
BRANCH   5   6
ATOM      6  O   UNL     1      13.741  37.289  30.782  1.00  0.00    -0.394 OA
ATOM      7  H   UNL     1      13.645  38.228  30.479  1.00  0.00     0.210 HD
ENDBRANCH   5   6
ENDBRANCH   1   5
BRANCH   1   8
ATOM      8  O   UNL     1      14.354  35.268  32.284  1.00  0.00    -0.388 OA
ATOM      9  H   UNL     1      14.968  35.825  32.832  1.00  0.00     0.211 HD
ENDBRANCH   1   8
TORSDOF 5
ENDMDL
MODEL 7
REMARK VINA RESULT:    -3.402      1.628      2.423
REMARK INTER + INTRA:          -4.322
REMARK INTER:                  -4.312
REMARK INTRA:                  -0.010
REMARK UNBOUND:                -0.224
REMARK SMILES OCC(O)CO
REMARK SMILES IDX 3 1 5 2 6 3 2 5 1 6 4 8
REMARK H PARENT 6 4 1 7 4 9
REMARK Flexibility Score: inf
ROOT
ATOM      1  C   UNL     1      16.306  33.439  35.201  1.00  0.00     0.165 C 
ENDROOT
BRANCH   1   2
ATOM      2  C   UNL     1      17.079  33.433  33.874  1.00  0.00     0.190 C 
BRANCH   2   3
ATOM      3  O   UNL     1      16.740  34.559  33.112  1.00  0.00    -0.394 OA
ATOM      4  H   UNL     1      17.319  34.531  32.306  1.00  0.00     0.210 HD
ENDBRANCH   2   3
ENDBRANCH   1   2
BRANCH   1   5
ATOM      5  C   UNL     1      16.587  32.180  36.033  1.00  0.00     0.190 C 
BRANCH   5   6
ATOM      6  O   UNL     1      17.474  31.334  35.356  1.00  0.00    -0.394 OA
ATOM      7  H   UNL     1      16.916  30.766  34.764  1.00  0.00     0.210 HD
ENDBRANCH   5   6
ENDBRANCH   1   5
BRANCH   1   8
ATOM      8  O   UNL     1      16.656  34.572  35.952  1.00  0.00    -0.388 OA
ATOM      9  H   UNL     1      16.250  34.458  36.852  1.00  0.00     0.211 HD
ENDBRANCH   1   8
TORSDOF 5
ENDMDL
MODEL 8
REMARK VINA RESULT:    -3.347      1.697      2.130
REMARK INTER + INTRA:          -4.256
REMARK INTER:                  -4.243
REMARK INTRA:                  -0.013
REMARK UNBOUND:                -0.224
REMARK SMILES OCC(O)CO
REMARK SMILES IDX 3 1 5 2 6 3 2 5 1 6 4 8
REMARK H PARENT 6 4 1 7 4 9
REMARK Flexibility Score: inf
ROOT
ATOM      1  C   UNL     1      16.592  33.586  35.842  1.00  0.00     0.165 C 
ENDROOT
BRANCH   1   2
ATOM      2  C   UNL     1      15.076  33.727  36.045  1.00  0.00     0.190 C 
BRANCH   2   3
ATOM      3  O   UNL     1      14.487  34.303  34.911  1.00  0.00    -0.394 OA
ATOM      4  H   UNL     1      15.027  35.109  34.701  1.00  0.00     0.210 HD
ENDBRANCH   2   3
ENDBRANCH   1   2
BRANCH   1   5
ATOM      5  C   UNL     1      17.002  32.129  35.585  1.00  0.00     0.190 C 
BRANCH   5   6
ATOM      6  O   UNL     1      16.410  31.280  36.529  1.00  0.00    -0.394 OA
ATOM      7  H   UNL     1      16.891  31.438  37.382  1.00  0.00     0.210 HD
ENDBRANCH   5   6
ENDBRANCH   1   5
BRANCH   1   8
ATOM      8  O   UNL     1      17.004  34.376  34.757  1.00  0.00    -0.388 OA
ATOM      9  H   UNL     1      17.769  34.925  35.076  1.00  0.00     0.211 HD
ENDBRANCH   1   8
TORSDOF 5
ENDMDL
MODEL 9
REMARK VINA RESULT:    -3.317      1.653      2.824
REMARK INTER + INTRA:          -4.219
REMARK INTER:                  -4.206
REMARK INTRA:                  -0.013
REMARK UNBOUND:                -0.224
REMARK SMILES OCC(O)CO
REMARK SMILES IDX 3 1 5 2 6 3 2 5 1 6 4 8
REMARK H PARENT 6 4 1 7 4 9
REMARK Flexibility Score: inf
ROOT
ATOM      1  C   UNL     1      16.193  33.248  34.993  1.00  0.00     0.165 C 
ENDROOT
BRANCH   1   2
ATOM      2  C   UNL     1      16.927  32.035  35.583  1.00  0.00     0.190 C 
BRANCH   2   3
ATOM      3  O   UNL     1      16.221  31.531  36.684  1.00  0.00    -0.394 OA
ATOM      4  H   UNL     1      16.098  32.294  37.306  1.00  0.00     0.210 HD
ENDBRANCH   2   3
ENDBRANCH   1   2
BRANCH   1   5
ATOM      5  C   UNL     1      15.055  33.729  35.905  1.00  0.00     0.190 C 
BRANCH   5   6
ATOM      6  O   UNL     1      14.138  34.500  35.178  1.00  0.00    -0.394 OA
ATOM      7  H   UNL     1      13.633  35.030  35.847  1.00  0.00     0.210 HD
ENDBRANCH   5   6
ENDBRANCH   1   5
BRANCH   1   8
ATOM      8  O   UNL     1      17.097  34.303  34.794  1.00  0.00    -0.388 OA
ATOM      9  H   UNL     1      16.908  34.678  33.893  1.00  0.00     0.211 HD
ENDBRANCH   1   8
TORSDOF 5
ENDMDL
