MODEL 1
REMARK VINA RESULT:    -7.561      0.000      0.000
REMARK INTER + INTRA:          -8.563
REMARK INTER:                  -9.108
REMARK INTRA:                   0.544
REMARK UNBOUND:                 0.544
REMARK SMILES O=c1c(O)c(-c2ccc(O)c(O)c2)oc2cc(O)cc(O)c12
REMARK SMILES IDX 5 1 3 2 2 3 1 4 22 5 20 6 19 7 17 8 16 9 15 10 14 11 6 12
REMARK SMILES IDX 7 13 8 14 9 15 13 16 11 17 10 18 12 20 4 22 21 24 18 26
REMARK H PARENT 10 19 12 21 4 23 21 25 18 27
REMARK Flexibility Score: inf
ROOT
ATOM      1  C   UNL     1      25.427  11.605  -3.798  1.00  0.00     0.180 A 
ATOM      2  C   UNL     1      26.420  11.696  -4.789  1.00  0.00     0.208 A 
ATOM      3  C   UNL     1      27.751  11.923  -4.401  1.00  0.00     0.238 A 
ATOM      4  O   UNL     1      28.642  11.950  -5.289  1.00  0.00    -0.285 OA
ATOM      5  C   UNL     1      28.069  12.075  -3.030  1.00  0.00     0.111 A 
ATOM      6  C   UNL     1      29.376  12.348  -2.527  1.00  0.00     0.134 A 
ATOM      7  C   UNL     1      29.598  12.347  -1.144  1.00  0.00     0.093 A 
ATOM      8  C   UNL     1      28.547  12.147  -0.246  1.00  0.00     0.123 A 
ATOM      9  C   UNL     1      27.257  11.938  -0.727  1.00  0.00     0.094 A 
ATOM     10  C   UNL     1      27.010  11.897  -2.101  1.00  0.00     0.146 A 
ATOM     11  O   UNL     1      25.768  11.685  -2.517  1.00  0.00    -0.452 OA
ENDROOT
BRANCH   1  12
ATOM     12  C   UNL     1      24.000  11.391  -4.130  1.00  0.00     0.025 A 
ATOM     13  C   UNL     1      23.006  11.410  -3.138  1.00  0.00     0.016 A 
ATOM     14  C   UNL     1      21.668  11.181  -3.472  1.00  0.00     0.051 A 
ATOM     15  C   UNL     1      21.306  10.918  -4.800  1.00  0.00     0.157 A 
ATOM     16  C   UNL     1      23.635  11.105  -5.457  1.00  0.00     0.062 A 
ATOM     17  C   UNL     1      22.297  10.877  -5.796  1.00  0.00     0.158 A 
BRANCH  15  18
ATOM     18  O   UNL     1      19.971  10.692  -5.131  1.00  0.00    -0.504 OA
ATOM     19  H   UNL     1      19.245  11.357  -4.890  1.00  0.00     0.293 HD
ENDBRANCH  15  18
BRANCH  17  20
ATOM     20  O   UNL     1      21.970  10.610  -7.125  1.00  0.00    -0.504 OA
ATOM     21  H   UNL     1      21.059  10.259  -7.396  1.00  0.00     0.293 HD
ENDBRANCH  17  20
ENDBRANCH   1  12
BRANCH   2  22
ATOM     22  O   UNL     1      26.087  11.522  -6.135  1.00  0.00    -0.502 OA
ATOM     23  H   UNL     1      26.627  11.935  -6.887  1.00  0.00     0.293 HD
ENDBRANCH   2  22
BRANCH   6  24
ATOM     24  O   UNL     1      30.475  12.653  -3.335  1.00  0.00    -0.507 OA
ATOM     25  H   UNL     1      30.469  12.638  -4.344  1.00  0.00     0.293 HD
ENDBRANCH   6  24
BRANCH   8  26
ATOM     26  O   UNL     1      28.774  12.164   1.128  1.00  0.00    -0.508 OA
ATOM     27  H   UNL     1      29.463  11.558   1.558  1.00  0.00     0.293 HD
ENDBRANCH   8  26
TORSDOF 6
ENDMDL
MODEL 2
REMARK VINA RESULT:    -7.481      7.584     11.040
REMARK INTER + INTRA:          -8.468
REMARK INTER:                  -8.262
REMARK INTRA:                  -0.206
REMARK UNBOUND:                 0.544
REMARK SMILES O=c1c(O)c(-c2ccc(O)c(O)c2)oc2cc(O)cc(O)c12
REMARK SMILES IDX 5 1 3 2 2 3 1 4 22 5 20 6 19 7 17 8 16 9 15 10 14 11 6 12
REMARK SMILES IDX 7 13 8 14 9 15 13 16 11 17 10 18 12 20 4 22 21 24 18 26
REMARK H PARENT 10 19 12 21 4 23 21 25 18 27
REMARK Flexibility Score: inf
ROOT
ATOM      1  C   UNL     1      23.384  16.646   3.517  1.00  0.00     0.180 A 
ATOM      2  C   UNL     1      22.092  16.676   4.070  1.00  0.00     0.208 A 
ATOM      3  C   UNL     1      21.062  15.964   3.434  1.00  0.00     0.238 A 
ATOM      4  O   UNL     1      19.920  15.951   3.963  1.00  0.00    -0.285 OA
ATOM      5  C   UNL     1      21.332  15.246   2.244  1.00  0.00     0.111 A 
ATOM      6  C   UNL     1      20.356  14.523   1.495  1.00  0.00     0.134 A 
ATOM      7  C   UNL     1      20.762  13.741   0.405  1.00  0.00     0.093 A 
ATOM      8  C   UNL     1      22.098  13.709   0.000  1.00  0.00     0.123 A 
ATOM      9  C   UNL     1      23.048  14.458   0.690  1.00  0.00     0.094 A 
ATOM     10  C   UNL     1      22.681  15.218   1.802  1.00  0.00     0.146 A 
ATOM     11  O   UNL     1      23.619  15.909   2.437  1.00  0.00    -0.452 OA
ENDROOT
BRANCH   1  12
ATOM     12  C   UNL     1      24.514  17.391   4.116  1.00  0.00     0.025 A 
ATOM     13  C   UNL     1      25.065  17.016   5.353  1.00  0.00     0.016 A 
ATOM     14  C   UNL     1      26.115  17.750   5.911  1.00  0.00     0.051 A 
ATOM     15  C   UNL     1      26.623  18.874   5.247  1.00  0.00     0.157 A 
ATOM     16  C   UNL     1      25.013  18.532   3.465  1.00  0.00     0.062 A 
ATOM     17  C   UNL     1      26.065  19.269   4.020  1.00  0.00     0.158 A 
BRANCH  15  18
ATOM     18  O   UNL     1      27.672  19.603   5.805  1.00  0.00    -0.504 OA
ATOM     19  H   UNL     1      27.518  20.262   6.561  1.00  0.00     0.293 HD
ENDBRANCH  15  18
BRANCH  17  20
ATOM     20  O   UNL     1      26.542  20.387   3.338  1.00  0.00    -0.504 OA
ATOM     21  H   UNL     1      26.640  21.291   3.786  1.00  0.00     0.293 HD
ENDBRANCH  17  20
ENDBRANCH   1  12
BRANCH   2  22
ATOM     22  O   UNL     1      21.851  17.374   5.257  1.00  0.00    -0.502 OA
ATOM     23  H   UNL     1      22.586  17.853   5.764  1.00  0.00     0.293 HD
ENDBRANCH   2  22
BRANCH   6  24
ATOM     24  O   UNL     1      18.984  14.561   1.758  1.00  0.00    -0.507 OA
ATOM     25  H   UNL     1      18.570  14.933   2.600  1.00  0.00     0.293 HD
ENDBRANCH   6  24
BRANCH   8  26
ATOM     26  O   UNL     1      22.491  12.941  -1.094  1.00  0.00    -0.508 OA
ATOM     27  H   UNL     1      23.333  13.154  -1.615  1.00  0.00     0.293 HD
ENDBRANCH   8  26
TORSDOF 6
ENDMDL
MODEL 3
REMARK VINA RESULT:    -7.289      5.291      7.217
REMARK INTER + INTRA:          -8.236
REMARK INTER:                  -7.920
REMARK INTRA:                  -0.316
REMARK UNBOUND:                 0.544
REMARK SMILES O=c1c(O)c(-c2ccc(O)c(O)c2)oc2cc(O)cc(O)c12
REMARK SMILES IDX 5 1 3 2 2 3 1 4 22 5 20 6 19 7 17 8 16 9 15 10 14 11 6 12
REMARK SMILES IDX 7 13 8 14 9 15 13 16 11 17 10 18 12 20 4 22 21 24 18 26
REMARK H PARENT 10 19 12 21 4 23 21 25 18 27
REMARK Flexibility Score: inf
ROOT
ATOM      1  C   UNL     1      23.713  14.405   0.693  1.00  0.00     0.180 A 
ATOM      2  C   UNL     1      22.739  13.648   0.019  1.00  0.00     0.208 A 
ATOM      3  C   UNL     1      23.150  12.695  -0.928  1.00  0.00     0.238 A 
ATOM      4  O   UNL     1      22.277  11.984  -1.488  1.00  0.00    -0.285 OA
ATOM      5  C   UNL     1      24.529  12.524  -1.201  1.00  0.00     0.111 A 
ATOM      6  C   UNL     1      25.056  11.617  -2.169  1.00  0.00     0.134 A 
ATOM      7  C   UNL     1      26.442  11.436  -2.263  1.00  0.00     0.093 A 
ATOM      8  C   UNL     1      27.320  12.178  -1.468  1.00  0.00     0.123 A 
ATOM      9  C   UNL     1      26.816  13.108  -0.563  1.00  0.00     0.094 A 
ATOM     10  C   UNL     1      25.439  13.285  -0.421  1.00  0.00     0.146 A 
ATOM     11  O   UNL     1      25.000  14.174   0.462  1.00  0.00    -0.452 OA
ENDROOT
BRANCH   1  12
ATOM     12  C   UNL     1      23.356  15.444   1.684  1.00  0.00     0.025 A 
ATOM     13  C   UNL     1      23.119  15.121   3.031  1.00  0.00     0.016 A 
ATOM     14  C   UNL     1      22.758  16.115   3.945  1.00  0.00     0.051 A 
ATOM     15  C   UNL     1      22.617  17.444   3.524  1.00  0.00     0.157 A 
ATOM     16  C   UNL     1      23.191  16.775   1.263  1.00  0.00     0.062 A 
ATOM     17  C   UNL     1      22.831  17.773   2.175  1.00  0.00     0.158 A 
BRANCH  15  18
ATOM     18  O   UNL     1      22.259  18.434   4.437  1.00  0.00    -0.504 OA
ATOM     19  H   UNL     1      21.512  19.092   4.241  1.00  0.00     0.293 HD
ENDBRANCH  15  18
BRANCH  17  20
ATOM     20  O   UNL     1      22.692  19.085   1.723  1.00  0.00    -0.504 OA
ATOM     21  H   UNL     1      22.947  19.882   2.294  1.00  0.00     0.293 HD
ENDBRANCH  17  20
ENDBRANCH   1  12
BRANCH   2  22
ATOM     22  O   UNL     1      21.384  13.818   0.319  1.00  0.00    -0.502 OA
ATOM     23  H   UNL     1      20.874  14.657   0.071  1.00  0.00     0.293 HD
ENDBRANCH   2  22
BRANCH   6  24
ATOM     24  O   UNL     1      24.271  10.897  -3.074  1.00  0.00    -0.507 OA
ATOM     25  H   UNL     1      23.888  11.273  -3.928  1.00  0.00     0.293 HD
ENDBRANCH   6  24
BRANCH   8  26
ATOM     26  O   UNL     1      28.698  12.003  -1.579  1.00  0.00    -0.508 OA
ATOM     27  H   UNL     1      29.142  11.125  -1.335  1.00  0.00     0.293 HD
ENDBRANCH   8  26
TORSDOF 6
ENDMDL
MODEL 4
REMARK VINA RESULT:    -7.266      9.637     11.553
REMARK INTER + INTRA:          -8.208
REMARK INTER:                  -7.906
REMARK INTRA:                  -0.302
REMARK UNBOUND:                 0.544
REMARK SMILES O=c1c(O)c(-c2ccc(O)c(O)c2)oc2cc(O)cc(O)c12
REMARK SMILES IDX 5 1 3 2 2 3 1 4 22 5 20 6 19 7 17 8 16 9 15 10 14 11 6 12
REMARK SMILES IDX 7 13 8 14 9 15 13 16 11 17 10 18 12 20 4 22 21 24 18 26
REMARK H PARENT 10 19 12 21 4 23 21 25 18 27
REMARK Flexibility Score: inf
ROOT
ATOM      1  C   UNL     1      34.888  17.510  -1.809  1.00  0.00     0.180 A 
ATOM      2  C   UNL     1      35.535  18.332  -2.749  1.00  0.00     0.208 A 
ATOM      3  C   UNL     1      36.625  17.816  -3.469  1.00  0.00     0.238 A 
ATOM      4  O   UNL     1      37.166  18.538  -4.347  1.00  0.00    -0.285 OA
ATOM      5  C   UNL     1      37.065  16.492  -3.229  1.00  0.00     0.111 A 
ATOM      6  C   UNL     1      38.182  15.880  -3.872  1.00  0.00     0.134 A 
ATOM      7  C   UNL     1      38.446  14.522  -3.654  1.00  0.00     0.093 A 
ATOM      8  C   UNL     1      37.672  13.771  -2.766  1.00  0.00     0.123 A 
ATOM      9  C   UNL     1      36.615  14.375  -2.089  1.00  0.00     0.094 A 
ATOM     10  C   UNL     1      36.305  15.718  -2.313  1.00  0.00     0.146 A 
ATOM     11  O   UNL     1      35.283  16.252  -1.656  1.00  0.00    -0.452 OA
ENDROOT
BRANCH   1  12
ATOM     12  C   UNL     1      33.750  17.991  -0.995  1.00  0.00     0.025 A 
ATOM     13  C   UNL     1      33.925  18.407   0.336  1.00  0.00     0.016 A 
ATOM     14  C   UNL     1      32.831  18.834   1.093  1.00  0.00     0.051 A 
ATOM     15  C   UNL     1      31.545  18.841   0.537  1.00  0.00     0.157 A 
ATOM     16  C   UNL     1      32.455  17.979  -1.541  1.00  0.00     0.062 A 
ATOM     17  C   UNL     1      31.357  18.407  -0.786  1.00  0.00     0.158 A 
BRANCH  15  18
ATOM     18  O   UNL     1      30.456  19.269   1.294  1.00  0.00    -0.504 OA
ATOM     19  H   UNL     1      30.451  20.173   1.753  1.00  0.00     0.293 HD
ENDBRANCH  15  18
BRANCH  17  20
ATOM     20  O   UNL     1      30.090  18.394  -1.367  1.00  0.00    -0.504 OA
ATOM     21  H   UNL     1      29.823  17.708  -2.063  1.00  0.00     0.293 HD
ENDBRANCH  17  20
ENDBRANCH   1  12
BRANCH   2  22
ATOM     22  O   UNL     1      35.072  19.629  -2.986  1.00  0.00    -0.502 OA
ATOM     23  H   UNL     1      35.548  20.450  -2.630  1.00  0.00     0.293 HD
ENDBRANCH   2  22
BRANCH   6  24
ATOM     24  O   UNL     1      39.074  16.563  -4.705  1.00  0.00    -0.507 OA
ATOM     25  H   UNL     1      39.840  17.134  -4.381  1.00  0.00     0.293 HD
ENDBRANCH   6  24
BRANCH   8  26
ATOM     26  O   UNL     1      37.951  12.425  -2.543  1.00  0.00    -0.508 OA
ATOM     27  H   UNL     1      37.327  11.694  -2.865  1.00  0.00     0.293 HD
ENDBRANCH   8  26
TORSDOF 6
ENDMDL
MODEL 5
REMARK VINA RESULT:    -7.191      1.499      3.290
REMARK INTER + INTRA:          -8.119
REMARK INTER:                  -8.112
REMARK INTRA:                  -0.006
REMARK UNBOUND:                 0.544
REMARK SMILES O=c1c(O)c(-c2ccc(O)c(O)c2)oc2cc(O)cc(O)c12
REMARK SMILES IDX 5 1 3 2 2 3 1 4 22 5 20 6 19 7 17 8 16 9 15 10 14 11 6 12
REMARK SMILES IDX 7 13 8 14 9 15 13 16 11 17 10 18 12 20 4 22 21 24 18 26
REMARK H PARENT 10 19 12 21 4 23 21 25 18 27
REMARK Flexibility Score: inf
ROOT
ATOM      1  C   UNL     1      24.134  11.775  -3.033  1.00  0.00     0.180 A 
ATOM      2  C   UNL     1      23.954  12.113  -1.680  1.00  0.00     0.208 A 
ATOM      3  C   UNL     1      25.084  12.363  -0.883  1.00  0.00     0.238 A 
ATOM      4  O   UNL     1      24.914  12.717   0.312  1.00  0.00    -0.285 OA
ATOM      5  C   UNL     1      26.379  12.254  -1.445  1.00  0.00     0.111 A 
ATOM      6  C   UNL     1      27.594  12.446  -0.721  1.00  0.00     0.134 A 
ATOM      7  C   UNL     1      28.815  12.443  -1.408  1.00  0.00     0.093 A 
ATOM      8  C   UNL     1      28.868  12.191  -2.781  1.00  0.00     0.123 A 
ATOM      9  C   UNL     1      27.692  11.944  -3.485  1.00  0.00     0.094 A 
ATOM     10  C   UNL     1      26.457  11.976  -2.835  1.00  0.00     0.146 A 
ATOM     11  O   UNL     1      25.359  11.746  -3.545  1.00  0.00    -0.452 OA
ENDROOT
BRANCH   1  12
ATOM     12  C   UNL     1      22.994  11.474  -3.927  1.00  0.00     0.025 A 
ATOM     13  C   UNL     1      22.817  12.156  -5.143  1.00  0.00     0.016 A 
ATOM     14  C   UNL     1      21.718  11.872  -5.959  1.00  0.00     0.051 A 
ATOM     15  C   UNL     1      20.776  10.912  -5.568  1.00  0.00     0.157 A 
ATOM     16  C   UNL     1      22.034  10.527  -3.529  1.00  0.00     0.062 A 
ATOM     17  C   UNL     1      20.934  10.239  -4.344  1.00  0.00     0.158 A 
BRANCH  15  18
ATOM     18  O   UNL     1      19.683  10.629  -6.385  1.00  0.00    -0.504 OA
ATOM     19  H   UNL     1      19.007   9.914  -6.139  1.00  0.00     0.293 HD
ENDBRANCH  15  18
BRANCH  17  20
ATOM     20  O   UNL     1      20.011   9.284  -3.923  1.00  0.00    -0.504 OA
ATOM     21  H   UNL     1      19.422   8.779  -4.575  1.00  0.00     0.293 HD
ENDBRANCH  17  20
ENDBRANCH   1  12
BRANCH   2  22
ATOM     22  O   UNL     1      22.666  12.236  -1.151  1.00  0.00    -0.502 OA
ATOM     23  H   UNL     1      21.973  11.501  -1.232  1.00  0.00     0.293 HD
ENDBRANCH   2  22
BRANCH   6  24
ATOM     24  O   UNL     1      27.659  12.613   0.665  1.00  0.00    -0.507 OA
ATOM     25  H   UNL     1      27.984  11.912   1.314  1.00  0.00     0.293 HD
ENDBRANCH   6  24
BRANCH   8  26
ATOM     26  O   UNL     1      30.088  12.174  -3.454  1.00  0.00    -0.508 OA
ATOM     27  H   UNL     1      30.706  12.976  -3.448  1.00  0.00     0.293 HD
ENDBRANCH   8  26
TORSDOF 6
ENDMDL
MODEL 6
REMARK VINA RESULT:    -7.106      7.039      8.789
REMARK INTER + INTRA:          -8.016
REMARK INTER:                  -8.168
REMARK INTRA:                   0.151
REMARK UNBOUND:                 0.544
REMARK SMILES O=c1c(O)c(-c2ccc(O)c(O)c2)oc2cc(O)cc(O)c12
REMARK SMILES IDX 5 1 3 2 2 3 1 4 22 5 20 6 19 7 17 8 16 9 15 10 14 11 6 12
REMARK SMILES IDX 7 13 8 14 9 15 13 16 11 17 10 18 12 20 4 22 21 24 18 26
REMARK H PARENT 10 19 12 21 4 23 21 25 18 27
REMARK Flexibility Score: inf
ROOT
ATOM      1  C   UNL     1      22.591  15.245   1.304  1.00  0.00     0.180 A 
ATOM      2  C   UNL     1      21.416  15.076   2.058  1.00  0.00     0.208 A 
ATOM      3  C   UNL     1      21.025  16.090   2.948  1.00  0.00     0.238 A 
ATOM      4  O   UNL     1      19.946  15.956   3.580  1.00  0.00    -0.285 OA
ATOM      5  C   UNL     1      21.822  17.253   3.084  1.00  0.00     0.111 A 
ATOM      6  C   UNL     1      21.542  18.325   3.983  1.00  0.00     0.134 A 
ATOM      7  C   UNL     1      22.326  19.485   3.940  1.00  0.00     0.093 A 
ATOM      8  C   UNL     1      23.418  19.584   3.075  1.00  0.00     0.123 A 
ATOM      9  C   UNL     1      23.734  18.519   2.235  1.00  0.00     0.094 A 
ATOM     10  C   UNL     1      22.950  17.364   2.229  1.00  0.00     0.146 A 
ATOM     11  O   UNL     1      23.279  16.376   1.406  1.00  0.00    -0.452 OA
ENDROOT
BRANCH   1  12
ATOM     12  C   UNL     1      23.080  14.210   0.366  1.00  0.00     0.025 A 
ATOM     13  C   UNL     1      22.196  13.487  -0.453  1.00  0.00     0.016 A 
ATOM     14  C   UNL     1      22.678  12.496  -1.313  1.00  0.00     0.051 A 
ATOM     15  C   UNL     1      24.048  12.207  -1.360  1.00  0.00     0.157 A 
ATOM     16  C   UNL     1      24.450  13.901   0.331  1.00  0.00     0.062 A 
ATOM     17  C   UNL     1      24.937  12.911  -0.530  1.00  0.00     0.158 A 
BRANCH  15  18
ATOM     18  O   UNL     1      24.527  11.220  -2.220  1.00  0.00    -0.504 OA
ATOM     19  H   UNL     1      24.343  10.237  -2.055  1.00  0.00     0.293 HD
ENDBRANCH  15  18
BRANCH  17  20
ATOM     20  O   UNL     1      26.305  12.641  -0.547  1.00  0.00    -0.504 OA
ATOM     21  H   UNL     1      26.707  11.863  -0.037  1.00  0.00     0.293 HD
ENDBRANCH  17  20
ENDBRANCH   1  12
BRANCH   2  22
ATOM     22  O   UNL     1      20.634  13.929   1.893  1.00  0.00    -0.502 OA
ATOM     23  H   UNL     1      19.782  13.927   1.345  1.00  0.00     0.293 HD
ENDBRANCH   2  22
BRANCH   6  24
ATOM     24  O   UNL     1      20.533  18.290   4.950  1.00  0.00    -0.507 OA
ATOM     25  H   UNL     1      20.441  18.950   5.708  1.00  0.00     0.293 HD
ENDBRANCH   6  24
BRANCH   8  26
ATOM     26  O   UNL     1      24.203  20.735   3.049  1.00  0.00    -0.508 OA
ATOM     27  H   UNL     1      23.989  21.508   2.430  1.00  0.00     0.293 HD
ENDBRANCH   8  26
TORSDOF 6
ENDMDL
MODEL 7
REMARK VINA RESULT:    -7.089      8.219      9.622
REMARK INTER + INTRA:          -7.996
REMARK INTER:                  -7.677
REMARK INTRA:                  -0.319
REMARK UNBOUND:                 0.544
REMARK SMILES O=c1c(O)c(-c2ccc(O)c(O)c2)oc2cc(O)cc(O)c12
REMARK SMILES IDX 5 1 3 2 2 3 1 4 22 5 20 6 19 7 17 8 16 9 15 10 14 11 6 12
REMARK SMILES IDX 7 13 8 14 9 15 13 16 11 17 10 18 12 20 4 22 21 24 18 26
REMARK H PARENT 10 19 12 21 4 23 21 25 18 27
REMARK Flexibility Score: inf
ROOT
ATOM      1  C   UNL     1      23.399  17.352   3.555  1.00  0.00     0.180 A 
ATOM      2  C   UNL     1      23.777  18.534   2.893  1.00  0.00     0.208 A 
ATOM      3  C   UNL     1      24.904  19.239   3.347  1.00  0.00     0.238 A 
ATOM      4  O   UNL     1      25.268  20.266   2.718  1.00  0.00    -0.285 OA
ATOM      5  C   UNL     1      25.628  18.763   4.467  1.00  0.00     0.111 A 
ATOM      6  C   UNL     1      26.761  19.418   5.036  1.00  0.00     0.134 A 
ATOM      7  C   UNL     1      27.479  18.789   6.061  1.00  0.00     0.093 A 
ATOM      8  C   UNL     1      27.067  17.559   6.580  1.00  0.00     0.123 A 
ATOM      9  C   UNL     1      25.928  16.941   6.070  1.00  0.00     0.094 A 
ATOM     10  C   UNL     1      25.212  17.526   5.024  1.00  0.00     0.146 A 
ATOM     11  O   UNL     1      24.138  16.898   4.560  1.00  0.00    -0.452 OA
ENDROOT
BRANCH   1  12
ATOM     12  C   UNL     1      22.210  16.570   3.150  1.00  0.00     0.025 A 
ATOM     13  C   UNL     1      20.967  16.746   3.782  1.00  0.00     0.016 A 
ATOM     14  C   UNL     1      19.864  15.977   3.400  1.00  0.00     0.051 A 
ATOM     15  C   UNL     1      19.989  15.014   2.390  1.00  0.00     0.157 A 
ATOM     16  C   UNL     1      22.335  15.587   2.153  1.00  0.00     0.062 A 
ATOM     17  C   UNL     1      21.233  14.817   1.767  1.00  0.00     0.158 A 
BRANCH  15  18
ATOM     18  O   UNL     1      18.887  14.251   2.010  1.00  0.00    -0.504 OA
ATOM     19  H   UNL     1      18.991  13.303   1.665  1.00  0.00     0.293 HD
ENDBRANCH  15  18
BRANCH  17  20
ATOM     20  O   UNL     1      21.392  13.861   0.765  1.00  0.00    -0.504 OA
ATOM     21  H   UNL     1      21.085  12.903   0.880  1.00  0.00     0.293 HD
ENDBRANCH  17  20
ENDBRANCH   1  12
BRANCH   2  22
ATOM     22  O   UNL     1      23.060  18.975   1.777  1.00  0.00    -0.502 OA
ATOM     23  H   UNL     1      22.722  19.926   1.688  1.00  0.00     0.293 HD
ENDBRANCH   2  22
BRANCH   6  24
ATOM     24  O   UNL     1      27.202  20.689   4.655  1.00  0.00    -0.507 OA
ATOM     25  H   UNL     1      27.866  20.869   3.916  1.00  0.00     0.293 HD
ENDBRANCH   6  24
BRANCH   8  26
ATOM     26  O   UNL     1      27.778  16.948   7.610  1.00  0.00    -0.508 OA
ATOM     27  H   UNL     1      28.002  17.444   8.465  1.00  0.00     0.293 HD
ENDBRANCH   8  26
TORSDOF 6
ENDMDL
MODEL 8
REMARK VINA RESULT:    -6.862      9.019     12.967
REMARK INTER + INTRA:          -7.722
REMARK INTER:                  -7.404
REMARK INTRA:                  -0.318
REMARK UNBOUND:                 0.544
REMARK SMILES O=c1c(O)c(-c2ccc(O)c(O)c2)oc2cc(O)cc(O)c12
REMARK SMILES IDX 5 1 3 2 2 3 1 4 22 5 20 6 19 7 17 8 16 9 15 10 14 11 6 12
REMARK SMILES IDX 7 13 8 14 9 15 13 16 11 17 10 18 12 20 4 22 21 24 18 26
REMARK H PARENT 10 19 12 21 4 23 21 25 18 27
REMARK Flexibility Score: inf
ROOT
ATOM      1  C   UNL     1      35.358  18.672  -2.853  1.00  0.00     0.180 A 
ATOM      2  C   UNL     1      35.756  18.436  -1.525  1.00  0.00     0.208 A 
ATOM      3  C   UNL     1      34.770  18.260  -0.540  1.00  0.00     0.238 A 
ATOM      4  O   UNL     1      35.132  17.995   0.636  1.00  0.00    -0.285 OA
ATOM      5  C   UNL     1      33.401  18.338  -0.891  1.00  0.00     0.111 A 
ATOM      6  C   UNL     1      32.320  18.215   0.032  1.00  0.00     0.134 A 
ATOM      7  C   UNL     1      31.004  18.178  -0.447  1.00  0.00     0.093 A 
ATOM      8  C   UNL     1      30.729  18.326  -1.808  1.00  0.00     0.123 A 
ATOM      9  C   UNL     1      31.775  18.507  -2.710  1.00  0.00     0.094 A 
ATOM     10  C   UNL     1      33.099  18.511  -2.267  1.00  0.00     0.146 A 
ATOM     11  O   UNL     1      34.067  18.675  -3.161  1.00  0.00    -0.452 OA
ENDROOT
BRANCH   1  12
ATOM     12  C   UNL     1      36.338  18.893  -3.940  1.00  0.00     0.025 A 
ATOM     13  C   UNL     1      36.928  20.151  -4.150  1.00  0.00     0.016 A 
ATOM     14  C   UNL     1      37.832  20.342  -5.199  1.00  0.00     0.051 A 
ATOM     15  C   UNL     1      38.150  19.282  -6.060  1.00  0.00     0.157 A 
ATOM     16  C   UNL     1      36.644  17.840  -4.819  1.00  0.00     0.062 A 
ATOM     17  C   UNL     1      37.549  18.027  -5.870  1.00  0.00     0.158 A 
BRANCH  15  18
ATOM     18  O   UNL     1      39.053  19.475  -7.104  1.00  0.00    -0.504 OA
ATOM     19  H   UNL     1      39.839  18.850  -7.248  1.00  0.00     0.293 HD
ENDBRANCH  15  18
BRANCH  17  20
ATOM     20  O   UNL     1      37.838  16.955  -6.713  1.00  0.00    -0.504 OA
ATOM     21  H   UNL     1      38.042  16.029  -6.357  1.00  0.00     0.293 HD
ENDBRANCH  17  20
ENDBRANCH   1  12
BRANCH   2  22
ATOM     22  O   UNL     1      37.113  18.341  -1.203  1.00  0.00    -0.502 OA
ATOM     23  H   UNL     1      37.584  19.027  -0.626  1.00  0.00     0.293 HD
ENDBRANCH   2  22
BRANCH   6  24
ATOM     24  O   UNL     1      32.480  18.154   1.419  1.00  0.00    -0.507 OA
ATOM     25  H   UNL     1      32.001  18.748   2.080  1.00  0.00     0.293 HD
ENDBRANCH   6  24
BRANCH   8  26
ATOM     26  O   UNL     1      29.416  18.304  -2.274  1.00  0.00    -0.508 OA
ATOM     27  H   UNL     1      29.029  19.077  -2.804  1.00  0.00     0.293 HD
ENDBRANCH   8  26
TORSDOF 6
ENDMDL
MODEL 9
REMARK VINA RESULT:    -6.617      9.712     12.405
REMARK INTER + INTRA:          -7.426
REMARK INTER:                  -7.109
REMARK INTRA:                  -0.317
REMARK UNBOUND:                 0.544
REMARK SMILES O=c1c(O)c(-c2ccc(O)c(O)c2)oc2cc(O)cc(O)c12
REMARK SMILES IDX 5 1 3 2 2 3 1 4 22 5 20 6 19 7 17 8 16 9 15 10 14 11 6 12
REMARK SMILES IDX 7 13 8 14 9 15 13 16 11 17 10 18 12 20 4 22 21 24 18 26
REMARK H PARENT 10 19 12 21 4 23 21 25 18 27
REMARK Flexibility Score: inf
ROOT
ATOM      1  C   UNL     1      34.671  18.730  -2.771  1.00  0.00     0.180 A 
ATOM      2  C   UNL     1      34.920  19.954  -3.417  1.00  0.00     0.208 A 
ATOM      3  C   UNL     1      35.995  20.043  -4.317  1.00  0.00     0.238 A 
ATOM      4  O   UNL     1      36.180  21.125  -4.931  1.00  0.00    -0.285 OA
ATOM      5  C   UNL     1      36.817  18.913  -4.546  1.00  0.00     0.111 A 
ATOM      6  C   UNL     1      37.956  18.901  -5.406  1.00  0.00     0.134 A 
ATOM      7  C   UNL     1      38.618  17.693  -5.659  1.00  0.00     0.093 A 
ATOM      8  C   UNL     1      38.220  16.509  -5.033  1.00  0.00     0.123 A 
ATOM      9  C   UNL     1      37.146  16.523  -4.147  1.00  0.00     0.094 A 
ATOM     10  C   UNL     1      36.444  17.704  -3.902  1.00  0.00     0.146 A 
ATOM     11  O   UNL     1      35.419  17.672  -3.058  1.00  0.00    -0.452 OA
ENDROOT
BRANCH   1  12
ATOM     12  C   UNL     1      33.573  18.566  -1.792  1.00  0.00     0.025 A 
ATOM     13  C   UNL     1      32.265  18.256  -2.203  1.00  0.00     0.016 A 
ATOM     14  C   UNL     1      31.239  18.131  -1.262  1.00  0.00     0.051 A 
ATOM     15  C   UNL     1      31.502  18.325   0.101  1.00  0.00     0.157 A 
ATOM     16  C   UNL     1      33.827  18.781  -0.427  1.00  0.00     0.062 A 
ATOM     17  C   UNL     1      32.802  18.656   0.518  1.00  0.00     0.158 A 
BRANCH  15  18
ATOM     18  O   UNL     1      30.478  18.198   1.037  1.00  0.00    -0.504 OA
ATOM     19  H   UNL     1      29.529  17.972   0.759  1.00  0.00     0.293 HD
ENDBRANCH  15  18
BRANCH  17  20
ATOM     20  O   UNL     1      33.095  18.862   1.866  1.00  0.00    -0.504 OA
ATOM     21  H   UNL     1      32.579  19.524   2.434  1.00  0.00     0.293 HD
ENDBRANCH  17  20
ENDBRANCH   1  12
BRANCH   2  22
ATOM     22  O   UNL     1      34.084  21.051  -3.192  1.00  0.00    -0.502 OA
ATOM     23  H   UNL     1      33.077  20.995  -3.288  1.00  0.00     0.293 HD
ENDBRANCH   2  22
BRANCH   6  24
ATOM     24  O   UNL     1      38.492  20.044  -6.008  1.00  0.00    -0.507 OA
ATOM     25  H   UNL     1      38.333  20.316  -6.967  1.00  0.00     0.293 HD
ENDBRANCH   6  24
BRANCH   8  26
ATOM     26  O   UNL     1      38.894  15.315  -5.278  1.00  0.00    -0.508 OA
ATOM     27  H   UNL     1      38.552  14.431  -4.920  1.00  0.00     0.293 HD
ENDBRANCH   8  26
TORSDOF 6
ENDMDL
