MODEL 1
REMARK VINA RESULT:    -5.664      0.000      0.000
REMARK INTER + INTRA:          -7.040
REMARK INTER:                  -6.823
REMARK INTRA:                  -0.217
REMARK UNBOUND:                -0.217
REMARK SMILES C=CCc1ccc(O)c(OC)c1
REMARK SMILES IDX 9 1 7 2 6 3 5 4 4 5 12 6 10 7 11 8 8 9 3 11 2 12 1 13
REMARK H PARENT 8 10
REMARK Flexibility Score: inf
ROOT
ATOM      1  C   UNL     1     110.953 116.091 118.593  1.00  0.00     0.160 A 
ATOM      2  C   UNL     1     109.570 115.876 118.506  1.00  0.00     0.157 A 
ATOM      3  C   UNL     1     108.891 115.230 119.547  1.00  0.00     0.050 A 
ATOM      4  C   UNL     1     109.586 114.798 120.679  1.00  0.00     0.008 A 
ATOM      5  C   UNL     1     110.967 115.015 120.786  1.00  0.00    -0.040 A 
ATOM      6  C   UNL     1     111.649 115.654 119.738  1.00  0.00     0.054 A 
ENDROOT
BRANCH   1   7
ATOM      7  O   UNL     1     111.598 116.738 117.526  1.00  0.00    -0.493 OA
ATOM      8  C   UNL     1     112.973 117.106 117.521  1.00  0.00     0.278 C 
ENDBRANCH   1   7
BRANCH   2   9
ATOM      9  O   UNL     1     108.875 116.307 117.376  1.00  0.00    -0.504 OA
ATOM     10  H   UNL     1     107.938 116.687 117.442  1.00  0.00     0.293 HD
ENDBRANCH   2   9
BRANCH   5  11
ATOM     11  C   UNL     1     111.723 114.525 121.993  1.00  0.00     0.062 C 
BRANCH  11  12
ATOM     12  C   UNL     1     112.825 115.480 122.355  1.00  0.00    -0.030 C 
ATOM     13  C   UNL     1     112.656 116.431 123.278  1.00  0.00     0.004 C 
ENDBRANCH  11  12
ENDBRANCH   5  11
TORSDOF 4
ENDMDL
MODEL 2
REMARK VINA RESULT:    -5.603     14.572     16.602
REMARK INTER + INTRA:          -6.966
REMARK INTER:                  -6.753
REMARK INTRA:                  -0.213
REMARK UNBOUND:                -0.217
REMARK SMILES C=CCc1ccc(O)c(OC)c1
REMARK SMILES IDX 9 1 7 2 6 3 5 4 4 5 12 6 10 7 11 8 8 9 3 11 2 12 1 13
REMARK H PARENT 8 10
REMARK Flexibility Score: inf
ROOT
ATOM      1  C   UNL     1     126.336 121.145 118.599  1.00  0.00     0.160 A 
ATOM      2  C   UNL     1     127.720 121.347 118.500  1.00  0.00     0.157 A 
ATOM      3  C   UNL     1     128.414 121.989 119.534  1.00  0.00     0.050 A 
ATOM      4  C   UNL     1     127.732 122.431 120.670  1.00  0.00     0.008 A 
ATOM      5  C   UNL     1     126.350 122.227 120.789  1.00  0.00    -0.040 A 
ATOM      6  C   UNL     1     125.654 121.591 119.749  1.00  0.00     0.054 A 
ENDROOT
BRANCH   1   7
ATOM      7  O   UNL     1     125.677 120.501 117.540  1.00  0.00    -0.493 OA
ATOM      8  C   UNL     1     124.280 120.226 117.509  1.00  0.00     0.278 C 
ENDBRANCH   1   7
BRANCH   2   9
ATOM      9  O   UNL     1     128.402 120.906 117.366  1.00  0.00    -0.504 OA
ATOM     10  H   UNL     1     128.145 120.048 116.892  1.00  0.00     0.293 HD
ENDBRANCH   2   9
BRANCH   5  11
ATOM     11  C   UNL     1     125.609 122.727 122.001  1.00  0.00     0.062 C 
BRANCH  11  12
ATOM     12  C   UNL     1     124.490 121.793 122.364  1.00  0.00    -0.030 C 
ATOM     13  C   UNL     1     124.656 120.809 123.252  1.00  0.00     0.004 C 
ENDBRANCH  11  12
ENDBRANCH   5  11
TORSDOF 4
ENDMDL
MODEL 3
REMARK VINA RESULT:    -5.260     14.666     16.259
REMARK INTER + INTRA:          -6.552
REMARK INTER:                  -6.371
REMARK INTRA:                  -0.181
REMARK UNBOUND:                -0.217
REMARK SMILES C=CCc1ccc(O)c(OC)c1
REMARK SMILES IDX 9 1 7 2 6 3 5 4 4 5 12 6 10 7 11 8 8 9 3 11 2 12 1 13
REMARK H PARENT 8 10
REMARK Flexibility Score: inf
ROOT
ATOM      1  C   UNL     1     126.943 120.759 121.592  1.00  0.00     0.160 A 
ATOM      2  C   UNL     1     126.992 119.725 122.537  1.00  0.00     0.157 A 
ATOM      3  C   UNL     1     126.076 118.667 122.473  1.00  0.00     0.050 A 
ATOM      4  C   UNL     1     125.110 118.633 121.466  1.00  0.00     0.008 A 
ATOM      5  C   UNL     1     125.053 119.654 120.506  1.00  0.00    -0.040 A 
ATOM      6  C   UNL     1     125.965 120.719 120.576  1.00  0.00     0.054 A 
ENDROOT
BRANCH   1   7
ATOM      7  O   UNL     1     127.875 121.804 121.693  1.00  0.00    -0.493 OA
ATOM      8  C   UNL     1     127.876 122.965 120.870  1.00  0.00     0.278 C 
ENDBRANCH   1   7
BRANCH   2   9
ATOM      9  O   UNL     1     127.958 119.756 123.543  1.00  0.00    -0.504 OA
ATOM     10  H   UNL     1     128.153 120.602 124.066  1.00  0.00     0.293 HD
ENDBRANCH   2   9
BRANCH   5  11
ATOM     11  C   UNL     1     123.994 119.635 119.437  1.00  0.00     0.062 C 
BRANCH  11  12
ATOM     12  C   UNL     1     124.564 120.065 118.114  1.00  0.00    -0.030 C 
ATOM     13  C   UNL     1     123.783 120.492 117.118  1.00  0.00     0.004 C 
ENDBRANCH  11  12
ENDBRANCH   5  11
TORSDOF 4
ENDMDL
MODEL 4
REMARK VINA RESULT:    -5.133      3.337      5.380
REMARK INTER + INTRA:          -6.400
REMARK INTER:                  -6.171
REMARK INTRA:                  -0.229
REMARK UNBOUND:                -0.217
REMARK SMILES C=CCc1ccc(O)c(OC)c1
REMARK SMILES IDX 9 1 7 2 6 3 5 4 4 5 12 6 10 7 11 8 8 9 3 11 2 12 1 13
REMARK H PARENT 8 10
REMARK Flexibility Score: inf
ROOT
ATOM      1  C   UNL     1     111.624 116.305 123.575  1.00  0.00     0.160 A 
ATOM      2  C   UNL     1     112.853 116.128 122.925  1.00  0.00     0.157 A 
ATOM      3  C   UNL     1     112.906 115.482 121.683  1.00  0.00     0.050 A 
ATOM      4  C   UNL     1     111.735 115.013 121.083  1.00  0.00     0.008 A 
ATOM      5  C   UNL     1     110.497 115.192 121.715  1.00  0.00    -0.040 A 
ATOM      6  C   UNL     1     110.445 115.830 122.964  1.00  0.00     0.054 A 
ENDROOT
BRANCH   1   7
ATOM      7  O   UNL     1     111.613 116.952 124.821  1.00  0.00    -0.493 OA
ATOM      8  C   UNL     1     111.130 116.370 126.027  1.00  0.00     0.278 C 
ENDBRANCH   1   7
BRANCH   2   9
ATOM      9  O   UNL     1     114.023 116.596 123.522  1.00  0.00    -0.504 OA
ATOM     10  H   UNL     1     114.331 116.255 124.425  1.00  0.00     0.293 HD
ENDBRANCH   2   9
BRANCH   5  11
ATOM     11  C   UNL     1     109.237 114.662 121.084  1.00  0.00     0.062 C 
BRANCH  11  12
ATOM     12  C   UNL     1     109.265 114.856 119.594  1.00  0.00    -0.030 C 
ATOM     13  C   UNL     1     109.018 116.044 119.035  1.00  0.00     0.004 C 
ENDBRANCH  11  12
ENDBRANCH   5  11
TORSDOF 4
ENDMDL
MODEL 5
REMARK VINA RESULT:    -5.037      3.277      4.803
REMARK INTER + INTRA:          -6.284
REMARK INTER:                  -5.994
REMARK INTRA:                  -0.290
REMARK UNBOUND:                -0.217
REMARK SMILES C=CCc1ccc(O)c(OC)c1
REMARK SMILES IDX 9 1 7 2 6 3 5 4 4 5 12 6 10 7 11 8 8 9 3 11 2 12 1 13
REMARK H PARENT 8 10
REMARK Flexibility Score: inf
ROOT
ATOM      1  C   UNL     1     113.369 116.494 122.720  1.00  0.00     0.160 A 
ATOM      2  C   UNL     1     112.721 117.109 123.800  1.00  0.00     0.157 A 
ATOM      3  C   UNL     1     111.439 116.692 124.183  1.00  0.00     0.050 A 
ATOM      4  C   UNL     1     110.800 115.659 123.494  1.00  0.00     0.008 A 
ATOM      5  C   UNL     1     111.439 115.026 122.418  1.00  0.00    -0.040 A 
ATOM      6  C   UNL     1     112.719 115.451 122.028  1.00  0.00     0.054 A 
ENDROOT
BRANCH   1   7
ATOM      7  O   UNL     1     114.650 116.943 122.363  1.00  0.00    -0.493 OA
ATOM      8  C   UNL     1     114.926 117.795 121.256  1.00  0.00     0.278 C 
ENDBRANCH   1   7
BRANCH   2   9
ATOM      9  O   UNL     1     113.358 118.140 124.489  1.00  0.00    -0.504 OA
ATOM     10  H   UNL     1     113.710 118.010 125.431  1.00  0.00     0.293 HD
ENDBRANCH   2   9
BRANCH   5  11
ATOM     11  C   UNL     1     110.739 113.932 121.655  1.00  0.00     0.062 C 
BRANCH  11  12
ATOM     12  C   UNL     1     109.397 114.398 121.167  1.00  0.00    -0.030 C 
ATOM     13  C   UNL     1     109.261 115.079 120.026  1.00  0.00     0.004 C 
ENDBRANCH  11  12
ENDBRANCH   5  11
TORSDOF 4
ENDMDL
MODEL 6
REMARK VINA RESULT:    -5.029      2.775      4.154
REMARK INTER + INTRA:          -6.274
REMARK INTER:                  -5.988
REMARK INTRA:                  -0.287
REMARK UNBOUND:                -0.217
REMARK SMILES C=CCc1ccc(O)c(OC)c1
REMARK SMILES IDX 9 1 7 2 6 3 5 4 4 5 12 6 10 7 11 8 8 9 3 11 2 12 1 13
REMARK H PARENT 8 10
REMARK Flexibility Score: inf
ROOT
ATOM      1  C   UNL     1     112.626 117.814 120.745  1.00  0.00     0.160 A 
ATOM      2  C   UNL     1     111.873 118.642 121.588  1.00  0.00     0.157 A 
ATOM      3  C   UNL     1     110.593 118.249 122.002  1.00  0.00     0.050 A 
ATOM      4  C   UNL     1     110.061 117.029 121.580  1.00  0.00     0.008 A 
ATOM      5  C   UNL     1     110.806 116.184 120.745  1.00  0.00    -0.040 A 
ATOM      6  C   UNL     1     112.084 116.583 120.323  1.00  0.00     0.054 A 
ENDROOT
BRANCH   1   7
ATOM      7  O   UNL     1     113.902 118.246 120.348  1.00  0.00    -0.493 OA
ATOM      8  C   UNL     1     115.115 117.878 120.995  1.00  0.00     0.278 C 
ENDBRANCH   1   7
BRANCH   2   9
ATOM      9  O   UNL     1     112.403 119.861 122.011  1.00  0.00    -0.504 OA
ATOM     10  H   UNL     1     113.403 120.020 122.049  1.00  0.00     0.293 HD
ENDBRANCH   2   9
BRANCH   5  11
ATOM     11  C   UNL     1     110.223 114.881 120.266  1.00  0.00     0.062 C 
BRANCH  11  12
ATOM     12  C   UNL     1     109.011 115.123 119.410  1.00  0.00    -0.030 C 
ATOM     13  C   UNL     1     109.113 115.603 118.168  1.00  0.00     0.004 C 
ENDBRANCH  11  12
ENDBRANCH   5  11
TORSDOF 4
ENDMDL
MODEL 7
REMARK VINA RESULT:    -5.022      2.804      4.627
REMARK INTER + INTRA:          -6.266
REMARK INTER:                  -6.056
REMARK INTRA:                  -0.211
REMARK UNBOUND:                -0.217
REMARK SMILES C=CCc1ccc(O)c(OC)c1
REMARK SMILES IDX 9 1 7 2 6 3 5 4 4 5 12 6 10 7 11 8 8 9 3 11 2 12 1 13
REMARK H PARENT 8 10
REMARK Flexibility Score: inf
ROOT
ATOM      1  C   UNL     1     110.800 116.208 121.472  1.00  0.00     0.160 A 
ATOM      2  C   UNL     1     110.513 117.235 122.382  1.00  0.00     0.157 A 
ATOM      3  C   UNL     1     111.171 118.468 122.284  1.00  0.00     0.050 A 
ATOM      4  C   UNL     1     112.115 118.683 121.277  1.00  0.00     0.008 A 
ATOM      5  C   UNL     1     112.405 117.670 120.352  1.00  0.00    -0.040 A 
ATOM      6  C   UNL     1     111.753 116.432 120.457  1.00  0.00     0.054 A 
ENDROOT
BRANCH   1   7
ATOM      7  O   UNL     1     110.123 114.986 121.608  1.00  0.00    -0.493 OA
ATOM      8  C   UNL     1     109.213 114.458 120.649  1.00  0.00     0.278 C 
ENDBRANCH   1   7
BRANCH   2   9
ATOM      9  O   UNL     1     109.571 117.022 123.388  1.00  0.00    -0.504 OA
ATOM     10  H   UNL     1     109.667 116.264 124.054  1.00  0.00     0.293 HD
ENDBRANCH   2   9
BRANCH   5  11
ATOM     11  C   UNL     1     113.443 117.890 119.284  1.00  0.00     0.062 C 
BRANCH  11  12
ATOM     12  C   UNL     1     112.864 117.640 117.919  1.00  0.00    -0.030 C 
ATOM     13  C   UNL     1     113.434 116.792 117.059  1.00  0.00     0.004 C 
ENDBRANCH  11  12
ENDBRANCH   5  11
TORSDOF 4
ENDMDL
MODEL 8
REMARK VINA RESULT:    -5.009     15.081     16.932
REMARK INTER + INTRA:          -6.251
REMARK INTER:                  -6.022
REMARK INTRA:                  -0.229
REMARK UNBOUND:                -0.217
REMARK SMILES C=CCc1ccc(O)c(OC)c1
REMARK SMILES IDX 9 1 7 2 6 3 5 4 4 5 12 6 10 7 11 8 8 9 3 11 2 12 1 13
REMARK H PARENT 8 10
REMARK Flexibility Score: inf
ROOT
ATOM      1  C   UNL     1     127.600 122.820 120.862  1.00  0.00     0.160 A 
ATOM      2  C   UNL     1     127.699 121.873 119.834  1.00  0.00     0.157 A 
ATOM      3  C   UNL     1     126.622 121.022 119.554  1.00  0.00     0.050 A 
ATOM      4  C   UNL     1     125.442 121.113 120.295  1.00  0.00     0.008 A 
ATOM      5  C   UNL     1     125.323 122.063 121.319  1.00  0.00    -0.040 A 
ATOM      6  C   UNL     1     126.405 122.909 121.606  1.00  0.00     0.054 A 
ENDROOT
BRANCH   1   7
ATOM      7  O   UNL     1     128.703 123.651 121.115  1.00  0.00    -0.493 OA
ATOM      8  C   UNL     1     128.636 125.070 121.218  1.00  0.00     0.278 C 
ENDBRANCH   1   7
BRANCH   2   9
ATOM      9  O   UNL     1     128.877 121.781 119.093  1.00  0.00    -0.504 OA
ATOM     10  H   UNL     1     129.260 122.581 118.603  1.00  0.00     0.293 HD
ENDBRANCH   2   9
BRANCH   5  11
ATOM     11  C   UNL     1     124.062 122.144 122.138  1.00  0.00     0.062 C 
BRANCH  11  12
ATOM     12  C   UNL     1     123.684 120.790 122.670  1.00  0.00    -0.030 C 
ATOM     13  C   UNL     1     122.483 120.254 122.438  1.00  0.00     0.004 C 
ENDBRANCH  11  12
ENDBRANCH   5  11
TORSDOF 4
ENDMDL
MODEL 9
REMARK VINA RESULT:    -4.973     14.457     16.422
REMARK INTER + INTRA:          -6.208
REMARK INTER:                  -6.003
REMARK INTRA:                  -0.204
REMARK UNBOUND:                -0.217
REMARK SMILES C=CCc1ccc(O)c(OC)c1
REMARK SMILES IDX 9 1 7 2 6 3 5 4 4 5 12 6 10 7 11 8 8 9 3 11 2 12 1 13
REMARK H PARENT 8 10
REMARK Flexibility Score: inf
ROOT
ATOM      1  C   UNL     1     127.258 121.574 119.930  1.00  0.00     0.160 A 
ATOM      2  C   UNL     1     127.277 122.624 120.857  1.00  0.00     0.157 A 
ATOM      3  C   UNL     1     126.199 122.812 121.732  1.00  0.00     0.050 A 
ATOM      4  C   UNL     1     125.099 121.954 121.687  1.00  0.00     0.008 A 
ATOM      5  C   UNL     1     125.068 120.892 120.772  1.00  0.00    -0.040 A 
ATOM      6  C   UNL     1     126.145 120.709 119.890  1.00  0.00     0.054 A 
ENDROOT
BRANCH   1   7
ATOM      7  O   UNL     1     128.355 121.422 119.068  1.00  0.00    -0.493 OA
ATOM      8  C   UNL     1     128.329 121.702 117.672  1.00  0.00     0.278 C 
ENDBRANCH   1   7
BRANCH   2   9
ATOM      9  O   UNL     1     128.376 123.482 120.904  1.00  0.00    -0.504 OA
ATOM     10  H   UNL     1     128.292 124.434 121.242  1.00  0.00     0.293 HD
ENDBRANCH   2   9
BRANCH   5  11
ATOM     11  C   UNL     1     123.870 119.982 120.702  1.00  0.00     0.062 C 
BRANCH  11  12
ATOM     12  C   UNL     1     123.640 119.512 119.293  1.00  0.00    -0.030 C 
ATOM     13  C   UNL     1     122.434 119.122 118.871  1.00  0.00     0.004 C 
ENDBRANCH  11  12
ENDBRANCH   5  11
TORSDOF 4
ENDMDL
