MODEL 1
REMARK VINA RESULT:    -4.620      0.000      0.000
REMARK INTER + INTRA:          -4.620
REMARK INTER:                  -4.620
REMARK INTRA:                   0.000
REMARK UNBOUND:                 0.000
REMARK SMILES CC1=CC(=O)[C@H]2C[C@@H]1C2(C)C
REMARK SMILES IDX 1 1 2 2 3 3 4 4 5 5 6 6 7 7 8 8 9 9 10 10 11 11
REMARK H PARENT
REMARK Flexibility Score: inf
ROOT
ATOM      1  C   UNL     1       2.492  32.124  19.495  1.00  0.00     0.040 C 
ATOM      2  C   UNL     1       3.014  30.884  20.150  1.00  0.00    -0.066 C 
ATOM      3  C   UNL     1       3.500  30.883  21.424  1.00  0.00     0.047 C 
ATOM      4  C   UNL     1       3.989  29.566  21.945  1.00  0.00     0.159 C 
ATOM      5  O   UNL     1       4.500  29.444  23.089  1.00  0.00    -0.295 OA
ATOM      6  C   UNL     1       3.825  28.382  20.991  1.00  0.00     0.067 C 
ATOM      7  C   UNL     1       2.386  28.531  20.450  1.00  0.00     0.021 C 
ATOM      8  C   UNL     1       2.970  29.525  19.420  1.00  0.00     0.022 C 
ATOM      9  C   UNL     1       4.339  28.806  19.585  1.00  0.00    -0.019 C 
ATOM     10  C   UNL     1       5.635  29.660  19.499  1.00  0.00     0.012 C 
ATOM     11  C   UNL     1       4.490  27.598  18.625  1.00  0.00     0.012 C 
ENDROOT
TORSDOF 0
ENDMDL
MODEL 2
REMARK VINA RESULT:    -4.369     18.246     19.587
REMARK INTER + INTRA:          -4.369
REMARK INTER:                  -4.369
REMARK INTRA:                   0.000
REMARK UNBOUND:                 0.000
REMARK SMILES CC1=CC(=O)[C@H]2C[C@@H]1C2(C)C
REMARK SMILES IDX 1 1 2 2 3 3 4 4 5 5 6 6 7 7 8 8 9 9 10 10 11 11
REMARK H PARENT
REMARK Flexibility Score: inf
ROOT
ATOM      1  C   UNL     1      18.271  21.532  32.940  1.00  0.00     0.040 C 
ATOM      2  C   UNL     1      17.433  22.733  33.251  1.00  0.00    -0.066 C 
ATOM      3  C   UNL     1      16.108  22.797  32.935  1.00  0.00     0.047 C 
ATOM      4  C   UNL     1      15.400  24.065  33.308  1.00  0.00     0.159 C 
ATOM      5  O   UNL     1      14.188  24.263  33.032  1.00  0.00    -0.295 OA
ATOM      6  C   UNL     1      16.253  25.098  34.046  1.00  0.00     0.067 C 
ATOM      7  C   UNL     1      17.007  24.273  35.111  1.00  0.00     0.021 C 
ATOM      8  C   UNL     1      18.031  23.940  34.002  1.00  0.00     0.022 C 
ATOM      9  C   UNL     1      17.603  25.255  33.290  1.00  0.00    -0.019 C 
ATOM     10  C   UNL     1      17.582  25.277  31.736  1.00  0.00     0.012 C 
ATOM     11  C   UNL     1      18.414  26.482  33.782  1.00  0.00     0.012 C 
ENDROOT
TORSDOF 0
ENDMDL
MODEL 3
REMARK VINA RESULT:    -4.122     18.053     19.312
REMARK INTER + INTRA:          -4.122
REMARK INTER:                  -4.122
REMARK INTRA:                   0.000
REMARK UNBOUND:                 0.000
REMARK SMILES CC1=CC(=O)[C@H]2C[C@@H]1C2(C)C
REMARK SMILES IDX 1 1 2 2 3 3 4 4 5 5 6 6 7 7 8 8 9 9 10 10 11 11
REMARK H PARENT
REMARK Flexibility Score: inf
ROOT
ATOM      1  C   UNL     1      18.469  26.770  32.608  1.00  0.00     0.040 C 
ATOM      2  C   UNL     1      17.508  25.696  33.011  1.00  0.00    -0.066 C 
ATOM      3  C   UNL     1      16.539  25.900  33.948  1.00  0.00     0.047 C 
ATOM      4  C   UNL     1      15.652  24.730  34.250  1.00  0.00     0.159 C 
ATOM      5  O   UNL     1      14.749  24.779  35.125  1.00  0.00    -0.295 OA
ATOM      6  C   UNL     1      15.921  23.474  33.419  1.00  0.00     0.067 C 
ATOM      7  C   UNL     1      16.069  24.001  31.975  1.00  0.00     0.021 C 
ATOM      8  C   UNL     1      17.541  24.311  32.332  1.00  0.00     0.022 C 
ATOM      9  C   UNL     1      17.453  23.201  33.418  1.00  0.00    -0.019 C 
ATOM     10  C   UNL     1      18.240  23.403  34.743  1.00  0.00     0.012 C 
ATOM     11  C   UNL     1      17.800  21.798  32.857  1.00  0.00     0.012 C 
ENDROOT
TORSDOF 0
ENDMDL
MODEL 4
REMARK VINA RESULT:    -4.064      1.793      3.431
REMARK INTER + INTRA:          -4.064
REMARK INTER:                  -4.064
REMARK INTRA:                   0.000
REMARK UNBOUND:                 0.000
REMARK SMILES CC1=CC(=O)[C@H]2C[C@@H]1C2(C)C
REMARK SMILES IDX 1 1 2 2 3 3 4 4 5 5 6 6 7 7 8 8 9 9 10 10 11 11
REMARK H PARENT
REMARK Flexibility Score: inf
ROOT
ATOM      1  C   UNL     1       5.771  28.028  18.770  1.00  0.00     0.040 C 
ATOM      2  C   UNL     1       4.627  28.609  19.542  1.00  0.00    -0.066 C 
ATOM      3  C   UNL     1       3.331  28.456  19.146  1.00  0.00     0.047 C 
ATOM      4  C   UNL     1       2.293  29.094  20.019  1.00  0.00     0.159 C 
ATOM      5  O   UNL     1       1.067  29.061  19.739  1.00  0.00    -0.295 OA
ATOM      6  C   UNL     1       2.829  29.788  21.273  1.00  0.00     0.067 C 
ATOM      7  C   UNL     1       3.841  28.779  21.859  1.00  0.00     0.021 C 
ATOM      8  C   UNL     1       4.868  29.365  20.864  1.00  0.00     0.022 C 
ATOM      9  C   UNL     1       4.037  30.680  20.867  1.00  0.00    -0.019 C 
ATOM     10  C   UNL     1       3.943  31.493  19.546  1.00  0.00     0.012 C 
ATOM     11  C   UNL     1       4.464  31.645  22.002  1.00  0.00     0.012 C 
ENDROOT
TORSDOF 0
ENDMDL
MODEL 5
REMARK VINA RESULT:    -4.053      1.728      3.240
REMARK INTER + INTRA:          -4.053
REMARK INTER:                  -4.053
REMARK INTRA:                   0.000
REMARK UNBOUND:                 0.000
REMARK SMILES CC1=CC(=O)[C@H]2C[C@@H]1C2(C)C
REMARK SMILES IDX 1 1 2 2 3 3 4 4 5 5 6 6 7 7 8 8 9 9 10 10 11 11
REMARK H PARENT
REMARK Flexibility Score: inf
ROOT
ATOM      1  C   UNL     1       1.157  29.118  19.643  1.00  0.00     0.040 C 
ATOM      2  C   UNL     1       2.634  29.323  19.759  1.00  0.00    -0.066 C 
ATOM      3  C   UNL     1       3.535  28.446  19.230  1.00  0.00     0.047 C 
ATOM      4  C   UNL     1       4.982  28.783  19.427  1.00  0.00     0.159 C 
ATOM      5  O   UNL     1       5.908  28.032  19.024  1.00  0.00    -0.295 OA
ATOM      6  C   UNL     1       5.254  30.103  20.151  1.00  0.00     0.067 C 
ATOM      7  C   UNL     1       4.294  31.107  19.477  1.00  0.00     0.021 C 
ATOM      8  C   UNL     1       3.207  30.582  20.442  1.00  0.00     0.022 C 
ATOM      9  C   UNL     1       4.349  30.170  21.414  1.00  0.00    -0.019 C 
ATOM     10  C   UNL     1       4.164  28.878  22.259  1.00  0.00     0.012 C 
ATOM     11  C   UNL     1       4.755  31.321  22.369  1.00  0.00     0.012 C 
ENDROOT
TORSDOF 0
ENDMDL
MODEL 6
REMARK VINA RESULT:    -3.919     17.683     18.968
REMARK INTER + INTRA:          -3.919
REMARK INTER:                  -3.919
REMARK INTRA:                   0.000
REMARK UNBOUND:                 0.000
REMARK SMILES CC1=CC(=O)[C@H]2C[C@@H]1C2(C)C
REMARK SMILES IDX 1 1 2 2 3 3 4 4 5 5 6 6 7 7 8 8 9 9 10 10 11 11
REMARK H PARENT
REMARK Flexibility Score: inf
ROOT
ATOM      1  C   UNL     1      13.760  24.643  32.828  1.00  0.00     0.040 C 
ATOM      2  C   UNL     1      15.239  24.736  33.033  1.00  0.00    -0.066 C 
ATOM      3  C   UNL     1      15.951  25.852  32.705  1.00  0.00     0.047 C 
ATOM      4  C   UNL     1      17.425  25.798  32.966  1.00  0.00     0.159 C 
ATOM      5  O   UNL     1      18.196  26.747  32.667  1.00  0.00    -0.295 OA
ATOM      6  C   UNL     1      17.927  24.510  33.622  1.00  0.00     0.067 C 
ATOM      7  C   UNL     1      16.914  24.246  34.757  1.00  0.00     0.021 C 
ATOM      8  C   UNL     1      16.021  23.578  33.686  1.00  0.00     0.022 C 
ATOM      9  C   UNL     1      17.312  23.298  32.865  1.00  0.00    -0.019 C 
ATOM     10  C   UNL     1      17.227  23.362  31.315  1.00  0.00     0.012 C 
ATOM     11  C   UNL     1      17.982  21.957  33.259  1.00  0.00     0.012 C 
ENDROOT
TORSDOF 0
ENDMDL
MODEL 7
REMARK VINA RESULT:    -3.908     17.468     18.879
REMARK INTER + INTRA:          -3.908
REMARK INTER:                  -3.908
REMARK INTRA:                   0.000
REMARK UNBOUND:                 0.000
REMARK SMILES CC1=CC(=O)[C@H]2C[C@@H]1C2(C)C
REMARK SMILES IDX 1 1 2 2 3 3 4 4 5 5 6 6 7 7 8 8 9 9 10 10 11 11
REMARK H PARENT
REMARK Flexibility Score: inf
ROOT
ATOM      1  C   UNL     1      17.233  21.352  32.089  1.00  0.00     0.040 C 
ATOM      2  C   UNL     1      17.196  22.810  32.421  1.00  0.00    -0.066 C 
ATOM      3  C   UNL     1      17.737  23.310  33.568  1.00  0.00     0.047 C 
ATOM      4  C   UNL     1      17.623  24.791  33.764  1.00  0.00     0.159 C 
ATOM      5  O   UNL     1      18.044  25.367  34.801  1.00  0.00    -0.295 OA
ATOM      6  C   UNL     1      16.959  25.554  32.617  1.00  0.00     0.067 C 
ATOM      7  C   UNL     1      17.619  24.975  31.347  1.00  0.00     0.021 C 
ATOM      8  C   UNL     1      16.585  23.830  31.437  1.00  0.00     0.022 C 
ATOM      9  C   UNL     1      15.656  24.805  32.214  1.00  0.00    -0.019 C 
ATOM     10  C   UNL     1      14.759  24.225  33.343  1.00  0.00     0.012 C 
ATOM     11  C   UNL     1      14.762  25.647  31.268  1.00  0.00     0.012 C 
ENDROOT
TORSDOF 0
ENDMDL
MODEL 8
REMARK VINA RESULT:    -3.876      1.756      3.604
REMARK INTER + INTRA:          -3.876
REMARK INTER:                  -3.876
REMARK INTRA:                   0.000
REMARK UNBOUND:                 0.000
REMARK SMILES CC1=CC(=O)[C@H]2C[C@@H]1C2(C)C
REMARK SMILES IDX 1 1 2 2 3 3 4 4 5 5 6 6 7 7 8 8 9 9 10 10 11 11
REMARK H PARENT
REMARK Flexibility Score: inf
ROOT
ATOM      1  C   UNL     1       4.225  28.018  18.983  1.00  0.00     0.040 C 
ATOM      2  C   UNL     1       4.698  29.298  19.599  1.00  0.00    -0.066 C 
ATOM      3  C   UNL     1       5.998  29.494  19.962  1.00  0.00     0.047 C 
ATOM      4  C   UNL     1       6.322  30.825  20.568  1.00  0.00     0.159 C 
ATOM      5  O   UNL     1       7.476  31.112  20.983  1.00  0.00    -0.295 OA
ATOM      6  C   UNL     1       5.155  31.811  20.646  1.00  0.00     0.067 C 
ATOM      7  C   UNL     1       4.489  31.717  19.256  1.00  0.00     0.021 C 
ATOM      8  C   UNL     1       3.732  30.484  19.798  1.00  0.00     0.022 C 
ATOM      9  C   UNL     1       3.919  31.068  21.228  1.00  0.00    -0.019 C 
ATOM     10  C   UNL     1       4.139  30.077  22.404  1.00  0.00     0.012 C 
ATOM     11  C   UNL     1       2.778  32.041  21.620  1.00  0.00     0.012 C 
ENDROOT
TORSDOF 0
ENDMDL
MODEL 9
REMARK VINA RESULT:    -3.867     17.434     18.901
REMARK INTER + INTRA:          -3.867
REMARK INTER:                  -3.867
REMARK INTRA:                   0.000
REMARK UNBOUND:                 0.000
REMARK SMILES CC1=CC(=O)[C@H]2C[C@@H]1C2(C)C
REMARK SMILES IDX 1 1 2 2 3 3 4 4 5 5 6 6 7 7 8 8 9 9 10 10 11 11
REMARK H PARENT
REMARK Flexibility Score: inf
ROOT
ATOM      1  C   UNL     1      16.859  21.407  32.454  1.00  0.00     0.040 C 
ATOM      2  C   UNL     1      16.708  22.893  32.374  1.00  0.00    -0.066 C 
ATOM      3  C   UNL     1      17.313  23.635  31.402  1.00  0.00     0.047 C 
ATOM      4  C   UNL     1      17.071  25.113  31.450  1.00  0.00     0.159 C 
ATOM      5  O   UNL     1      17.607  25.909  30.636  1.00  0.00    -0.295 OA
ATOM      6  C   UNL     1      16.127  25.586  32.557  1.00  0.00     0.067 C 
ATOM      7  C   UNL     1      14.945  24.594  32.494  1.00  0.00     0.021 C 
ATOM      8  C   UNL     1      15.803  23.651  33.367  1.00  0.00     0.022 C 
ATOM      9  C   UNL     1      16.552  24.910  33.892  1.00  0.00    -0.019 C 
ATOM     10  C   UNL     1      18.069  24.785  34.206  1.00  0.00     0.012 C 
ATOM     11  C   UNL     1      15.852  25.542  35.122  1.00  0.00     0.012 C 
ENDROOT
TORSDOF 0
ENDMDL
