MODEL 1
REMARK VINA RESULT:    -4.688      0.000      0.000
REMARK INTER + INTRA:          -6.164
REMARK INTER:                  -5.784
REMARK INTRA:                  -0.380
REMARK UNBOUND:                -0.380
REMARK SMILES Oc1cc(O)c2cc(O)c(-c3cc(O)c(O)c(O)c3)[o+]c2c1
REMARK SMILES IDX 10 1 20 2 21 3 22 4 2 5 3 6 4 7 6 8 7 9 8 10 11 11 12 12
REMARK SMILES IDX 13 13 19 14 15 15 17 16 14 17 16 19 18 21 9 23 1 25 5 27
REMARK H PARENT 14 18 16 20 18 22 9 24 1 26 5 28
REMARK Flexibility Score: inf
ROOT
ATOM      1  C   UNL     1       6.588  -2.536  24.036  1.00  0.00     0.402 A 
ATOM      2  O   UNL     1       7.910  -2.613  24.172  1.00  0.00    -0.202 OA
ATOM      3  C   UNL     1       8.542  -3.721  24.544  1.00  0.00     0.368 A 
ATOM      4  C   UNL     1       9.934  -3.704  24.655  1.00  0.00     0.162 A 
ATOM      5  C   UNL     1      10.625  -4.853  25.041  1.00  0.00     0.128 A 
ATOM      6  C   UNL     1       9.920  -6.030  25.318  1.00  0.00     0.093 A 
ATOM      7  C   UNL     1       8.524  -6.073  25.213  1.00  0.00     0.136 A 
ATOM      8  C   UNL     1       7.819  -4.906  24.824  1.00  0.00     0.125 A 
ATOM      9  C   UNL     1       6.419  -4.852  24.705  1.00  0.00     0.078 A 
ATOM     10  C   UNL     1       5.794  -3.662  24.321  1.00  0.00     0.223 A 
ENDROOT
BRANCH   1  11
ATOM     11  C   UNL     1       6.003  -1.246  23.606  1.00  0.00     0.091 A 
ATOM     12  C   UNL     1       5.799  -1.003  22.239  1.00  0.00     0.068 A 
ATOM     13  C   UNL     1       5.227   0.202  21.805  1.00  0.00     0.162 A 
ATOM     14  C   UNL     1       5.593  -0.280  24.540  1.00  0.00     0.068 A 
ATOM     15  C   UNL     1       4.840   1.171  22.745  1.00  0.00     0.200 A 
ATOM     16  C   UNL     1       5.019   0.924  24.117  1.00  0.00     0.162 A 
BRANCH  13  17
ATOM     17  O   UNL     1       5.044   0.437  20.443  1.00  0.00    -0.504 OA
ATOM     18  H   UNL     1       4.729  -0.294  19.815  1.00  0.00     0.293 HD
ENDBRANCH  13  17
BRANCH  15  19
ATOM     19  O   UNL     1       4.272   2.377  22.331  1.00  0.00    -0.502 OA
ATOM     20  H   UNL     1       4.050   3.120  22.982  1.00  0.00     0.293 HD
ENDBRANCH  15  19
BRANCH  16  21
ATOM     21  O   UNL     1       4.631   1.860  25.075  1.00  0.00    -0.504 OA
ATOM     22  H   UNL     1       3.658   2.038  25.291  1.00  0.00     0.293 HD
ENDBRANCH  16  21
ENDBRANCH   1  11
BRANCH  10  23
ATOM     23  O   UNL     1       4.402  -3.595  24.252  1.00  0.00    -0.500 OA
ATOM     24  H   UNL     1       3.883  -4.041  23.505  1.00  0.00     0.294 HD
ENDBRANCH  10  23
BRANCH   5  25
ATOM     25  O   UNL     1      12.014  -4.817  25.147  1.00  0.00    -0.507 OA
ATOM     26  H   UNL     1      12.476  -4.289  25.878  1.00  0.00     0.293 HD
ENDBRANCH   5  25
BRANCH   7  27
ATOM     27  O   UNL     1       7.894  -7.287  25.503  1.00  0.00    -0.507 OA
ATOM     28  H   UNL     1       6.918  -7.478  25.330  1.00  0.00     0.293 HD
ENDBRANCH   7  27
TORSDOF 7
ENDMDL
MODEL 2
REMARK VINA RESULT:    -4.662      0.460      1.851
REMARK INTER + INTRA:          -6.132
REMARK INTER:                  -5.753
REMARK INTRA:                  -0.378
REMARK UNBOUND:                -0.380
REMARK SMILES Oc1cc(O)c2cc(O)c(-c3cc(O)c(O)c(O)c3)[o+]c2c1
REMARK SMILES IDX 10 1 20 2 21 3 22 4 2 5 3 6 4 7 6 8 7 9 8 10 11 11 12 12
REMARK SMILES IDX 13 13 19 14 15 15 17 16 14 17 16 19 18 21 9 23 1 25 5 27
REMARK H PARENT 14 18 16 20 18 22 9 24 1 26 5 28
REMARK Flexibility Score: inf
ROOT
ATOM      1  C   UNL     1       6.822  -2.597  23.992  1.00  0.00     0.402 A 
ATOM      2  O   UNL     1       8.116  -2.511  24.293  1.00  0.00    -0.202 OA
ATOM      3  C   UNL     1       8.854  -3.558  24.644  1.00  0.00     0.368 A 
ATOM      4  C   UNL     1      10.207  -3.367  24.937  1.00  0.00     0.162 A 
ATOM      5  C   UNL     1      11.008  -4.449  25.306  1.00  0.00     0.128 A 
ATOM      6  C   UNL     1      10.455  -5.732  25.381  1.00  0.00     0.093 A 
ATOM      7  C   UNL     1       9.102  -5.949  25.091  1.00  0.00     0.136 A 
ATOM      8  C   UNL     1       8.284  -4.852  24.718  1.00  0.00     0.125 A 
ATOM      9  C   UNL     1       6.916  -4.973  24.423  1.00  0.00     0.078 A 
ATOM     10  C   UNL     1       6.173  -3.844  24.068  1.00  0.00     0.223 A 
ENDROOT
BRANCH   1  11
ATOM     11  C   UNL     1       6.109  -1.359  23.606  1.00  0.00     0.091 A 
ATOM     12  C   UNL     1       5.680  -0.470  24.602  1.00  0.00     0.068 A 
ATOM     13  C   UNL     1       5.021   0.720  24.263  1.00  0.00     0.162 A 
ATOM     14  C   UNL     1       5.899  -1.026  22.256  1.00  0.00     0.068 A 
ATOM     15  C   UNL     1       4.797   1.035  22.913  1.00  0.00     0.200 A 
ATOM     16  C   UNL     1       5.244   0.160  21.908  1.00  0.00     0.162 A 
BRANCH  13  17
ATOM     17  O   UNL     1       4.587   1.588  25.264  1.00  0.00    -0.504 OA
ATOM     18  H   UNL     1       3.605   1.808  25.388  1.00  0.00     0.293 HD
ENDBRANCH  13  17
BRANCH  15  19
ATOM     19  O   UNL     1       4.139   2.214  22.556  1.00  0.00    -0.502 OA
ATOM     20  H   UNL     1       4.148   2.572  21.609  1.00  0.00     0.293 HD
ENDBRANCH  15  19
BRANCH  16  21
ATOM     21  O   UNL     1       5.050   0.452  20.558  1.00  0.00    -0.504 OA
ATOM     22  H   UNL     1       5.483  -0.090  19.822  1.00  0.00     0.293 HD
ENDBRANCH  16  21
ENDBRANCH   1  11
BRANCH  10  23
ATOM     23  O   UNL     1       4.804  -3.956  23.824  1.00  0.00    -0.500 OA
ATOM     24  H   UNL     1       4.412  -4.756  23.340  1.00  0.00     0.294 HD
ENDBRANCH  10  23
BRANCH   5  25
ATOM     25  O   UNL     1      12.354  -4.239  25.596  1.00  0.00    -0.507 OA
ATOM     26  H   UNL     1      13.068  -4.313  24.881  1.00  0.00     0.293 HD
ENDBRANCH   5  25
BRANCH   7  27
ATOM     27  O   UNL     1       8.626  -7.261  25.185  1.00  0.00    -0.507 OA
ATOM     28  H   UNL     1       7.804  -7.604  24.711  1.00  0.00     0.293 HD
ENDBRANCH   7  27
TORSDOF 7
ENDMDL
MODEL 3
REMARK VINA RESULT:    -4.648      1.169      2.679
REMARK INTER + INTRA:          -6.115
REMARK INTER:                  -5.765
REMARK INTRA:                  -0.350
REMARK UNBOUND:                -0.380
REMARK SMILES Oc1cc(O)c2cc(O)c(-c3cc(O)c(O)c(O)c3)[o+]c2c1
REMARK SMILES IDX 10 1 20 2 21 3 22 4 2 5 3 6 4 7 6 8 7 9 8 10 11 11 12 12
REMARK SMILES IDX 13 13 19 14 15 15 17 16 14 17 16 19 18 21 9 23 1 25 5 27
REMARK H PARENT 14 18 16 20 18 22 9 24 1 26 5 28
REMARK Flexibility Score: inf
ROOT
ATOM      1  C   UNL     1       6.873  -2.509  24.002  1.00  0.00     0.402 A 
ATOM      2  O   UNL     1       6.206  -3.659  23.938  1.00  0.00    -0.202 OA
ATOM      3  C   UNL     1       6.726  -4.825  24.304  1.00  0.00     0.368 A 
ATOM      4  C   UNL     1       5.944  -5.979  24.204  1.00  0.00     0.162 A 
ATOM      5  C   UNL     1       6.462  -7.218  24.583  1.00  0.00     0.128 A 
ATOM      6  C   UNL     1       7.771  -7.306  25.070  1.00  0.00     0.093 A 
ATOM      7  C   UNL     1       8.574  -6.164  25.181  1.00  0.00     0.136 A 
ATOM      8  C   UNL     1       8.052  -4.904  24.793  1.00  0.00     0.125 A 
ATOM      9  C   UNL     1       8.789  -3.709  24.857  1.00  0.00     0.078 A 
ATOM     10  C   UNL     1       8.207  -2.505  24.451  1.00  0.00     0.223 A 
ENDROOT
BRANCH   1  11
ATOM     11  C   UNL     1       6.181  -1.273  23.573  1.00  0.00     0.091 A 
ATOM     12  C   UNL     1       5.962  -1.042  22.207  1.00  0.00     0.068 A 
ATOM     13  C   UNL     1       5.291   0.110  21.775  1.00  0.00     0.162 A 
ATOM     14  C   UNL     1       5.687  -0.348  24.510  1.00  0.00     0.068 A 
ATOM     15  C   UNL     1       4.819   1.039  22.717  1.00  0.00     0.200 A 
ATOM     16  C   UNL     1       5.015   0.804  24.089  1.00  0.00     0.162 A 
BRANCH  13  17
ATOM     17  O   UNL     1       5.093   0.334  20.414  1.00  0.00    -0.504 OA
ATOM     18  H   UNL     1       5.487   1.143  19.945  1.00  0.00     0.293 HD
ENDBRANCH  13  17
BRANCH  15  19
ATOM     19  O   UNL     1       4.152   2.195  22.305  1.00  0.00    -0.502 OA
ATOM     20  H   UNL     1       3.342   2.554  22.796  1.00  0.00     0.293 HD
ENDBRANCH  15  19
BRANCH  16  21
ATOM     21  O   UNL     1       4.545   1.700  25.048  1.00  0.00    -0.504 OA
ATOM     22  H   UNL     1       3.959   1.406  25.819  1.00  0.00     0.293 HD
ENDBRANCH  16  21
ENDBRANCH   1  11
BRANCH  10  23
ATOM     23  O   UNL     1       8.954  -1.326  24.468  1.00  0.00    -0.500 OA
ATOM     24  H   UNL     1       8.836  -0.630  25.195  1.00  0.00     0.294 HD
ENDBRANCH  10  23
BRANCH   5  25
ATOM     25  O   UNL     1       5.667  -8.357  24.475  1.00  0.00    -0.507 OA
ATOM     26  H   UNL     1       5.614  -8.886  23.613  1.00  0.00     0.293 HD
ENDBRANCH   5  25
BRANCH   7  27
ATOM     27  O   UNL     1       9.870  -6.335  25.679  1.00  0.00    -0.507 OA
ATOM     28  H   UNL     1      10.085  -6.692  26.597  1.00  0.00     0.293 HD
ENDBRANCH   7  27
TORSDOF 7
ENDMDL
MODEL 4
REMARK VINA RESULT:    -4.631      1.168      3.217
REMARK INTER + INTRA:          -6.094
REMARK INTER:                  -5.755
REMARK INTRA:                  -0.338
REMARK UNBOUND:                -0.380
REMARK SMILES Oc1cc(O)c2cc(O)c(-c3cc(O)c(O)c(O)c3)[o+]c2c1
REMARK SMILES IDX 10 1 20 2 21 3 22 4 2 5 3 6 4 7 6 8 7 9 8 10 11 11 12 12
REMARK SMILES IDX 13 13 19 14 15 15 17 16 14 17 16 19 18 21 9 23 1 25 5 27
REMARK H PARENT 14 18 16 20 18 22 9 24 1 26 5 28
REMARK Flexibility Score: inf
ROOT
ATOM      1  C   UNL     1       6.837  -2.566  23.997  1.00  0.00     0.402 A 
ATOM      2  O   UNL     1       6.187  -3.726  23.955  1.00  0.00    -0.202 OA
ATOM      3  C   UNL     1       6.728  -4.880  24.329  1.00  0.00     0.368 A 
ATOM      4  C   UNL     1       5.963  -6.046  24.252  1.00  0.00     0.162 A 
ATOM      5  C   UNL     1       6.504  -7.272  24.641  1.00  0.00     0.128 A 
ATOM      6  C   UNL     1       7.820  -7.334  25.113  1.00  0.00     0.093 A 
ATOM      7  C   UNL     1       8.607  -6.179  25.201  1.00  0.00     0.136 A 
ATOM      8  C   UNL     1       8.061  -4.932  24.803  1.00  0.00     0.125 A 
ATOM      9  C   UNL     1       8.780  -3.725  24.844  1.00  0.00     0.078 A 
ATOM     10  C   UNL     1       8.176  -2.535  24.430  1.00  0.00     0.223 A 
ENDROOT
BRANCH   1  11
ATOM     11  C   UNL     1       6.121  -1.345  23.561  1.00  0.00     0.091 A 
ATOM     12  C   UNL     1       5.649  -0.441  24.523  1.00  0.00     0.068 A 
ATOM     13  C   UNL     1       4.986   0.733  24.138  1.00  0.00     0.162 A 
ATOM     14  C   UNL     1       5.951  -1.043  22.198  1.00  0.00     0.068 A 
ATOM     15  C   UNL     1       4.803   1.017  22.775  1.00  0.00     0.200 A 
ATOM     16  C   UNL     1       5.293   0.126  21.804  1.00  0.00     0.162 A 
BRANCH  13  17
ATOM     17  O   UNL     1       4.510   1.616  25.105  1.00  0.00    -0.504 OA
ATOM     18  H   UNL     1       3.988   1.291  25.912  1.00  0.00     0.293 HD
ENDBRANCH  13  17
BRANCH  15  19
ATOM     19  O   UNL     1       4.142   2.179  22.372  1.00  0.00    -0.502 OA
ATOM     20  H   UNL     1       4.427   3.098  22.687  1.00  0.00     0.293 HD
ENDBRANCH  15  19
BRANCH  16  21
ATOM     21  O   UNL     1       5.139   0.388  20.443  1.00  0.00    -0.504 OA
ATOM     22  H   UNL     1       5.397   1.277  20.032  1.00  0.00     0.293 HD
ENDBRANCH  16  21
ENDBRANCH   1  11
BRANCH  10  23
ATOM     23  O   UNL     1       8.905  -1.346  24.423  1.00  0.00    -0.500 OA
ATOM     24  H   UNL     1       9.038  -0.797  25.265  1.00  0.00     0.294 HD
ENDBRANCH  10  23
BRANCH   5  25
ATOM     25  O   UNL     1       5.726  -8.424  24.556  1.00  0.00    -0.507 OA
ATOM     26  H   UNL     1       5.644  -8.946  23.692  1.00  0.00     0.293 HD
ENDBRANCH   5  25
BRANCH   7  27
ATOM     27  O   UNL     1       9.911  -6.324  25.686  1.00  0.00    -0.507 OA
ATOM     28  H   UNL     1      10.736  -5.989  25.210  1.00  0.00     0.293 HD
ENDBRANCH   7  27
TORSDOF 7
ENDMDL
MODEL 5
REMARK VINA RESULT:    -4.258      7.572     12.341
REMARK INTER + INTRA:          -5.634
REMARK INTER:                  -5.271
REMARK INTRA:                  -0.363
REMARK UNBOUND:                -0.380
REMARK SMILES Oc1cc(O)c2cc(O)c(-c3cc(O)c(O)c(O)c3)[o+]c2c1
REMARK SMILES IDX 10 1 20 2 21 3 22 4 2 5 3 6 4 7 6 8 7 9 8 10 11 11 12 12
REMARK SMILES IDX 13 13 19 14 15 15 17 16 14 17 16 19 18 21 9 23 1 25 5 27
REMARK H PARENT 14 18 16 20 18 22 9 24 1 26 5 28
REMARK Flexibility Score: inf
ROOT
ATOM      1  C   UNL     1       2.033   6.401  21.452  1.00  0.00     0.402 A 
ATOM      2  O   UNL     1       2.489   6.334  20.203  1.00  0.00    -0.202 OA
ATOM      3  C   UNL     1       2.107   7.167  19.242  1.00  0.00     0.368 A 
ATOM      4  C   UNL     1       2.646   7.019  17.961  1.00  0.00     0.162 A 
ATOM      5  C   UNL     1       2.266   7.881  16.931  1.00  0.00     0.128 A 
ATOM      6  C   UNL     1       1.342   8.902  17.184  1.00  0.00     0.093 A 
ATOM      7  C   UNL     1       0.789   9.072  18.459  1.00  0.00     0.136 A 
ATOM      8  C   UNL     1       1.170   8.195  19.506  1.00  0.00     0.125 A 
ATOM      9  C   UNL     1       0.658   8.282  20.812  1.00  0.00     0.078 A 
ATOM     10  C   UNL     1       1.078   7.377  21.791  1.00  0.00     0.223 A 
ENDROOT
BRANCH   1  11
ATOM     11  C   UNL     1       2.542   5.420  22.437  1.00  0.00     0.091 A 
ATOM     12  C   UNL     1       2.075   4.098  22.399  1.00  0.00     0.068 A 
ATOM     13  C   UNL     1       2.555   3.143  23.307  1.00  0.00     0.162 A 
ATOM     14  C   UNL     1       3.527   5.769  23.376  1.00  0.00     0.068 A 
ATOM     15  C   UNL     1       3.524   3.507  24.256  1.00  0.00     0.200 A 
ATOM     16  C   UNL     1       4.014   4.824  24.285  1.00  0.00     0.162 A 
BRANCH  13  17
ATOM     17  O   UNL     1       2.072   1.836  23.268  1.00  0.00    -0.504 OA
ATOM     18  H   UNL     1       1.732   1.370  24.102  1.00  0.00     0.293 HD
ENDBRANCH  13  17
BRANCH  15  19
ATOM     19  O   UNL     1       4.012   2.571  25.170  1.00  0.00    -0.502 OA
ATOM     20  H   UNL     1       4.950   2.195  25.109  1.00  0.00     0.293 HD
ENDBRANCH  15  19
BRANCH  16  21
ATOM     21  O   UNL     1       4.987   5.212  25.206  1.00  0.00    -0.504 OA
ATOM     22  H   UNL     1       5.407   4.557  25.853  1.00  0.00     0.293 HD
ENDBRANCH  16  21
ENDBRANCH   1  11
BRANCH  10  23
ATOM     23  O   UNL     1       0.532   7.432  23.074  1.00  0.00    -0.500 OA
ATOM     24  H   UNL     1       0.163   8.293  23.460  1.00  0.00     0.294 HD
ENDBRANCH  10  23
BRANCH   5  25
ATOM     25  O   UNL     1       2.813   7.717  15.661  1.00  0.00    -0.507 OA
ATOM     26  H   UNL     1       3.692   8.149  15.403  1.00  0.00     0.293 HD
ENDBRANCH   5  25
BRANCH   7  27
ATOM     27  O   UNL     1      -0.125  10.117  18.630  1.00  0.00    -0.507 OA
ATOM     28  H   UNL     1       0.124  11.094  18.646  1.00  0.00     0.293 HD
ENDBRANCH   7  27
TORSDOF 7
ENDMDL
MODEL 6
REMARK VINA RESULT:    -4.190      5.801      8.922
REMARK INTER + INTRA:          -5.550
REMARK INTER:                  -5.167
REMARK INTRA:                  -0.383
REMARK UNBOUND:                -0.380
REMARK SMILES Oc1cc(O)c2cc(O)c(-c3cc(O)c(O)c(O)c3)[o+]c2c1
REMARK SMILES IDX 10 1 20 2 21 3 22 4 2 5 3 6 4 7 6 8 7 9 8 10 11 11 12 12
REMARK SMILES IDX 13 13 19 14 15 15 17 16 14 17 16 19 18 21 9 23 1 25 5 27
REMARK H PARENT 14 18 16 20 18 22 9 24 1 26 5 28
REMARK Flexibility Score: inf
ROOT
ATOM      1  C   UNL     1       3.161   1.295  22.005  1.00  0.00     0.402 A 
ATOM      2  O   UNL     1       2.426   2.403  21.937  1.00  0.00    -0.202 OA
ATOM      3  C   UNL     1       2.820   3.571  22.433  1.00  0.00     0.368 A 
ATOM      4  C   UNL     1       1.979   4.680  22.309  1.00  0.00     0.162 A 
ATOM      5  C   UNL     1       2.367   5.920  22.818  1.00  0.00     0.128 A 
ATOM      6  C   UNL     1       3.607   6.055  23.453  1.00  0.00     0.093 A 
ATOM      7  C   UNL     1       4.468   4.959  23.589  1.00  0.00     0.136 A 
ATOM      8  C   UNL     1       4.075   3.697  23.076  1.00  0.00     0.125 A 
ATOM      9  C   UNL     1       4.868   2.540  23.178  1.00  0.00     0.078 A 
ATOM     10  C   UNL     1       4.410   1.329  22.652  1.00  0.00     0.223 A 
ENDROOT
BRANCH   1  11
ATOM     11  C   UNL     1       2.616   0.056  21.406  1.00  0.00     0.091 A 
ATOM     12  C   UNL     1       1.709  -0.724  22.139  1.00  0.00     0.068 A 
ATOM     13  C   UNL     1       1.162  -1.891  21.589  1.00  0.00     0.162 A 
ATOM     14  C   UNL     1       2.944  -0.330  20.095  1.00  0.00     0.068 A 
ATOM     15  C   UNL     1       1.512  -2.281  20.285  1.00  0.00     0.200 A 
ATOM     16  C   UNL     1       2.402  -1.492  19.537  1.00  0.00     0.162 A 
BRANCH  13  17
ATOM     17  O   UNL     1       0.273  -2.665  22.333  1.00  0.00    -0.504 OA
ATOM     18  H   UNL     1       0.542  -3.565  22.716  1.00  0.00     0.293 HD
ENDBRANCH  13  17
BRANCH  15  19
ATOM     19  O   UNL     1       0.979  -3.442  19.722  1.00  0.00    -0.502 OA
ATOM     20  H   UNL     1       0.870  -3.555  18.722  1.00  0.00     0.293 HD
ENDBRANCH  15  19
BRANCH  16  21
ATOM     21  O   UNL     1       2.757  -1.844  18.235  1.00  0.00    -0.504 OA
ATOM     22  H   UNL     1       3.453  -1.330  17.708  1.00  0.00     0.293 HD
ENDBRANCH  16  21
ENDBRANCH   1  11
BRANCH  10  23
ATOM     23  O   UNL     1       5.174   0.170  22.798  1.00  0.00    -0.500 OA
ATOM     24  H   UNL     1       5.871  -0.098  22.113  1.00  0.00     0.294 HD
ENDBRANCH  10  23
BRANCH   5  25
ATOM     25  O   UNL     1       1.515   7.014  22.686  1.00  0.00    -0.507 OA
ATOM     26  H   UNL     1       0.739   7.005  22.034  1.00  0.00     0.293 HD
ENDBRANCH   5  25
BRANCH   7  27
ATOM     27  O   UNL     1       5.690   5.177  24.233  1.00  0.00    -0.507 OA
ATOM     28  H   UNL     1       6.054   6.087  24.473  1.00  0.00     0.293 HD
ENDBRANCH   7  27
TORSDOF 7
ENDMDL
MODEL 7
REMARK VINA RESULT:    -4.185     12.482     13.531
REMARK INTER + INTRA:          -5.543
REMARK INTER:                  -5.166
REMARK INTRA:                  -0.377
REMARK UNBOUND:                -0.380
REMARK SMILES Oc1cc(O)c2cc(O)c(-c3cc(O)c(O)c(O)c3)[o+]c2c1
REMARK SMILES IDX 10 1 20 2 21 3 22 4 2 5 3 6 4 7 6 8 7 9 8 10 11 11 12 12
REMARK SMILES IDX 13 13 19 14 15 15 17 16 14 17 16 19 18 21 9 23 1 25 5 27
REMARK H PARENT 14 18 16 20 18 22 9 24 1 26 5 28
REMARK Flexibility Score: inf
ROOT
ATOM      1  C   UNL     1       6.046   4.913  13.186  1.00  0.00     0.402 A 
ATOM      2  O   UNL     1       5.769   3.659  12.839  1.00  0.00    -0.202 OA
ATOM      3  C   UNL     1       6.692   2.794  12.432  1.00  0.00     0.368 A 
ATOM      4  C   UNL     1       6.303   1.496  12.092  1.00  0.00     0.162 A 
ATOM      5  C   UNL     1       7.250   0.565  11.665  1.00  0.00     0.128 A 
ATOM      6  C   UNL     1       8.598   0.932  11.578  1.00  0.00     0.093 A 
ATOM      7  C   UNL     1       9.013   2.226  11.915  1.00  0.00     0.136 A 
ATOM      8  C   UNL     1       8.053   3.176  12.346  1.00  0.00     0.125 A 
ATOM      9  C   UNL     1       8.375   4.500  12.691  1.00  0.00     0.078 A 
ATOM     10  C   UNL     1       7.371   5.380  13.103  1.00  0.00     0.223 A 
ENDROOT
BRANCH   1  11
ATOM     11  C   UNL     1       4.931   5.779  13.632  1.00  0.00     0.091 A 
ATOM     12  C   UNL     1       4.591   5.821  14.992  1.00  0.00     0.068 A 
ATOM     13  C   UNL     1       3.553   6.648  15.444  1.00  0.00     0.162 A 
ATOM     14  C   UNL     1       4.240   6.606  12.729  1.00  0.00     0.068 A 
ATOM     15  C   UNL     1       2.853   7.455  14.532  1.00  0.00     0.200 A 
ATOM     16  C   UNL     1       3.204   7.435  13.170  1.00  0.00     0.162 A 
BRANCH  13  17
ATOM     17  O   UNL     1       3.215   6.669  16.796  1.00  0.00    -0.504 OA
ATOM     18  H   UNL     1       3.924   6.694  17.521  1.00  0.00     0.293 HD
ENDBRANCH  13  17
BRANCH  15  19
ATOM     19  O   UNL     1       1.814   8.282  14.963  1.00  0.00    -0.502 OA
ATOM     20  H   UNL     1       0.844   8.083  14.754  1.00  0.00     0.293 HD
ENDBRANCH  15  19
BRANCH  16  21
ATOM     21  O   UNL     1       2.539   8.236  12.243  1.00  0.00    -0.504 OA
ATOM     22  H   UNL     1       2.995   9.007  11.770  1.00  0.00     0.293 HD
ENDBRANCH  16  21
ENDBRANCH   1  11
BRANCH  10  23
ATOM     23  O   UNL     1       7.684   6.708  13.397  1.00  0.00    -0.500 OA
ATOM     24  H   UNL     1       8.629   6.997  13.619  1.00  0.00     0.294 HD
ENDBRANCH  10  23
BRANCH   5  25
ATOM     25  O   UNL     1       6.843  -0.725  11.329  1.00  0.00    -0.507 OA
ATOM     26  H   UNL     1       7.366  -1.540  11.628  1.00  0.00     0.293 HD
ENDBRANCH   5  25
BRANCH   7  27
ATOM     27  O   UNL     1      10.378   2.514  11.805  1.00  0.00    -0.507 OA
ATOM     28  H   UNL     1      10.951   2.854  12.562  1.00  0.00     0.293 HD
ENDBRANCH   7  27
TORSDOF 7
ENDMDL
MODEL 8
REMARK VINA RESULT:    -4.094     12.143     15.101
REMARK INTER + INTRA:          -5.431
REMARK INTER:                  -5.080
REMARK INTRA:                  -0.350
REMARK UNBOUND:                -0.380
REMARK SMILES Oc1cc(O)c2cc(O)c(-c3cc(O)c(O)c(O)c3)[o+]c2c1
REMARK SMILES IDX 10 1 20 2 21 3 22 4 2 5 3 6 4 7 6 8 7 9 8 10 11 11 12 12
REMARK SMILES IDX 13 13 19 14 15 15 17 16 14 17 16 19 18 21 9 23 1 25 5 27
REMARK H PARENT 14 18 16 20 18 22 9 24 1 26 5 28
REMARK Flexibility Score: inf
ROOT
ATOM      1  C   UNL     1       6.084   4.036  12.800  1.00  0.00     0.402 A 
ATOM      2  O   UNL     1       5.691   4.899  11.867  1.00  0.00    -0.202 OA
ATOM      3  C   UNL     1       4.874   5.917  12.113  1.00  0.00     0.368 A 
ATOM      4  C   UNL     1       4.521   6.774  11.067  1.00  0.00     0.162 A 
ATOM      5  C   UNL     1       3.667   7.853  11.296  1.00  0.00     0.128 A 
ATOM      6  C   UNL     1       3.163   8.082  12.582  1.00  0.00     0.093 A 
ATOM      7  C   UNL     1       3.503   7.239  13.647  1.00  0.00     0.136 A 
ATOM      8  C   UNL     1       4.368   6.139  13.417  1.00  0.00     0.125 A 
ATOM      9  C   UNL     1       4.752   5.234  14.421  1.00  0.00     0.078 A 
ATOM     10  C   UNL     1       5.605   4.170  14.116  1.00  0.00     0.223 A 
ENDROOT
BRANCH   1  11
ATOM     11  C   UNL     1       7.005   2.946  12.402  1.00  0.00     0.091 A 
ATOM     12  C   UNL     1       6.488   1.673  12.125  1.00  0.00     0.068 A 
ATOM     13  C   UNL     1       7.335   0.629  11.727  1.00  0.00     0.162 A 
ATOM     14  C   UNL     1       8.383   3.174  12.243  1.00  0.00     0.068 A 
ATOM     15  C   UNL     1       8.713   0.859  11.590  1.00  0.00     0.200 A 
ATOM     16  C   UNL     1       9.235   2.140  11.844  1.00  0.00     0.162 A 
BRANCH  13  17
ATOM     17  O   UNL     1       6.810  -0.637  11.468  1.00  0.00    -0.504 OA
ATOM     18  H   UNL     1       5.812  -0.789  11.371  1.00  0.00     0.293 HD
ENDBRANCH  13  17
BRANCH  15  19
ATOM     19  O   UNL     1       9.572  -0.169  11.198  1.00  0.00    -0.502 OA
ATOM     20  H   UNL     1       9.432  -1.129  11.487  1.00  0.00     0.293 HD
ENDBRANCH  15  19
BRANCH  16  21
ATOM     21  O   UNL     1      10.597   2.404  11.703  1.00  0.00    -0.504 OA
ATOM     22  H   UNL     1      11.037   3.210  12.130  1.00  0.00     0.293 HD
ENDBRANCH  16  21
ENDBRANCH   1  11
BRANCH  10  23
ATOM     23  O   UNL     1       5.946   3.243  15.102  1.00  0.00    -0.500 OA
ATOM     24  H   UNL     1       5.617   3.333  16.056  1.00  0.00     0.294 HD
ENDBRANCH  10  23
BRANCH   5  25
ATOM     25  O   UNL     1       3.325   8.695  10.241  1.00  0.00    -0.507 OA
ATOM     26  H   UNL     1       3.934   9.450   9.946  1.00  0.00     0.293 HD
ENDBRANCH   5  25
BRANCH   7  27
ATOM     27  O   UNL     1       2.961   7.536  14.902  1.00  0.00    -0.507 OA
ATOM     28  H   UNL     1       2.600   6.847  15.544  1.00  0.00     0.293 HD
ENDBRANCH   7  27
TORSDOF 7
ENDMDL
MODEL 9
REMARK VINA RESULT:    -4.031     11.235     13.514
REMARK INTER + INTRA:          -5.354
REMARK INTER:                  -4.972
REMARK INTRA:                  -0.382
REMARK UNBOUND:                -0.380
REMARK SMILES Oc1cc(O)c2cc(O)c(-c3cc(O)c(O)c(O)c3)[o+]c2c1
REMARK SMILES IDX 10 1 20 2 21 3 22 4 2 5 3 6 4 7 6 8 7 9 8 10 11 11 12 12
REMARK SMILES IDX 13 13 19 14 15 15 17 16 14 17 16 19 18 21 9 23 1 25 5 27
REMARK H PARENT 14 18 16 20 18 22 9 24 1 26 5 28
REMARK Flexibility Score: inf
ROOT
ATOM      1  C   UNL     1       6.118   4.982  13.368  1.00  0.00     0.402 A 
ATOM      2  O   UNL     1       6.049   4.144  12.336  1.00  0.00    -0.202 OA
ATOM      3  C   UNL     1       6.564   2.920  12.354  1.00  0.00     0.368 A 
ATOM      4  C   UNL     1       6.436   2.112  11.221  1.00  0.00     0.162 A 
ATOM      5  C   UNL     1       6.964   0.821  11.212  1.00  0.00     0.128 A 
ATOM      6  C   UNL     1       7.623   0.330  12.345  1.00  0.00     0.093 A 
ATOM      7  C   UNL     1       7.763   1.119  13.493  1.00  0.00     0.136 A 
ATOM      8  C   UNL     1       7.231   2.434  13.505  1.00  0.00     0.125 A 
ATOM      9  C   UNL     1       7.335   3.301  14.606  1.00  0.00     0.078 A 
ATOM     10  C   UNL     1       6.789   4.585  14.540  1.00  0.00     0.223 A 
ENDROOT
BRANCH   1  11
ATOM     11  C   UNL     1       5.497   6.319  13.229  1.00  0.00     0.091 A 
ATOM     12  C   UNL     1       6.253   7.380  12.711  1.00  0.00     0.068 A 
ATOM     13  C   UNL     1       5.684   8.651  12.549  1.00  0.00     0.162 A 
ATOM     14  C   UNL     1       4.147   6.536  13.552  1.00  0.00     0.068 A 
ATOM     15  C   UNL     1       4.339   8.865  12.894  1.00  0.00     0.200 A 
ATOM     16  C   UNL     1       3.569   7.799  13.393  1.00  0.00     0.162 A 
BRANCH  13  17
ATOM     17  O   UNL     1       6.450   9.702  12.046  1.00  0.00    -0.504 OA
ATOM     18  H   UNL     1       6.558   9.852  11.049  1.00  0.00     0.293 HD
ENDBRANCH  13  17
BRANCH  15  19
ATOM     19  O   UNL     1       3.756  10.124  12.743  1.00  0.00    -0.502 OA
ATOM     20  H   UNL     1       4.283  10.929  12.429  1.00  0.00     0.293 HD
ENDBRANCH  15  19
BRANCH  16  21
ATOM     21  O   UNL     1       2.227   7.976  13.730  1.00  0.00    -0.504 OA
ATOM     22  H   UNL     1       1.475   7.675  13.124  1.00  0.00     0.293 HD
ENDBRANCH  16  21
ENDBRANCH   1  11
BRANCH  10  23
ATOM     23  O   UNL     1       6.936   5.464  15.614  1.00  0.00    -0.500 OA
ATOM     24  H   UNL     1       7.684   5.359  16.290  1.00  0.00     0.294 HD
ENDBRANCH  10  23
BRANCH   5  25
ATOM     25  O   UNL     1       6.827   0.031  10.073  1.00  0.00    -0.507 OA
ATOM     26  H   UNL     1       6.306   0.351   9.266  1.00  0.00     0.293 HD
ENDBRANCH   5  25
BRANCH   7  27
ATOM     27  O   UNL     1       8.433   0.556  14.585  1.00  0.00    -0.507 OA
ATOM     28  H   UNL     1       8.972   1.082  15.256  1.00  0.00     0.293 HD
ENDBRANCH   7  27
TORSDOF 7
ENDMDL
