MODEL 1
REMARK VINA RESULT:    -2.836      0.000      0.000
REMARK INTER + INTRA:          -6.501
REMARK INTER:                  -4.990
REMARK INTRA:                  -1.511
REMARK UNBOUND:                -1.511
REMARK SMILES CCCCCCCCCCCCCCC(=O)[O-]
REMARK SMILES IDX 9 1 10 2 11 3 12 4 13 5 14 6 15 7 16 8 17 9 8 10 7 11 6 12
REMARK SMILES IDX 5 13 4 14 3 15 2 16 1 17
REMARK H PARENT
REMARK Flexibility Score: inf
ROOT
ATOM      1  C   UNL     1     -22.234  27.614 -21.621  1.00  0.00     0.000 C 
ENDROOT
BRANCH   1   2
ATOM      2  C   UNL     1     -21.314  28.655 -20.971  1.00  0.00     0.000 C 
BRANCH   2   3
ATOM      3  C   UNL     1     -20.038  28.001 -20.428  1.00  0.00     0.000 C 
BRANCH   3   4
ATOM      4  C   UNL     1     -19.223  28.999 -19.592  1.00  0.00     0.000 C 
BRANCH   4   5
ATOM      5  C   UNL     1     -17.852  29.312 -20.214  1.00  0.00     0.006 C 
BRANCH   5   6
ATOM      6  C   UNL     1     -17.761  28.886 -21.685  1.00  0.00     0.053 C 
BRANCH   6   7
ATOM      7  C   UNL     1     -16.792  29.756 -22.421  1.00  0.00     0.041 C 
ATOM      8  O   UNL     1     -16.416  30.850 -21.923  1.00  0.00    -0.550 OA
ATOM      9  O   UNL     1     -16.339  29.382 -23.680  1.00  0.00    -0.550 OA
ENDBRANCH   6   7
ENDBRANCH   5   6
ENDBRANCH   4   5
ENDBRANCH   3   4
ENDBRANCH   2   3
ENDBRANCH   1   2
BRANCH   1  10
ATOM     10  C   UNL     1     -23.454  28.282 -22.265  1.00  0.00     0.000 C 
BRANCH  10  11
ATOM     11  C   UNL     1     -23.669  29.693 -21.705  1.00  0.00    -0.000 C 
BRANCH  11  12
ATOM     12  C   UNL     1     -25.014  29.798 -20.976  1.00  0.00    -0.000 C 
BRANCH  12  13
ATOM     13  C   UNL     1     -24.947  29.124 -19.599  1.00  0.00    -0.000 C 
BRANCH  13  14
ATOM     14  C   UNL     1     -24.126  29.930 -18.577  1.00  0.00    -0.000 C 
BRANCH  14  15
ATOM     15  C   UNL     1     -23.235  29.085 -17.643  1.00  0.00    -0.000 C 
BRANCH  15  16
ATOM     16  C   UNL     1     -23.269  27.570 -17.909  1.00  0.00    -0.003 C 
ATOM     17  C   UNL     1     -23.581  26.751 -16.657  1.00  0.00     0.004 C 
ENDBRANCH  15  16
ENDBRANCH  14  15
ENDBRANCH  13  14
ENDBRANCH  12  13
ENDBRANCH  11  12
ENDBRANCH  10  11
ENDBRANCH   1  10
TORSDOF 13
ENDMDL
MODEL 2
REMARK VINA RESULT:    -2.805     13.449     14.938
REMARK INTER + INTRA:          -6.448
REMARK INTER:                  -4.643
REMARK INTRA:                  -1.805
REMARK UNBOUND:                -1.511
REMARK SMILES CCCCCCCCCCCCCCC(=O)[O-]
REMARK SMILES IDX 9 1 10 2 11 3 12 4 13 5 14 6 15 7 16 8 17 9 8 10 7 11 6 12
REMARK SMILES IDX 5 13 4 14 3 15 2 16 1 17
REMARK H PARENT
REMARK Flexibility Score: inf
ROOT
ATOM      1  C   UNL     1     -18.146  13.699 -23.102  1.00  0.00     0.000 C 
ENDROOT
BRANCH   1   2
ATOM      2  C   UNL     1     -18.383  15.205 -22.935  1.00  0.00     0.000 C 
BRANCH   2   3
ATOM      3  C   UNL     1     -18.978  15.519 -21.556  1.00  0.00     0.000 C 
BRANCH   3   4
ATOM      4  C   UNL     1     -19.416  14.233 -20.840  1.00  0.00     0.000 C 
BRANCH   4   5
ATOM      5  C   UNL     1     -20.811  14.354 -20.207  1.00  0.00     0.006 C 
BRANCH   5   6
ATOM      6  C   UNL     1     -21.351  15.789 -20.237  1.00  0.00     0.053 C 
BRANCH   6   7
ATOM      7  C   UNL     1     -21.518  16.314 -18.847  1.00  0.00     0.041 C 
ATOM      8  O   UNL     1     -21.060  17.445 -18.535  1.00  0.00    -0.550 OA
ATOM      9  O   UNL     1     -22.137  15.533 -17.879  1.00  0.00    -0.550 OA
ENDBRANCH   6   7
ENDBRANCH   5   6
ENDBRANCH   4   5
ENDBRANCH   3   4
ENDBRANCH   2   3
ENDBRANCH   1   2
BRANCH   1  10
ATOM     10  C   UNL     1     -18.739  13.192 -24.422  1.00  0.00     0.000 C 
BRANCH  10  11
ATOM     11  C   UNL     1     -20.027  13.946 -24.774  1.00  0.00    -0.000 C 
BRANCH  11  12
ATOM     12  C   UNL     1     -21.248  13.023 -24.687  1.00  0.00    -0.000 C 
BRANCH  12  13
ATOM     13  C   UNL     1     -22.127  13.387 -23.482  1.00  0.00    -0.000 C 
BRANCH  13  14
ATOM     14  C   UNL     1     -22.708  14.809 -23.573  1.00  0.00    -0.000 C 
BRANCH  14  15
ATOM     15  C   UNL     1     -24.183  14.885 -24.021  1.00  0.00    -0.000 C 
BRANCH  15  16
ATOM     16  C   UNL     1     -25.035  15.926 -23.275  1.00  0.00    -0.003 C 
ATOM     17  C   UNL     1     -24.213  16.803 -22.331  1.00  0.00     0.004 C 
ENDBRANCH  15  16
ENDBRANCH  14  15
ENDBRANCH  13  14
ENDBRANCH  12  13
ENDBRANCH  11  12
ENDBRANCH  10  11
ENDBRANCH   1  10
TORSDOF 13
ENDMDL
MODEL 3
REMARK VINA RESULT:    -2.773     14.917     16.969
REMARK INTER + INTRA:          -6.390
REMARK INTER:                  -5.195
REMARK INTRA:                  -1.195
REMARK UNBOUND:                -1.511
REMARK SMILES CCCCCCCCCCCCCCC(=O)[O-]
REMARK SMILES IDX 9 1 10 2 11 3 12 4 13 5 14 6 15 7 16 8 17 9 8 10 7 11 6 12
REMARK SMILES IDX 5 13 4 14 3 15 2 16 1 17
REMARK H PARENT
REMARK Flexibility Score: inf
ROOT
ATOM      1  C   UNL     1     -19.807  13.973 -19.079  1.00  0.00     0.000 C 
ENDROOT
BRANCH   1   2
ATOM      2  C   UNL     1     -21.027  14.489 -18.308  1.00  0.00     0.000 C 
BRANCH   2   3
ATOM      3  C   UNL     1     -21.850  13.329 -17.736  1.00  0.00     0.000 C 
BRANCH   3   4
ATOM      4  C   UNL     1     -20.936  12.259 -17.118  1.00  0.00     0.000 C 
BRANCH   4   5
ATOM      5  C   UNL     1     -21.324  11.913 -15.672  1.00  0.00     0.006 C 
BRANCH   5   6
ATOM      6  C   UNL     1     -21.942  13.102 -14.925  1.00  0.00     0.053 C 
BRANCH   6   7
ATOM      7  C   UNL     1     -23.313  12.757 -14.438  1.00  0.00     0.041 C 
ATOM      8  O   UNL     1     -23.495  11.731 -13.730  1.00  0.00    -0.550 OA
ATOM      9  O   UNL     1     -24.399  13.541 -14.806  1.00  0.00    -0.550 OA
ENDBRANCH   6   7
ENDBRANCH   5   6
ENDBRANCH   4   5
ENDBRANCH   3   4
ENDBRANCH   2   3
ENDBRANCH   1   2
BRANCH   1  10
ATOM     10  C   UNL     1     -19.784  14.525 -20.508  1.00  0.00     0.000 C 
BRANCH  10  11
ATOM     11  C   UNL     1     -21.031  14.086 -21.288  1.00  0.00    -0.000 C 
BRANCH  11  12
ATOM     12  C   UNL     1     -21.634  15.261 -22.068  1.00  0.00    -0.000 C 
BRANCH  12  13
ATOM     13  C   UNL     1     -22.177  14.797 -23.427  1.00  0.00    -0.000 C 
BRANCH  13  14
ATOM     14  C   UNL     1     -22.061  13.276 -23.631  1.00  0.00    -0.000 C 
BRANCH  14  15
ATOM     15  C   UNL     1     -21.109  12.840 -24.763  1.00  0.00    -0.000 C 
BRANCH  15  16
ATOM     16  C   UNL     1     -19.830  13.684 -24.897  1.00  0.00    -0.003 C 
ATOM     17  C   UNL     1     -18.654  13.116 -24.102  1.00  0.00     0.004 C 
ENDBRANCH  15  16
ENDBRANCH  14  15
ENDBRANCH  13  14
ENDBRANCH  12  13
ENDBRANCH  11  12
ENDBRANCH  10  11
ENDBRANCH   1  10
TORSDOF 13
ENDMDL
MODEL 4
REMARK VINA RESULT:    -2.692     14.569     16.465
REMARK INTER + INTRA:          -6.249
REMARK INTER:                  -4.724
REMARK INTRA:                  -1.526
REMARK UNBOUND:                -1.511
REMARK SMILES CCCCCCCCCCCCCCC(=O)[O-]
REMARK SMILES IDX 9 1 10 2 11 3 12 4 13 5 14 6 15 7 16 8 17 9 8 10 7 11 6 12
REMARK SMILES IDX 5 13 4 14 3 15 2 16 1 17
REMARK H PARENT
REMARK Flexibility Score: inf
ROOT
ATOM      1  C   UNL     1     -21.121  15.555 -21.269  1.00  0.00     0.000 C 
ENDROOT
BRANCH   1   2
ATOM      2  C   UNL     1     -20.807  14.415 -20.292  1.00  0.00     0.000 C 
BRANCH   2   3
ATOM      3  C   UNL     1     -19.960  14.915 -19.116  1.00  0.00     0.000 C 
BRANCH   3   4
ATOM      4  C   UNL     1     -20.203  14.061 -17.862  1.00  0.00     0.000 C 
BRANCH   4   5
ATOM      5  C   UNL     1     -21.421  13.134 -18.005  1.00  0.00     0.006 C 
BRANCH   5   6
ATOM      6  C   UNL     1     -22.574  13.528 -17.073  1.00  0.00     0.053 C 
BRANCH   6   7
ATOM      7  C   UNL     1     -22.603  12.636 -15.872  1.00  0.00     0.041 C 
ATOM      8  O   UNL     1     -21.724  11.747 -15.721  1.00  0.00    -0.550 OA
ATOM      9  O   UNL     1     -23.629  12.755 -14.942  1.00  0.00    -0.550 OA
ENDBRANCH   6   7
ENDBRANCH   5   6
ENDBRANCH   4   5
ENDBRANCH   3   4
ENDBRANCH   2   3
ENDBRANCH   1   2
BRANCH   1  10
ATOM     10  C   UNL     1     -21.816  15.026 -22.528  1.00  0.00     0.000 C 
BRANCH  10  11
ATOM     11  C   UNL     1     -21.493  13.544 -22.755  1.00  0.00    -0.000 C 
BRANCH  11  12
ATOM     12  C   UNL     1     -21.687  13.156 -24.226  1.00  0.00    -0.000 C 
BRANCH  12  13
ATOM     13  C   UNL     1     -20.440  13.497 -25.053  1.00  0.00    -0.000 C 
BRANCH  13  14
ATOM     14  C   UNL     1     -19.139  12.969 -24.421  1.00  0.00    -0.000 C 
BRANCH  14  15
ATOM     15  C   UNL     1     -18.021  14.019 -24.255  1.00  0.00    -0.000 C 
BRANCH  15  16
ATOM     16  C   UNL     1     -17.801  14.510 -22.814  1.00  0.00    -0.003 C 
ATOM     17  C   UNL     1     -17.824  16.033 -22.693  1.00  0.00     0.004 C 
ENDBRANCH  15  16
ENDBRANCH  14  15
ENDBRANCH  13  14
ENDBRANCH  12  13
ENDBRANCH  11  12
ENDBRANCH  10  11
ENDBRANCH   1  10
TORSDOF 13
ENDMDL
MODEL 5
REMARK VINA RESULT:    -2.668      1.060      3.044
REMARK INTER + INTRA:          -6.207
REMARK INTER:                  -4.674
REMARK INTRA:                  -1.533
REMARK UNBOUND:                -1.511
REMARK SMILES CCCCCCCCCCCCCCC(=O)[O-]
REMARK SMILES IDX 9 1 10 2 11 3 12 4 13 5 14 6 15 7 16 8 17 9 8 10 7 11 6 12
REMARK SMILES IDX 5 13 4 14 3 15 2 16 1 17
REMARK H PARENT
REMARK Flexibility Score: inf
ROOT
ATOM      1  C   UNL     1     -21.340  27.883 -18.211  1.00  0.00     0.000 C 
ENDROOT
BRANCH   1   2
ATOM      2  C   UNL     1     -20.552  29.178 -17.977  1.00  0.00     0.000 C 
BRANCH   2   3
ATOM      3  C   UNL     1     -19.061  28.977 -18.275  1.00  0.00     0.000 C 
BRANCH   3   4
ATOM      4  C   UNL     1     -18.861  28.260 -19.618  1.00  0.00     0.000 C 
BRANCH   4   5
ATOM      5  C   UNL     1     -18.891  29.225 -20.815  1.00  0.00     0.006 C 
BRANCH   5   6
ATOM      6  C   UNL     1     -17.713  30.209 -20.808  1.00  0.00     0.053 C 
BRANCH   6   7
ATOM      7  C   UNL     1     -16.709  29.828 -21.849  1.00  0.00     0.041 C 
ATOM      8  O   UNL     1     -17.057  29.712 -23.054  1.00  0.00    -0.550 OA
ATOM      9  O   UNL     1     -15.398  29.553 -21.483  1.00  0.00    -0.550 OA
ENDBRANCH   6   7
ENDBRANCH   5   6
ENDBRANCH   4   5
ENDBRANCH   3   4
ENDBRANCH   2   3
ENDBRANCH   1   2
BRANCH   1  10
ATOM     10  C   UNL     1     -22.817  28.063 -17.843  1.00  0.00     0.000 C 
BRANCH  10  11
ATOM     11  C   UNL     1     -23.119  29.520 -17.471  1.00  0.00    -0.000 C 
BRANCH  11  12
ATOM     12  C   UNL     1     -24.404  30.007 -18.151  1.00  0.00    -0.000 C 
BRANCH  12  13
ATOM     13  C   UNL     1     -24.685  29.210 -19.432  1.00  0.00    -0.000 C 
BRANCH  13  14
ATOM     14  C   UNL     1     -24.663  30.085 -20.699  1.00  0.00    -0.000 C 
BRANCH  14  15
ATOM     15  C   UNL     1     -23.609  29.682 -21.752  1.00  0.00    -0.000 C 
BRANCH  15  16
ATOM     16  C   UNL     1     -23.514  28.172 -22.030  1.00  0.00    -0.003 C 
ATOM     17  C   UNL     1     -22.130  27.597 -21.727  1.00  0.00     0.004 C 
ENDBRANCH  15  16
ENDBRANCH  14  15
ENDBRANCH  13  14
ENDBRANCH  12  13
ENDBRANCH  11  12
ENDBRANCH  10  11
ENDBRANCH   1  10
TORSDOF 13
ENDMDL
MODEL 6
REMARK VINA RESULT:    -2.667      3.212      6.994
REMARK INTER + INTRA:          -6.205
REMARK INTER:                  -4.990
REMARK INTRA:                  -1.215
REMARK UNBOUND:                -1.511
REMARK SMILES CCCCCCCCCCCCCCC(=O)[O-]
REMARK SMILES IDX 9 1 10 2 11 3 12 4 13 5 14 6 15 7 16 8 17 9 8 10 7 11 6 12
REMARK SMILES IDX 5 13 4 14 3 15 2 16 1 17
REMARK H PARENT
REMARK Flexibility Score: inf
ROOT
ATOM      1  C   UNL     1     -22.065  27.568 -21.449  1.00  0.00     0.000 C 
ENDROOT
BRANCH   1   2
ATOM      2  C   UNL     1     -23.323  28.151 -22.104  1.00  0.00     0.000 C 
BRANCH   2   3
ATOM      3  C   UNL     1     -23.476  29.641 -21.777  1.00  0.00     0.000 C 
BRANCH   3   4
ATOM      4  C   UNL     1     -24.766  29.900 -20.985  1.00  0.00     0.000 C 
BRANCH   4   5
ATOM      5  C   UNL     1     -24.530  29.945 -19.466  1.00  0.00     0.006 C 
BRANCH   5   6
ATOM      6  C   UNL     1     -24.875  28.619 -18.776  1.00  0.00     0.053 C 
BRANCH   6   7
ATOM      7  C   UNL     1     -23.918  28.348 -17.659  1.00  0.00     0.041 C 
ATOM      8  O   UNL     1     -24.204  27.503 -16.770  1.00  0.00    -0.550 OA
ATOM      9  O   UNL     1     -22.730  29.063 -17.572  1.00  0.00    -0.550 OA
ENDBRANCH   6   7
ENDBRANCH   5   6
ENDBRANCH   4   5
ENDBRANCH   3   4
ENDBRANCH   2   3
ENDBRANCH   1   2
BRANCH   1  10
ATOM     10  C   UNL     1     -21.280  28.652 -20.703  1.00  0.00     0.000 C 
BRANCH  10  11
ATOM     11  C   UNL     1     -20.128  28.042 -19.896  1.00  0.00    -0.000 C 
BRANCH  11  12
ATOM     12  C   UNL     1     -18.904  28.966 -19.897  1.00  0.00    -0.000 C 
BRANCH  12  13
ATOM     13  C   UNL     1     -18.535  29.388 -21.326  1.00  0.00    -0.000 C 
BRANCH  13  14
ATOM     14  C   UNL     1     -17.417  28.524 -21.937  1.00  0.00    -0.000 C 
BRANCH  14  15
ATOM     15  C   UNL     1     -16.076  29.253 -22.158  1.00  0.00    -0.000 C 
BRANCH  15  16
ATOM     16  C   UNL     1     -16.098  30.760 -21.852  1.00  0.00    -0.003 C 
ATOM     17  C   UNL     1     -15.309  31.125 -20.594  1.00  0.00     0.004 C 
ENDBRANCH  15  16
ENDBRANCH  14  15
ENDBRANCH  13  14
ENDBRANCH  12  13
ENDBRANCH  11  12
ENDBRANCH  10  11
ENDBRANCH   1  10
TORSDOF 13
ENDMDL
MODEL 7
REMARK VINA RESULT:    -2.655      1.505      3.447
REMARK INTER + INTRA:          -6.184
REMARK INTER:                  -4.652
REMARK INTRA:                  -1.532
REMARK UNBOUND:                -1.511
REMARK SMILES CCCCCCCCCCCCCCC(=O)[O-]
REMARK SMILES IDX 9 1 10 2 11 3 12 4 13 5 14 6 15 7 16 8 17 9 8 10 7 11 6 12
REMARK SMILES IDX 5 13 4 14 3 15 2 16 1 17
REMARK H PARENT
REMARK Flexibility Score: inf
ROOT
ATOM      1  C   UNL     1     -18.907  27.444 -18.598  1.00  0.00     0.000 C 
ENDROOT
BRANCH   1   2
ATOM      2  C   UNL     1     -18.811  28.641 -17.645  1.00  0.00     0.000 C 
BRANCH   2   3
ATOM      3  C   UNL     1     -18.028  29.794 -18.286  1.00  0.00     0.000 C 
BRANCH   3   4
ATOM      4  C   UNL     1     -17.299  29.325 -19.554  1.00  0.00     0.000 C 
BRANCH   4   5
ATOM      5  C   UNL     1     -17.666  30.160 -20.791  1.00  0.00     0.006 C 
BRANCH   5   6
ATOM      6  C   UNL     1     -17.588  29.352 -22.093  1.00  0.00     0.053 C 
BRANCH   6   7
ATOM      7  C   UNL     1     -16.472  29.854 -22.953  1.00  0.00     0.041 C 
ATOM      8  O   UNL     1     -16.305  29.390 -24.111  1.00  0.00    -0.550 OA
ATOM      9  O   UNL     1     -15.584  30.801 -22.456  1.00  0.00    -0.550 OA
ENDBRANCH   6   7
ENDBRANCH   5   6
ENDBRANCH   4   5
ENDBRANCH   3   4
ENDBRANCH   2   3
ENDBRANCH   1   2
BRANCH   1  10
ATOM     10  C   UNL     1     -20.366  27.141 -18.957  1.00  0.00     0.000 C 
BRANCH  10  11
ATOM     11  C   UNL     1     -21.095  28.410 -19.417  1.00  0.00    -0.000 C 
BRANCH  11  12
ATOM     12  C   UNL     1     -21.087  28.527 -20.946  1.00  0.00    -0.000 C 
BRANCH  12  13
ATOM     13  C   UNL     1     -22.044  27.509 -21.580  1.00  0.00    -0.000 C 
BRANCH  13  14
ATOM     14  C   UNL     1     -23.339  28.153 -22.109  1.00  0.00    -0.000 C 
BRANCH  14  15
ATOM     15  C   UNL     1     -23.510  29.648 -21.770  1.00  0.00    -0.000 C 
BRANCH  15  16
ATOM     16  C   UNL     1     -24.749  29.984 -20.922  1.00  0.00    -0.003 C 
ATOM     17  C   UNL     1     -24.517  29.790 -19.424  1.00  0.00     0.004 C 
ENDBRANCH  15  16
ENDBRANCH  14  15
ENDBRANCH  13  14
ENDBRANCH  12  13
ENDBRANCH  11  12
ENDBRANCH  10  11
ENDBRANCH   1  10
TORSDOF 13
ENDMDL
MODEL 8
REMARK VINA RESULT:    -2.630     14.211     15.907
REMARK INTER + INTRA:          -6.139
REMARK INTER:                  -4.660
REMARK INTRA:                  -1.479
REMARK UNBOUND:                -1.511
REMARK SMILES CCCCCCCCCCCCCCC(=O)[O-]
REMARK SMILES IDX 9 1 10 2 11 3 12 4 13 5 14 6 15 7 16 8 17 9 8 10 7 11 6 12
REMARK SMILES IDX 5 13 4 14 3 15 2 16 1 17
REMARK H PARENT
REMARK Flexibility Score: inf
ROOT
ATOM      1  C   UNL     1     -21.112  14.128 -19.466  1.00  0.00     0.000 C 
ENDROOT
BRANCH   1   2
ATOM      2  C   UNL     1     -20.435  14.600 -20.758  1.00  0.00     0.000 C 
BRANCH   2   3
ATOM      3  C   UNL     1     -21.475  15.031 -21.799  1.00  0.00     0.000 C 
BRANCH   3   4
ATOM      4  C   UNL     1     -21.742  13.904 -22.808  1.00  0.00     0.000 C 
BRANCH   4   5
ATOM      5  C   UNL     1     -21.166  14.207 -24.201  1.00  0.00     0.006 C 
BRANCH   5   6
ATOM      6  C   UNL     1     -20.302  13.061 -24.744  1.00  0.00     0.053 C 
BRANCH   6   7
ATOM      7  C   UNL     1     -18.871  13.258 -24.358  1.00  0.00     0.041 C 
ATOM      8  O   UNL     1     -18.068  12.289 -24.382  1.00  0.00    -0.550 OA
ATOM      9  O   UNL     1     -18.434  14.503 -23.922  1.00  0.00    -0.550 OA
ENDBRANCH   6   7
ENDBRANCH   5   6
ENDBRANCH   4   5
ENDBRANCH   3   4
ENDBRANCH   2   3
ENDBRANCH   1   2
BRANCH   1  10
ATOM     10  C   UNL     1     -21.047  15.210 -18.382  1.00  0.00     0.000 C 
BRANCH  10  11
ATOM     11  C   UNL     1     -21.886  14.818 -17.160  1.00  0.00    -0.000 C 
BRANCH  11  12
ATOM     12  C   UNL     1     -22.445  13.398 -17.308  1.00  0.00    -0.000 C 
BRANCH  12  13
ATOM     13  C   UNL     1     -21.865  12.465 -16.236  1.00  0.00    -0.000 C 
BRANCH  13  14
ATOM     14  C   UNL     1     -20.726  11.576 -16.767  1.00  0.00    -0.000 C 
BRANCH  14  15
ATOM     15  C   UNL     1     -19.340  11.853 -16.149  1.00  0.00    -0.000 C 
BRANCH  15  16
ATOM     16  C   UNL     1     -18.463  12.842 -16.936  1.00  0.00    -0.003 C 
ATOM     17  C   UNL     1     -18.250  14.165 -16.201  1.00  0.00     0.004 C 
ENDBRANCH  15  16
ENDBRANCH  14  15
ENDBRANCH  13  14
ENDBRANCH  12  13
ENDBRANCH  11  12
ENDBRANCH  10  11
ENDBRANCH   1  10
TORSDOF 13
ENDMDL
MODEL 9
REMARK VINA RESULT:    -2.619      2.446      3.229
REMARK INTER + INTRA:          -6.120
REMARK INTER:                  -4.201
REMARK INTRA:                  -1.919
REMARK UNBOUND:                -1.511
REMARK SMILES CCCCCCCCCCCCCCC(=O)[O-]
REMARK SMILES IDX 9 1 10 2 11 3 12 4 13 5 14 6 15 7 16 8 17 9 8 10 7 11 6 12
REMARK SMILES IDX 5 13 4 14 3 15 2 16 1 17
REMARK H PARENT
REMARK Flexibility Score: inf
ROOT
ATOM      1  C   UNL     1     -21.842  27.679 -21.485  1.00  0.00     0.000 C 
ENDROOT
BRANCH   1   2
ATOM      2  C   UNL     1     -20.993  28.866 -21.014  1.00  0.00     0.000 C 
BRANCH   2   3
ATOM      3  C   UNL     1     -19.509  28.488 -20.940  1.00  0.00     0.000 C 
BRANCH   3   4
ATOM      4  C   UNL     1     -18.808  29.236 -19.795  1.00  0.00     0.000 C 
BRANCH   4   5
ATOM      5  C   UNL     1     -19.309  28.799 -18.409  1.00  0.00     0.006 C 
BRANCH   5   6
ATOM      6  C   UNL     1     -19.448  29.976 -17.434  1.00  0.00     0.053 C 
BRANCH   6   7
ATOM      7  C   UNL     1     -18.320  29.976 -16.452  1.00  0.00     0.041 C 
ATOM      8  O   UNL     1     -17.309  29.251 -16.646  1.00  0.00    -0.550 OA
ATOM      9  O   UNL     1     -18.407  30.741 -15.295  1.00  0.00    -0.550 OA
ENDBRANCH   6   7
ENDBRANCH   5   6
ENDBRANCH   4   5
ENDBRANCH   3   4
ENDBRANCH   2   3
ENDBRANCH   1   2
BRANCH   1  10
ATOM     10  C   UNL     1     -23.253  28.131 -21.876  1.00  0.00     0.000 C 
BRANCH  10  11
ATOM     11  C   UNL     1     -23.449  29.626 -21.599  1.00  0.00    -0.000 C 
BRANCH  11  12
ATOM     12  C   UNL     1     -24.833  29.898 -20.995  1.00  0.00    -0.000 C 
BRANCH  12  13
ATOM     13  C   UNL     1     -24.967  29.246 -19.612  1.00  0.00    -0.000 C 
BRANCH  13  14
ATOM     14  C   UNL     1     -24.274  30.054 -18.499  1.00  0.00    -0.000 C 
BRANCH  14  15
ATOM     15  C   UNL     1     -23.183  29.290 -17.720  1.00  0.00    -0.000 C 
BRANCH  15  16
ATOM     16  C   UNL     1     -23.031  27.807 -18.102  1.00  0.00    -0.003 C 
ATOM     17  C   UNL     1     -22.273  26.996 -17.053  1.00  0.00     0.004 C 
ENDBRANCH  15  16
ENDBRANCH  14  15
ENDBRANCH  13  14
ENDBRANCH  12  13
ENDBRANCH  11  12
ENDBRANCH  10  11
ENDBRANCH   1  10
TORSDOF 13
ENDMDL
