MODEL 1
REMARK VINA RESULT:    -6.209      0.000      0.000
REMARK INTER + INTRA:          -7.266
REMARK INTER:                  -7.116
REMARK INTRA:                  -0.150
REMARK UNBOUND:                -0.150
REMARK SMILES O=C([O-])C=Cc1ccc(O)cc1
REMARK SMILES IDX 6 1 7 2 12 3 8 4 11 5 9 6 5 7 4 8 2 9 1 10 3 11 10 12
REMARK H PARENT 10 13
REMARK Flexibility Score: inf
ROOT
ATOM      1  C   UNL     1      11.215   8.288  28.396  1.00  0.00    -0.025 A 
ATOM      2  C   UNL     1      11.365   8.766  29.710  1.00  0.00     0.012 A 
ATOM      3  C   UNL     1      10.085   8.690  27.652  1.00  0.00     0.012 A 
ATOM      4  C   UNL     1      10.425   9.643  30.260  1.00  0.00     0.047 A 
ATOM      5  C   UNL     1       9.148   9.566  28.207  1.00  0.00     0.047 A 
ATOM      6  C   UNL     1       9.317  10.046  29.512  1.00  0.00     0.115 A 
ENDROOT
BRANCH   1   7
ATOM      7  C   UNL     1      12.234   7.351  27.860  1.00  0.00     0.010 C 
ATOM      8  C   UNL     1      12.925   6.489  28.619  1.00  0.00     0.025 C 
BRANCH   8   9
ATOM      9  C   UNL     1      13.921   5.565  28.050  1.00  0.00     0.064 C 
ATOM     10  O   UNL     1      14.446   5.786  26.926  1.00  0.00    -0.545 OA
ATOM     11  O   UNL     1      14.288   4.433  28.763  1.00  0.00    -0.545 OA
ENDBRANCH   8   9
ENDBRANCH   1   7
BRANCH   6  12
ATOM     12  O   UNL     1       8.389  10.921  30.073  1.00  0.00    -0.508 OA
ATOM     13  H   UNL     1       7.577  10.580  30.576  1.00  0.00     0.293 HD
ENDBRANCH   6  12
TORSDOF 3
ENDMDL
MODEL 2
REMARK VINA RESULT:    -6.094      1.747      2.016
REMARK INTER + INTRA:          -7.135
REMARK INTER:                  -6.985
REMARK INTRA:                  -0.149
REMARK UNBOUND:                -0.150
REMARK SMILES O=C([O-])C=Cc1ccc(O)cc1
REMARK SMILES IDX 6 1 7 2 12 3 8 4 11 5 9 6 5 7 4 8 2 9 1 10 3 11 10 12
REMARK H PARENT 10 13
REMARK Flexibility Score: inf
ROOT
ATOM      1  C   UNL     1      12.390   9.008  29.232  1.00  0.00    -0.025 A 
ATOM      2  C   UNL     1      13.181   9.456  30.304  1.00  0.00     0.012 A 
ATOM      3  C   UNL     1      11.233   9.738  28.890  1.00  0.00     0.012 A 
ATOM      4  C   UNL     1      12.841  10.618  31.003  1.00  0.00     0.047 A 
ATOM      5  C   UNL     1      10.896  10.900  29.593  1.00  0.00     0.047 A 
ATOM      6  C   UNL     1      11.701  11.343  30.649  1.00  0.00     0.115 A 
ENDROOT
BRANCH   1   7
ATOM      7  C   UNL     1      12.787   7.763  28.528  1.00  0.00     0.010 C 
ATOM      8  C   UNL     1      13.492   6.777  29.099  1.00  0.00     0.025 C 
BRANCH   8   9
ATOM      9  C   UNL     1      13.859   5.550  28.371  1.00  0.00     0.064 C 
ATOM     10  O   UNL     1      14.375   5.602  27.223  1.00  0.00    -0.545 OA
ATOM     11  O   UNL     1      13.631   4.314  28.960  1.00  0.00    -0.545 OA
ENDBRANCH   8   9
ENDBRANCH   1   7
BRANCH   6  12
ATOM     12  O   UNL     1      11.375  12.500  31.355  1.00  0.00    -0.508 OA
ATOM     13  H   UNL     1      10.666  12.496  32.079  1.00  0.00     0.293 HD
ENDBRANCH   6  12
TORSDOF 3
ENDMDL
MODEL 3
REMARK VINA RESULT:    -5.899      1.445      5.790
REMARK INTER + INTRA:          -6.911
REMARK INTER:                  -6.770
REMARK INTRA:                  -0.141
REMARK UNBOUND:                -0.150
REMARK SMILES O=C([O-])C=Cc1ccc(O)cc1
REMARK SMILES IDX 6 1 7 2 12 3 8 4 11 5 9 6 5 7 4 8 2 9 1 10 3 11 10 12
REMARK H PARENT 10 13
REMARK Flexibility Score: inf
ROOT
ATOM      1  C   UNL     1      12.860   8.065  28.826  1.00  0.00    -0.025 A 
ATOM      2  C   UNL     1      12.897   7.072  29.820  1.00  0.00     0.012 A 
ATOM      3  C   UNL     1      13.432   7.787  27.567  1.00  0.00     0.012 A 
ATOM      4  C   UNL     1      13.468   5.823  29.558  1.00  0.00     0.047 A 
ATOM      5  C   UNL     1      14.002   6.537  27.309  1.00  0.00     0.047 A 
ATOM      6  C   UNL     1      14.019   5.551  28.304  1.00  0.00     0.115 A 
ENDROOT
BRANCH   1   7
ATOM      7  C   UNL     1      12.252   9.378  29.156  1.00  0.00     0.010 C 
ATOM      8  C   UNL     1      10.990   9.529  29.581  1.00  0.00     0.025 C 
BRANCH   8   9
ATOM      9  C   UNL     1      10.424  10.849  29.910  1.00  0.00     0.064 C 
ATOM     10  O   UNL     1      11.150  11.774  30.361  1.00  0.00    -0.545 OA
ATOM     11  O   UNL     1       9.068  11.076  29.720  1.00  0.00    -0.545 OA
ENDBRANCH   8   9
ENDBRANCH   1   7
BRANCH   6  12
ATOM     12  O   UNL     1      14.584   4.301  28.056  1.00  0.00    -0.508 OA
ATOM     13  H   UNL     1      15.250   4.161  27.305  1.00  0.00     0.293 HD
ENDBRANCH   6  12
TORSDOF 3
ENDMDL
MODEL 4
REMARK VINA RESULT:    -5.821      1.439      5.910
REMARK INTER + INTRA:          -6.821
REMARK INTER:                  -6.683
REMARK INTRA:                  -0.139
REMARK UNBOUND:                -0.150
REMARK SMILES O=C([O-])C=Cc1ccc(O)cc1
REMARK SMILES IDX 6 1 7 2 12 3 8 4 11 5 9 6 5 7 4 8 2 9 1 10 3 11 10 12
REMARK H PARENT 10 13
REMARK Flexibility Score: inf
ROOT
ATOM      1  C   UNL     1      12.843   8.100  28.873  1.00  0.00    -0.025 A 
ATOM      2  C   UNL     1      13.390   7.885  27.597  1.00  0.00     0.012 A 
ATOM      3  C   UNL     1      12.899   7.057  29.821  1.00  0.00     0.012 A 
ATOM      4  C   UNL     1      14.001   6.668  27.281  1.00  0.00     0.047 A 
ATOM      5  C   UNL     1      13.510   5.842  29.501  1.00  0.00     0.047 A 
ATOM      6  C   UNL     1      14.065   5.645  28.230  1.00  0.00     0.115 A 
ENDROOT
BRANCH   1   7
ATOM      7  C   UNL     1      12.195   9.405  29.157  1.00  0.00     0.010 C 
ATOM      8  C   UNL     1      10.971   9.529  29.689  1.00  0.00     0.025 C 
BRANCH   8   9
ATOM      9  C   UNL     1      10.364  10.842  29.968  1.00  0.00     0.064 C 
ATOM     10  O   UNL     1      11.042  11.779  30.468  1.00  0.00    -0.545 OA
ATOM     11  O   UNL     1       9.024  11.051  29.675  1.00  0.00    -0.545 OA
ENDBRANCH   8   9
ENDBRANCH   1   7
BRANCH   6  12
ATOM     12  O   UNL     1      14.678   4.438  27.901  1.00  0.00    -0.508 OA
ATOM     13  H   UNL     1      15.325   3.983  28.535  1.00  0.00     0.293 HD
ENDBRANCH   6  12
TORSDOF 3
ENDMDL
MODEL 5
REMARK VINA RESULT:    -3.379     19.293     20.683
REMARK INTER + INTRA:          -4.023
REMARK INTER:                  -3.883
REMARK INTRA:                  -0.140
REMARK UNBOUND:                -0.150
REMARK SMILES O=C([O-])C=Cc1ccc(O)cc1
REMARK SMILES IDX 6 1 7 2 12 3 8 4 11 5 9 6 5 7 4 8 2 9 1 10 3 11 10 12
REMARK H PARENT 10 13
REMARK Flexibility Score: inf
ROOT
ATOM      1  C   UNL     1      23.855  11.313  13.679  1.00  0.00    -0.025 A 
ATOM      2  C   UNL     1      23.948  10.360  14.707  1.00  0.00     0.012 A 
ATOM      3  C   UNL     1      23.874  10.871  12.339  1.00  0.00     0.012 A 
ATOM      4  C   UNL     1      24.035   8.997  14.409  1.00  0.00     0.047 A 
ATOM      5  C   UNL     1      23.961   9.506  12.046  1.00  0.00     0.047 A 
ATOM      6  C   UNL     1      24.039   8.566  13.080  1.00  0.00     0.115 A 
ENDROOT
BRANCH   1   7
ATOM      7  C   UNL     1      23.776  12.749  14.045  1.00  0.00     0.010 C 
ATOM      8  C   UNL     1      23.917  13.751  13.167  1.00  0.00     0.025 C 
BRANCH   8   9
ATOM      9  C   UNL     1      23.821  15.165  13.565  1.00  0.00     0.064 C 
ATOM     10  O   UNL     1      23.467  16.051  12.742  1.00  0.00    -0.545 OA
ATOM     11  O   UNL     1      24.125  15.529  14.870  1.00  0.00    -0.545 OA
ENDBRANCH   8   9
ENDBRANCH   1   7
BRANCH   6  12
ATOM     12  O   UNL     1      24.125   7.204  12.799  1.00  0.00    -0.508 OA
ATOM     13  H   UNL     1      24.950   6.665  13.037  1.00  0.00     0.293 HD
ENDBRANCH   6  12
TORSDOF 3
ENDMDL
MODEL 6
REMARK VINA RESULT:    -3.265     19.464     20.721
REMARK INTER + INTRA:          -3.892
REMARK INTER:                  -3.740
REMARK INTRA:                  -0.152
REMARK UNBOUND:                -0.150
REMARK SMILES O=C([O-])C=Cc1ccc(O)cc1
REMARK SMILES IDX 6 1 7 2 12 3 8 4 11 5 9 6 5 7 4 8 2 9 1 10 3 11 10 12
REMARK H PARENT 10 13
REMARK Flexibility Score: inf
ROOT
ATOM      1  C   UNL     1      23.769  11.298  13.647  1.00  0.00    -0.025 A 
ATOM      2  C   UNL     1      23.454  10.984  12.313  1.00  0.00     0.012 A 
ATOM      3  C   UNL     1      24.064  10.247  14.541  1.00  0.00     0.012 A 
ATOM      4  C   UNL     1      23.457   9.657  11.875  1.00  0.00     0.047 A 
ATOM      5  C   UNL     1      24.065   8.921  14.098  1.00  0.00     0.047 A 
ATOM      6  C   UNL     1      23.764   8.623  12.763  1.00  0.00     0.115 A 
ENDROOT
BRANCH   1   7
ATOM      7  C   UNL     1      23.743  12.721  14.067  1.00  0.00     0.010 C 
ATOM      8  C   UNL     1      23.740  13.751  13.209  1.00  0.00     0.025 C 
BRANCH   8   9
ATOM      9  C   UNL     1      23.702  15.152  13.663  1.00  0.00     0.064 C 
ATOM     10  O   UNL     1      24.006  15.462  14.845  1.00  0.00    -0.545 OA
ATOM     11  O   UNL     1      23.324  16.148  12.773  1.00  0.00    -0.545 OA
ENDBRANCH   8   9
ENDBRANCH   1   7
BRANCH   6  12
ATOM     12  O   UNL     1      23.764   7.305  12.312  1.00  0.00    -0.508 OA
ATOM     13  H   UNL     1      24.625   6.781  12.206  1.00  0.00     0.293 HD
ENDBRANCH   6  12
TORSDOF 3
ENDMDL
