MODEL 1
REMARK VINA RESULT:    -6.799      0.000      0.000
REMARK INTER + INTRA:          -7.471
REMARK INTER:                  -7.197
REMARK INTRA:                  -0.274
REMARK UNBOUND:                -0.274
REMARK SMILES C=C1CC[C@H](C(C)C)[C@H]2C=C(C)CC[C@H]12
REMARK SMILES IDX 12 1 11 2 10 3 9 4 15 5 14 6 13 7 2 8 1 9 3 10 4 11 5 12
REMARK SMILES IDX 6 13 7 14 8 15
REMARK H PARENT
REMARK Flexibility Score: inf
ROOT
ATOM      1  C   UNL     1      10.021  33.099  26.099  1.00  0.00     0.039 C 
ATOM      2  C   UNL     1       9.845  33.172  24.607  1.00  0.00    -0.077 C 
ATOM      3  C   UNL     1      10.931  33.042  23.812  1.00  0.00    -0.024 C 
ATOM      4  C   UNL     1      10.823  33.006  22.295  1.00  0.00     0.022 C 
ATOM      5  C   UNL     1       9.622  33.876  21.844  1.00  0.00     0.022 C 
ATOM      6  C   UNL     1       8.355  33.345  22.531  1.00  0.00     0.013 C 
ATOM      7  C   UNL     1       8.471  33.508  24.053  1.00  0.00     0.031 C 
ATOM      8  C   UNL     1       9.494  33.894  20.333  1.00  0.00    -0.074 C 
ATOM      9  C   UNL     1       8.584  34.675  19.729  1.00  0.00     0.008 C 
ATOM     10  C   UNL     1      10.471  33.089  19.516  1.00  0.00     0.031 C 
ATOM     11  C   UNL     1      11.915  33.357  19.977  1.00  0.00     0.009 C 
ATOM     12  C   UNL     1      12.112  33.454  21.530  1.00  0.00    -0.001 C 
ENDROOT
BRANCH  12  13
ATOM     13  C   UNL     1      13.435  32.761  22.003  1.00  0.00    -0.014 C 
ATOM     14  C   UNL     1      14.675  33.340  21.302  1.00  0.00     0.007 C 
ATOM     15  C   UNL     1      13.406  31.228  21.870  1.00  0.00     0.007 C 
ENDBRANCH  12  13
TORSDOF 1
ENDMDL
MODEL 2
REMARK VINA RESULT:    -6.496      1.063      4.183
REMARK INTER + INTRA:          -7.150
REMARK INTER:                  -6.870
REMARK INTRA:                  -0.280
REMARK UNBOUND:                -0.274
REMARK SMILES C=C1CC[C@H](C(C)C)[C@H]2C=C(C)CC[C@H]12
REMARK SMILES IDX 12 1 11 2 10 3 9 4 15 5 14 6 13 7 2 8 1 9 3 10 4 11 5 12
REMARK SMILES IDX 6 13 7 14 8 15
REMARK H PARENT
REMARK Flexibility Score: inf
ROOT
ATOM      1  C   UNL     1      14.973  32.723  21.875  1.00  0.00     0.039 C 
ATOM      2  C   UNL     1      13.590  33.041  21.378  1.00  0.00    -0.077 C 
ATOM      3  C   UNL     1      12.601  33.245  22.277  1.00  0.00    -0.024 C 
ATOM      4  C   UNL     1      11.202  33.666  21.857  1.00  0.00     0.022 C 
ATOM      5  C   UNL     1      10.880  33.070  20.464  1.00  0.00     0.022 C 
ATOM      6  C   UNL     1      11.954  33.547  19.474  1.00  0.00     0.013 C 
ATOM      7  C   UNL     1      13.329  33.002  19.882  1.00  0.00     0.031 C 
ATOM      8  C   UNL     1       9.479  33.439  20.017  1.00  0.00    -0.074 C 
ATOM      9  C   UNL     1       8.962  32.934  18.885  1.00  0.00     0.008 C 
ATOM     10  C   UNL     1       8.642  34.311  20.916  1.00  0.00     0.031 C 
ATOM     11  C   UNL     1       8.667  33.784  22.362  1.00  0.00     0.009 C 
ATOM     12  C   UNL     1      10.067  33.285  22.865  1.00  0.00    -0.001 C 
ENDROOT
BRANCH  12  13
ATOM     13  C   UNL     1      10.340  33.693  24.353  1.00  0.00    -0.014 C 
ATOM     14  C   UNL     1      10.450  32.469  25.279  1.00  0.00     0.007 C 
ATOM     15  C   UNL     1       9.320  34.701  24.910  1.00  0.00     0.007 C 
ENDBRANCH  12  13
TORSDOF 1
ENDMDL
MODEL 3
REMARK VINA RESULT:    -6.431      1.228      5.080
REMARK INTER + INTRA:          -7.080
REMARK INTER:                  -6.960
REMARK INTRA:                  -0.120
REMARK UNBOUND:                -0.274
REMARK SMILES C=C1CC[C@H](C(C)C)[C@H]2C=C(C)CC[C@H]12
REMARK SMILES IDX 12 1 11 2 10 3 9 4 15 5 14 6 13 7 2 8 1 9 3 10 4 11 5 12
REMARK SMILES IDX 6 13 7 14 8 15
REMARK H PARENT
REMARK Flexibility Score: inf
ROOT
ATOM      1  C   UNL     1      12.958  33.684  19.430  1.00  0.00     0.039 C 
ATOM      2  C   UNL     1      12.069  33.466  20.623  1.00  0.00    -0.077 C 
ATOM      3  C   UNL     1      10.728  33.467  20.450  1.00  0.00    -0.024 C 
ATOM      4  C   UNL     1       9.766  33.158  21.586  1.00  0.00     0.022 C 
ATOM      5  C   UNL     1      10.382  33.634  22.926  1.00  0.00     0.022 C 
ATOM      6  C   UNL     1      11.741  32.940  23.107  1.00  0.00     0.013 C 
ATOM      7  C   UNL     1      12.708  33.373  21.998  1.00  0.00     0.031 C 
ATOM      8  C   UNL     1       9.442  33.372  24.087  1.00  0.00    -0.074 C 
ATOM      9  C   UNL     1       9.738  33.807  25.323  1.00  0.00     0.008 C 
ATOM     10  C   UNL     1       8.124  32.698  23.810  1.00  0.00     0.031 C 
ATOM     11  C   UNL     1       7.407  33.371  22.626  1.00  0.00     0.009 C 
ATOM     12  C   UNL     1       8.333  33.766  21.423  1.00  0.00    -0.001 C 
ENDROOT
BRANCH  12  13
ATOM     13  C   UNL     1       7.653  33.492  20.039  1.00  0.00    -0.014 C 
ATOM     14  C   UNL     1       7.880  34.643  19.043  1.00  0.00     0.007 C 
ATOM     15  C   UNL     1       6.155  33.159  20.146  1.00  0.00     0.007 C 
ENDBRANCH  12  13
TORSDOF 1
ENDMDL
MODEL 4
REMARK VINA RESULT:    -6.247      2.525      4.775
REMARK INTER + INTRA:          -6.886
REMARK INTER:                  -6.615
REMARK INTRA:                  -0.271
REMARK UNBOUND:                -0.274
REMARK SMILES C=C1CC[C@H](C(C)C)[C@H]2C=C(C)CC[C@H]12
REMARK SMILES IDX 12 1 11 2 10 3 9 4 15 5 14 6 13 7 2 8 1 9 3 10 4 11 5 12
REMARK SMILES IDX 6 13 7 14 8 15
REMARK H PARENT
REMARK Flexibility Score: inf
ROOT
ATOM      1  C   UNL     1       5.989  28.928  22.720  1.00  0.00     0.039 C 
ATOM      2  C   UNL     1       6.729  30.089  23.326  1.00  0.00    -0.077 C 
ATOM      3  C   UNL     1       7.296  31.004  22.506  1.00  0.00    -0.024 C 
ATOM      4  C   UNL     1       7.976  32.255  23.039  1.00  0.00     0.022 C 
ATOM      5  C   UNL     1       8.601  31.951  24.424  1.00  0.00     0.022 C 
ATOM      6  C   UNL     1       7.489  31.449  25.358  1.00  0.00     0.013 C 
ATOM      7  C   UNL     1       6.914  30.127  24.833  1.00  0.00     0.031 C 
ATOM      8  C   UNL     1       9.318  33.165  24.982  1.00  0.00    -0.074 C 
ATOM      9  C   UNL     1      10.020  33.085  26.124  1.00  0.00     0.008 C 
ATOM     10  C   UNL     1       9.304  34.442  24.182  1.00  0.00     0.031 C 
ATOM     11  C   UNL     1       9.686  34.168  22.717  1.00  0.00     0.009 C 
ATOM     12  C   UNL     1       9.063  32.869  22.096  1.00  0.00    -0.001 C 
ENDROOT
BRANCH  12  13
ATOM     13  C   UNL     1       8.608  33.081  20.613  1.00  0.00    -0.014 C 
ATOM     14  C   UNL     1       9.355  32.156  19.638  1.00  0.00     0.007 C 
ATOM     15  C   UNL     1       8.700  34.544  20.146  1.00  0.00     0.007 C 
ENDBRANCH  12  13
TORSDOF 1
ENDMDL
MODEL 5
REMARK VINA RESULT:    -6.170      2.614      4.096
REMARK INTER + INTRA:          -6.804
REMARK INTER:                  -6.514
REMARK INTRA:                  -0.291
REMARK UNBOUND:                -0.274
REMARK SMILES C=C1CC[C@H](C(C)C)[C@H]2C=C(C)CC[C@H]12
REMARK SMILES IDX 12 1 11 2 10 3 9 4 15 5 14 6 13 7 2 8 1 9 3 10 4 11 5 12
REMARK SMILES IDX 6 13 7 14 8 15
REMARK H PARENT
REMARK Flexibility Score: inf
ROOT
ATOM      1  C   UNL     1       6.521  29.036  24.531  1.00  0.00     0.039 C 
ATOM      2  C   UNL     1       6.725  30.024  23.415  1.00  0.00    -0.077 C 
ATOM      3  C   UNL     1       7.577  31.057  23.602  1.00  0.00    -0.024 C 
ATOM      4  C   UNL     1       7.912  32.040  22.492  1.00  0.00     0.022 C 
ATOM      5  C   UNL     1       6.687  32.196  21.555  1.00  0.00     0.022 C 
ATOM      6  C   UNL     1       6.314  30.808  21.012  1.00  0.00     0.013 C 
ATOM      7  C   UNL     1       5.877  29.890  22.162  1.00  0.00     0.031 C 
ATOM      8  C   UNL     1       6.966  33.193  20.447  1.00  0.00    -0.074 C 
ATOM      9  C   UNL     1       5.999  33.555  19.588  1.00  0.00     0.008 C 
ATOM     10  C   UNL     1       8.324  33.840  20.384  1.00  0.00     0.031 C 
ATOM     11  C   UNL     1       8.732  34.384  21.765  1.00  0.00     0.009 C 
ATOM     12  C   UNL     1       8.383  33.451  22.978  1.00  0.00    -0.001 C 
ENDROOT
BRANCH  12  13
ATOM     13  C   UNL     1       9.520  33.433  24.056  1.00  0.00    -0.014 C 
ATOM     14  C   UNL     1       9.441  34.643  25.002  1.00  0.00     0.007 C 
ATOM     15  C   UNL     1      10.931  33.306  23.457  1.00  0.00     0.007 C 
ENDBRANCH  12  13
TORSDOF 1
ENDMDL
MODEL 6
REMARK VINA RESULT:    -6.145      1.010      3.891
REMARK INTER + INTRA:          -6.778
REMARK INTER:                  -6.558
REMARK INTRA:                  -0.220
REMARK UNBOUND:                -0.274
REMARK SMILES C=C1CC[C@H](C(C)C)[C@H]2C=C(C)CC[C@H]12
REMARK SMILES IDX 12 1 11 2 10 3 9 4 15 5 14 6 13 7 2 8 1 9 3 10 4 11 5 12
REMARK SMILES IDX 6 13 7 14 8 15
REMARK H PARENT
REMARK Flexibility Score: inf
ROOT
ATOM      1  C   UNL     1       7.360  33.133  25.356  1.00  0.00     0.039 C 
ATOM      2  C   UNL     1       8.641  33.106  24.568  1.00  0.00    -0.077 C 
ATOM      3  C   UNL     1       8.615  33.467  23.265  1.00  0.00    -0.024 C 
ATOM      4  C   UNL     1       9.881  33.561  22.428  1.00  0.00     0.022 C 
ATOM      5  C   UNL     1      10.910  32.517  22.931  1.00  0.00     0.022 C 
ATOM      6  C   UNL     1      11.176  32.780  24.422  1.00  0.00     0.013 C 
ATOM      7  C   UNL     1       9.893  32.562  25.234  1.00  0.00     0.031 C 
ATOM      8  C   UNL     1      12.180  32.554  22.104  1.00  0.00    -0.074 C 
ATOM      9  C   UNL     1      13.159  31.656  22.305  1.00  0.00     0.008 C 
ATOM     10  C   UNL     1      12.285  33.559  20.987  1.00  0.00     0.031 C 
ATOM     11  C   UNL     1      11.023  33.527  20.107  1.00  0.00     0.009 C 
ATOM     12  C   UNL     1       9.669  33.386  20.887  1.00  0.00    -0.001 C 
ENDROOT
BRANCH  12  13
ATOM     13  C   UNL     1       8.536  34.277  20.271  1.00  0.00    -0.014 C 
ATOM     14  C   UNL     1       7.263  33.468  19.970  1.00  0.00     0.007 C 
ATOM     15  C   UNL     1       8.983  35.065  19.028  1.00  0.00     0.007 C 
ENDBRANCH  12  13
TORSDOF 1
ENDMDL
MODEL 7
REMARK VINA RESULT:    -6.061      1.110      4.869
REMARK INTER + INTRA:          -6.689
REMARK INTER:                  -6.427
REMARK INTRA:                  -0.263
REMARK UNBOUND:                -0.274
REMARK SMILES C=C1CC[C@H](C(C)C)[C@H]2C=C(C)CC[C@H]12
REMARK SMILES IDX 12 1 11 2 10 3 9 4 15 5 14 6 13 7 2 8 1 9 3 10 4 11 5 12
REMARK SMILES IDX 6 13 7 14 8 15
REMARK H PARENT
REMARK Flexibility Score: inf
ROOT
ATOM      1  C   UNL     1       7.553  34.620  18.617  1.00  0.00     0.039 C 
ATOM      2  C   UNL     1       8.761  34.092  19.342  1.00  0.00    -0.077 C 
ATOM      3  C   UNL     1       8.682  33.872  20.674  1.00  0.00    -0.024 C 
ATOM      4  C   UNL     1       9.825  33.249  21.459  1.00  0.00     0.022 C 
ATOM      5  C   UNL     1      11.174  33.651  20.811  1.00  0.00     0.022 C 
ATOM      6  C   UNL     1      11.160  33.198  19.343  1.00  0.00     0.013 C 
ATOM      7  C   UNL     1      10.061  33.940  18.571  1.00  0.00     0.031 C 
ATOM      8  C   UNL     1      12.347  33.076  21.581  1.00  0.00    -0.074 C 
ATOM      9  C   UNL     1      13.610  33.392  21.250  1.00  0.00     0.008 C 
ATOM     10  C   UNL     1      12.067  32.214  22.785  1.00  0.00     0.031 C 
ATOM     11  C   UNL     1      11.044  32.894  23.713  1.00  0.00     0.009 C 
ATOM     12  C   UNL     1       9.849  33.603  22.983  1.00  0.00    -0.001 C 
ENDROOT
BRANCH  12  13
ATOM     13  C   UNL     1       8.490  33.392  23.732  1.00  0.00    -0.014 C 
ATOM     14  C   UNL     1       8.563  33.836  25.203  1.00  0.00     0.007 C 
ATOM     15  C   UNL     1       7.948  31.956  23.628  1.00  0.00     0.007 C 
ENDBRANCH  12  13
TORSDOF 1
ENDMDL
MODEL 8
REMARK VINA RESULT:    -5.810      1.235      3.976
REMARK INTER + INTRA:          -6.424
REMARK INTER:                  -6.214
REMARK INTRA:                  -0.209
REMARK UNBOUND:                -0.274
REMARK SMILES C=C1CC[C@H](C(C)C)[C@H]2C=C(C)CC[C@H]12
REMARK SMILES IDX 12 1 11 2 10 3 9 4 15 5 14 6 13 7 2 8 1 9 3 10 4 11 5 12
REMARK SMILES IDX 6 13 7 14 8 15
REMARK H PARENT
REMARK Flexibility Score: inf
ROOT
ATOM      1  C   UNL     1       7.337  33.549  18.599  1.00  0.00     0.039 C 
ATOM      2  C   UNL     1       7.702  33.433  20.054  1.00  0.00    -0.077 C 
ATOM      3  C   UNL     1       9.006  33.320  20.394  1.00  0.00    -0.024 C 
ATOM      4  C   UNL     1       9.463  33.296  21.844  1.00  0.00     0.022 C 
ATOM      5  C   UNL     1       8.365  32.639  22.720  1.00  0.00     0.022 C 
ATOM      6  C   UNL     1       7.060  33.429  22.533  1.00  0.00     0.013 C 
ATOM      7  C   UNL     1       6.585  33.326  21.077  1.00  0.00     0.031 C 
ATOM      8  C   UNL     1       8.791  32.567  24.173  1.00  0.00    -0.074 C 
ATOM      9  C   UNL     1       8.030  31.936  25.083  1.00  0.00     0.008 C 
ATOM     10  C   UNL     1      10.131  33.135  24.561  1.00  0.00     0.031 C 
ATOM     11  C   UNL     1      11.232  32.630  23.611  1.00  0.00     0.009 C 
ATOM     12  C   UNL     1      10.831  32.579  22.094  1.00  0.00    -0.001 C 
ENDROOT
BRANCH  12  13
ATOM     13  C   UNL     1      11.999  33.041  21.158  1.00  0.00    -0.014 C 
ATOM     14  C   UNL     1      12.277  32.027  20.035  1.00  0.00     0.007 C 
ATOM     15  C   UNL     1      13.296  33.377  21.915  1.00  0.00     0.007 C 
ENDBRANCH  12  13
TORSDOF 1
ENDMDL
MODEL 9
REMARK VINA RESULT:    -5.778      1.795      4.460
REMARK INTER + INTRA:          -6.389
REMARK INTER:                  -6.105
REMARK INTRA:                  -0.284
REMARK UNBOUND:                -0.274
REMARK SMILES C=C1CC[C@H](C(C)C)[C@H]2C=C(C)CC[C@H]12
REMARK SMILES IDX 12 1 11 2 10 3 9 4 15 5 14 6 13 7 2 8 1 9 3 10 4 11 5 12
REMARK SMILES IDX 6 13 7 14 8 15
REMARK H PARENT
REMARK Flexibility Score: inf
ROOT
ATOM      1  C   UNL     1      13.992  31.325  21.916  1.00  0.00     0.039 C 
ATOM      2  C   UNL     1      12.509  31.482  21.725  1.00  0.00    -0.077 C 
ATOM      3  C   UNL     1      11.787  32.105  22.683  1.00  0.00    -0.024 C 
ATOM      4  C   UNL     1      10.302  32.389  22.520  1.00  0.00     0.022 C 
ATOM      5  C   UNL     1       9.657  31.280  21.651  1.00  0.00     0.022 C 
ATOM      6  C   UNL     1      10.393  31.231  20.304  1.00  0.00     0.013 C 
ATOM      7  C   UNL     1      11.860  30.831  20.516  1.00  0.00     0.031 C 
ATOM      8  C   UNL     1       8.167  31.507  21.486  1.00  0.00    -0.074 C 
ATOM      9  C   UNL     1       7.399  30.602  20.858  1.00  0.00     0.008 C 
ATOM     10  C   UNL     1       7.548  32.724  22.123  1.00  0.00     0.031 C 
ATOM     11  C   UNL     1       7.993  32.855  23.590  1.00  0.00     0.009 C 
ATOM     12  C   UNL     1       9.506  32.536  23.859  1.00  0.00    -0.001 C 
ENDROOT
BRANCH  12  13
ATOM     13  C   UNL     1      10.141  33.517  24.902  1.00  0.00    -0.014 C 
ATOM     14  C   UNL     1      10.287  32.873  26.291  1.00  0.00     0.007 C 
ATOM     15  C   UNL     1       9.404  34.863  25.006  1.00  0.00     0.007 C 
ENDBRANCH  12  13
TORSDOF 1
ENDMDL
