MODEL 1
REMARK VINA RESULT:    64.110      0.000      0.000
REMARK INTER + INTRA:          89.891
REMARK INTER:                  90.345
REMARK INTRA:                  -0.454
REMARK UNBOUND:                -0.454
REMARK SMILES C[C@@H](CO)CCC(=O)[C@@H](C)[C@@H]1C(=O)C[C@@H]2[C@@H]3CC=C4C[C@@H](O)CC[C@@]4(C)[C@H]3CC[C@@]21C
REMARK SMILES IDX 6 1 5 2 2 3 1 4 3 5 4 6 7 8 8 9 9 10 10 11 11 12 12 13 30 14
REMARK SMILES IDX 13 15 14 16 15 17 29 18 31 19 16 20 28 21 27 22 17 23 25 24
REMARK SMILES IDX 18 25 19 26 24 27 26 28 20 29 23 30 21 31 22 32
REMARK H PARENT 4 7 22 33
REMARK Flexibility Score: inf
ROOT
ATOM      1  C   UNL     1      -0.018  -2.533  18.221  1.00  0.00     0.076 C 
ENDROOT
BRANCH   1   2
ATOM      2  C   UNL     1       0.311  -1.207  18.922  1.00  0.00     0.013 C 
BRANCH   2   3
ATOM      3  C   UNL     1       0.621  -0.055  17.937  1.00  0.00     0.012 C 
ATOM      4  C   UNL     1      -0.638   0.271  17.119  1.00  0.00     0.010 C 
BRANCH   3   5
ATOM      5  C   UNL     1       1.121   1.216  18.653  1.00  0.00     0.159 C 
BRANCH   5   6
ATOM      6  O   UNL     1       0.112   1.747  19.467  1.00  0.00    -0.396 OA
ATOM      7  H   UNL     1      -0.460   2.301  18.874  1.00  0.00     0.210 HD
ENDBRANCH   5   6
ENDBRANCH   3   5
ENDBRANCH   2   3
ENDBRANCH   1   2
BRANCH   1   8
ATOM      8  C   UNL     1       0.606  -3.688  18.957  1.00  0.00     0.136 C 
ATOM      9  O   UNL     1       0.934  -3.545  20.126  1.00  0.00    -0.299 OA
BRANCH   8  10
ATOM     10  C   UNL     1       0.856  -5.009  18.255  1.00  0.00     0.064 C 
ATOM     11  C   UNL     1       1.123  -6.096  19.315  1.00  0.00     0.017 C 
BRANCH  10  12
ATOM     12  C   UNL     1      -0.303  -5.300  17.237  1.00  0.00     0.072 C 
ATOM     13  C   UNL     1      -1.487  -6.051  17.759  1.00  0.00     0.137 C 
ATOM     14  C   UNL     1       0.060  -6.079  15.931  1.00  0.00    -0.019 C 
ATOM     15  O   UNL     1      -2.009  -5.837  18.843  1.00  0.00    -0.299 OA
ATOM     16  C   UNL     1      -2.067  -6.983  16.756  1.00  0.00     0.080 C 
ATOM     17  C   UNL     1      -1.324  -6.606  15.459  1.00  0.00     0.007 C 
ATOM     18  C   UNL     1       1.003  -7.285  16.214  1.00  0.00     0.008 C 
ATOM     19  C   UNL     1       0.684  -5.120  14.888  1.00  0.00     0.012 C 
ATOM     20  C   UNL     1      -1.278  -7.707  14.354  1.00  0.00     0.001 C 
ATOM     21  C   UNL     1       1.124  -8.245  15.030  1.00  0.00     0.005 C 
ATOM     22  C   UNL     1      -0.256  -8.830  14.629  1.00  0.00     0.003 C 
ATOM     23  C   UNL     1      -2.668  -8.332  14.144  1.00  0.00     0.031 C 
ATOM     24  C   UNL     1      -0.182  -9.866  13.428  1.00  0.00    -0.008 C 
ATOM     25  C   UNL     1      -2.654  -9.402  13.098  1.00  0.00    -0.027 C 
ATOM     26  C   UNL     1      -1.560 -10.137  12.804  1.00  0.00    -0.065 C 
ATOM     27  C   UNL     1       0.764  -9.369  12.275  1.00  0.00     0.014 C 
ATOM     28  C   UNL     1       0.350 -11.203  14.015  1.00  0.00     0.016 C 
ATOM     29  C   UNL     1      -1.648 -11.121  11.646  1.00  0.00     0.063 C 
ATOM     30  C   UNL     1       0.342  -9.761  10.837  1.00  0.00     0.033 C 
ATOM     31  C   UNL     1      -0.374 -11.115  10.765  1.00  0.00     0.118 C 
BRANCH  31  32
ATOM     32  O   UNL     1      -0.715 -11.378   9.429  1.00  0.00    -0.393 OA
ATOM     33  H   UNL     1      -1.550 -10.875   9.242  1.00  0.00     0.210 HD
ENDBRANCH  31  32
ENDBRANCH  10  12
ENDBRANCH   8  10
ENDBRANCH   1   8
TORSDOF 8
ENDMDL
MODEL 2
REMARK VINA RESULT:    64.509     11.761     15.162
REMARK INTER + INTRA:          90.454
REMARK INTER:                  87.438
REMARK INTRA:                   3.016
REMARK UNBOUND:                -0.454
REMARK SMILES C[C@@H](CO)CCC(=O)[C@@H](C)[C@@H]1C(=O)C[C@@H]2[C@@H]3CC=C4C[C@@H](O)CC[C@@]4(C)[C@H]3CC[C@@]21C
REMARK SMILES IDX 6 1 5 2 2 3 1 4 3 5 4 6 7 8 8 9 9 10 10 11 11 12 12 13 30 14
REMARK SMILES IDX 13 15 14 16 15 17 29 18 31 19 16 20 28 21 27 22 17 23 25 24
REMARK SMILES IDX 18 25 19 26 24 27 26 28 20 29 23 30 21 31 22 32
REMARK H PARENT 4 7 22 33
REMARK Flexibility Score: inf
ROOT
ATOM      1  C   UNL     1     -15.514  -3.186  14.008  1.00  0.00     0.076 C 
ENDROOT
BRANCH   1   2
ATOM      2  C   UNL     1     -16.575  -2.398  14.790  1.00  0.00     0.013 C 
BRANCH   2   3
ATOM      3  C   UNL     1     -17.131  -3.168  16.011  1.00  0.00     0.012 C 
ATOM      4  C   UNL     1     -16.260  -2.876  17.241  1.00  0.00     0.010 C 
BRANCH   3   5
ATOM      5  C   UNL     1     -18.601  -2.811  16.315  1.00  0.00     0.159 C 
BRANCH   5   6
ATOM      6  O   UNL     1     -19.007  -1.715  15.542  1.00  0.00    -0.396 OA
ATOM      7  H   UNL     1     -19.742  -1.278  16.046  1.00  0.00     0.210 HD
ENDBRANCH   5   6
ENDBRANCH   3   5
ENDBRANCH   2   3
ENDBRANCH   1   2
BRANCH   1   8
ATOM      8  C   UNL     1     -15.184  -2.488  12.716  1.00  0.00     0.136 C 
ATOM      9  O   UNL     1     -15.606  -2.946  11.664  1.00  0.00    -0.299 OA
BRANCH   8  10
ATOM     10  C   UNL     1     -14.313  -1.246  12.708  1.00  0.00     0.064 C 
ATOM     11  C   UNL     1     -14.877  -0.232  13.725  1.00  0.00     0.017 C 
BRANCH  10  12
ATOM     12  C   UNL     1     -12.807  -1.649  12.891  1.00  0.00     0.072 C 
ATOM     13  C   UNL     1     -12.532  -2.904  13.660  1.00  0.00     0.137 C 
ATOM     14  C   UNL     1     -11.856  -0.607  13.566  1.00  0.00    -0.019 C 
ATOM     15  O   UNL     1     -13.166  -3.940  13.526  1.00  0.00    -0.299 OA
ATOM     16  C   UNL     1     -11.305  -2.812  14.494  1.00  0.00     0.080 C 
ATOM     17  C   UNL     1     -10.663  -1.492  14.025  1.00  0.00     0.007 C 
ATOM     18  C   UNL     1     -12.512   0.061  14.809  1.00  0.00     0.008 C 
ATOM     19  C   UNL     1     -11.407   0.457  12.537  1.00  0.00     0.012 C 
ATOM     20  C   UNL     1      -9.679  -0.816  15.031  1.00  0.00     0.001 C 
ATOM     21  C   UNL     1     -11.516   0.839  15.670  1.00  0.00     0.005 C 
ATOM     22  C   UNL     1     -10.379  -0.079  16.193  1.00  0.00     0.003 C 
ATOM     23  C   UNL     1      -8.693  -1.845  15.609  1.00  0.00     0.031 C 
ATOM     24  C   UNL     1      -9.336   0.671  17.126  1.00  0.00    -0.008 C 
ATOM     25  C   UNL     1      -7.744  -1.229  16.589  1.00  0.00    -0.027 C 
ATOM     26  C   UNL     1      -8.039  -0.132  17.318  1.00  0.00    -0.065 C 
ATOM     27  C   UNL     1      -8.934   2.079  16.554  1.00  0.00     0.014 C 
ATOM     28  C   UNL     1     -10.009   0.832  18.518  1.00  0.00     0.016 C 
ATOM     29  C   UNL     1      -6.949   0.457  18.201  1.00  0.00     0.063 C 
ATOM     30  C   UNL     1      -7.474   2.525  16.818  1.00  0.00     0.033 C 
ATOM     31  C   UNL     1      -6.913   2.005  18.147  1.00  0.00     0.118 C 
BRANCH  31  32
ATOM     32  O   UNL     1      -5.593   2.459  18.291  1.00  0.00    -0.393 OA
ATOM     33  H   UNL     1      -5.537   3.331  17.819  1.00  0.00     0.210 HD
ENDBRANCH  31  32
ENDBRANCH  10  12
ENDBRANCH   8  10
ENDBRANCH   1   8
TORSDOF 8
ENDMDL
MODEL 3
REMARK VINA RESULT:    64.530     11.678     15.069
REMARK INTER + INTRA:          90.483
REMARK INTER:                  87.517
REMARK INTRA:                   2.967
REMARK UNBOUND:                -0.454
REMARK SMILES C[C@@H](CO)CCC(=O)[C@@H](C)[C@@H]1C(=O)C[C@@H]2[C@@H]3CC=C4C[C@@H](O)CC[C@@]4(C)[C@H]3CC[C@@]21C
REMARK SMILES IDX 6 1 5 2 2 3 1 4 3 5 4 6 7 8 8 9 9 10 10 11 11 12 12 13 30 14
REMARK SMILES IDX 13 15 14 16 15 17 29 18 31 19 16 20 28 21 27 22 17 23 25 24
REMARK SMILES IDX 18 25 19 26 24 27 26 28 20 29 23 30 21 31 22 32
REMARK H PARENT 4 7 22 33
REMARK Flexibility Score: inf
ROOT
ATOM      1  C   UNL     1     -15.677  -2.829  14.353  1.00  0.00     0.076 C 
ENDROOT
BRANCH   1   2
ATOM      2  C   UNL     1     -16.523  -1.722  14.999  1.00  0.00     0.013 C 
BRANCH   2   3
ATOM      3  C   UNL     1     -17.323  -2.206  16.232  1.00  0.00     0.012 C 
ATOM      4  C   UNL     1     -18.797  -2.395  15.845  1.00  0.00     0.010 C 
BRANCH   3   5
ATOM      5  C   UNL     1     -16.765  -3.519  16.820  1.00  0.00     0.159 C 
BRANCH   5   6
ATOM      6  O   UNL     1     -15.660  -3.255  17.641  1.00  0.00    -0.396 OA
ATOM      7  H   UNL     1     -15.799  -3.784  18.470  1.00  0.00     0.210 HD
ENDBRANCH   5   6
ENDBRANCH   3   5
ENDBRANCH   2   3
ENDBRANCH   1   2
BRANCH   1   8
ATOM      8  C   UNL     1     -15.261  -2.431  12.963  1.00  0.00     0.136 C 
ATOM      9  O   UNL     1     -15.630  -3.106  12.012  1.00  0.00    -0.299 OA
BRANCH   8  10
ATOM     10  C   UNL     1     -14.368  -1.226  12.736  1.00  0.00     0.064 C 
ATOM     11  C   UNL     1     -14.866  -0.062  13.618  1.00  0.00     0.017 C 
BRANCH  10  12
ATOM     12  C   UNL     1     -12.863  -1.636  12.911  1.00  0.00     0.072 C 
ATOM     13  C   UNL     1     -12.590  -2.891  13.679  1.00  0.00     0.137 C 
ATOM     14  C   UNL     1     -11.903  -0.598  13.580  1.00  0.00    -0.019 C 
ATOM     15  O   UNL     1     -13.230  -3.924  13.550  1.00  0.00    -0.299 OA
ATOM     16  C   UNL     1     -11.358  -2.805  14.506  1.00  0.00     0.080 C 
ATOM     17  C   UNL     1     -10.712  -1.488  14.033  1.00  0.00     0.007 C 
ATOM     18  C   UNL     1     -12.549   0.074  14.826  1.00  0.00     0.008 C 
ATOM     19  C   UNL     1     -11.455   0.463  12.547  1.00  0.00     0.012 C 
ATOM     20  C   UNL     1      -9.719  -0.816  15.032  1.00  0.00     0.001 C 
ATOM     21  C   UNL     1     -11.544   0.848  15.681  1.00  0.00     0.005 C 
ATOM     22  C   UNL     1     -10.409  -0.075  16.198  1.00  0.00     0.003 C 
ATOM     23  C   UNL     1      -8.735  -1.849  15.606  1.00  0.00     0.031 C 
ATOM     24  C   UNL     1      -9.358   0.671  17.125  1.00  0.00    -0.008 C 
ATOM     25  C   UNL     1      -7.778  -1.237  16.580  1.00  0.00    -0.027 C 
ATOM     26  C   UNL     1      -8.063  -0.138  17.310  1.00  0.00    -0.065 C 
ATOM     27  C   UNL     1      -8.952   2.077  16.549  1.00  0.00     0.014 C 
ATOM     28  C   UNL     1     -10.022   0.837  18.520  1.00  0.00     0.016 C 
ATOM     29  C   UNL     1      -6.965   0.447  18.186  1.00  0.00     0.063 C 
ATOM     30  C   UNL     1      -7.489   2.516  16.804  1.00  0.00     0.033 C 
ATOM     31  C   UNL     1      -6.923   1.995  18.130  1.00  0.00     0.118 C 
BRANCH  31  32
ATOM     32  O   UNL     1      -5.600   2.443  18.266  1.00  0.00    -0.393 OA
ATOM     33  H   UNL     1      -5.048   1.901  17.644  1.00  0.00     0.210 HD
ENDBRANCH  31  32
ENDBRANCH  10  12
ENDBRANCH   8  10
ENDBRANCH   1   8
TORSDOF 8
ENDMDL
MODEL 4
REMARK VINA RESULT:    64.821      6.171      9.422
REMARK INTER + INTRA:          90.894
REMARK INTER:                  91.410
REMARK INTRA:                  -0.516
REMARK UNBOUND:                -0.454
REMARK SMILES C[C@@H](CO)CCC(=O)[C@@H](C)[C@@H]1C(=O)C[C@@H]2[C@@H]3CC=C4C[C@@H](O)CC[C@@]4(C)[C@H]3CC[C@@]21C
REMARK SMILES IDX 6 1 5 2 2 3 1 4 3 5 4 6 7 8 8 9 9 10 10 11 11 12 12 13 30 14
REMARK SMILES IDX 13 15 14 16 15 17 29 18 31 19 16 20 28 21 27 22 17 23 25 24
REMARK SMILES IDX 18 25 19 26 24 27 26 28 20 29 23 30 21 31 22 32
REMARK H PARENT 4 7 22 33
REMARK Flexibility Score: inf
ROOT
ATOM      1  C   UNL     1      -0.252  -4.779  19.329  1.00  0.00     0.076 C 
ENDROOT
BRANCH   1   2
ATOM      2  C   UNL     1       0.777  -4.860  18.192  1.00  0.00     0.013 C 
BRANCH   2   3
ATOM      3  C   UNL     1       0.663  -6.157  17.356  1.00  0.00     0.012 C 
ATOM      4  C   UNL     1      -0.790  -6.656  17.381  1.00  0.00     0.010 C 
BRANCH   3   5
ATOM      5  C   UNL     1       1.122  -5.962  15.897  1.00  0.00     0.159 C 
BRANCH   5   6
ATOM      6  O   UNL     1       0.065  -6.219  15.014  1.00  0.00    -0.396 OA
ATOM      7  H   UNL     1      -0.633  -5.542  15.212  1.00  0.00     0.210 HD
ENDBRANCH   5   6
ENDBRANCH   3   5
ENDBRANCH   2   3
ENDBRANCH   1   2
BRANCH   1   8
ATOM      8  C   UNL     1      -1.111  -3.552  19.177  1.00  0.00     0.136 C 
ATOM      9  O   UNL     1      -0.578  -2.453  19.121  1.00  0.00    -0.299 OA
BRANCH   8  10
ATOM     10  C   UNL     1      -2.622  -3.667  19.124  1.00  0.00     0.064 C 
ATOM     11  C   UNL     1      -3.114  -4.392  20.394  1.00  0.00     0.017 C 
BRANCH  10  12
ATOM     12  C   UNL     1      -3.254  -2.259  18.838  1.00  0.00     0.072 C 
ATOM     13  C   UNL     1      -3.867  -1.545  20.002  1.00  0.00     0.137 C 
ATOM     14  C   UNL     1      -4.371  -2.175  17.747  1.00  0.00    -0.019 C 
ATOM     15  O   UNL     1      -3.362  -1.492  21.114  1.00  0.00    -0.299 OA
ATOM     16  C   UNL     1      -5.080  -0.770  19.630  1.00  0.00     0.080 C 
ATOM     17  C   UNL     1      -5.075  -0.833  18.090  1.00  0.00     0.007 C 
ATOM     18  C   UNL     1      -5.394  -3.342  17.869  1.00  0.00     0.008 C 
ATOM     19  C   UNL     1      -3.740  -2.137  16.334  1.00  0.00     0.012 C 
ATOM     20  C   UNL     1      -6.452  -0.603  17.393  1.00  0.00     0.001 C 
ATOM     21  C   UNL     1      -6.658  -3.123  17.036  1.00  0.00     0.005 C 
ATOM     22  C   UNL     1      -7.396  -1.823  17.452  1.00  0.00     0.003 C 
ATOM     23  C   UNL     1      -7.172   0.619  17.988  1.00  0.00     0.031 C 
ATOM     24  C   UNL     1      -8.738  -1.569  16.644  1.00  0.00    -0.008 C 
ATOM     25  C   UNL     1      -8.503   0.857  17.348  1.00  0.00    -0.027 C 
ATOM     26  C   UNL     1      -9.244  -0.124  16.790  1.00  0.00    -0.065 C 
ATOM     27  C   UNL     1      -8.567  -1.851  15.107  1.00  0.00     0.014 C 
ATOM     28  C   UNL     1      -9.815  -2.516  17.244  1.00  0.00     0.016 C 
ATOM     29  C   UNL     1     -10.531   0.266  16.078  1.00  0.00     0.063 C 
ATOM     30  C   UNL     1      -9.389  -0.945  14.156  1.00  0.00     0.033 C 
ATOM     31  C   UNL     1     -10.733  -0.506  14.750  1.00  0.00     0.118 C 
BRANCH  31  32
ATOM     32  O   UNL     1     -11.396   0.307  13.819  1.00  0.00    -0.393 OA
ATOM     33  H   UNL     1     -10.777   0.429  13.053  1.00  0.00     0.210 HD
ENDBRANCH  31  32
ENDBRANCH  10  12
ENDBRANCH   8  10
ENDBRANCH   1   8
TORSDOF 8
ENDMDL
