MODEL 1
REMARK VINA RESULT:     0.306      0.000      0.000
REMARK INTER + INTRA:           0.338
REMARK INTER:                   0.350
REMARK INTRA:                  -0.012
REMARK UNBOUND:                -0.012
REMARK SMILES CC=Cc1ccc(O)c(OC)c1
REMARK SMILES IDX 4 1 12 2 9 3 7 4 6 5 5 6 3 7 1 8 2 9 10 10 11 11 8 12
REMARK H PARENT 8 13
REMARK Flexibility Score: inf
ROOT
ATOM      1  C   UNL     1      93.839  15.547 120.422  1.00  0.00    -0.022 A 
ATOM      2  C   UNL     1      92.929  16.355 121.125  1.00  0.00     0.058 A 
ATOM      3  C   UNL     1      92.178  17.339 120.451  1.00  0.00     0.161 A 
ATOM      4  C   UNL     1      92.332  17.493 119.066  1.00  0.00     0.157 A 
ATOM      5  C   UNL     1      93.216  16.666 118.361  1.00  0.00     0.051 A 
ATOM      6  C   UNL     1      93.958  15.693 119.034  1.00  0.00     0.012 A 
ENDROOT
BRANCH   1   7
ATOM      7  C   UNL     1      94.619  14.494 121.104  1.00  0.00     0.003 C 
ATOM      8  C   UNL     1      93.043  12.638 120.499  1.00  0.00     0.035 C 
ATOM      9  C   UNL     1      94.286  13.195 121.125  1.00  0.00    -0.030 C 
ENDBRANCH   1   7
BRANCH   3  10
ATOM     10  O   UNL     1      91.271  18.176 121.121  1.00  0.00    -0.493 OA
ATOM     11  C   UNL     1      89.857  18.112 120.977  1.00  0.00     0.278 C 
ENDBRANCH   3  10
BRANCH   4  12
ATOM     12  O   UNL     1      91.595  18.467 118.395  1.00  0.00    -0.504 OA
ATOM     13  H   UNL     1      90.801  18.924 118.829  1.00  0.00     0.293 HD
ENDBRANCH   4  12
TORSDOF 3
ENDMDL
MODEL 2
REMARK VINA RESULT:     0.826      1.893      4.395
REMARK INTER + INTRA:           0.934
REMARK INTER:                   0.762
REMARK INTRA:                   0.171
REMARK UNBOUND:                -0.012
REMARK SMILES CC=Cc1ccc(O)c(OC)c1
REMARK SMILES IDX 4 1 12 2 9 3 7 4 6 5 5 6 3 7 1 8 2 9 10 10 11 11 8 12
REMARK H PARENT 8 13
REMARK Flexibility Score: inf
ROOT
ATOM      1  C   UNL     1      91.652  17.741 120.420  1.00  0.00    -0.022 A 
ATOM      2  C   UNL     1      92.485  16.853 121.122  1.00  0.00     0.058 A 
ATOM      3  C   UNL     1      93.398  16.032 120.430  1.00  0.00     0.161 A 
ATOM      4  C   UNL     1      93.485  16.124 119.034  1.00  0.00     0.157 A 
ATOM      5  C   UNL     1      92.677  17.032 118.338  1.00  0.00     0.051 A 
ATOM      6  C   UNL     1      91.773  17.842 119.028  1.00  0.00     0.012 A 
ENDROOT
BRANCH   1   7
ATOM      7  C   UNL     1      90.703  18.627 121.125  1.00  0.00     0.003 C 
ATOM      8  C   UNL     1      88.690  17.842 119.850  1.00  0.00     0.035 C 
ATOM      9  C   UNL     1      89.383  18.663 120.895  1.00  0.00    -0.030 C 
ENDBRANCH   1   7
BRANCH   3  10
ATOM     10  O   UNL     1      94.235  15.121 121.095  1.00  0.00    -0.493 OA
ATOM     11  C   UNL     1      94.033  13.712 121.122  1.00  0.00     0.278 C 
ENDBRANCH   3  10
BRANCH   4  12
ATOM     12  O   UNL     1      94.384  15.312 118.345  1.00  0.00    -0.504 OA
ATOM     13  H   UNL     1      95.374  15.314 118.562  1.00  0.00     0.293 HD
ENDBRANCH   4  12
TORSDOF 3
ENDMDL
MODEL 3
REMARK VINA RESULT:     0.986      1.705      2.446
REMARK INTER + INTRA:           1.117
REMARK INTER:                   0.382
REMARK INTRA:                   0.735
REMARK UNBOUND:                -0.012
REMARK SMILES CC=Cc1ccc(O)c(OC)c1
REMARK SMILES IDX 4 1 12 2 9 3 7 4 6 5 5 6 3 7 1 8 2 9 10 10 11 11 8 12
REMARK H PARENT 8 13
REMARK Flexibility Score: inf
ROOT
ATOM      1  C   UNL     1      94.612  16.335 120.458  1.00  0.00    -0.022 A 
ATOM      2  C   UNL     1      93.621  17.076 121.125  1.00  0.00     0.058 A 
ATOM      3  C   UNL     1      92.404  17.384 120.482  1.00  0.00     0.161 A 
ATOM      4  C   UNL     1      92.182  16.926 119.176  1.00  0.00     0.157 A 
ATOM      5  C   UNL     1      93.157  16.161 118.524  1.00  0.00     0.051 A 
ATOM      6  C   UNL     1      94.360  15.860 119.165  1.00  0.00     0.012 A 
ENDROOT
BRANCH   1   7
ATOM      7  C   UNL     1      95.884  15.982 121.120  1.00  0.00     0.003 C 
ATOM      8  C   UNL     1      97.248  17.685 119.881  1.00  0.00     0.035 C 
ATOM      9  C   UNL     1      97.057  16.590 120.887  1.00  0.00    -0.030 C 
ENDBRANCH   1   7
BRANCH   3  10
ATOM     10  O   UNL     1      91.398  18.135 121.110  1.00  0.00    -0.493 OA
ATOM     11  C   UNL     1      90.026  18.120 120.732  1.00  0.00     0.278 C 
ENDBRANCH   3  10
BRANCH   4  12
ATOM     12  O   UNL     1      90.983  17.230 118.535  1.00  0.00    -0.504 OA
ATOM     13  H   UNL     1      90.451  18.060 118.770  1.00  0.00     0.293 HD
ENDBRANCH   4  12
TORSDOF 3
ENDMDL
