MODEL 1
REMARK VINA RESULT:    -3.917      0.000      0.000
REMARK INTER + INTRA:          -4.819
REMARK INTER:                  -4.718
REMARK INTRA:                  -0.101
REMARK UNBOUND:                -0.101
REMARK SMILES OCCc1ccc(O)c(O)c1
REMARK SMILES IDX 3 1 4 2 5 3 6 4 7 5 11 6 9 7 8 8 10 10 2 12 1 13
REMARK H PARENT 8 9 10 11 1 14
REMARK Flexibility Score: inf
ROOT
ATOM      1  C   UNL     1      53.105   7.308 -48.485  1.00  0.00     0.064 C 
ENDROOT
BRANCH   1   2
ATOM      2  C   UNL     1      53.463   7.556 -47.044  1.00  0.00    -0.042 A 
ATOM      3  C   UNL     1      52.507   7.366 -46.034  1.00  0.00     0.008 A 
ATOM      4  C   UNL     1      52.848   7.566 -44.694  1.00  0.00     0.050 A 
ATOM      5  C   UNL     1      54.151   7.947 -44.346  1.00  0.00     0.157 A 
ATOM      6  C   UNL     1      54.771   7.925 -46.691  1.00  0.00     0.054 A 
ATOM      7  C   UNL     1      55.115   8.125 -45.347  1.00  0.00     0.157 A 
BRANCH   5   8
ATOM      8  O   UNL     1      54.495   8.148 -43.010  1.00  0.00    -0.504 OA
ATOM      9  H   UNL     1      55.435   7.976 -42.674  1.00  0.00     0.293 HD
ENDBRANCH   5   8
BRANCH   7  10
ATOM     10  O   UNL     1      56.412   8.498 -44.998  1.00  0.00    -0.504 OA
ATOM     11  H   UNL     1      57.185   7.845 -45.053  1.00  0.00     0.293 HD
ENDBRANCH   7  10
ENDBRANCH   1   2
BRANCH   1  12
ATOM     12  C   UNL     1      53.624   8.440 -49.373  1.00  0.00     0.161 C 
BRANCH  12  13
ATOM     13  O   UNL     1      52.714   9.507 -49.378  1.00  0.00    -0.396 OA
ATOM     14  H   UNL     1      53.094  10.207 -48.786  1.00  0.00     0.210 HD
ENDBRANCH  12  13
ENDBRANCH   1  12
TORSDOF 5
ENDMDL
MODEL 2
REMARK VINA RESULT:    -3.779      1.612      5.060
REMARK INTER + INTRA:          -4.653
REMARK INTER:                  -4.555
REMARK INTRA:                  -0.098
REMARK UNBOUND:                -0.101
REMARK SMILES OCCc1ccc(O)c(O)c1
REMARK SMILES IDX 3 1 4 2 5 3 6 4 7 5 11 6 9 7 8 8 10 10 2 12 1 13
REMARK H PARENT 8 9 10 11 1 14
REMARK Flexibility Score: inf
ROOT
ATOM      1  C   UNL     1      55.066   6.736 -46.230  1.00  0.00     0.064 C 
ENDROOT
BRANCH   1   2
ATOM      2  C   UNL     1      54.825   7.106 -47.670  1.00  0.00    -0.042 A 
ATOM      3  C   UNL     1      55.462   6.396 -48.699  1.00  0.00     0.008 A 
ATOM      4  C   UNL     1      55.215   6.718 -50.036  1.00  0.00     0.050 A 
ATOM      5  C   UNL     1      54.320   7.746 -50.360  1.00  0.00     0.157 A 
ATOM      6  C   UNL     1      53.919   8.127 -47.998  1.00  0.00     0.054 A 
ATOM      7  C   UNL     1      53.669   8.451 -49.339  1.00  0.00     0.157 A 
BRANCH   5   8
ATOM      8  O   UNL     1      54.071   8.071 -51.693  1.00  0.00    -0.504 OA
ATOM      9  H   UNL     1      53.154   7.951 -52.105  1.00  0.00     0.293 HD
ENDBRANCH   5   8
BRANCH   7  10
ATOM     10  O   UNL     1      52.775   9.470 -49.665  1.00  0.00    -0.504 OA
ATOM     11  H   UNL     1      52.530   9.672 -50.627  1.00  0.00     0.293 HD
ENDBRANCH   7  10
ENDBRANCH   1   2
BRANCH   1  12
ATOM     12  C   UNL     1      55.144   7.990 -45.357  1.00  0.00     0.161 C 
BRANCH  12  13
ATOM     13  O   UNL     1      56.454   8.488 -45.343  1.00  0.00    -0.396 OA
ATOM     14  H   UNL     1      56.761   8.508 -46.287  1.00  0.00     0.210 HD
ENDBRANCH  12  13
ENDBRANCH   1  12
TORSDOF 5
ENDMDL
MODEL 3
REMARK VINA RESULT:    -3.697     12.838     13.478
REMARK INTER + INTRA:          -4.554
REMARK INTER:                  -4.448
REMARK INTRA:                  -0.106
REMARK UNBOUND:                -0.101
REMARK SMILES OCCc1ccc(O)c(O)c1
REMARK SMILES IDX 3 1 4 2 5 3 6 4 7 5 11 6 9 7 8 8 10 10 2 12 1 13
REMARK H PARENT 8 9 10 11 1 14
REMARK Flexibility Score: inf
ROOT
ATOM      1  C   UNL     1      57.012  -1.804 -50.262  1.00  0.00     0.064 C 
ENDROOT
BRANCH   1   2
ATOM      2  C   UNL     1      58.291  -2.593 -50.177  1.00  0.00    -0.042 A 
ATOM      3  C   UNL     1      58.943  -2.756 -48.944  1.00  0.00     0.008 A 
ATOM      4  C   UNL     1      60.113  -3.514 -48.859  1.00  0.00     0.050 A 
ATOM      5  C   UNL     1      60.640  -4.128 -50.003  1.00  0.00     0.157 A 
ATOM      6  C   UNL     1      58.815  -3.221 -51.319  1.00  0.00     0.054 A 
ATOM      7  C   UNL     1      59.989  -3.983 -51.235  1.00  0.00     0.157 A 
BRANCH   5   8
ATOM      8  O   UNL     1      61.808  -4.885 -49.923  1.00  0.00    -0.504 OA
ATOM      9  H   UNL     1      61.835  -5.850 -50.229  1.00  0.00     0.293 HD
ENDBRANCH   5   8
BRANCH   7  10
ATOM     10  O   UNL     1      60.513  -4.600 -52.370  1.00  0.00    -0.504 OA
ATOM     11  H   UNL     1      60.480  -4.153 -53.279  1.00  0.00     0.293 HD
ENDBRANCH   7  10
ENDBRANCH   1   2
BRANCH   1  12
ATOM     12  C   UNL     1      55.848  -2.705 -50.680  1.00  0.00     0.161 C 
BRANCH  12  13
ATOM     13  O   UNL     1      55.659  -3.721 -49.733  1.00  0.00    -0.396 OA
ATOM     14  H   UNL     1      56.252  -3.508 -48.965  1.00  0.00     0.210 HD
ENDBRANCH  12  13
ENDBRANCH   1  12
TORSDOF 5
ENDMDL
MODEL 4
REMARK VINA RESULT:    -3.687     10.059     11.874
REMARK INTER + INTRA:          -4.542
REMARK INTER:                  -4.457
REMARK INTRA:                  -0.085
REMARK UNBOUND:                -0.101
REMARK SMILES OCCc1ccc(O)c(O)c1
REMARK SMILES IDX 3 1 4 2 5 3 6 4 7 5 11 6 9 7 8 8 10 10 2 12 1 13
REMARK H PARENT 8 9 10 11 1 14
REMARK Flexibility Score: inf
ROOT
ATOM      1  C   UNL     1      46.964   2.198 -41.727  1.00  0.00     0.064 C 
ENDROOT
BRANCH   1   2
ATOM      2  C   UNL     1      45.985   2.556 -42.813  1.00  0.00    -0.042 A 
ATOM      3  C   UNL     1      46.340   3.478 -43.810  1.00  0.00     0.008 A 
ATOM      4  C   UNL     1      45.444   3.788 -44.836  1.00  0.00     0.050 A 
ATOM      5  C   UNL     1      44.186   3.171 -44.884  1.00  0.00     0.157 A 
ATOM      6  C   UNL     1      44.730   1.930 -42.871  1.00  0.00     0.054 A 
ATOM      7  C   UNL     1      43.829   2.239 -43.900  1.00  0.00     0.157 A 
BRANCH   5   8
ATOM      8  O   UNL     1      43.288   3.478 -45.905  1.00  0.00    -0.504 OA
ATOM      9  H   UNL     1      43.212   4.416 -46.279  1.00  0.00     0.293 HD
ENDBRANCH   5   8
BRANCH   7  10
ATOM     10  O   UNL     1      42.580   1.623 -43.954  1.00  0.00    -0.504 OA
ATOM     11  H   UNL     1      42.086   1.353 -43.111  1.00  0.00     0.293 HD
ENDBRANCH   7  10
ENDBRANCH   1   2
BRANCH   1  12
ATOM     12  C   UNL     1      46.231   1.884 -40.421  1.00  0.00     0.161 C 
BRANCH  12  13
ATOM     13  O   UNL     1      46.705   0.681 -39.878  1.00  0.00    -0.396 OA
ATOM     14  H   UNL     1      47.672   0.631 -40.098  1.00  0.00     0.210 HD
ENDBRANCH  12  13
ENDBRANCH   1  12
TORSDOF 5
ENDMDL
MODEL 5
REMARK VINA RESULT:    -3.681     12.507     13.175
REMARK INTER + INTRA:          -4.535
REMARK INTER:                  -4.475
REMARK INTRA:                  -0.060
REMARK UNBOUND:                -0.101
REMARK SMILES OCCc1ccc(O)c(O)c1
REMARK SMILES IDX 3 1 4 2 5 3 6 4 7 5 11 6 9 7 8 8 10 10 2 12 1 13
REMARK H PARENT 8 9 10 11 1 14
REMARK Flexibility Score: inf
ROOT
ATOM      1  C   UNL     1      58.208  -0.988 -49.758  1.00  0.00     0.064 C 
ENDROOT
BRANCH   1   2
ATOM      2  C   UNL     1      59.259  -2.065 -49.720  1.00  0.00    -0.042 A 
ATOM      3  C   UNL     1      60.105  -2.190 -48.607  1.00  0.00     0.008 A 
ATOM      4  C   UNL     1      61.060  -3.209 -48.558  1.00  0.00     0.050 A 
ATOM      5  C   UNL     1      61.173  -4.121 -49.615  1.00  0.00     0.157 A 
ATOM      6  C   UNL     1      59.366  -2.989 -50.772  1.00  0.00     0.054 A 
ATOM      7  C   UNL     1      60.324  -4.013 -50.723  1.00  0.00     0.157 A 
BRANCH   5   8
ATOM      8  O   UNL     1      62.125  -5.139 -49.570  1.00  0.00    -0.504 OA
ATOM      9  H   UNL     1      62.021  -5.986 -50.115  1.00  0.00     0.293 HD
ENDBRANCH   5   8
BRANCH   7  10
ATOM     10  O   UNL     1      60.435  -4.926 -51.771  1.00  0.00    -0.504 OA
ATOM     11  H   UNL     1      61.276  -4.988 -52.332  1.00  0.00     0.293 HD
ENDBRANCH   7  10
ENDBRANCH   1   2
BRANCH   1  12
ATOM     12  C   UNL     1      58.825   0.379 -49.457  1.00  0.00     0.161 C 
BRANCH  12  13
ATOM     13  O   UNL     1      59.856   0.655 -50.367  1.00  0.00    -0.396 OA
ATOM     14  H   UNL     1      59.525   0.382 -51.262  1.00  0.00     0.210 HD
ENDBRANCH  12  13
ENDBRANCH   1  12
TORSDOF 5
ENDMDL
MODEL 6
REMARK VINA RESULT:    -3.657     12.461     13.292
REMARK INTER + INTRA:          -4.506
REMARK INTER:                  -4.413
REMARK INTRA:                  -0.092
REMARK UNBOUND:                -0.101
REMARK SMILES OCCc1ccc(O)c(O)c1
REMARK SMILES IDX 3 1 4 2 5 3 6 4 7 5 11 6 9 7 8 8 10 10 2 12 1 13
REMARK H PARENT 8 9 10 11 1 14
REMARK Flexibility Score: inf
ROOT
ATOM      1  C   UNL     1      58.406  -1.091 -48.989  1.00  0.00     0.064 C 
ENDROOT
BRANCH   1   2
ATOM      2  C   UNL     1      58.908  -2.160 -49.923  1.00  0.00    -0.042 A 
ATOM      3  C   UNL     1      58.277  -2.373 -51.159  1.00  0.00     0.008 A 
ATOM      4  C   UNL     1      58.761  -3.344 -52.039  1.00  0.00     0.050 A 
ATOM      5  C   UNL     1      59.888  -4.105 -51.700  1.00  0.00     0.157 A 
ATOM      6  C   UNL     1      60.044  -2.915 -49.592  1.00  0.00     0.054 A 
ATOM      7  C   UNL     1      60.532  -3.889 -50.475  1.00  0.00     0.157 A 
BRANCH   5   8
ATOM      8  O   UNL     1      60.374  -5.075 -52.576  1.00  0.00    -0.504 OA
ATOM      9  H   UNL     1      61.078  -4.856 -53.270  1.00  0.00     0.293 HD
ENDBRANCH   5   8
BRANCH   7  10
ATOM     10  O   UNL     1      61.655  -4.644 -50.143  1.00  0.00    -0.504 OA
ATOM     11  H   UNL     1      61.577  -5.615 -49.862  1.00  0.00     0.293 HD
ENDBRANCH   7  10
ENDBRANCH   1   2
BRANCH   1  12
ATOM     12  C   UNL     1      59.458   0.005 -48.808  1.00  0.00     0.161 C 
BRANCH  12  13
ATOM     13  O   UNL     1      59.805   0.553 -50.051  1.00  0.00    -0.396 OA
ATOM     14  H   UNL     1      59.332   1.423 -50.120  1.00  0.00     0.210 HD
ENDBRANCH  12  13
ENDBRANCH   1  12
TORSDOF 5
ENDMDL
MODEL 7
REMARK VINA RESULT:    -3.591     13.165     13.642
REMARK INTER + INTRA:          -4.427
REMARK INTER:                  -4.355
REMARK INTRA:                  -0.073
REMARK UNBOUND:                -0.101
REMARK SMILES OCCc1ccc(O)c(O)c1
REMARK SMILES IDX 3 1 4 2 5 3 6 4 7 5 11 6 9 7 8 8 10 10 2 12 1 13
REMARK H PARENT 8 9 10 11 1 14
REMARK Flexibility Score: inf
ROOT
ATOM      1  C   UNL     1      59.740  -4.375 -52.866  1.00  0.00     0.064 C 
ENDROOT
BRANCH   1   2
ATOM      2  C   UNL     1      59.764  -3.764 -51.490  1.00  0.00    -0.042 A 
ATOM      3  C   UNL     1      58.700  -2.959 -51.054  1.00  0.00     0.008 A 
ATOM      4  C   UNL     1      58.707  -2.417 -49.766  1.00  0.00     0.050 A 
ATOM      5  C   UNL     1      59.771  -2.684 -48.895  1.00  0.00     0.157 A 
ATOM      6  C   UNL     1      60.822  -4.040 -50.609  1.00  0.00     0.054 A 
ATOM      7  C   UNL     1      60.830  -3.498 -49.316  1.00  0.00     0.157 A 
BRANCH   5   8
ATOM      8  O   UNL     1      59.782  -2.145 -47.609  1.00  0.00    -0.504 OA
ATOM      9  H   UNL     1      59.697  -1.148 -47.452  1.00  0.00     0.293 HD
ENDBRANCH   5   8
BRANCH   7  10
ATOM     10  O   UNL     1      61.884  -3.766 -48.445  1.00  0.00    -0.504 OA
ATOM     11  H   UNL     1      62.633  -4.401 -48.698  1.00  0.00     0.293 HD
ENDBRANCH   7  10
ENDBRANCH   1   2
BRANCH   1  12
ATOM     12  C   UNL     1      58.731  -3.651 -53.760  1.00  0.00     0.161 C 
BRANCH  12  13
ATOM     13  O   UNL     1      59.181  -3.644 -55.088  1.00  0.00    -0.396 OA
ATOM     14  H   UNL     1      58.522  -4.169 -55.614  1.00  0.00     0.210 HD
ENDBRANCH  12  13
ENDBRANCH   1  12
TORSDOF 5
ENDMDL
MODEL 8
REMARK VINA RESULT:    -3.589      1.413      4.471
REMARK INTER + INTRA:          -4.424
REMARK INTER:                  -4.367
REMARK INTRA:                  -0.057
REMARK UNBOUND:                -0.101
REMARK SMILES OCCc1ccc(O)c(O)c1
REMARK SMILES IDX 3 1 4 2 5 3 6 4 7 5 11 6 9 7 8 8 10 10 2 12 1 13
REMARK H PARENT 8 9 10 11 1 14
REMARK Flexibility Score: inf
ROOT
ATOM      1  C   UNL     1      55.381   7.486 -46.336  1.00  0.00     0.064 C 
ENDROOT
BRANCH   1   2
ATOM      2  C   UNL     1      54.049   7.376 -47.028  1.00  0.00    -0.042 A 
ATOM      3  C   UNL     1      52.972   6.738 -46.393  1.00  0.00     0.008 A 
ATOM      4  C   UNL     1      51.727   6.663 -47.022  1.00  0.00     0.050 A 
ATOM      5  C   UNL     1      51.540   7.233 -48.288  1.00  0.00     0.157 A 
ATOM      6  C   UNL     1      53.855   7.958 -48.291  1.00  0.00     0.054 A 
ATOM      7  C   UNL     1      52.605   7.884 -48.923  1.00  0.00     0.157 A 
BRANCH   5   8
ATOM      8  O   UNL     1      50.299   7.159 -48.919  1.00  0.00    -0.504 OA
ATOM      9  H   UNL     1      49.577   7.849 -48.750  1.00  0.00     0.293 HD
ENDBRANCH   5   8
BRANCH   7  10
ATOM     10  O   UNL     1      52.415   8.455 -50.180  1.00  0.00    -0.504 OA
ATOM     11  H   UNL     1      51.504   8.465 -50.625  1.00  0.00     0.293 HD
ENDBRANCH   7  10
ENDBRANCH   1   2
BRANCH   1  12
ATOM     12  C   UNL     1      55.223   8.136 -44.960  1.00  0.00     0.161 C 
BRANCH  12  13
ATOM     13  O   UNL     1      56.429   8.731 -44.565  1.00  0.00    -0.396 OA
ATOM     14  H   UNL     1      57.153   8.251 -45.045  1.00  0.00     0.210 HD
ENDBRANCH  12  13
ENDBRANCH   1  12
TORSDOF 5
ENDMDL
MODEL 9
REMARK VINA RESULT:    -3.571     12.928     13.787
REMARK INTER + INTRA:          -4.403
REMARK INTER:                  -4.298
REMARK INTRA:                  -0.105
REMARK UNBOUND:                -0.101
REMARK SMILES OCCc1ccc(O)c(O)c1
REMARK SMILES IDX 3 1 4 2 5 3 6 4 7 5 11 6 9 7 8 8 10 10 2 12 1 13
REMARK H PARENT 8 9 10 11 1 14
REMARK Flexibility Score: inf
ROOT
ATOM      1  C   UNL     1      57.745  -1.829 -49.085  1.00  0.00     0.064 C 
ENDROOT
BRANCH   1   2
ATOM      2  C   UNL     1      58.491  -2.659 -50.095  1.00  0.00    -0.042 A 
ATOM      3  C   UNL     1      58.056  -2.713 -51.428  1.00  0.00     0.008 A 
ATOM      4  C   UNL     1      58.765  -3.458 -52.373  1.00  0.00     0.050 A 
ATOM      5  C   UNL     1      59.925  -4.150 -51.999  1.00  0.00     0.157 A 
ATOM      6  C   UNL     1      59.661  -3.343 -49.727  1.00  0.00     0.054 A 
ATOM      7  C   UNL     1      60.375  -4.091 -50.674  1.00  0.00     0.157 A 
BRANCH   5   8
ATOM      8  O   UNL     1      60.636  -4.895 -52.939  1.00  0.00    -0.504 OA
ATOM      9  H   UNL     1      60.820  -5.882 -52.802  1.00  0.00     0.293 HD
ENDBRANCH   5   8
BRANCH   7  10
ATOM     10  O   UNL     1      61.532  -4.775 -50.306  1.00  0.00    -0.504 OA
ATOM     11  H   UNL     1      62.240  -5.023 -50.988  1.00  0.00     0.293 HD
ENDBRANCH   7  10
ENDBRANCH   1   2
BRANCH   1  12
ATOM     12  C   UNL     1      57.236  -2.703 -47.937  1.00  0.00     0.161 C 
BRANCH  12  13
ATOM     13  O   UNL     1      56.415  -3.724 -48.435  1.00  0.00    -0.396 OA
ATOM     14  H   UNL     1      57.001  -4.330 -48.959  1.00  0.00     0.210 HD
ENDBRANCH  12  13
ENDBRANCH   1  12
TORSDOF 5
ENDMDL
