MODEL 1
REMARK VINA RESULT:    -4.718      0.000      0.000
REMARK INTER + INTRA:          -6.200
REMARK INTER:                  -5.821
REMARK INTRA:                  -0.379
REMARK UNBOUND:                -0.379
REMARK SMILES Oc1cc(O)c2cc(O)c(-c3cc(O)c(O)c(O)c3)[o+]c2c1
REMARK SMILES IDX 10 1 20 2 21 3 22 4 2 5 3 6 4 7 6 8 7 9 8 10 11 11 12 12
REMARK SMILES IDX 13 13 19 14 15 15 17 16 14 17 16 19 18 21 9 23 1 25 5 27
REMARK H PARENT 14 18 16 20 18 22 9 24 1 26 5 28
REMARK Flexibility Score: inf
ROOT
ATOM      1  C   UNL     1     101.059 101.050 102.976  1.00  0.00     0.402 A 
ATOM      2  O   UNL     1     101.696  99.966 102.534  1.00  0.00    -0.202 OA
ATOM      3  C   UNL     1     103.010  99.798 102.647  1.00  0.00     0.368 A 
ATOM      4  C   UNL     1     103.604  98.632 102.153  1.00  0.00     0.162 A 
ATOM      5  C   UNL     1     104.987  98.444 102.264  1.00  0.00     0.128 A 
ATOM      6  C   UNL     1     105.778  99.425 102.871  1.00  0.00     0.093 A 
ATOM      7  C   UNL     1     105.197 100.599 103.373  1.00  0.00     0.136 A 
ATOM      8  C   UNL     1     103.806 100.788 103.262  1.00  0.00     0.125 A 
ATOM      9  C   UNL     1     103.170 101.935 103.751  1.00  0.00     0.078 A 
ATOM     10  C   UNL     1     101.785 102.071 103.620  1.00  0.00     0.223 A 
ENDROOT
BRANCH   1  11
ATOM     11  C   UNL     1      99.593 101.127 102.783  1.00  0.00     0.091 A 
ATOM     12  C   UNL     1      98.744 100.429 103.656  1.00  0.00     0.068 A 
ATOM     13  C   UNL     1      97.354 100.469 103.485  1.00  0.00     0.162 A 
ATOM     14  C   UNL     1      99.032 101.838 101.708  1.00  0.00     0.068 A 
ATOM     15  C   UNL     1      96.801 101.201 102.419  1.00  0.00     0.200 A 
ATOM     16  C   UNL     1      97.643 101.880 101.531  1.00  0.00     0.162 A 
BRANCH  13  17
ATOM     17  O   UNL     1      96.520  99.784 104.368  1.00  0.00    -0.504 OA
ATOM     18  H   UNL     1      95.656 100.191 104.707  1.00  0.00     0.293 HD
ENDBRANCH  13  17
BRANCH  15  19
ATOM     19  O   UNL     1      95.421 101.258 102.230  1.00  0.00    -0.502 OA
ATOM     20  H   UNL     1      94.987 101.016 101.346  1.00  0.00     0.293 HD
ENDBRANCH  15  19
BRANCH  16  21
ATOM     21  O   UNL     1      97.090 102.592 100.467  1.00  0.00    -0.504 OA
ATOM     22  H   UNL     1      96.422 102.168  99.834  1.00  0.00     0.293 HD
ENDBRANCH  16  21
ENDBRANCH   1  11
BRANCH  10  23
ATOM     23  O   UNL     1     101.139 103.188 104.150  1.00  0.00    -0.500 OA
ATOM     24  H   UNL     1     101.653 104.009 104.446  1.00  0.00     0.294 HD
ENDBRANCH  10  23
BRANCH   5  25
ATOM     25  O   UNL     1     105.587  97.286 101.774  1.00  0.00    -0.507 OA
ATOM     26  H   UNL     1     105.391  96.377 102.177  1.00  0.00     0.293 HD
ENDBRANCH   5  25
BRANCH   7  27
ATOM     27  O   UNL     1     105.996 101.570 103.978  1.00  0.00    -0.507 OA
ATOM     28  H   UNL     1     106.602 101.347 104.758  1.00  0.00     0.293 HD
ENDBRANCH   7  27
TORSDOF 7
ENDMDL
MODEL 2
REMARK VINA RESULT:    -4.607      9.901     12.167
REMARK INTER + INTRA:          -6.063
REMARK INTER:                  -5.684
REMARK INTRA:                  -0.379
REMARK UNBOUND:                -0.379
REMARK SMILES Oc1cc(O)c2cc(O)c(-c3cc(O)c(O)c(O)c3)[o+]c2c1
REMARK SMILES IDX 10 1 20 2 21 3 22 4 2 5 3 6 4 7 6 8 7 9 8 10 11 11 12 12
REMARK SMILES IDX 13 13 19 14 15 15 17 16 14 17 16 19 18 21 9 23 1 25 5 27
REMARK H PARENT 14 18 16 20 18 22 9 24 1 26 5 28
REMARK Flexibility Score: inf
ROOT
ATOM      1  C   UNL     1      98.082 109.486 108.645  1.00  0.00     0.402 A 
ATOM      2  O   UNL     1      99.240 110.005 108.238  1.00  0.00    -0.202 OA
ATOM      3  C   UNL     1      99.325 111.137 107.546  1.00  0.00     0.368 A 
ATOM      4  C   UNL     1     100.579 111.613 107.151  1.00  0.00     0.162 A 
ATOM      5  C   UNL     1     100.683 112.802 106.420  1.00  0.00     0.128 A 
ATOM      6  C   UNL     1      99.529 113.517 106.083  1.00  0.00     0.093 A 
ATOM      7  C   UNL     1      98.264 113.053 106.472  1.00  0.00     0.136 A 
ATOM      8  C   UNL     1      98.159 111.857 107.208  1.00  0.00     0.125 A 
ATOM      9  C   UNL     1      96.926 111.351 107.631  1.00  0.00     0.078 A 
ATOM     10  C   UNL     1      96.877 110.161 108.365  1.00  0.00     0.223 A 
ENDROOT
BRANCH   1  11
ATOM     11  C   UNL     1      98.113 108.213 109.402  1.00  0.00     0.091 A 
ATOM     12  C   UNL     1      98.031 106.996 108.708  1.00  0.00     0.068 A 
ATOM     13  C   UNL     1      98.038 105.777 109.401  1.00  0.00     0.162 A 
ATOM     14  C   UNL     1      98.166 108.197 110.806  1.00  0.00     0.068 A 
ATOM     15  C   UNL     1      98.113 105.771 110.804  1.00  0.00     0.200 A 
ATOM     16  C   UNL     1      98.173 106.982 111.504  1.00  0.00     0.162 A 
BRANCH  13  17
ATOM     17  O   UNL     1      97.971 104.574 108.700  1.00  0.00    -0.504 OA
ATOM     18  H   UNL     1      97.085 104.171 108.419  1.00  0.00     0.293 HD
ENDBRANCH  13  17
BRANCH  15  19
ATOM     19  O   UNL     1      98.125 104.571 111.515  1.00  0.00    -0.502 OA
ATOM     20  H   UNL     1      97.365 103.903 111.460  1.00  0.00     0.293 HD
ENDBRANCH  15  19
BRANCH  16  21
ATOM     21  O   UNL     1      98.232 106.970 112.897  1.00  0.00    -0.504 OA
ATOM     22  H   UNL     1      98.069 106.123 113.428  1.00  0.00     0.293 HD
ENDBRANCH  16  21
ENDBRANCH   1  11
BRANCH  10  23
ATOM     23  O   UNL     1      95.656 109.678 108.832  1.00  0.00    -0.500 OA
ATOM     24  H   UNL     1      95.521 108.698 109.057  1.00  0.00     0.294 HD
ENDBRANCH  10  23
BRANCH   5  25
ATOM     25  O   UNL     1     101.929 113.284 106.022  1.00  0.00    -0.507 OA
ATOM     26  H   UNL     1     102.025 114.172 105.543  1.00  0.00     0.293 HD
ENDBRANCH   5  25
BRANCH   7  27
ATOM     27  O   UNL     1      97.120 113.776 106.131  1.00  0.00    -0.507 OA
ATOM     28  H   UNL     1      96.541 113.512 105.343  1.00  0.00     0.293 HD
ENDBRANCH   7  27
TORSDOF 7
ENDMDL
MODEL 3
REMARK VINA RESULT:    -4.590      9.792     11.941
REMARK INTER + INTRA:          -6.042
REMARK INTER:                  -5.711
REMARK INTRA:                  -0.331
REMARK UNBOUND:                -0.379
REMARK SMILES Oc1cc(O)c2cc(O)c(-c3cc(O)c(O)c(O)c3)[o+]c2c1
REMARK SMILES IDX 10 1 20 2 21 3 22 4 2 5 3 6 4 7 6 8 7 9 8 10 11 11 12 12
REMARK SMILES IDX 13 13 19 14 15 15 17 16 14 17 16 19 18 21 9 23 1 25 5 27
REMARK H PARENT 14 18 16 20 18 22 9 24 1 26 5 28
REMARK Flexibility Score: inf
ROOT
ATOM      1  C   UNL     1      98.927 109.262 108.737  1.00  0.00     0.402 A 
ATOM      2  O   UNL     1      98.161 110.208 108.194  1.00  0.00    -0.202 OA
ATOM      3  C   UNL     1      98.654 111.285 107.591  1.00  0.00     0.368 A 
ATOM      4  C   UNL     1      97.782 112.236 107.050  1.00  0.00     0.162 A 
ATOM      5  C   UNL     1      98.289 113.376 106.415  1.00  0.00     0.128 A 
ATOM      6  C   UNL     1      99.671 113.567 106.321  1.00  0.00     0.093 A 
ATOM      7  C   UNL     1     100.559 112.623 106.858  1.00  0.00     0.136 A 
ATOM      8  C   UNL     1     100.050 111.475 107.496  1.00  0.00     0.125 A 
ATOM      9  C   UNL     1     100.886 110.496 108.043  1.00  0.00     0.078 A 
ATOM     10  C   UNL     1     100.330 109.372 108.661  1.00  0.00     0.223 A 
ENDROOT
BRANCH   1  11
ATOM     11  C   UNL     1      98.262 108.112 109.390  1.00  0.00     0.091 A 
ATOM     12  C   UNL     1      97.747 108.257 110.687  1.00  0.00     0.068 A 
ATOM     13  C   UNL     1      97.129 107.180 111.336  1.00  0.00     0.162 A 
ATOM     14  C   UNL     1      98.183 106.858 108.760  1.00  0.00     0.068 A 
ATOM     15  C   UNL     1      97.037 105.935 110.690  1.00  0.00     0.200 A 
ATOM     16  C   UNL     1      97.568 105.776 109.405  1.00  0.00     0.162 A 
BRANCH  13  17
ATOM     17  O   UNL     1      96.609 107.341 112.619  1.00  0.00    -0.504 OA
ATOM     18  H   UNL     1      95.747 106.890 112.904  1.00  0.00     0.293 HD
ENDBRANCH  13  17
BRANCH  15  19
ATOM     19  O   UNL     1      96.425 104.848 111.314  1.00  0.00    -0.502 OA
ATOM     20  H   UNL     1      95.965 104.113 110.790  1.00  0.00     0.293 HD
ENDBRANCH  15  19
BRANCH  16  21
ATOM     21  O   UNL     1      97.488 104.534 108.775  1.00  0.00    -0.504 OA
ATOM     22  H   UNL     1      97.823 103.689 109.222  1.00  0.00     0.293 HD
ENDBRANCH  16  21
ENDBRANCH   1  11
BRANCH  10  23
ATOM     23  O   UNL     1     101.158 108.368 109.163  1.00  0.00    -0.500 OA
ATOM     24  H   UNL     1     101.977 108.583 109.720  1.00  0.00     0.294 HD
ENDBRANCH  10  23
BRANCH   5  25
ATOM     25  O   UNL     1      97.427 114.328 105.874  1.00  0.00    -0.507 OA
ATOM     26  H   UNL     1      97.771 115.087 105.297  1.00  0.00     0.293 HD
ENDBRANCH   5  25
BRANCH   7  27
ATOM     27  O   UNL     1     101.936 112.823 106.757  1.00  0.00    -0.507 OA
ATOM     28  H   UNL     1     102.356 113.726 106.943  1.00  0.00     0.293 HD
ENDBRANCH   7  27
TORSDOF 7
ENDMDL
MODEL 4
REMARK VINA RESULT:    -4.574      9.997     11.906
REMARK INTER + INTRA:          -6.022
REMARK INTER:                  -5.774
REMARK INTRA:                  -0.248
REMARK UNBOUND:                -0.379
REMARK SMILES Oc1cc(O)c2cc(O)c(-c3cc(O)c(O)c(O)c3)[o+]c2c1
REMARK SMILES IDX 10 1 20 2 21 3 22 4 2 5 3 6 4 7 6 8 7 9 8 10 11 11 12 12
REMARK SMILES IDX 13 13 19 14 15 15 17 16 14 17 16 19 18 21 9 23 1 25 5 27
REMARK H PARENT 14 18 16 20 18 22 9 24 1 26 5 28
REMARK Flexibility Score: inf
ROOT
ATOM      1  C   UNL     1      98.513 110.045 108.384  1.00  0.00     0.402 A 
ATOM      2  O   UNL     1      97.610 109.069 108.292  1.00  0.00    -0.202 OA
ATOM      3  C   UNL     1      97.793 107.860 108.811  1.00  0.00     0.368 A 
ATOM      4  C   UNL     1      96.798 106.887 108.667  1.00  0.00     0.162 A 
ATOM      5  C   UNL     1      96.980 105.608 109.207  1.00  0.00     0.128 A 
ATOM      6  C   UNL     1      98.160 105.301 109.891  1.00  0.00     0.093 A 
ATOM      7  C   UNL     1      99.167 106.265 110.044  1.00  0.00     0.136 A 
ATOM      8  C   UNL     1      98.984 107.552 109.502  1.00  0.00     0.125 A 
ATOM      9  C   UNL     1      99.950 108.556 109.631  1.00  0.00     0.078 A 
ATOM     10  C   UNL     1      99.717 109.819 109.079  1.00  0.00     0.223 A 
ENDROOT
BRANCH   1  11
ATOM     11  C   UNL     1      98.199 111.350 107.757  1.00  0.00     0.091 A 
ATOM     12  C   UNL     1      97.076 112.071 108.188  1.00  0.00     0.068 A 
ATOM     13  C   UNL     1      96.744 113.299 107.599  1.00  0.00     0.162 A 
ATOM     14  C   UNL     1      98.970 111.857 106.696  1.00  0.00     0.068 A 
ATOM     15  C   UNL     1      97.534 113.808 106.553  1.00  0.00     0.200 A 
ATOM     16  C   UNL     1      98.643 113.083 106.101  1.00  0.00     0.162 A 
BRANCH  13  17
ATOM     17  O   UNL     1      95.635 114.013 108.047  1.00  0.00    -0.504 OA
ATOM     18  H   UNL     1      95.320 113.959 109.009  1.00  0.00     0.293 HD
ENDBRANCH  13  17
BRANCH  15  19
ATOM     19  O   UNL     1      97.226 115.028 105.952  1.00  0.00    -0.502 OA
ATOM     20  H   UNL     1      96.377 115.168 105.417  1.00  0.00     0.293 HD
ENDBRANCH  15  19
BRANCH  16  21
ATOM     21  O   UNL     1      99.414 113.585 105.054  1.00  0.00    -0.504 OA
ATOM     22  H   UNL     1     100.376 113.871 105.193  1.00  0.00     0.293 HD
ENDBRANCH  16  21
ENDBRANCH   1  11
BRANCH  10  23
ATOM     23  O   UNL     1     100.654 110.839 109.247  1.00  0.00    -0.500 OA
ATOM     24  H   UNL     1     100.435 111.682 109.765  1.00  0.00     0.294 HD
ENDBRANCH  10  23
BRANCH   5  25
ATOM     25  O   UNL     1      95.993 104.633 109.068  1.00  0.00    -0.507 OA
ATOM     26  H   UNL     1      95.588 104.414 108.166  1.00  0.00     0.293 HD
ENDBRANCH   5  25
BRANCH   7  27
ATOM     27  O   UNL     1     100.339 105.946 110.730  1.00  0.00    -0.507 OA
ATOM     28  H   UNL     1     100.479 105.034 111.148  1.00  0.00     0.293 HD
ENDBRANCH   7  27
TORSDOF 7
ENDMDL
MODEL 5
REMARK VINA RESULT:    -4.549      2.287      6.418
REMARK INTER + INTRA:          -5.992
REMARK INTER:                  -5.656
REMARK INTRA:                  -0.336
REMARK UNBOUND:                -0.379
REMARK SMILES Oc1cc(O)c2cc(O)c(-c3cc(O)c(O)c(O)c3)[o+]c2c1
REMARK SMILES IDX 10 1 20 2 21 3 22 4 2 5 3 6 4 7 6 8 7 9 8 10 11 11 12 12
REMARK SMILES IDX 13 13 19 14 15 15 17 16 14 17 16 19 18 21 9 23 1 25 5 27
REMARK H PARENT 14 18 16 20 18 22 9 24 1 26 5 28
REMARK Flexibility Score: inf
ROOT
ATOM      1  C   UNL     1     101.702 101.174 102.986  1.00  0.00     0.402 A 
ATOM      2  O   UNL     1     101.399  99.981 102.474  1.00  0.00    -0.202 OA
ATOM      3  C   UNL     1     100.232  99.379 102.677  1.00  0.00     0.368 A 
ATOM      4  C   UNL     1      99.993  98.124 102.108  1.00  0.00     0.162 A 
ATOM      5  C   UNL     1      98.768  97.477 102.316  1.00  0.00     0.128 A 
ATOM      6  C   UNL     1      97.781  98.088 103.096  1.00  0.00     0.093 A 
ATOM      7  C   UNL     1      98.005  99.347 103.673  1.00  0.00     0.136 A 
ATOM      8  C   UNL     1      99.236  99.998 103.463  1.00  0.00     0.125 A 
ATOM      9  C   UNL     1      99.513 101.257 104.006  1.00  0.00     0.078 A 
ATOM     10  C   UNL     1     100.750 101.862 103.762  1.00  0.00     0.223 A 
ENDROOT
BRANCH   1  11
ATOM     11  C   UNL     1     103.040 101.739 102.697  1.00  0.00     0.091 A 
ATOM     12  C   UNL     1     104.147 101.311 103.446  1.00  0.00     0.068 A 
ATOM     13  C   UNL     1     105.421 101.844 103.207  1.00  0.00     0.162 A 
ATOM     14  C   UNL     1     103.218 102.740 101.726  1.00  0.00     0.068 A 
ATOM     15  C   UNL     1     105.593 102.829 102.219  1.00  0.00     0.200 A 
ATOM     16  C   UNL     1     104.490 103.278 101.484  1.00  0.00     0.162 A 
BRANCH  13  17
ATOM     17  O   UNL     1     106.515 101.400 103.947  1.00  0.00    -0.504 OA
ATOM     18  H   UNL     1     106.426 100.666 104.641  1.00  0.00     0.293 HD
ENDBRANCH  13  17
BRANCH  15  19
ATOM     19  O   UNL     1     106.851 103.373 101.961  1.00  0.00    -0.502 OA
ATOM     20  H   UNL     1     107.040 103.928 101.135  1.00  0.00     0.293 HD
ENDBRANCH  15  19
BRANCH  16  21
ATOM     21  O   UNL     1     104.663 104.266 100.515  1.00  0.00    -0.504 OA
ATOM     22  H   UNL     1     104.641 104.049  99.526  1.00  0.00     0.293 HD
ENDBRANCH  16  21
ENDBRANCH   1  11
BRANCH  10  23
ATOM     23  O   UNL     1     101.013 103.139 104.259  1.00  0.00    -0.500 OA
ATOM     24  H   UNL     1     100.270 103.808 104.429  1.00  0.00     0.294 HD
ENDBRANCH  10  23
BRANCH   5  25
ATOM     25  O   UNL     1      98.522  96.227 101.753  1.00  0.00    -0.507 OA
ATOM     26  H   UNL     1      98.568  96.078 100.752  1.00  0.00     0.293 HD
ENDBRANCH   5  25
BRANCH   7  27
ATOM     27  O   UNL     1      97.012  99.947 104.447  1.00  0.00    -0.507 OA
ATOM     28  H   UNL     1      96.908  99.737 105.433  1.00  0.00     0.293 HD
ENDBRANCH   7  27
TORSDOF 7
ENDMDL
MODEL 6
REMARK VINA RESULT:    -4.448      4.632      7.484
REMARK INTER + INTRA:          -5.867
REMARK INTER:                  -5.625
REMARK INTRA:                  -0.242
REMARK UNBOUND:                -0.379
REMARK SMILES Oc1cc(O)c2cc(O)c(-c3cc(O)c(O)c(O)c3)[o+]c2c1
REMARK SMILES IDX 10 1 20 2 21 3 22 4 2 5 3 6 4 7 6 8 7 9 8 10 11 11 12 12
REMARK SMILES IDX 13 13 19 14 15 15 17 16 14 17 16 19 18 21 9 23 1 25 5 27
REMARK H PARENT 14 18 16 20 18 22 9 24 1 26 5 28
REMARK Flexibility Score: inf
ROOT
ATOM      1  C   UNL     1     108.569 101.391 102.840  1.00  0.00     0.402 A 
ATOM      2  O   UNL     1     109.016 100.219 102.389  1.00  0.00    -0.202 OA
ATOM      3  C   UNL     1     110.306  99.908 102.330  1.00  0.00     0.368 A 
ATOM      4  C   UNL     1     110.695  98.657 101.840  1.00  0.00     0.162 A 
ATOM      5  C   UNL     1     112.052  98.318 101.770  1.00  0.00     0.128 A 
ATOM      6  C   UNL     1     113.022  99.233 102.191  1.00  0.00     0.093 A 
ATOM      7  C   UNL     1     112.649 100.491 102.685  1.00  0.00     0.136 A 
ATOM      8  C   UNL     1     111.284 100.832 102.757  1.00  0.00     0.125 A 
ATOM      9  C   UNL     1     110.852 102.068 103.249  1.00  0.00     0.078 A 
ATOM     10  C   UNL     1     109.485 102.355 103.304  1.00  0.00     0.223 A 
ENDROOT
BRANCH   1  11
ATOM     11  C   UNL     1     107.107 101.625 102.849  1.00  0.00     0.091 A 
ATOM     12  C   UNL     1     106.276 100.780 103.600  1.00  0.00     0.068 A 
ATOM     13  C   UNL     1     104.887 100.967 103.611  1.00  0.00     0.162 A 
ATOM     14  C   UNL     1     106.523 102.643 102.075  1.00  0.00     0.068 A 
ATOM     15  C   UNL     1     104.315 102.001 102.850  1.00  0.00     0.200 A 
ATOM     16  C   UNL     1     105.135 102.834 102.080  1.00  0.00     0.162 A 
BRANCH  13  17
ATOM     17  O   UNL     1     104.075 100.129 104.373  1.00  0.00    -0.504 OA
ATOM     18  H   UNL     1     103.139  99.881 104.075  1.00  0.00     0.293 HD
ENDBRANCH  13  17
BRANCH  15  19
ATOM     19  O   UNL     1     102.936 102.209 102.847  1.00  0.00    -0.502 OA
ATOM     20  H   UNL     1     102.396 102.232 101.989  1.00  0.00     0.293 HD
ENDBRANCH  15  19
BRANCH  16  21
ATOM     21  O   UNL     1     104.561 103.849 101.315  1.00  0.00    -0.504 OA
ATOM     22  H   UNL     1     105.128 104.556 100.860  1.00  0.00     0.293 HD
ENDBRANCH  16  21
ENDBRANCH   1  11
BRANCH  10  23
ATOM     23  O   UNL     1     109.046 103.566 103.840  1.00  0.00    -0.500 OA
ATOM     24  H   UNL     1     108.130 103.943 103.623  1.00  0.00     0.294 HD
ENDBRANCH  10  23
BRANCH   5  25
ATOM     25  O   UNL     1     112.448  97.074 101.282  1.00  0.00    -0.507 OA
ATOM     26  H   UNL     1     112.016  96.216 101.607  1.00  0.00     0.293 HD
ENDBRANCH   5  25
BRANCH   7  27
ATOM     27  O   UNL     1     113.626 101.395 103.104  1.00  0.00    -0.507 OA
ATOM     28  H   UNL     1     113.647 102.348 102.763  1.00  0.00     0.293 HD
ENDBRANCH   7  27
TORSDOF 7
ENDMDL
MODEL 7
REMARK VINA RESULT:    -4.418      4.929      8.191
REMARK INTER + INTRA:          -5.830
REMARK INTER:                  -5.585
REMARK INTRA:                  -0.245
REMARK UNBOUND:                -0.379
REMARK SMILES Oc1cc(O)c2cc(O)c(-c3cc(O)c(O)c(O)c3)[o+]c2c1
REMARK SMILES IDX 10 1 20 2 21 3 22 4 2 5 3 6 4 7 6 8 7 9 8 10 11 11 12 12
REMARK SMILES IDX 13 13 19 14 15 15 17 16 14 17 16 19 18 21 9 23 1 25 5 27
REMARK H PARENT 14 18 16 20 18 22 9 24 1 26 5 28
REMARK Flexibility Score: inf
ROOT
ATOM      1  C   UNL     1     108.489 101.460 102.791  1.00  0.00     0.402 A 
ATOM      2  O   UNL     1     109.238 102.471 103.230  1.00  0.00    -0.202 OA
ATOM      3  C   UNL     1     110.565 102.428 103.273  1.00  0.00     0.368 A 
ATOM      4  C   UNL     1     111.279 103.531 103.752  1.00  0.00     0.162 A 
ATOM      5  C   UNL     1     112.678 103.497 103.805  1.00  0.00     0.128 A 
ATOM      6  C   UNL     1     113.364 102.356 103.376  1.00  0.00     0.093 A 
ATOM      7  C   UNL     1     112.663 101.242 102.892  1.00  0.00     0.136 A 
ATOM      8  C   UNL     1     111.256 101.276 102.839  1.00  0.00     0.125 A 
ATOM      9  C   UNL     1     110.505 100.199 102.358  1.00  0.00     0.078 A 
ATOM     10  C   UNL     1     109.110 100.286 102.320  1.00  0.00     0.223 A 
ENDROOT
BRANCH   1  11
ATOM     11  C   UNL     1     107.018 101.623 102.800  1.00  0.00     0.091 A 
ATOM     12  C   UNL     1     106.432 102.653 102.049  1.00  0.00     0.068 A 
ATOM     13  C   UNL     1     105.043 102.842 102.056  1.00  0.00     0.162 A 
ATOM     14  C   UNL     1     106.195 100.802 103.591  1.00  0.00     0.068 A 
ATOM     15  C   UNL     1     104.227 102.003 102.834  1.00  0.00     0.200 A 
ATOM     16  C   UNL     1     104.806 100.987 103.604  1.00  0.00     0.162 A 
BRANCH  13  17
ATOM     17  O   UNL     1     104.472 103.860 101.294  1.00  0.00    -0.504 OA
ATOM     18  H   UNL     1     103.491 104.100 101.376  1.00  0.00     0.293 HD
ENDBRANCH  13  17
BRANCH  15  19
ATOM     19  O   UNL     1     102.843 102.170 102.855  1.00  0.00    -0.502 OA
ATOM     20  H   UNL     1     102.223 101.485 103.271  1.00  0.00     0.293 HD
ENDBRANCH  15  19
BRANCH  16  21
ATOM     21  O   UNL     1     103.993 100.167 104.385  1.00  0.00    -0.504 OA
ATOM     22  H   UNL     1     103.950 100.267 105.393  1.00  0.00     0.293 HD
ENDBRANCH  16  21
ENDBRANCH   1  11
BRANCH  10  23
ATOM     23  O   UNL     1     108.358  99.235 101.795  1.00  0.00    -0.500 OA
ATOM     24  H   UNL     1     108.550  98.270 102.037  1.00  0.00     0.294 HD
ENDBRANCH  10  23
BRANCH   5  25
ATOM     25  O   UNL     1     113.396 104.592 104.281  1.00  0.00    -0.507 OA
ATOM     26  H   UNL     1     113.038 105.177 105.027  1.00  0.00     0.293 HD
ENDBRANCH   5  25
BRANCH   7  27
ATOM     27  O   UNL     1     113.360 100.110 102.466  1.00  0.00    -0.507 OA
ATOM     28  H   UNL     1     112.899  99.215 102.353  1.00  0.00     0.293 HD
ENDBRANCH   7  27
TORSDOF 7
ENDMDL
MODEL 8
REMARK VINA RESULT:    -4.381     10.742     12.290
REMARK INTER + INTRA:          -5.785
REMARK INTER:                  -5.458
REMARK INTRA:                  -0.327
REMARK UNBOUND:                -0.379
REMARK SMILES Oc1cc(O)c2cc(O)c(-c3cc(O)c(O)c(O)c3)[o+]c2c1
REMARK SMILES IDX 10 1 20 2 21 3 22 4 2 5 3 6 4 7 6 8 7 9 8 10 11 11 12 12
REMARK SMILES IDX 13 13 19 14 15 15 17 16 14 17 16 19 18 21 9 23 1 25 5 27
REMARK H PARENT 14 18 16 20 18 22 9 24 1 26 5 28
REMARK Flexibility Score: inf
ROOT
ATOM      1  C   UNL     1     101.682 110.920 108.268  1.00  0.00     0.402 A 
ATOM      2  O   UNL     1     102.861 111.512 108.459  1.00  0.00    -0.202 OA
ATOM      3  C   UNL     1     103.909 110.889 108.986  1.00  0.00     0.368 A 
ATOM      4  C   UNL     1     105.112 111.583 109.158  1.00  0.00     0.162 A 
ATOM      5  C   UNL     1     106.224 110.939 109.715  1.00  0.00     0.128 A 
ATOM      6  C   UNL     1     106.132 109.597 110.101  1.00  0.00     0.093 A 
ATOM      7  C   UNL     1     104.934 108.888 109.935  1.00  0.00     0.136 A 
ATOM      8  C   UNL     1     103.815 109.535 109.374  1.00  0.00     0.125 A 
ATOM      9  C   UNL     1     102.598 108.876 109.176  1.00  0.00     0.078 A 
ATOM     10  C   UNL     1     101.519 109.563 108.610  1.00  0.00     0.223 A 
ENDROOT
BRANCH   1  11
ATOM     11  C   UNL     1     100.584 111.721 107.680  1.00  0.00     0.091 A 
ATOM     12  C   UNL     1     100.657 112.111 106.334  1.00  0.00     0.068 A 
ATOM     13  C   UNL     1      99.642 112.886 105.758  1.00  0.00     0.162 A 
ATOM     14  C   UNL     1      99.493 112.149 108.457  1.00  0.00     0.068 A 
ATOM     15  C   UNL     1      98.545 113.292 106.537  1.00  0.00     0.200 A 
ATOM     16  C   UNL     1      98.475 112.926 107.886  1.00  0.00     0.162 A 
BRANCH  13  17
ATOM     17  O   UNL     1      99.719 113.254 104.416  1.00  0.00    -0.504 OA
ATOM     18  H   UNL     1      99.384 114.153 104.090  1.00  0.00     0.293 HD
ENDBRANCH  13  17
BRANCH  15  19
ATOM     19  O   UNL     1      97.520 114.061 105.986  1.00  0.00    -0.502 OA
ATOM     20  H   UNL     1      97.511 115.072 106.049  1.00  0.00     0.293 HD
ENDBRANCH  15  19
BRANCH  16  21
ATOM     21  O   UNL     1      97.392 113.344 108.659  1.00  0.00    -0.504 OA
ATOM     22  H   UNL     1      97.408 114.223 109.163  1.00  0.00     0.293 HD
ENDBRANCH  16  21
ENDBRANCH   1  11
BRANCH  10  23
ATOM     23  O   UNL     1     100.318 108.898 108.364  1.00  0.00    -0.500 OA
ATOM     24  H   UNL     1      99.838 108.380 109.091  1.00  0.00     0.294 HD
ENDBRANCH  10  23
BRANCH   5  25
ATOM     25  O   UNL     1     107.425 111.622 109.890  1.00  0.00    -0.507 OA
ATOM     26  H   UNL     1     108.284 111.134 110.119  1.00  0.00     0.293 HD
ENDBRANCH   5  25
BRANCH   7  27
ATOM     27  O   UNL     1     104.855 107.550 110.322  1.00  0.00    -0.507 OA
ATOM     28  H   UNL     1     105.369 106.825 109.836  1.00  0.00     0.293 HD
ENDBRANCH   7  27
TORSDOF 7
ENDMDL
MODEL 9
REMARK VINA RESULT:    -4.349     10.379     12.043
REMARK INTER + INTRA:          -5.744
REMARK INTER:                  -5.364
REMARK INTRA:                  -0.380
REMARK UNBOUND:                -0.379
REMARK SMILES Oc1cc(O)c2cc(O)c(-c3cc(O)c(O)c(O)c3)[o+]c2c1
REMARK SMILES IDX 10 1 20 2 21 3 22 4 2 5 3 6 4 7 6 8 7 9 8 10 11 11 12 12
REMARK SMILES IDX 13 13 19 14 15 15 17 16 14 17 16 19 18 21 9 23 1 25 5 27
REMARK H PARENT 14 18 16 20 18 22 9 24 1 26 5 28
REMARK Flexibility Score: inf
ROOT
ATOM      1  C   UNL     1     102.111 111.425 108.311  1.00  0.00     0.402 A 
ATOM      2  O   UNL     1     102.176 110.096 108.393  1.00  0.00    -0.202 OA
ATOM      3  C   UNL     1     103.221 109.450 108.899  1.00  0.00     0.368 A 
ATOM      4  C   UNL     1     103.214 108.052 108.946  1.00  0.00     0.162 A 
ATOM      5  C   UNL     1     104.311 107.359 109.474  1.00  0.00     0.128 A 
ATOM      6  C   UNL     1     105.417 108.067 109.956  1.00  0.00     0.093 A 
ATOM      7  C   UNL     1     105.439 109.468 109.917  1.00  0.00     0.136 A 
ATOM      8  C   UNL     1     104.336 110.166 109.386  1.00  0.00     0.125 A 
ATOM      9  C   UNL     1     104.298 111.563 109.329  1.00  0.00     0.078 A 
ATOM     10  C   UNL     1     103.177 112.207 108.798  1.00  0.00     0.223 A 
ENDROOT
BRANCH   1  11
ATOM     11  C   UNL     1     100.897 112.030 107.718  1.00  0.00     0.091 A 
ATOM     12  C   UNL     1     100.883 112.358 106.353  1.00  0.00     0.068 A 
ATOM     13  C   UNL     1      99.755 112.950 105.771  1.00  0.00     0.162 A 
ATOM     14  C   UNL     1      99.773 112.338 108.505  1.00  0.00     0.068 A 
ATOM     15  C   UNL     1      98.628 113.234 106.562  1.00  0.00     0.200 A 
ATOM     16  C   UNL     1      98.642 112.932 107.928  1.00  0.00     0.162 A 
BRANCH  13  17
ATOM     17  O   UNL     1      99.749 113.256 104.411  1.00  0.00    -0.504 OA
ATOM     18  H   UNL     1     100.498 112.961 103.796  1.00  0.00     0.293 HD
ENDBRANCH  13  17
BRANCH  15  19
ATOM     19  O   UNL     1      97.492 113.821 106.005  1.00  0.00    -0.502 OA
ATOM     20  H   UNL     1      96.708 113.271 105.672  1.00  0.00     0.293 HD
ENDBRANCH  15  19
BRANCH  16  21
ATOM     21  O   UNL     1      97.527 113.229 108.712  1.00  0.00    -0.504 OA
ATOM     22  H   UNL     1      96.672 113.586 108.303  1.00  0.00     0.293 HD
ENDBRANCH  16  21
ENDBRANCH   1  11
BRANCH  10  23
ATOM     23  O   UNL     1     103.112 113.600 108.784  1.00  0.00    -0.500 OA
ATOM     24  H   UNL     1     103.922 114.173 108.992  1.00  0.00     0.294 HD
ENDBRANCH  10  23
BRANCH   5  25
ATOM     25  O   UNL     1     104.312 105.966 109.524  1.00  0.00    -0.507 OA
ATOM     26  H   UNL     1     103.450 105.434 109.491  1.00  0.00     0.293 HD
ENDBRANCH   5  25
BRANCH   7  27
ATOM     27  O   UNL     1     106.547 110.163 110.402  1.00  0.00    -0.507 OA
ATOM     28  H   UNL     1     107.149 109.770 111.115  1.00  0.00     0.293 HD
ENDBRANCH   7  27
TORSDOF 7
ENDMDL
