MODEL 1
REMARK VINA RESULT:    -2.829      0.000      0.000
REMARK INTER + INTRA:          -3.396
REMARK INTER:                  -3.325
REMARK INTRA:                  -0.071
REMARK UNBOUND:                -0.071
REMARK SMILES O=C([O-])CCC(=O)[O-]
REMARK SMILES IDX 4 1 2 2 1 3 3 4 5 5 6 6 7 7 8 8
REMARK H PARENT
REMARK Flexibility Score: inf
ROOT
ATOM      1  C   UNL     1      45.123 -26.705   2.040  1.00  0.00     0.059 C 
ENDROOT
BRANCH   1   2
ATOM      2  C   UNL     1      45.821 -28.014   2.250  1.00  0.00     0.042 C 
ATOM      3  O   UNL     1      46.103 -28.402   3.414  1.00  0.00    -0.550 OA
ATOM      4  O   UNL     1      46.125 -28.823   1.163  1.00  0.00    -0.550 OA
ENDBRANCH   1   2
BRANCH   1   5
ATOM      5  C   UNL     1      46.118 -25.574   1.761  1.00  0.00     0.059 C 
BRANCH   5   6
ATOM      6  C   UNL     1      45.754 -24.811   0.525  1.00  0.00     0.042 C 
ATOM      7  O   UNL     1      45.409 -23.602   0.604  1.00  0.00    -0.550 OA
ATOM      8  O   UNL     1      45.755 -25.446  -0.712  1.00  0.00    -0.550 OA
ENDBRANCH   5   6
ENDBRANCH   1   5
TORSDOF 3
ENDMDL
MODEL 2
REMARK VINA RESULT:    -2.727      1.207      4.192
REMARK INTER + INTRA:          -3.277
REMARK INTER:                  -3.242
REMARK INTRA:                  -0.035
REMARK UNBOUND:                -0.071
REMARK SMILES O=C([O-])CCC(=O)[O-]
REMARK SMILES IDX 4 1 2 2 1 3 3 4 5 5 6 6 7 7 8 8
REMARK H PARENT
REMARK Flexibility Score: inf
ROOT
ATOM      1  C   UNL     1      45.452 -25.032   0.898  1.00  0.00     0.059 C 
ENDROOT
BRANCH   1   2
ATOM      2  C   UNL     1      45.498 -24.513  -0.507  1.00  0.00     0.042 C 
ATOM      3  O   UNL     1      45.495 -23.273  -0.725  1.00  0.00    -0.550 OA
ATOM      4  O   UNL     1      45.584 -25.398  -1.574  1.00  0.00    -0.550 OA
ENDBRANCH   1   2
BRANCH   1   5
ATOM      5  C   UNL     1      46.125 -26.402   1.015  1.00  0.00     0.059 C 
BRANCH   5   6
ATOM      6  C   UNL     1      45.606 -27.174   2.189  1.00  0.00     0.042 C 
ATOM      7  O   UNL     1      45.432 -28.419   2.103  1.00  0.00    -0.550 OA
ATOM      8  O   UNL     1      45.274 -26.513   3.366  1.00  0.00    -0.550 OA
ENDBRANCH   5   6
ENDBRANCH   1   5
TORSDOF 3
ENDMDL
MODEL 3
REMARK VINA RESULT:    -2.566      4.936      6.393
REMARK INTER + INTRA:          -3.088
REMARK INTER:                  -3.043
REMARK INTRA:                  -0.045
REMARK UNBOUND:                -0.071
REMARK SMILES O=C([O-])CCC(=O)[O-]
REMARK SMILES IDX 4 1 2 2 1 3 3 4 5 5 6 6 7 7 8 8
REMARK H PARENT
REMARK Flexibility Score: inf
ROOT
ATOM      1  C   UNL     1      46.079 -25.333  -4.088  1.00  0.00     0.059 C 
ENDROOT
BRANCH   1   2
ATOM      2  C   UNL     1      45.273 -25.479  -2.833  1.00  0.00     0.042 C 
ATOM      3  O   UNL     1      45.849 -25.550  -1.715  1.00  0.00    -0.550 OA
ATOM      4  O   UNL     1      43.886 -25.499  -2.894  1.00  0.00    -0.550 OA
ENDBRANCH   1   2
BRANCH   1   5
ATOM      5  C   UNL     1      46.124 -23.877  -4.562  1.00  0.00     0.059 C 
BRANCH   5   6
ATOM      6  C   UNL     1      45.969 -23.776  -6.048  1.00  0.00     0.042 C 
ATOM      7  O   UNL     1      46.119 -24.795  -6.773  1.00  0.00    -0.550 OA
ATOM      8  O   UNL     1      45.701 -22.546  -6.638  1.00  0.00    -0.550 OA
ENDBRANCH   5   6
ENDBRANCH   1   5
TORSDOF 3
ENDMDL
MODEL 4
REMARK VINA RESULT:    -2.471      2.873      4.247
REMARK INTER + INTRA:          -2.975
REMARK INTER:                  -2.934
REMARK INTRA:                  -0.041
REMARK UNBOUND:                -0.071
REMARK SMILES O=C([O-])CCC(=O)[O-]
REMARK SMILES IDX 4 1 2 2 1 3 3 4 5 5 6 6 7 7 8 8
REMARK H PARENT
REMARK Flexibility Score: inf
ROOT
ATOM      1  C   UNL     1      45.202 -24.466  -0.864  1.00  0.00     0.059 C 
ENDROOT
BRANCH   1   2
ATOM      2  C   UNL     1      45.761 -24.139   0.488  1.00  0.00     0.042 C 
ATOM      3  O   UNL     1      46.121 -22.963   0.756  1.00  0.00    -0.550 OA
ATOM      4  O   UNL     1      45.849 -25.125   1.462  1.00  0.00    -0.550 OA
ENDBRANCH   1   2
BRANCH   1   5
ATOM      5  C   UNL     1      46.045 -23.855  -1.986  1.00  0.00     0.059 C 
BRANCH   5   6
ATOM      6  C   UNL     1      46.108 -24.754  -3.182  1.00  0.00     0.042 C 
ATOM      7  O   UNL     1      46.125 -24.265  -4.343  1.00  0.00    -0.550 OA
ATOM      8  O   UNL     1      46.105 -26.134  -3.017  1.00  0.00    -0.550 OA
ENDBRANCH   5   6
ENDBRANCH   1   5
TORSDOF 3
ENDMDL
MODEL 5
REMARK VINA RESULT:    -1.876      7.316      8.958
REMARK INTER + INTRA:          -2.276
REMARK INTER:                  -2.159
REMARK INTRA:                  -0.117
REMARK UNBOUND:                -0.071
REMARK SMILES O=C([O-])CCC(=O)[O-]
REMARK SMILES IDX 4 1 2 2 1 3 3 4 5 5 6 6 7 7 8 8
REMARK H PARENT
REMARK Flexibility Score: inf
ROOT
ATOM      1  C   UNL     1      44.856 -29.590  10.539  1.00  0.00     0.059 C 
ENDROOT
BRANCH   1   2
ATOM      2  C   UNL     1      45.025 -31.074  10.654  1.00  0.00     0.042 C 
ATOM      3  O   UNL     1      46.125 -31.611  10.358  1.00  0.00    -0.550 OA
ATOM      4  O   UNL     1      43.981 -31.860  11.125  1.00  0.00    -0.550 OA
ENDBRANCH   1   2
BRANCH   1   5
ATOM      5  C   UNL     1      46.079 -28.931   9.893  1.00  0.00     0.059 C 
BRANCH   5   6
ATOM      6  C   UNL     1      45.796 -28.504   8.485  1.00  0.00     0.042 C 
ATOM      7  O   UNL     1      45.708 -27.280   8.199  1.00  0.00    -0.550 OA
ATOM      8  O   UNL     1      45.589 -29.458   7.496  1.00  0.00    -0.550 OA
ENDBRANCH   5   6
ENDBRANCH   1   5
TORSDOF 3
ENDMDL
MODEL 6
REMARK VINA RESULT:    -1.679      3.264      4.921
REMARK INTER + INTRA:          -2.045
REMARK INTER:                  -2.010
REMARK INTRA:                  -0.034
REMARK UNBOUND:                -0.071
REMARK SMILES O=C([O-])CCC(=O)[O-]
REMARK SMILES IDX 4 1 2 2 1 3 3 4 5 5 6 6 7 7 8 8
REMARK H PARENT
REMARK Flexibility Score: inf
ROOT
ATOM      1  C   UNL     1      46.103 -25.367  -1.842  1.00  0.00     0.059 C 
ENDROOT
BRANCH   1   2
ATOM      2  C   UNL     1      45.876 -24.676  -0.531  1.00  0.00     0.042 C 
ATOM      3  O   UNL     1      46.109 -23.445  -0.415  1.00  0.00    -0.550 OA
ATOM      4  O   UNL     1      45.372 -25.386   0.551  1.00  0.00    -0.550 OA
ENDBRANCH   1   2
BRANCH   1   5
ATOM      5  C   UNL     1      45.466 -24.596  -3.002  1.00  0.00     0.059 C 
BRANCH   5   6
ATOM      6  C   UNL     1      45.849 -25.177  -4.328  1.00  0.00     0.042 C 
ATOM      7  O   UNL     1      46.125 -26.402  -4.428  1.00  0.00    -0.550 OA
ATOM      8  O   UNL     1      45.941 -24.358  -5.447  1.00  0.00    -0.550 OA
ENDBRANCH   5   6
ENDBRANCH   1   5
TORSDOF 3
ENDMDL
MODEL 7
REMARK VINA RESULT:    -1.637      2.796      4.702
REMARK INTER + INTRA:          -1.995
REMARK INTER:                  -1.959
REMARK INTRA:                  -0.036
REMARK UNBOUND:                -0.071
REMARK SMILES O=C([O-])CCC(=O)[O-]
REMARK SMILES IDX 4 1 2 2 1 3 3 4 5 5 6 6 7 7 8 8
REMARK H PARENT
REMARK Flexibility Score: inf
ROOT
ATOM      1  C   UNL     1      45.678 -27.563   3.683  1.00  0.00     0.059 C 
ENDROOT
BRANCH   1   2
ATOM      2  C   UNL     1      45.696 -27.036   2.280  1.00  0.00     0.042 C 
ATOM      3  O   UNL     1      45.451 -25.821   2.057  1.00  0.00    -0.550 OA
ATOM      4  O   UNL     1      46.022 -27.877   1.225  1.00  0.00    -0.550 OA
ENDBRANCH   1   2
BRANCH   1   5
ATOM      5  C   UNL     1      46.124 -26.499   4.691  1.00  0.00     0.059 C 
BRANCH   5   6
ATOM      6  C   UNL     1      46.030 -26.999   6.099  1.00  0.00     0.042 C 
ATOM      7  O   UNL     1      46.125 -28.231   6.343  1.00  0.00    -0.550 OA
ATOM      8  O   UNL     1      45.796 -26.107   7.140  1.00  0.00    -0.550 OA
ENDBRANCH   5   6
ENDBRANCH   1   5
TORSDOF 3
ENDMDL
MODEL 8
REMARK VINA RESULT:    -0.273      3.590      4.549
REMARK INTER + INTRA:          -0.393
REMARK INTER:                  -0.702
REMARK INTRA:                   0.309
REMARK UNBOUND:                -0.071
REMARK SMILES O=C([O-])CCC(=O)[O-]
REMARK SMILES IDX 4 1 2 2 1 3 3 4 5 5 6 6 7 7 8 8
REMARK H PARENT
REMARK Flexibility Score: inf
ROOT
ATOM      1  C   UNL     1      45.432 -24.452   0.513  1.00  0.00     0.059 C 
ENDROOT
BRANCH   1   2
ATOM      2  C   UNL     1      45.794 -23.003   0.391  1.00  0.00     0.042 C 
ATOM      3  O   UNL     1      46.125 -22.526  -0.726  1.00  0.00    -0.550 OA
ATOM      4  O   UNL     1      45.728 -22.173   1.502  1.00  0.00    -0.550 OA
ENDBRANCH   1   2
BRANCH   1   5
ATOM      5  C   UNL     1      46.121 -25.299  -0.561  1.00  0.00     0.059 C 
BRANCH   5   6
ATOM      6  C   UNL     1      45.389 -25.239  -1.866  1.00  0.00     0.042 C 
ATOM      7  O   UNL     1      45.918 -25.699  -2.912  1.00  0.00    -0.550 OA
ATOM      8  O   UNL     1      44.137 -24.639  -1.935  1.00  0.00    -0.550 OA
ENDBRANCH   5   6
ENDBRANCH   1   5
TORSDOF 3
ENDMDL
