MODEL 1
REMARK VINA RESULT:    21.218      0.000      0.000
REMARK INTER + INTRA:          34.721
REMARK INTER:                  34.863
REMARK INTRA:                  -0.142
REMARK UNBOUND:                -0.142
REMARK SMILES C[C@@H]1O[C@H](OC[C@@H]2O[C@H](Oc3c(-c4ccc(O)c(O)c4)oc4cc(O)cc(O)c4c3=O)[C@@H](O)[C@H](O)[C@@H]2O)[C@@H](O)[C@@H](O)[C@@H]1O
REMARK SMILES IDX 7 1 36 2 34 3 32 4 9 5 8 6 6 7 5 8 4 9 1 10 2 11 42 12 3 13
REMARK SMILES IDX 40 14 38 15 43 16 41 18 39 20 37 22 35 24 10 26 11 27 12 28
REMARK SMILES IDX 30 29 21 30 29 31 31 32 22 33 27 34 23 35 26 36 24 37 13 38
REMARK SMILES IDX 20 39 14 40 18 41 15 42 16 43 19 44 17 46 28 48 25 50 33 52
REMARK H PARENT 43 17 41 19 39 21 37 23 35 25 19 45 17 47 28 49 25 51 33 53
REMARK Flexibility Score: inf
ROOT
ATOM      1  C   UNL     1     -14.324  59.218  33.334  1.00  0.00     0.180 C 
ATOM      2  C   UNL     1     -13.049  59.267  32.452  1.00  0.00     0.177 C 
ATOM      3  C   UNL     1     -13.390  59.321  30.962  1.00  0.00     0.180 C 
ATOM      4  C   UNL     1     -14.419  60.420  30.670  1.00  0.00     0.214 C 
ATOM      5  C   UNL     1     -15.607  60.407  31.663  1.00  0.00     0.339 C 
ATOM      6  O   UNL     1     -15.253  60.251  33.040  1.00  0.00    -0.332 OA
ENDROOT
BRANCH   1   7
ATOM      7  C   UNL     1     -14.993  57.820  33.441  1.00  0.00     0.198 C 
BRANCH   7   8
ATOM      8  O   UNL     1     -14.024  56.795  33.315  1.00  0.00    -0.347 OA
BRANCH   8   9
ATOM      9  C   UNL     1     -14.039  56.222  32.016  1.00  0.00     0.281 C 
ATOM     10  C   UNL     1     -12.743  54.328  34.122  1.00  0.00     0.041 C 
ATOM     11  C   UNL     1     -13.118  54.091  32.645  1.00  0.00     0.150 C 
ATOM     12  C   UNL     1     -14.483  53.389  32.444  1.00  0.00     0.174 C 
ATOM     13  O   UNL     1     -12.988  55.271  31.847  1.00  0.00    -0.344 OA
ATOM     14  C   UNL     1     -15.631  54.389  32.639  1.00  0.00     0.179 C 
ATOM     15  C   UNL     1     -15.421  55.613  31.718  1.00  0.00     0.202 C 
BRANCH  12  16
ATOM     16  O   UNL     1     -14.633  52.311  33.335  1.00  0.00    -0.388 OA
ATOM     17  H   UNL     1     -13.713  52.058  33.637  1.00  0.00     0.211 HD
ENDBRANCH  12  16
BRANCH  14  18
ATOM     18  O   UNL     1     -16.870  53.784  32.364  1.00  0.00    -0.387 OA
ATOM     19  H   UNL     1     -17.571  54.457  32.560  1.00  0.00     0.211 HD
ENDBRANCH  14  18
BRANCH  15  20
ATOM     20  O   UNL     1     -15.484  55.291  30.349  1.00  0.00    -0.385 OA
ATOM     21  H   UNL     1     -14.873  54.522  30.161  1.00  0.00     0.211 HD
ENDBRANCH  15  20
ENDBRANCH   8   9
ENDBRANCH   7   8
ENDBRANCH   1   7
BRANCH   2  22
ATOM     22  O   UNL     1     -12.194  58.180  32.691  1.00  0.00    -0.387 OA
ATOM     23  H   UNL     1     -11.524  58.483  33.361  1.00  0.00     0.211 HD
ENDBRANCH   2  22
BRANCH   3  24
ATOM     24  O   UNL     1     -13.775  58.064  30.455  1.00  0.00    -0.387 OA
ATOM     25  H   UNL     1     -14.050  57.493  31.212  1.00  0.00     0.211 HD
ENDBRANCH   3  24
BRANCH   5  26
ATOM     26  O   UNL     1     -16.606  59.446  31.265  1.00  0.00    -0.454 OA
BRANCH  26  27
ATOM     27  C   UNL     1     -17.780  59.755  30.556  1.00  0.00     0.214 A 
ATOM     28  C   UNL     1     -17.792  59.674  29.142  1.00  0.00     0.180 A 
ATOM     29  C   UNL     1     -18.969  60.144  31.211  1.00  0.00     0.239 A 
ATOM     30  O   UNL     1     -18.863  60.088  28.471  1.00  0.00    -0.452 OA
ATOM     31  C   UNL     1     -20.076  60.588  30.454  1.00  0.00     0.111 A 
ATOM     32  O   UNL     1     -19.048  60.043  32.463  1.00  0.00    -0.285 OA
ATOM     33  C   UNL     1     -19.967  60.541  29.052  1.00  0.00     0.146 A 
ATOM     34  C   UNL     1     -21.272  61.055  31.042  1.00  0.00     0.134 A 
ATOM     35  C   UNL     1     -21.044  60.949  28.255  1.00  0.00     0.094 A 
ATOM     36  C   UNL     1     -22.332  61.472  30.227  1.00  0.00     0.093 A 
ATOM     37  C   UNL     1     -22.219  61.419  28.842  1.00  0.00     0.123 A 
BRANCH  28  38
ATOM     38  C   UNL     1     -16.678  59.111  28.328  1.00  0.00     0.025 A 
ATOM     39  C   UNL     1     -15.575  59.898  27.935  1.00  0.00     0.062 A 
ATOM     40  C   UNL     1     -16.639  57.727  28.070  1.00  0.00     0.016 A 
ATOM     41  C   UNL     1     -14.487  59.321  27.265  1.00  0.00     0.158 A 
ATOM     42  C   UNL     1     -15.552  57.146  27.405  1.00  0.00     0.051 A 
ATOM     43  C   UNL     1     -14.475  57.935  27.004  1.00  0.00     0.157 A 
BRANCH  41  44
ATOM     44  O   UNL     1     -13.418  60.141  26.899  1.00  0.00    -0.504 OA
ATOM     45  H   UNL     1     -12.731  60.461  27.575  1.00  0.00     0.293 HD
ENDBRANCH  41  44
BRANCH  43  46
ATOM     46  O   UNL     1     -13.375  57.345  26.369  1.00  0.00    -0.504 OA
ATOM     47  H   UNL     1     -12.566  57.883  26.083  1.00  0.00     0.293 HD
ENDBRANCH  43  46
ENDBRANCH  28  38
BRANCH  34  48
ATOM     48  O   UNL     1     -21.416  61.101  32.426  1.00  0.00    -0.507 OA
ATOM     49  H   UNL     1     -21.344  60.270  32.978  1.00  0.00     0.293 HD
ENDBRANCH  34  48
BRANCH  37  50
ATOM     50  O   UNL     1     -23.292  61.823  28.047  1.00  0.00    -0.508 OA
ATOM     51  H   UNL     1     -23.502  62.806  27.902  1.00  0.00     0.293 HD
ENDBRANCH  37  50
ENDBRANCH  26  27
ENDBRANCH   5  26
BRANCH   4  52
ATOM     52  O   UNL     1     -13.771  61.676  30.723  1.00  0.00    -0.384 OA
ATOM     53  H   UNL     1     -13.541  61.838  31.673  1.00  0.00     0.211 HD
ENDBRANCH   4  52
TORSDOF 16
ENDMDL
MODEL 2
REMARK VINA RESULT:    21.893      1.348      4.961
REMARK INTER + INTRA:          35.830
REMARK INTER:                  31.903
REMARK INTRA:                   3.927
REMARK UNBOUND:                -0.142
REMARK SMILES C[C@@H]1O[C@H](OC[C@@H]2O[C@H](Oc3c(-c4ccc(O)c(O)c4)oc4cc(O)cc(O)c4c3=O)[C@@H](O)[C@H](O)[C@@H]2O)[C@@H](O)[C@@H](O)[C@@H]1O
REMARK SMILES IDX 7 1 36 2 34 3 32 4 9 5 8 6 6 7 5 8 4 9 1 10 2 11 42 12 3 13
REMARK SMILES IDX 40 14 38 15 43 16 41 18 39 20 37 22 35 24 10 26 11 27 12 28
REMARK SMILES IDX 30 29 21 30 29 31 31 32 22 33 27 34 23 35 26 36 24 37 13 38
REMARK SMILES IDX 20 39 14 40 18 41 15 42 16 43 19 44 17 46 28 48 25 50 33 52
REMARK H PARENT 43 17 41 19 39 21 37 23 35 25 19 45 17 47 28 49 25 51 33 53
REMARK Flexibility Score: inf
ROOT
ATOM      1  C   UNL     1     -14.513  58.898  33.730  1.00  0.00     0.180 C 
ATOM      2  C   UNL     1     -12.998  58.814  33.407  1.00  0.00     0.177 C 
ATOM      3  C   UNL     1     -12.733  58.881  31.902  1.00  0.00     0.180 C 
ATOM      4  C   UNL     1     -13.464  60.069  31.264  1.00  0.00     0.214 C 
ATOM      5  C   UNL     1     -14.938  60.182  31.725  1.00  0.00     0.339 C 
ATOM      6  O   UNL     1     -15.157  60.012  33.127  1.00  0.00    -0.332 OA
ENDROOT
BRANCH   1   7
ATOM      7  C   UNL     1     -15.298  57.572  33.539  1.00  0.00     0.198 C 
BRANCH   7   8
ATOM      8  O   UNL     1     -14.405  56.483  33.392  1.00  0.00    -0.347 OA
BRANCH   8   9
ATOM      9  C   UNL     1     -14.517  55.888  32.107  1.00  0.00     0.281 C 
ATOM     10  C   UNL     1     -13.010  54.056  34.125  1.00  0.00     0.041 C 
ATOM     11  C   UNL     1     -13.503  53.787  32.689  1.00  0.00     0.150 C 
ATOM     12  C   UNL     1     -14.865  53.055  32.614  1.00  0.00     0.174 C 
ATOM     13  O   UNL     1     -13.466  54.955  31.865  1.00  0.00    -0.344 OA
ATOM     14  C   UNL     1     -16.013  54.035  32.891  1.00  0.00     0.179 C 
ATOM     15  C   UNL     1     -15.906  55.248  31.937  1.00  0.00     0.202 C 
BRANCH  12  16
ATOM     16  O   UNL     1     -14.916  51.989  33.531  1.00  0.00    -0.388 OA
ATOM     17  H   UNL     1     -14.935  52.397  34.445  1.00  0.00     0.211 HD
ENDBRANCH  12  16
BRANCH  14  18
ATOM     18  O   UNL     1     -17.258  53.401  32.731  1.00  0.00    -0.387 OA
ATOM     19  H   UNL     1     -17.581  53.623  31.820  1.00  0.00     0.211 HD
ENDBRANCH  14  18
BRANCH  15  20
ATOM     20  O   UNL     1     -16.078  54.901  30.583  1.00  0.00    -0.385 OA
ATOM     21  H   UNL     1     -15.283  54.383  30.271  1.00  0.00     0.211 HD
ENDBRANCH  15  20
ENDBRANCH   8   9
ENDBRANCH   7   8
ENDBRANCH   1   7
BRANCH   2  22
ATOM     22  O   UNL     1     -12.405  57.655  33.930  1.00  0.00    -0.387 OA
ATOM     23  H   UNL     1     -11.448  57.869  34.096  1.00  0.00     0.211 HD
ENDBRANCH   2  22
BRANCH   3  24
ATOM     24  O   UNL     1     -13.009  57.659  31.256  1.00  0.00    -0.387 OA
ATOM     25  H   UNL     1     -13.138  57.838  30.293  1.00  0.00     0.211 HD
ENDBRANCH   3  24
BRANCH   5  26
ATOM     26  O   UNL     1     -15.792  59.316  30.951  1.00  0.00    -0.454 OA
BRANCH  26  27
ATOM     27  C   UNL     1     -15.722  59.156  29.556  1.00  0.00     0.214 A 
ATOM     28  C   UNL     1     -16.892  59.297  28.771  1.00  0.00     0.180 A 
ATOM     29  C   UNL     1     -14.509  58.859  28.897  1.00  0.00     0.239 A 
ATOM     30  O   UNL     1     -16.846  59.019  27.470  1.00  0.00    -0.452 OA
ATOM     31  C   UNL     1     -14.513  58.559  27.517  1.00  0.00     0.111 A 
ATOM     32  O   UNL     1     -13.426  58.915  29.537  1.00  0.00    -0.285 OA
ATOM     33  C   UNL     1     -15.740  58.654  26.833  1.00  0.00     0.146 A 
ATOM     34  C   UNL     1     -13.350  58.189  26.806  1.00  0.00     0.134 A 
ATOM     35  C   UNL     1     -15.795  58.390  25.459  1.00  0.00     0.094 A 
ATOM     36  C   UNL     1     -13.430  57.914  25.435  1.00  0.00     0.093 A 
ATOM     37  C   UNL     1     -14.644  58.014  24.766  1.00  0.00     0.123 A 
BRANCH  28  38
ATOM     38  C   UNL     1     -18.199  59.779  29.297  1.00  0.00     0.025 A 
ATOM     39  C   UNL     1     -18.893  60.851  28.695  1.00  0.00     0.062 A 
ATOM     40  C   UNL     1     -18.842  59.058  30.322  1.00  0.00     0.016 A 
ATOM     41  C   UNL     1     -20.172  61.214  29.138  1.00  0.00     0.158 A 
ATOM     42  C   UNL     1     -20.121  59.416  30.766  1.00  0.00     0.051 A 
ATOM     43  C   UNL     1     -20.791  60.488  30.177  1.00  0.00     0.157 A 
BRANCH  41  44
ATOM     44  O   UNL     1     -20.818  62.280  28.509  1.00  0.00    -0.504 OA
ATOM     45  H   UNL     1     -20.323  63.127  28.245  1.00  0.00     0.293 HD
ENDBRANCH  41  44
BRANCH  43  46
ATOM     46  O   UNL     1     -22.083  60.821  30.600  1.00  0.00    -0.504 OA
ATOM     47  H   UNL     1     -22.253  61.514  31.318  1.00  0.00     0.293 HD
ENDBRANCH  43  46
ENDBRANCH  28  38
BRANCH  34  48
ATOM     48  O   UNL     1     -12.119  58.100  27.451  1.00  0.00    -0.507 OA
ATOM     49  H   UNL     1     -11.622  58.923  27.726  1.00  0.00     0.293 HD
ENDBRANCH  34  48
BRANCH  37  50
ATOM     50  O   UNL     1     -14.700  57.752  23.396  1.00  0.00    -0.508 OA
ATOM     51  H   UNL     1     -14.797  56.805  23.043  1.00  0.00     0.293 HD
ENDBRANCH  37  50
ENDBRANCH  26  27
ENDBRANCH   5  26
BRANCH   4  52
ATOM     52  O   UNL     1     -12.772  61.258  31.593  1.00  0.00    -0.384 OA
ATOM     53  H   UNL     1     -12.465  61.160  32.530  1.00  0.00     0.211 HD
ENDBRANCH   4  52
TORSDOF 16
ENDMDL
MODEL 3
REMARK VINA RESULT:    22.494      1.983      8.068
REMARK INTER + INTRA:          36.817
REMARK INTER:                  35.642
REMARK INTRA:                   1.175
REMARK UNBOUND:                -0.142
REMARK SMILES C[C@@H]1O[C@H](OC[C@@H]2O[C@H](Oc3c(-c4ccc(O)c(O)c4)oc4cc(O)cc(O)c4c3=O)[C@@H](O)[C@H](O)[C@@H]2O)[C@@H](O)[C@@H](O)[C@@H]1O
REMARK SMILES IDX 7 1 36 2 34 3 32 4 9 5 8 6 6 7 5 8 4 9 1 10 2 11 42 12 3 13
REMARK SMILES IDX 40 14 38 15 43 16 41 18 39 20 37 22 35 24 10 26 11 27 12 28
REMARK SMILES IDX 30 29 21 30 29 31 31 32 22 33 27 34 23 35 26 36 24 37 13 38
REMARK SMILES IDX 20 39 14 40 18 41 15 42 16 43 19 44 17 46 28 48 25 50 33 52
REMARK H PARENT 43 17 41 19 39 21 37 23 35 25 19 45 17 47 28 49 25 51 33 53
REMARK Flexibility Score: inf
ROOT
ATOM      1  C   UNL     1     -17.705  58.363  28.594  1.00  0.00     0.180 C 
ATOM      2  C   UNL     1     -16.768  58.161  27.375  1.00  0.00     0.177 C 
ATOM      3  C   UNL     1     -15.299  58.369  27.747  1.00  0.00     0.180 C 
ATOM      4  C   UNL     1     -14.923  57.555  28.991  1.00  0.00     0.214 C 
ATOM      5  C   UNL     1     -15.963  57.690  30.131  1.00  0.00     0.339 C 
ATOM      6  O   UNL     1     -17.331  57.592  29.727  1.00  0.00    -0.332 OA
ENDROOT
BRANCH   1   7
ATOM      7  C   UNL     1     -18.010  59.844  28.947  1.00  0.00     0.198 C 
BRANCH   7   8
ATOM      8  O   UNL     1     -19.387  60.013  29.236  1.00  0.00    -0.347 OA
BRANCH   8   9
ATOM      9  C   UNL     1     -19.657  61.313  29.739  1.00  0.00     0.281 C 
ATOM     10  C   UNL     1     -22.013  60.197  28.035  1.00  0.00     0.041 C 
ATOM     11  C   UNL     1     -21.904  61.470  28.897  1.00  0.00     0.150 C 
ATOM     12  C   UNL     1     -22.497  61.323  30.320  1.00  0.00     0.174 C 
ATOM     13  O   UNL     1     -20.582  62.016  28.912  1.00  0.00    -0.344 OA
ATOM     14  C   UNL     1     -21.527  60.552  31.225  1.00  0.00     0.179 C 
ATOM     15  C   UNL     1     -20.137  61.229  31.199  1.00  0.00     0.202 C 
BRANCH  12  16
ATOM     16  O   UNL     1     -23.740  60.665  30.283  1.00  0.00    -0.388 OA
ATOM     17  H   UNL     1     -23.549  59.700  30.099  1.00  0.00     0.211 HD
ENDBRANCH  12  16
BRANCH  14  18
ATOM     18  O   UNL     1     -22.013  60.497  32.543  1.00  0.00    -0.387 OA
ATOM     19  H   UNL     1     -23.003  60.502  32.487  1.00  0.00     0.211 HD
ENDBRANCH  14  18
BRANCH  15  20
ATOM     20  O   UNL     1     -20.146  62.528  31.743  1.00  0.00    -0.385 OA
ATOM     21  H   UNL     1     -20.168  63.198  31.002  1.00  0.00     0.211 HD
ENDBRANCH  15  20
ENDBRANCH   8   9
ENDBRANCH   7   8
ENDBRANCH   1   7
BRANCH   2  22
ATOM     22  O   UNL     1     -17.097  59.006  26.304  1.00  0.00    -0.387 OA
ATOM     23  H   UNL     1     -17.973  59.423  26.524  1.00  0.00     0.211 HD
ENDBRANCH   2  22
BRANCH   3  24
ATOM     24  O   UNL     1     -14.964  59.733  27.865  1.00  0.00    -0.387 OA
ATOM     25  H   UNL     1     -15.114  60.167  26.990  1.00  0.00     0.211 HD
ENDBRANCH   3  24
BRANCH   5  26
ATOM     26  O   UNL     1     -15.729  58.880  30.910  1.00  0.00    -0.454 OA
BRANCH  26  27
ATOM     27  C   UNL     1     -14.470  59.467  31.122  1.00  0.00     0.214 A 
ATOM     28  C   UNL     1     -13.514  58.810  31.935  1.00  0.00     0.180 A 
ATOM     29  C   UNL     1     -14.113  60.703  30.543  1.00  0.00     0.239 A 
ATOM     30  O   UNL     1     -12.374  59.427  32.237  1.00  0.00    -0.452 OA
ATOM     31  C   UNL     1     -12.897  61.325  30.903  1.00  0.00     0.111 A 
ATOM     32  O   UNL     1     -14.859  61.217  29.669  1.00  0.00    -0.285 OA
ATOM     33  C   UNL     1     -12.043  60.627  31.778  1.00  0.00     0.146 A 
ATOM     34  C   UNL     1     -12.506  62.592  30.415  1.00  0.00     0.134 A 
ATOM     35  C   UNL     1     -10.815  61.189  32.150  1.00  0.00     0.094 A 
ATOM     36  C   UNL     1     -11.280  63.142  30.811  1.00  0.00     0.093 A 
ATOM     37  C   UNL     1     -10.440  62.445  31.673  1.00  0.00     0.123 A 
BRANCH  28  38
ATOM     38  C   UNL     1     -13.677  57.427  32.466  1.00  0.00     0.025 A 
ATOM     39  C   UNL     1     -14.348  56.425  31.734  1.00  0.00     0.062 A 
ATOM     40  C   UNL     1     -13.017  57.059  33.655  1.00  0.00     0.016 A 
ATOM     41  C   UNL     1     -14.391  55.104  32.203  1.00  0.00     0.158 A 
ATOM     42  C   UNL     1     -13.056  55.741  34.125  1.00  0.00     0.051 A 
ATOM     43  C   UNL     1     -13.737  54.761  33.404  1.00  0.00     0.157 A 
BRANCH  41  44
ATOM     44  O   UNL     1     -15.065  54.148  31.442  1.00  0.00    -0.504 OA
ATOM     45  H   UNL     1     -14.891  53.153  31.552  1.00  0.00     0.293 HD
ENDBRANCH  41  44
BRANCH  43  46
ATOM     46  O   UNL     1     -13.743  53.437  33.860  1.00  0.00    -0.504 OA
ATOM     47  H   UNL     1     -13.566  53.201  34.829  1.00  0.00     0.293 HD
ENDBRANCH  43  46
ENDBRANCH  28  38
BRANCH  34  48
ATOM     48  O   UNL     1     -13.321  63.301  29.538  1.00  0.00    -0.507 OA
ATOM     49  H   UNL     1     -13.461  64.285  29.649  1.00  0.00     0.293 HD
ENDBRANCH  34  48
BRANCH  37  50
ATOM     50  O   UNL     1      -9.215  63.003  32.042  1.00  0.00    -0.508 OA
ATOM     51  H   UNL     1      -8.559  63.345  31.346  1.00  0.00     0.293 HD
ENDBRANCH  37  50
ENDBRANCH  26  27
ENDBRANCH   5  26
BRANCH   4  52
ATOM     52  O   UNL     1     -14.796  56.195  28.624  1.00  0.00    -0.384 OA
ATOM     53  H   UNL     1     -13.854  56.062  28.347  1.00  0.00     0.211 HD
ENDBRANCH   4  52
TORSDOF 16
ENDMDL
MODEL 4
REMARK VINA RESULT:    23.825      1.560      5.236
REMARK INTER + INTRA:          39.004
REMARK INTER:                  38.679
REMARK INTRA:                   0.324
REMARK UNBOUND:                -0.142
REMARK SMILES C[C@@H]1O[C@H](OC[C@@H]2O[C@H](Oc3c(-c4ccc(O)c(O)c4)oc4cc(O)cc(O)c4c3=O)[C@@H](O)[C@H](O)[C@@H]2O)[C@@H](O)[C@@H](O)[C@@H]1O
REMARK SMILES IDX 7 1 36 2 34 3 32 4 9 5 8 6 6 7 5 8 4 9 1 10 2 11 42 12 3 13
REMARK SMILES IDX 40 14 38 15 43 16 41 18 39 20 37 22 35 24 10 26 11 27 12 28
REMARK SMILES IDX 30 29 21 30 29 31 31 32 22 33 27 34 23 35 26 36 24 37 13 38
REMARK SMILES IDX 20 39 14 40 18 41 15 42 16 43 19 44 17 46 28 48 25 50 33 52
REMARK H PARENT 43 17 41 19 39 21 37 23 35 25 19 45 17 47 28 49 25 51 33 53
REMARK Flexibility Score: inf
ROOT
ATOM      1  C   UNL     1     -14.904  58.235  32.265  1.00  0.00     0.180 C 
ATOM      2  C   UNL     1     -14.502  58.918  33.598  1.00  0.00     0.177 C 
ATOM      3  C   UNL     1     -14.364  60.433  33.442  1.00  0.00     0.180 C 
ATOM      4  C   UNL     1     -15.599  61.033  32.757  1.00  0.00     0.214 C 
ATOM      5  C   UNL     1     -16.035  60.234  31.505  1.00  0.00     0.339 C 
ATOM      6  O   UNL     1     -16.053  58.813  31.660  1.00  0.00    -0.332 OA
ENDROOT
BRANCH   1   7
ATOM      7  C   UNL     1     -13.739  58.021  31.261  1.00  0.00     0.198 C 
BRANCH   7   8
ATOM      8  O   UNL     1     -12.829  57.054  31.755  1.00  0.00    -0.347 OA
BRANCH   8   9
ATOM      9  C   UNL     1     -12.934  55.830  31.044  1.00  0.00     0.281 C 
ATOM     10  C   UNL     1     -12.466  55.384  34.090  1.00  0.00     0.041 C 
ATOM     11  C   UNL     1     -12.791  54.385  32.961  1.00  0.00     0.150 C 
ATOM     12  C   UNL     1     -14.290  54.017  32.854  1.00  0.00     0.174 C 
ATOM     13  O   UNL     1     -12.234  54.775  31.702  1.00  0.00    -0.344 OA
ATOM     14  C   UNL     1     -15.069  55.145  32.164  1.00  0.00     0.179 C 
ATOM     15  C   UNL     1     -14.413  55.478  30.804  1.00  0.00     0.202 C 
BRANCH  12  16
ATOM     16  O   UNL     1     -14.841  53.765  34.124  1.00  0.00    -0.388 OA
ATOM     17  H   UNL     1     -15.688  54.294  34.180  1.00  0.00     0.211 HD
ENDBRANCH  12  16
BRANCH  14  18
ATOM     18  O   UNL     1     -16.414  54.779  31.976  1.00  0.00    -0.387 OA
ATOM     19  H   UNL     1     -16.868  54.883  32.852  1.00  0.00     0.211 HD
ENDBRANCH  14  18
BRANCH  15  20
ATOM     20  O   UNL     1     -14.478  54.413  29.885  1.00  0.00    -0.385 OA
ATOM     21  H   UNL     1     -15.217  53.794  30.147  1.00  0.00     0.211 HD
ENDBRANCH  15  20
ENDBRANCH   8   9
ENDBRANCH   7   8
ENDBRANCH   1   7
BRANCH   2  22
ATOM     22  O   UNL     1     -13.310  58.397  34.125  1.00  0.00    -0.387 OA
ATOM     23  H   UNL     1     -12.563  58.840  33.639  1.00  0.00     0.211 HD
ENDBRANCH   2  22
BRANCH   3  24
ATOM     24  O   UNL     1     -13.158  60.799  32.812  1.00  0.00    -0.387 OA
ATOM     25  H   UNL     1     -12.753  61.543  33.321  1.00  0.00     0.211 HD
ENDBRANCH   3  24
BRANCH   5  26
ATOM     26  O   UNL     1     -15.273  60.627  30.346  1.00  0.00    -0.454 OA
BRANCH  26  27
ATOM     27  C   UNL     1     -15.289  59.958  29.110  1.00  0.00     0.214 A 
ATOM     28  C   UNL     1     -16.519  59.522  28.559  1.00  0.00     0.180 A 
ATOM     29  C   UNL     1     -14.107  59.704  28.381  1.00  0.00     0.239 A 
ATOM     30  O   UNL     1     -16.517  58.780  27.455  1.00  0.00    -0.452 OA
ATOM     31  C   UNL     1     -14.153  58.900  27.221  1.00  0.00     0.111 A 
ATOM     32  O   UNL     1     -13.027  60.241  28.745  1.00  0.00    -0.285 OA
ATOM     33  C   UNL     1     -15.416  58.450  26.791  1.00  0.00     0.146 A 
ATOM     34  C   UNL     1     -13.003  58.550  26.480  1.00  0.00     0.134 A 
ATOM     35  C   UNL     1     -15.521  57.668  25.634  1.00  0.00     0.094 A 
ATOM     36  C   UNL     1     -13.128  57.755  25.334  1.00  0.00     0.093 A 
ATOM     37  C   UNL     1     -14.379  57.317  24.913  1.00  0.00     0.123 A 
BRANCH  28  38
ATOM     38  C   UNL     1     -17.855  59.870  29.119  1.00  0.00     0.025 A 
ATOM     39  C   UNL     1     -18.618  60.941  28.608  1.00  0.00     0.062 A 
ATOM     40  C   UNL     1     -18.448  59.022  30.075  1.00  0.00     0.016 A 
ATOM     41  C   UNL     1     -19.919  61.180  29.074  1.00  0.00     0.158 A 
ATOM     42  C   UNL     1     -19.747  59.256  30.541  1.00  0.00     0.051 A 
ATOM     43  C   UNL     1     -20.487  60.328  30.043  1.00  0.00     0.157 A 
BRANCH  41  44
ATOM     44  O   UNL     1     -20.635  62.251  28.536  1.00  0.00    -0.504 OA
ATOM     45  H   UNL     1     -20.819  63.095  29.070  1.00  0.00     0.293 HD
ENDBRANCH  41  44
BRANCH  43  46
ATOM     46  O   UNL     1     -21.799  60.537  30.486  1.00  0.00    -0.504 OA
ATOM     47  H   UNL     1     -22.281  61.417  30.346  1.00  0.00     0.293 HD
ENDBRANCH  43  46
ENDBRANCH  28  38
BRANCH  34  48
ATOM     48  O   UNL     1     -11.742  58.990  26.872  1.00  0.00    -0.507 OA
ATOM     49  H   UNL     1     -11.079  58.359  27.273  1.00  0.00     0.293 HD
ENDBRANCH  34  48
BRANCH  37  50
ATOM     50  O   UNL     1     -14.485  56.539  23.759  1.00  0.00    -0.508 OA
ATOM     51  H   UNL     1     -13.888  55.732  23.609  1.00  0.00     0.293 HD
ENDBRANCH  37  50
ENDBRANCH  26  27
ENDBRANCH   5  26
BRANCH   4  52
ATOM     52  O   UNL     1     -16.662  61.072  33.689  1.00  0.00    -0.384 OA
ATOM     53  H   UNL     1     -17.405  61.562  33.253  1.00  0.00     0.211 HD
ENDBRANCH   4  52
TORSDOF 16
ENDMDL
