MODEL 1
REMARK VINA RESULT:    -4.067      0.000      0.000
REMARK INTER + INTRA:          -5.143
REMARK INTER:                  -4.900
REMARK INTRA:                  -0.243
REMARK UNBOUND:                -0.243
REMARK SMILES NC(=O)C[C@@H]([NH3+])C(=O)[O-]
REMARK SMILES IDX 4 1 5 2 6 3 7 7 8 8 9 9 2 10 3 11 1 12
REMARK H PARENT 6 4 6 5 6 6 1 13 1 14
REMARK Flexibility Score: inf
ROOT
ATOM      1  C   UNL     1      -2.594 -17.004  20.036  1.00  0.00     0.171 C 
ENDROOT
BRANCH   1   2
ATOM      2  C   UNL     1      -2.715 -17.450  21.508  1.00  0.00     0.237 C 
BRANCH   2   3
ATOM      3  N   UNL     1      -3.309 -16.396  22.343  1.00  0.00    -0.350 N 
ATOM      4  H   UNL     1      -4.149 -16.766  22.844  1.00  0.00     0.345 HD
ATOM      5  H   UNL     1      -2.616 -16.044  23.045  1.00  0.00     0.345 HD
ATOM      6  H   UNL     1      -3.621 -15.599  21.740  1.00  0.00     0.345 HD
ENDBRANCH   2   3
BRANCH   2   7
ATOM      7  C   UNL     1      -3.537 -18.708  21.595  1.00  0.00     0.100 C 
ATOM      8  O   UNL     1      -4.517 -18.886  20.823  1.00  0.00    -0.544 OA
ATOM      9  O   UNL     1      -3.205 -19.692  22.518  1.00  0.00    -0.544 OA
ENDBRANCH   2   7
ENDBRANCH   1   2
BRANCH   1  10
ATOM     10  C   UNL     1      -1.420 -16.092  19.827  1.00  0.00     0.223 C 
ATOM     11  O   UNL     1      -1.469 -14.905  20.246  1.00  0.00    -0.275 OA
ATOM     12  N   UNL     1      -0.263 -16.549  19.128  1.00  0.00    -0.369 N 
ATOM     13  H   UNL     1      -0.214 -17.522  18.754  1.00  0.00     0.159 HD
ATOM     14  H   UNL     1       0.547 -15.908  18.976  1.00  0.00     0.159 HD
ENDBRANCH   1  10
TORSDOF 4
ENDMDL
MODEL 2
REMARK VINA RESULT:    -3.987      1.011      4.364
REMARK INTER + INTRA:          -5.046
REMARK INTER:                  -4.791
REMARK INTRA:                  -0.255
REMARK UNBOUND:                -0.243
REMARK SMILES NC(=O)C[C@@H]([NH3+])C(=O)[O-]
REMARK SMILES IDX 4 1 5 2 6 3 7 7 8 8 9 9 2 10 3 11 1 12
REMARK H PARENT 6 4 6 5 6 6 1 13 1 14
REMARK Flexibility Score: inf
ROOT
ATOM      1  C   UNL     1      -2.624 -16.869  19.770  1.00  0.00     0.171 C 
ENDROOT
BRANCH   1   2
ATOM      2  C   UNL     1      -1.279 -16.168  20.052  1.00  0.00     0.237 C 
BRANCH   2   3
ATOM      3  N   UNL     1      -0.241 -16.593  19.102  1.00  0.00    -0.350 N 
ATOM      4  H   UNL     1       0.491 -17.151  19.597  1.00  0.00     0.345 HD
ATOM      5  H   UNL     1      -0.654 -17.170  18.334  1.00  0.00     0.345 HD
ATOM      6  H   UNL     1       0.225 -15.752  18.687  1.00  0.00     0.345 HD
ENDBRANCH   2   3
BRANCH   2   7
ATOM      7  C   UNL     1      -1.459 -14.675  19.994  1.00  0.00     0.100 C 
ATOM      8  O   UNL     1      -0.580 -13.945  19.464  1.00  0.00    -0.544 OA
ATOM      9  O   UNL     1      -2.612 -14.095  20.509  1.00  0.00    -0.544 OA
ENDBRANCH   2   7
ENDBRANCH   1   2
BRANCH   1  10
ATOM     10  C   UNL     1      -3.172 -17.533  20.999  1.00  0.00     0.223 C 
ATOM     11  O   UNL     1      -3.525 -18.741  20.953  1.00  0.00    -0.275 OA
ATOM     12  N   UNL     1      -3.329 -16.796  22.212  1.00  0.00    -0.369 N 
ATOM     13  H   UNL     1      -3.064 -15.788  22.263  1.00  0.00     0.159 HD
ATOM     14  H   UNL     1      -3.721 -17.260  23.062  1.00  0.00     0.159 HD
ENDBRANCH   1  10
TORSDOF 4
ENDMDL
MODEL 3
REMARK VINA RESULT:    -3.932      2.779      4.281
REMARK INTER + INTRA:          -4.981
REMARK INTER:                  -4.903
REMARK INTRA:                  -0.077
REMARK UNBOUND:                -0.243
REMARK SMILES NC(=O)C[C@@H]([NH3+])C(=O)[O-]
REMARK SMILES IDX 4 1 5 2 6 3 7 7 8 8 9 9 2 10 3 11 1 12
REMARK H PARENT 6 4 6 5 6 6 1 13 1 14
REMARK Flexibility Score: inf
ROOT
ATOM      1  C   UNL     1      -2.128 -14.914  19.332  1.00  0.00     0.171 C 
ENDROOT
BRANCH   1   2
ATOM      2  C   UNL     1      -1.774 -13.819  20.359  1.00  0.00     0.237 C 
BRANCH   2   3
ATOM      3  N   UNL     1      -0.874 -12.811  19.783  1.00  0.00    -0.350 N 
ATOM      4  H   UNL     1       0.086 -12.917  20.181  1.00  0.00     0.345 HD
ATOM      5  H   UNL     1      -0.828 -12.906  18.742  1.00  0.00     0.345 HD
ATOM      6  H   UNL     1      -1.215 -11.851  20.025  1.00  0.00     0.345 HD
ENDBRANCH   2   3
BRANCH   2   7
ATOM      7  C   UNL     1      -3.033 -13.166  20.863  1.00  0.00     0.100 C 
ATOM      8  O   UNL     1      -3.781 -12.526  20.077  1.00  0.00    -0.544 OA
ATOM      9  O   UNL     1      -3.389 -13.285  22.201  1.00  0.00    -0.544 OA
ENDBRANCH   2   7
ENDBRANCH   1   2
BRANCH   1  10
ATOM     10  C   UNL     1      -1.486 -16.227  19.677  1.00  0.00     0.223 C 
ATOM     11  O   UNL     1      -2.058 -17.010  20.481  1.00  0.00    -0.275 OA
ATOM     12  N   UNL     1      -0.217 -16.579  19.128  1.00  0.00    -0.369 N 
ATOM     13  H   UNL     1       0.284 -15.933  18.478  1.00  0.00     0.159 HD
ATOM     14  H   UNL     1       0.231 -17.489  19.379  1.00  0.00     0.159 HD
ENDBRANCH   1  10
TORSDOF 4
ENDMDL
MODEL 4
REMARK VINA RESULT:    -3.897      8.747     10.269
REMARK INTER + INTRA:          -4.937
REMARK INTER:                  -4.657
REMARK INTRA:                  -0.280
REMARK UNBOUND:                -0.243
REMARK SMILES NC(=O)C[C@@H]([NH3+])C(=O)[O-]
REMARK SMILES IDX 4 1 5 2 6 3 7 7 8 8 9 9 2 10 3 11 1 12
REMARK H PARENT 6 4 6 5 6 6 1 13 1 14
REMARK Flexibility Score: inf
ROOT
ATOM      1  C   UNL     1       3.950 -10.848  17.515  1.00  0.00     0.171 C 
ENDROOT
BRANCH   1   2
ATOM      2  C   UNL     1       4.441 -12.253  17.110  1.00  0.00     0.237 C 
BRANCH   2   3
ATOM      3  N   UNL     1       3.750 -12.739  15.907  1.00  0.00    -0.350 N 
ATOM      4  H   UNL     1       4.428 -13.219  15.273  1.00  0.00     0.345 HD
ATOM      5  H   UNL     1       2.985 -13.406  16.162  1.00  0.00     0.345 HD
ATOM      6  H   UNL     1       3.340 -11.930  15.382  1.00  0.00     0.345 HD
ENDBRANCH   2   3
BRANCH   2   7
ATOM      7  C   UNL     1       5.928 -12.228  16.882  1.00  0.00     0.100 C 
ATOM      8  O   UNL     1       6.671 -13.100  17.409  1.00  0.00    -0.544 OA
ATOM      9  O   UNL     1       6.490 -11.251  16.070  1.00  0.00    -0.544 OA
ENDBRANCH   2   7
ENDBRANCH   1   2
BRANCH   1  10
ATOM     10  C   UNL     1       2.453 -10.791  17.618  1.00  0.00     0.223 C 
ATOM     11  O   UNL     1       1.821 -11.773  18.088  1.00  0.00    -0.275 OA
ATOM     12  N   UNL     1       1.738  -9.645  17.154  1.00  0.00    -0.369 N 
ATOM     13  H   UNL     1       2.243  -8.831  16.739  1.00  0.00     0.159 HD
ATOM     14  H   UNL     1       0.696  -9.615  17.218  1.00  0.00     0.159 HD
ENDBRANCH   1  10
TORSDOF 4
ENDMDL
MODEL 5
REMARK VINA RESULT:    -3.875      2.483      4.264
REMARK INTER + INTRA:          -4.911
REMARK INTER:                  -4.690
REMARK INTRA:                  -0.221
REMARK UNBOUND:                -0.243
REMARK SMILES NC(=O)C[C@@H]([NH3+])C(=O)[O-]
REMARK SMILES IDX 4 1 5 2 6 3 7 7 8 8 9 9 2 10 3 11 1 12
REMARK H PARENT 6 4 6 5 6 6 1 13 1 14
REMARK Flexibility Score: inf
ROOT
ATOM      1  C   UNL     1      -1.448 -14.723  19.876  1.00  0.00     0.171 C 
ENDROOT
BRANCH   1   2
ATOM      2  C   UNL     1      -2.777 -14.392  20.588  1.00  0.00     0.237 C 
BRANCH   2   3
ATOM      3  N   UNL     1      -2.800 -14.922  21.959  1.00  0.00    -0.350 N 
ATOM      4  H   UNL     1      -3.776 -14.909  22.332  1.00  0.00     0.345 HD
ATOM      5  H   UNL     1      -2.434 -15.902  21.984  1.00  0.00     0.345 HD
ATOM      6  H   UNL     1      -2.212 -14.320  22.582  1.00  0.00     0.345 HD
ENDBRANCH   2   3
BRANCH   2   7
ATOM      7  C   UNL     1      -2.992 -12.903  20.601  1.00  0.00     0.100 C 
ATOM      8  O   UNL     1      -4.102 -12.414  20.261  1.00  0.00    -0.544 OA
ATOM      9  O   UNL     1      -1.968 -12.057  21.009  1.00  0.00    -0.544 OA
ENDBRANCH   2   7
ENDBRANCH   1   2
BRANCH   1  10
ATOM     10  C   UNL     1      -1.259 -16.203  19.714  1.00  0.00     0.223 C 
ATOM     11  O   UNL     1      -2.102 -16.999  20.205  1.00  0.00    -0.275 OA
ATOM     12  N   UNL     1      -0.113 -16.717  19.035  1.00  0.00    -0.369 N 
ATOM     13  H   UNL     1       0.609 -16.073  18.641  1.00  0.00     0.159 HD
ATOM     14  H   UNL     1       0.019 -17.748  18.933  1.00  0.00     0.159 HD
ENDBRANCH   1  10
TORSDOF 4
ENDMDL
MODEL 6
REMARK VINA RESULT:    -3.738     11.636     13.189
REMARK INTER + INTRA:          -4.746
REMARK INTER:                  -4.518
REMARK INTRA:                  -0.227
REMARK UNBOUND:                -0.243
REMARK SMILES NC(=O)C[C@@H]([NH3+])C(=O)[O-]
REMARK SMILES IDX 4 1 5 2 6 3 7 7 8 8 9 9 2 10 3 11 1 12
REMARK H PARENT 6 4 6 5 6 6 1 13 1 14
REMARK Flexibility Score: inf
ROOT
ATOM      1  C   UNL     1      -8.940 -28.013  19.149  1.00  0.00     0.171 C 
ENDROOT
BRANCH   1   2
ATOM      2  C   UNL     1      -8.873 -27.701  17.639  1.00  0.00     0.237 C 
BRANCH   2   3
ATOM      3  N   UNL     1     -10.011 -26.875  17.210  1.00  0.00    -0.350 N 
ATOM      4  H   UNL     1     -10.563 -26.564  18.041  1.00  0.00     0.345 HD
ATOM      5  H   UNL     1      -9.680 -26.034  16.682  1.00  0.00     0.345 HD
ATOM      6  H   UNL     1     -10.646 -27.437  16.597  1.00  0.00     0.345 HD
ENDBRANCH   2   3
BRANCH   2   7
ATOM      7  C   UNL     1      -7.576 -27.009  17.317  1.00  0.00     0.100 C 
ATOM      8  O   UNL     1      -7.000 -27.212  16.215  1.00  0.00    -0.544 OA
ATOM      9  O   UNL     1      -7.016 -26.125  18.231  1.00  0.00    -0.544 OA
ENDBRANCH   2   7
ENDBRANCH   1   2
BRANCH   1  10
ATOM     10  C   UNL     1     -10.245 -28.650  19.527  1.00  0.00     0.223 C 
ATOM     11  O   UNL     1     -11.019 -29.072  18.628  1.00  0.00    -0.275 OA
ATOM     12  N   UNL     1     -10.632 -28.750  20.898  1.00  0.00    -0.369 N 
ATOM     13  H   UNL     1     -10.015 -28.384  21.656  1.00  0.00     0.159 HD
ATOM     14  H   UNL     1     -11.546 -29.185  21.156  1.00  0.00     0.159 HD
ENDBRANCH   1  10
TORSDOF 4
ENDMDL
MODEL 7
REMARK VINA RESULT:    -3.725      7.612      9.690
REMARK INTER + INTRA:          -4.731
REMARK INTER:                  -4.632
REMARK INTRA:                  -0.099
REMARK UNBOUND:                -0.243
REMARK SMILES NC(=O)C[C@@H]([NH3+])C(=O)[O-]
REMARK SMILES IDX 4 1 5 2 6 3 7 7 8 8 9 9 2 10 3 11 1 12
REMARK H PARENT 6 4 6 5 6 6 1 13 1 14
REMARK Flexibility Score: inf
ROOT
ATOM      1  C   UNL     1       2.823 -11.472  17.524  1.00  0.00     0.171 C 
ENDROOT
BRANCH   1   2
ATOM      2  C   UNL     1       4.038 -12.334  17.122  1.00  0.00     0.237 C 
BRANCH   2   3
ATOM      3  N   UNL     1       3.893 -12.867  15.760  1.00  0.00    -0.350 N 
ATOM      4  H   UNL     1       3.354 -13.762  15.781  1.00  0.00     0.345 HD
ATOM      5  H   UNL     1       3.397 -12.181  15.144  1.00  0.00     0.345 HD
ATOM      6  H   UNL     1       4.837 -13.071  15.356  1.00  0.00     0.345 HD
ENDBRANCH   2   3
BRANCH   2   7
ATOM      7  C   UNL     1       5.299 -11.520  17.231  1.00  0.00     0.100 C 
ATOM      8  O   UNL     1       5.257 -10.262  17.164  1.00  0.00    -0.544 OA
ATOM      9  O   UNL     1       6.519 -12.154  17.428  1.00  0.00    -0.544 OA
ENDBRANCH   2   7
ENDBRANCH   1   2
BRANCH   1  10
ATOM     10  C   UNL     1       2.167 -11.986  18.773  1.00  0.00     0.223 C 
ATOM     11  O   UNL     1       1.749 -11.174  19.639  1.00  0.00    -0.275 OA
ATOM     12  N   UNL     1       2.043 -13.390  19.001  1.00  0.00    -0.369 N 
ATOM     13  H   UNL     1       2.405 -14.079  18.305  1.00  0.00     0.159 HD
ATOM     14  H   UNL     1       1.595 -13.743  19.877  1.00  0.00     0.159 HD
ENDBRANCH   1  10
TORSDOF 4
ENDMDL
MODEL 8
REMARK VINA RESULT:    -3.709      2.822      3.457
REMARK INTER + INTRA:          -4.712
REMARK INTER:                  -4.441
REMARK INTRA:                  -0.271
REMARK UNBOUND:                -0.243
REMARK SMILES NC(=O)C[C@@H]([NH3+])C(=O)[O-]
REMARK SMILES IDX 4 1 5 2 6 3 7 7 8 8 9 9 2 10 3 11 1 12
REMARK H PARENT 6 4 6 5 6 6 1 13 1 14
REMARK Flexibility Score: inf
ROOT
ATOM      1  C   UNL     1      -2.562 -14.104  19.833  1.00  0.00     0.171 C 
ENDROOT
BRANCH   1   2
ATOM      2  C   UNL     1      -2.059 -15.140  20.859  1.00  0.00     0.237 C 
BRANCH   2   3
ATOM      3  N   UNL     1      -2.964 -15.239  22.013  1.00  0.00    -0.350 N 
ATOM      4  H   UNL     1      -3.657 -16.006  21.861  1.00  0.00     0.345 HD
ATOM      5  H   UNL     1      -2.427 -15.428  22.891  1.00  0.00     0.345 HD
ATOM      6  H   UNL     1      -3.498 -14.344  22.123  1.00  0.00     0.345 HD
ENDBRANCH   2   3
BRANCH   2   7
ATOM      7  C   UNL     1      -1.911 -16.484  20.198  1.00  0.00     0.100 C 
ATOM      8  O   UNL     1      -0.929 -16.720  19.443  1.00  0.00    -0.544 OA
ATOM      9  O   UNL     1      -2.850 -17.480  20.432  1.00  0.00    -0.544 OA
ENDBRANCH   2   7
ENDBRANCH   1   2
BRANCH   1  10
ATOM     10  C   UNL     1      -2.828 -12.772  20.474  1.00  0.00     0.223 C 
ATOM     11  O   UNL     1      -3.965 -12.527  20.955  1.00  0.00    -0.275 OA
ATOM     12  N   UNL     1      -1.812 -11.770  20.512  1.00  0.00    -0.369 N 
ATOM     13  H   UNL     1      -0.870 -11.947  20.097  1.00  0.00     0.159 HD
ATOM     14  H   UNL     1      -2.005 -10.842  20.950  1.00  0.00     0.159 HD
ENDBRANCH   1  10
TORSDOF 4
ENDMDL
MODEL 9
REMARK VINA RESULT:    -3.677      2.882      3.998
REMARK INTER + INTRA:          -4.673
REMARK INTER:                  -4.405
REMARK INTRA:                  -0.268
REMARK UNBOUND:                -0.243
REMARK SMILES NC(=O)C[C@@H]([NH3+])C(=O)[O-]
REMARK SMILES IDX 4 1 5 2 6 3 7 7 8 8 9 9 2 10 3 11 1 12
REMARK H PARENT 6 4 6 5 6 6 1 13 1 14
REMARK Flexibility Score: inf
ROOT
ATOM      1  C   UNL     1      -2.548 -14.083  20.829  1.00  0.00     0.171 C 
ENDROOT
BRANCH   1   2
ATOM      2  C   UNL     1      -2.286 -14.867  19.527  1.00  0.00     0.237 C 
BRANCH   2   3
ATOM      3  N   UNL     1      -1.321 -14.172  18.664  1.00  0.00    -0.350 N 
ATOM      4  H   UNL     1      -0.428 -14.011  19.182  1.00  0.00     0.345 HD
ATOM      5  H   UNL     1      -1.124 -14.731  17.802  1.00  0.00     0.345 HD
ATOM      6  H   UNL     1      -1.703 -13.237  18.386  1.00  0.00     0.345 HD
ENDBRANCH   2   3
BRANCH   2   7
ATOM      7  C   UNL     1      -1.790 -16.250  19.855  1.00  0.00     0.100 C 
ATOM      8  O   UNL     1      -0.648 -16.626  19.478  1.00  0.00    -0.544 OA
ATOM      9  O   UNL     1      -2.585 -17.115  20.597  1.00  0.00    -0.544 OA
ENDBRANCH   2   7
ENDBRANCH   1   2
BRANCH   1  10
ATOM     10  C   UNL     1      -2.490 -12.599  20.604  1.00  0.00     0.223 C 
ATOM     11  O   UNL     1      -1.450 -11.961  20.914  1.00  0.00    -0.275 OA
ATOM     12  N   UNL     1      -3.617 -11.902  20.074  1.00  0.00    -0.369 N 
ATOM     13  H   UNL     1      -4.496 -12.411  19.834  1.00  0.00     0.159 HD
ATOM     14  H   UNL     1      -3.575 -10.868  19.929  1.00  0.00     0.159 HD
ENDBRANCH   1  10
TORSDOF 4
ENDMDL
