MODEL 1
REMARK VINA RESULT:    -5.522      0.000      0.000
REMARK INTER + INTRA:          -9.993
REMARK INTER:                  -8.589
REMARK INTRA:                  -1.404
REMARK UNBOUND:                -1.404
REMARK SMILES C[C@@]12C[C@@]3(O)O[C@@H](O1)[C@]1(COC(=O)c4ccccc4)[C@H]3C[C@@]12O[C@H]1O[C@H](CO)[C@H](O)[C@@H](O)[C@H]1O
REMARK SMILES IDX 1 1 2 2 3 3 4 4 20 5 21 6 22 7 9 8 7 9 8 10 6 11 23 12 24 13
REMARK SMILES IDX 33 14 25 15 31 16 26 17 29 18 34 19 32 21 27 23 28 24 30 26
REMARK SMILES IDX 5 28 10 30 11 31 12 32 13 33 14 34 15 35 19 36 16 37 18 38
REMARK SMILES IDX 17 39
REMARK H PARENT 34 20 32 22 28 25 30 27 5 29
REMARK Flexibility Score: inf
ROOT
ATOM      1  C   UNL     1       6.601 -17.790  -0.849  1.00  0.00     0.046 C 
ATOM      2  C   UNL     1       5.160 -18.298  -0.802  1.00  0.00     0.104 C 
ATOM      3  C   UNL     1       4.984 -19.614  -1.646  1.00  0.00     0.104 C 
ATOM      4  C   UNL     1       3.444 -19.895  -1.556  1.00  0.00     0.175 C 
ATOM      5  C   UNL     1       2.631 -18.601  -1.884  1.00  0.00     0.070 C 
ATOM      6  C   UNL     1       3.471 -17.539  -2.621  1.00  0.00     0.050 C 
ATOM      7  C   UNL     1       4.092 -17.221  -1.234  1.00  0.00     0.115 C 
ATOM      8  C   UNL     1       2.870 -17.855  -0.571  1.00  0.00     0.096 C 
ATOM      9  C   UNL     1       3.396 -18.882   0.419  1.00  0.00     0.267 C 
ATOM     10  O   UNL     1       4.791 -18.646   0.518  1.00  0.00    -0.342 OA
ATOM     11  O   UNL     1       3.179 -20.145  -0.191  1.00  0.00    -0.320 OA
ENDROOT
BRANCH   7  12
ATOM     12  O   UNL     1       4.431 -15.906  -0.783  1.00  0.00    -0.339 OA
BRANCH  12  13
ATOM     13  C   UNL     1       4.520 -14.880  -1.763  1.00  0.00     0.282 C 
ATOM     14  C   UNL     1       5.605 -13.830  -1.407  1.00  0.00     0.202 C 
ATOM     15  O   UNL     1       3.254 -14.261  -1.932  1.00  0.00    -0.341 OA
ATOM     16  C   UNL     1       5.188 -12.915  -0.235  1.00  0.00     0.179 C 
ATOM     17  C   UNL     1       2.808 -13.632  -0.742  1.00  0.00     0.178 C 
ATOM     18  C   UNL     1       3.725 -12.442  -0.382  1.00  0.00     0.177 C 
BRANCH  14  19
ATOM     19  O   UNL     1       6.827 -14.454  -1.106  1.00  0.00    -0.385 OA
ATOM     20  H   UNL     1       6.959 -14.374  -0.125  1.00  0.00     0.211 HD
ENDBRANCH  14  19
BRANCH  16  21
ATOM     21  O   UNL     1       5.419 -13.520   1.015  1.00  0.00    -0.387 OA
ATOM     22  H   UNL     1       5.359 -14.500   0.903  1.00  0.00     0.211 HD
ENDBRANCH  16  21
BRANCH  17  23
ATOM     23  C   UNL     1       1.360 -13.169  -0.941  1.00  0.00     0.191 C 
BRANCH  23  24
ATOM     24  O   UNL     1       1.109 -12.052  -0.134  1.00  0.00    -0.394 OA
ATOM     25  H   UNL     1       0.288 -11.628  -0.497  1.00  0.00     0.210 HD
ENDBRANCH  23  24
ENDBRANCH  17  23
BRANCH  18  26
ATOM     26  O   UNL     1       3.647 -11.465  -1.391  1.00  0.00    -0.387 OA
ATOM     27  H   UNL     1       4.563 -11.354  -1.757  1.00  0.00     0.211 HD
ENDBRANCH  18  26
ENDBRANCH  12  13
ENDBRANCH   7  12
BRANCH   4  28
ATOM     28  O   UNL     1       3.055 -20.988  -2.342  1.00  0.00    -0.365 OA
ATOM     29  H   UNL     1       3.878 -21.509  -2.533  1.00  0.00     0.214 HD
ENDBRANCH   4  28
BRANCH   8  30
ATOM     30  C   UNL     1       1.731 -16.938  -0.078  1.00  0.00     0.249 C 
BRANCH  30  31
ATOM     31  O   UNL     1       0.816 -17.668   0.738  1.00  0.00    -0.461 OA
BRANCH  31  32
ATOM     32  C   UNL     1      -0.190 -18.504   0.236  1.00  0.00     0.338 C 
ATOM     33  O   UNL     1      -0.071 -19.758   0.315  1.00  0.00    -0.246 OA
BRANCH  32  34
ATOM     34  C   UNL     1      -1.383 -17.912  -0.405  1.00  0.00     0.060 A 
ATOM     35  C   UNL     1      -1.946 -18.494  -1.556  1.00  0.00     0.015 A 
ATOM     36  C   UNL     1      -1.979 -16.758   0.137  1.00  0.00     0.015 A 
ATOM     37  C   UNL     1      -3.078 -17.931  -2.152  1.00  0.00     0.001 A 
ATOM     38  C   UNL     1      -3.112 -16.198  -0.464  1.00  0.00     0.001 A 
ATOM     39  C   UNL     1      -3.661 -16.784  -1.606  1.00  0.00     0.000 A 
ENDBRANCH  32  34
ENDBRANCH  31  32
ENDBRANCH  30  31
ENDBRANCH   8  30
TORSDOF 12
ENDMDL
MODEL 2
REMARK VINA RESULT:    -5.467      1.540      2.026
REMARK INTER + INTRA:          -9.907
REMARK INTER:                  -8.852
REMARK INTRA:                  -1.055
REMARK UNBOUND:                -1.404
REMARK SMILES C[C@@]12C[C@@]3(O)O[C@@H](O1)[C@]1(COC(=O)c4ccccc4)[C@H]3C[C@@]12O[C@H]1O[C@H](CO)[C@H](O)[C@@H](O)[C@H]1O
REMARK SMILES IDX 1 1 2 2 3 3 4 4 20 5 21 6 22 7 9 8 7 9 8 10 6 11 23 12 24 13
REMARK SMILES IDX 33 14 25 15 31 16 26 17 29 18 34 19 32 21 27 23 28 24 30 26
REMARK SMILES IDX 5 28 10 30 11 31 12 32 13 33 14 34 15 35 19 36 16 37 18 38
REMARK SMILES IDX 17 39
REMARK H PARENT 34 20 32 22 28 25 30 27 5 29
REMARK Flexibility Score: inf
ROOT
ATOM      1  C   UNL     1       7.803 -17.650  -1.579  1.00  0.00     0.046 C 
ATOM      2  C   UNL     1       6.429 -18.302  -1.421  1.00  0.00     0.104 C 
ATOM      3  C   UNL     1       6.263 -19.539  -2.379  1.00  0.00     0.104 C 
ATOM      4  C   UNL     1       4.777 -19.980  -2.142  1.00  0.00     0.175 C 
ATOM      5  C   UNL     1       3.820 -18.747  -2.228  1.00  0.00     0.070 C 
ATOM      6  C   UNL     1       4.464 -17.539  -2.937  1.00  0.00     0.050 C 
ATOM      7  C   UNL     1       5.225 -17.299  -1.606  1.00  0.00     0.115 C 
ATOM      8  C   UNL     1       4.156 -18.115  -0.878  1.00  0.00     0.096 C 
ATOM      9  C   UNL     1       4.890 -19.176  -0.076  1.00  0.00     0.267 C 
ATOM     10  O   UNL     1       6.262 -18.813  -0.114  1.00  0.00    -0.342 OA
ATOM     11  O   UNL     1       4.710 -20.389  -0.791  1.00  0.00    -0.320 OA
ENDROOT
BRANCH   7  12
ATOM     12  O   UNL     1       5.503 -16.008  -1.055  1.00  0.00    -0.339 OA
BRANCH  12  13
ATOM     13  C   UNL     1       4.925 -14.881  -1.701  1.00  0.00     0.282 C 
ATOM     14  C   UNL     1       5.993 -14.002  -2.401  1.00  0.00     0.202 C 
ATOM     15  O   UNL     1       4.174 -14.120  -0.768  1.00  0.00    -0.341 OA
ATOM     16  C   UNL     1       6.856 -13.203  -1.400  1.00  0.00     0.179 C 
ATOM     17  C   UNL     1       4.989 -13.602   0.271  1.00  0.00     0.178 C 
ATOM     18  C   UNL     1       5.989 -12.567  -0.291  1.00  0.00     0.177 C 
BRANCH  14  19
ATOM     19  O   UNL     1       6.824 -14.781  -3.223  1.00  0.00    -0.385 OA
ATOM     20  H   UNL     1       7.685 -14.893  -2.741  1.00  0.00     0.211 HD
ENDBRANCH  14  19
BRANCH  16  21
ATOM     21  O   UNL     1       7.901 -13.979  -0.867  1.00  0.00    -0.387 OA
ATOM     22  H   UNL     1       8.330 -13.468  -0.139  1.00  0.00     0.211 HD
ENDBRANCH  16  21
BRANCH  17  23
ATOM     23  C   UNL     1       4.087 -12.972   1.339  1.00  0.00     0.191 C 
BRANCH  23  24
ATOM     24  O   UNL     1       4.661 -13.152   2.603  1.00  0.00    -0.394 OA
ATOM     25  H   UNL     1       3.946 -12.951   3.262  1.00  0.00     0.210 HD
ENDBRANCH  23  24
ENDBRANCH  17  23
BRANCH  18  26
ATOM     26  O   UNL     1       5.285 -11.469  -0.817  1.00  0.00    -0.387 OA
ATOM     27  H   UNL     1       4.571 -11.245  -0.165  1.00  0.00     0.211 HD
ENDBRANCH  18  26
ENDBRANCH  12  13
ENDBRANCH   7  12
BRANCH   4  28
ATOM     28  O   UNL     1       4.388 -21.023  -2.992  1.00  0.00    -0.365 OA
ATOM     29  H   UNL     1       4.746 -21.860  -2.597  1.00  0.00     0.214 HD
ENDBRANCH   4  28
BRANCH   8  30
ATOM     30  C   UNL     1       3.014 -17.369  -0.158  1.00  0.00     0.249 C 
BRANCH  30  31
ATOM     31  O   UNL     1       2.262 -18.267   0.656  1.00  0.00    -0.461 OA
BRANCH  31  32
ATOM     32  C   UNL     1       1.177 -19.024   0.195  1.00  0.00     0.338 C 
ATOM     33  O   UNL     1       1.297 -20.269   0.026  1.00  0.00    -0.246 OA
BRANCH  32  34
ATOM     34  C   UNL     1      -0.106 -18.355  -0.111  1.00  0.00     0.060 A 
ATOM     35  C   UNL     1      -0.591 -17.319   0.708  1.00  0.00     0.015 A 
ATOM     36  C   UNL     1      -0.856 -18.743  -1.237  1.00  0.00     0.015 A 
ATOM     37  C   UNL     1      -1.801 -16.687   0.407  1.00  0.00     0.001 A 
ATOM     38  C   UNL     1      -2.067 -18.108  -1.532  1.00  0.00     0.001 A 
ATOM     39  C   UNL     1      -2.539 -17.082  -0.711  1.00  0.00     0.000 A 
ENDBRANCH  32  34
ENDBRANCH  31  32
ENDBRANCH  30  31
ENDBRANCH   8  30
TORSDOF 12
ENDMDL
MODEL 3
REMARK VINA RESULT:    -5.464      8.625     12.397
REMARK INTER + INTRA:          -9.902
REMARK INTER:                  -9.019
REMARK INTRA:                  -0.884
REMARK UNBOUND:                -1.404
REMARK SMILES C[C@@]12C[C@@]3(O)O[C@@H](O1)[C@]1(COC(=O)c4ccccc4)[C@H]3C[C@@]12O[C@H]1O[C@H](CO)[C@H](O)[C@@H](O)[C@H]1O
REMARK SMILES IDX 1 1 2 2 3 3 4 4 20 5 21 6 22 7 9 8 7 9 8 10 6 11 23 12 24 13
REMARK SMILES IDX 33 14 25 15 31 16 26 17 29 18 34 19 32 21 27 23 28 24 30 26
REMARK SMILES IDX 5 28 10 30 11 31 12 32 13 33 14 34 15 35 19 36 16 37 18 38
REMARK SMILES IDX 17 39
REMARK H PARENT 34 20 32 22 28 25 30 27 5 29
REMARK Flexibility Score: inf
ROOT
ATOM      1  C   UNL     1     -11.268 -13.281   2.856  1.00  0.00     0.046 C 
ATOM      2  C   UNL     1     -10.562 -14.378   2.060  1.00  0.00     0.104 C 
ATOM      3  C   UNL     1     -11.479 -15.642   1.880  1.00  0.00     0.104 C 
ATOM      4  C   UNL     1     -10.543 -16.666   1.150  1.00  0.00     0.175 C 
ATOM      5  C   UNL     1      -9.162 -16.757   1.876  1.00  0.00     0.070 C 
ATOM      6  C   UNL     1      -9.204 -16.202   3.313  1.00  0.00     0.050 C 
ATOM      7  C   UNL     1      -9.163 -14.796   2.657  1.00  0.00     0.115 C 
ATOM      8  C   UNL     1      -8.574 -15.430   1.397  1.00  0.00     0.096 C 
ATOM      9  C   UNL     1      -9.439 -14.971   0.234  1.00  0.00     0.267 C 
ATOM     10  O   UNL     1     -10.265 -13.939   0.749  1.00  0.00    -0.342 OA
ATOM     11  O   UNL     1     -10.247 -16.088  -0.105  1.00  0.00    -0.320 OA
ENDROOT
BRANCH   7  12
ATOM     12  O   UNL     1      -8.440 -13.678   3.185  1.00  0.00    -0.339 OA
BRANCH  12  13
ATOM     13  C   UNL     1      -8.885 -13.135   4.421  1.00  0.00     0.282 C 
ATOM     14  C   UNL     1      -8.318 -11.712   4.667  1.00  0.00     0.202 C 
ATOM     15  O   UNL     1      -8.541 -14.008   5.485  1.00  0.00    -0.341 OA
ATOM     16  C   UNL     1      -6.813 -11.723   5.014  1.00  0.00     0.179 C 
ATOM     17  C   UNL     1      -7.138 -14.167   5.608  1.00  0.00     0.178 C 
ATOM     18  C   UNL     1      -6.477 -12.836   6.030  1.00  0.00     0.177 C 
BRANCH  14  19
ATOM     19  O   UNL     1      -8.539 -10.884   3.554  1.00  0.00    -0.385 OA
ATOM     20  H   UNL     1      -7.864 -11.132   2.870  1.00  0.00     0.211 HD
ENDBRANCH  14  19
BRANCH  16  21
ATOM     21  O   UNL     1      -6.007 -11.802   3.863  1.00  0.00    -0.387 OA
ATOM     22  H   UNL     1      -6.597 -11.891   3.075  1.00  0.00     0.211 HD
ENDBRANCH  16  21
BRANCH  17  23
ATOM     23  C   UNL     1      -6.853 -15.271   6.634  1.00  0.00     0.191 C 
BRANCH  23  24
ATOM     24  O   UNL     1      -7.693 -15.108   7.743  1.00  0.00    -0.394 OA
ATOM     25  H   UNL     1      -8.605 -15.348   7.436  1.00  0.00     0.210 HD
ENDBRANCH  23  24
ENDBRANCH  17  23
BRANCH  18  26
ATOM     26  O   UNL     1      -6.938 -12.464   7.305  1.00  0.00    -0.387 OA
ATOM     27  H   UNL     1      -7.870 -12.141   7.192  1.00  0.00     0.211 HD
ENDBRANCH  18  26
ENDBRANCH  12  13
ENDBRANCH   7  12
BRANCH   4  28
ATOM     28  O   UNL     1     -11.147 -17.919   0.985  1.00  0.00    -0.365 OA
ATOM     29  H   UNL     1     -10.909 -18.232   0.073  1.00  0.00     0.214 HD
ENDBRANCH   4  28
BRANCH   8  30
ATOM     30  C   UNL     1      -7.047 -15.384   1.185  1.00  0.00     0.249 C 
BRANCH  30  31
ATOM     31  O   UNL     1      -6.732 -15.400  -0.207  1.00  0.00    -0.461 OA
BRANCH  31  32
ATOM     32  C   UNL     1      -5.858 -16.318  -0.804  1.00  0.00     0.338 C 
ATOM     33  O   UNL     1      -4.617 -16.246  -0.588  1.00  0.00    -0.246 OA
BRANCH  32  34
ATOM     34  C   UNL     1      -6.395 -17.361  -1.704  1.00  0.00     0.060 A 
ATOM     35  C   UNL     1      -7.720 -17.297  -2.171  1.00  0.00     0.015 A 
ATOM     36  C   UNL     1      -5.578 -18.431  -2.113  1.00  0.00     0.015 A 
ATOM     37  C   UNL     1      -8.217 -18.285  -3.027  1.00  0.00     0.001 A 
ATOM     38  C   UNL     1      -6.080 -19.418  -2.969  1.00  0.00     0.001 A 
ATOM     39  C   UNL     1      -7.398 -19.345  -3.425  1.00  0.00     0.000 A 
ENDBRANCH  32  34
ENDBRANCH  31  32
ENDBRANCH  30  31
ENDBRANCH   8  30
TORSDOF 12
ENDMDL
MODEL 4
REMARK VINA RESULT:    -5.293      4.898      7.389
REMARK INTER + INTRA:          -9.637
REMARK INTER:                  -8.003
REMARK INTRA:                  -1.634
REMARK UNBOUND:                -1.404
REMARK SMILES C[C@@]12C[C@@]3(O)O[C@@H](O1)[C@]1(COC(=O)c4ccccc4)[C@H]3C[C@@]12O[C@H]1O[C@H](CO)[C@H](O)[C@@H](O)[C@H]1O
REMARK SMILES IDX 1 1 2 2 3 3 4 4 20 5 21 6 22 7 9 8 7 9 8 10 6 11 23 12 24 13
REMARK SMILES IDX 33 14 25 15 31 16 26 17 29 18 34 19 32 21 27 23 28 24 30 26
REMARK SMILES IDX 5 28 10 30 11 31 12 32 13 33 14 34 15 35 19 36 16 37 18 38
REMARK SMILES IDX 17 39
REMARK H PARENT 34 20 32 22 28 25 30 27 5 29
REMARK Flexibility Score: inf
ROOT
ATOM      1  C   UNL     1       3.428 -18.582  -5.996  1.00  0.00     0.046 C 
ATOM      2  C   UNL     1       2.622 -19.880  -6.062  1.00  0.00     0.104 C 
ATOM      3  C   UNL     1       1.505 -19.810  -7.167  1.00  0.00     0.104 C 
ATOM      4  C   UNL     1       0.743 -21.169  -6.993  1.00  0.00     0.175 C 
ATOM      5  C   UNL     1       0.390 -21.410  -5.490  1.00  0.00     0.070 C 
ATOM      6  C   UNL     1       0.461 -20.122  -4.646  1.00  0.00     0.050 C 
ATOM      7  C   UNL     1       2.001 -20.313  -4.679  1.00  0.00     0.115 C 
ATOM      8  C   UNL     1       1.785 -21.792  -4.996  1.00  0.00     0.096 C 
ATOM      9  C   UNL     1       2.612 -22.096  -6.235  1.00  0.00     0.267 C 
ATOM     10  O   UNL     1       3.448 -20.967  -6.430  1.00  0.00    -0.342 OA
ATOM     11  O   UNL     1       1.683 -22.178  -7.304  1.00  0.00    -0.320 OA
ENDROOT
BRANCH   7  12
ATOM     12  O   UNL     1       2.873 -20.035  -3.578  1.00  0.00    -0.339 OA
BRANCH  12  13
ATOM     13  C   UNL     1       2.453 -19.054  -2.640  1.00  0.00     0.282 C 
ATOM     14  C   UNL     1       3.650 -18.268  -2.045  1.00  0.00     0.202 C 
ATOM     15  O   UNL     1       1.687 -19.663  -1.612  1.00  0.00    -0.341 OA
ATOM     16  C   UNL     1       4.482 -19.110  -1.054  1.00  0.00     0.179 C 
ATOM     17  C   UNL     1       2.445 -20.611  -0.878  1.00  0.00     0.178 C 
ATOM     18  C   UNL     1       3.574 -19.908  -0.093  1.00  0.00     0.177 C 
BRANCH  14  19
ATOM     19  O   UNL     1       4.485 -17.779  -3.064  1.00  0.00    -0.385 OA
ATOM     20  H   UNL     1       5.183 -17.226  -2.626  1.00  0.00     0.211 HD
ENDBRANCH  14  19
BRANCH  16  21
ATOM     21  O   UNL     1       5.406 -19.941  -1.714  1.00  0.00    -0.387 OA
ATOM     22  H   UNL     1       6.167 -20.106  -1.105  1.00  0.00     0.211 HD
ENDBRANCH  16  21
BRANCH  17  23
ATOM     23  C   UNL     1       1.505 -21.367   0.069  1.00  0.00     0.191 C 
BRANCH  23  24
ATOM     24  O   UNL     1       2.261 -22.118   0.978  1.00  0.00    -0.394 OA
ATOM     25  H   UNL     1       3.207 -21.859   0.831  1.00  0.00     0.210 HD
ENDBRANCH  23  24
ENDBRANCH  17  23
BRANCH  18  26
ATOM     26  O   UNL     1       3.015 -19.036   0.859  1.00  0.00    -0.387 OA
ATOM     27  H   UNL     1       3.750 -18.453   1.183  1.00  0.00     0.211 HD
ENDBRANCH  18  26
ENDBRANCH  12  13
ENDBRANCH   7  12
BRANCH   4  28
ATOM     28  O   UNL     1      -0.377 -21.264  -7.831  1.00  0.00    -0.365 OA
ATOM     29  H   UNL     1      -1.160 -21.422  -7.242  1.00  0.00     0.214 HD
ENDBRANCH   4  28
BRANCH   8  30
ATOM     30  C   UNL     1       1.857 -22.818  -3.846  1.00  0.00     0.249 C 
BRANCH  30  31
ATOM     31  O   UNL     1       2.413 -24.050  -4.305  1.00  0.00    -0.461 OA
BRANCH  31  32
ATOM     32  C   UNL     1       1.677 -25.231  -4.467  1.00  0.00     0.338 C 
ATOM     33  O   UNL     1       2.039 -26.290  -3.884  1.00  0.00    -0.246 OA
BRANCH  32  34
ATOM     34  C   UNL     1       0.485 -25.237  -5.341  1.00  0.00     0.060 A 
ATOM     35  C   UNL     1      -0.779 -24.876  -4.838  1.00  0.00     0.015 A 
ATOM     36  C   UNL     1       0.602 -25.596  -6.697  1.00  0.00     0.015 A 
ATOM     37  C   UNL     1      -1.900 -24.878  -5.673  1.00  0.00     0.001 A 
ATOM     38  C   UNL     1      -0.524 -25.598  -7.528  1.00  0.00     0.001 A 
ATOM     39  C   UNL     1      -1.773 -25.239  -7.017  1.00  0.00     0.000 A 
ENDBRANCH  32  34
ENDBRANCH  31  32
ENDBRANCH  30  31
ENDBRANCH   8  30
TORSDOF 12
ENDMDL
MODEL 5
REMARK VINA RESULT:    -5.229      4.927      7.330
REMARK INTER + INTRA:          -9.537
REMARK INTER:                  -8.575
REMARK INTRA:                  -0.961
REMARK UNBOUND:                -1.404
REMARK SMILES C[C@@]12C[C@@]3(O)O[C@@H](O1)[C@]1(COC(=O)c4ccccc4)[C@H]3C[C@@]12O[C@H]1O[C@H](CO)[C@H](O)[C@@H](O)[C@H]1O
REMARK SMILES IDX 1 1 2 2 3 3 4 4 20 5 21 6 22 7 9 8 7 9 8 10 6 11 23 12 24 13
REMARK SMILES IDX 33 14 25 15 31 16 26 17 29 18 34 19 32 21 27 23 28 24 30 26
REMARK SMILES IDX 5 28 10 30 11 31 12 32 13 33 14 34 15 35 19 36 16 37 18 38
REMARK SMILES IDX 17 39
REMARK H PARENT 34 20 32 22 28 25 30 27 5 29
REMARK Flexibility Score: inf
ROOT
ATOM      1  C   UNL     1       6.171 -20.964  -4.378  1.00  0.00     0.046 C 
ATOM      2  C   UNL     1       5.047 -21.828  -4.950  1.00  0.00     0.104 C 
ATOM      3  C   UNL     1       5.105 -21.886  -6.520  1.00  0.00     0.104 C 
ATOM      4  C   UNL     1       3.827 -22.711  -6.897  1.00  0.00     0.175 C 
ATOM      5  C   UNL     1       2.574 -22.154  -6.147  1.00  0.00     0.070 C 
ATOM      6  C   UNL     1       2.789 -20.727  -5.605  1.00  0.00     0.050 C 
ATOM      7  C   UNL     1       3.608 -21.397  -4.469  1.00  0.00     0.115 C 
ATOM      8  C   UNL     1       2.885 -22.712  -4.758  1.00  0.00     0.096 C 
ATOM      9  C   UNL     1       3.961 -23.768  -4.949  1.00  0.00     0.267 C 
ATOM     10  O   UNL     1       5.173 -23.168  -4.519  1.00  0.00    -0.342 OA
ATOM     11  O   UNL     1       4.027 -23.998  -6.347  1.00  0.00    -0.320 OA
ENDROOT
BRANCH   7  12
ATOM     12  O   UNL     1       3.595 -20.969  -3.103  1.00  0.00    -0.339 OA
BRANCH  12  13
ATOM     13  C   UNL     1       2.742 -19.885  -2.763  1.00  0.00     0.282 C 
ATOM     14  C   UNL     1       3.536 -18.670  -2.217  1.00  0.00     0.202 C 
ATOM     15  O   UNL     1       1.764 -20.312  -1.828  1.00  0.00    -0.341 OA
ATOM     16  C   UNL     1       4.086 -18.909  -0.794  1.00  0.00     0.179 C 
ATOM     17  C   UNL     1       2.348 -20.748  -0.612  1.00  0.00     0.178 C 
ATOM     18  C   UNL     1       3.026 -19.566   0.117  1.00  0.00     0.177 C 
BRANCH  14  19
ATOM     19  O   UNL     1       4.592 -18.331  -3.079  1.00  0.00    -0.385 OA
ATOM     20  H   UNL     1       4.237 -18.383  -4.005  1.00  0.00     0.211 HD
ENDBRANCH  14  19
BRANCH  16  21
ATOM     21  O   UNL     1       5.289 -19.638  -0.809  1.00  0.00    -0.387 OA
ATOM     22  H   UNL     1       5.309 -20.223  -0.013  1.00  0.00     0.211 HD
ENDBRANCH  16  21
BRANCH  17  23
ATOM     23  C   UNL     1       1.258 -21.380   0.262  1.00  0.00     0.191 C 
BRANCH  23  24
ATOM     24  O   UNL     1       1.767 -22.519   0.897  1.00  0.00    -0.394 OA
ATOM     25  H   UNL     1       1.444 -23.296   0.372  1.00  0.00     0.210 HD
ENDBRANCH  23  24
ENDBRANCH  17  23
BRANCH  18  26
ATOM     26  O   UNL     1       2.055 -18.613   0.472  1.00  0.00    -0.387 OA
ATOM     27  H   UNL     1       2.166 -17.844  -0.145  1.00  0.00     0.211 HD
ENDBRANCH  18  26
ENDBRANCH  12  13
ENDBRANCH   7  12
BRANCH   4  28
ATOM     28  O   UNL     1       3.633 -22.792  -8.282  1.00  0.00    -0.365 OA
ATOM     29  H   UNL     1       2.940 -23.487  -8.432  1.00  0.00     0.214 HD
ENDBRANCH   4  28
BRANCH   8  30
ATOM     30  C   UNL     1       1.676 -23.105  -3.883  1.00  0.00     0.249 C 
BRANCH  30  31
ATOM     31  O   UNL     1       1.771 -24.470  -3.479  1.00  0.00    -0.461 OA
BRANCH  31  32
ATOM     32  C   UNL     1       1.424 -25.556  -4.294  1.00  0.00     0.338 C 
ATOM     33  O   UNL     1       2.039 -26.652  -4.187  1.00  0.00    -0.246 OA
BRANCH  32  34
ATOM     34  C   UNL     1       0.346 -25.406  -5.295  1.00  0.00     0.060 A 
ATOM     35  C   UNL     1       0.582 -25.680  -6.654  1.00  0.00     0.015 A 
ATOM     36  C   UNL     1      -0.939 -24.994  -4.895  1.00  0.00     0.015 A 
ATOM     37  C   UNL     1      -0.444 -25.542  -7.593  1.00  0.00     0.001 A 
ATOM     38  C   UNL     1      -1.963 -24.857  -5.839  1.00  0.00     0.001 A 
ATOM     39  C   UNL     1      -1.716 -25.130  -7.186  1.00  0.00     0.000 A 
ENDBRANCH  32  34
ENDBRANCH  31  32
ENDBRANCH  30  31
ENDBRANCH   8  30
TORSDOF 12
ENDMDL
MODEL 6
REMARK VINA RESULT:    -5.224      1.452      1.880
REMARK INTER + INTRA:          -9.529
REMARK INTER:                  -8.241
REMARK INTRA:                  -1.288
REMARK UNBOUND:                -1.404
REMARK SMILES C[C@@]12C[C@@]3(O)O[C@@H](O1)[C@]1(COC(=O)c4ccccc4)[C@H]3C[C@@]12O[C@H]1O[C@H](CO)[C@H](O)[C@@H](O)[C@H]1O
REMARK SMILES IDX 1 1 2 2 3 3 4 4 20 5 21 6 22 7 9 8 7 9 8 10 6 11 23 12 24 13
REMARK SMILES IDX 33 14 25 15 31 16 26 17 29 18 34 19 32 21 27 23 28 24 30 26
REMARK SMILES IDX 5 28 10 30 11 31 12 32 13 33 14 34 15 35 19 36 16 37 18 38
REMARK SMILES IDX 17 39
REMARK H PARENT 34 20 32 22 28 25 30 27 5 29
REMARK Flexibility Score: inf
ROOT
ATOM      1  C   UNL     1       4.659 -18.170   0.614  1.00  0.00     0.046 C 
ATOM      2  C   UNL     1       3.434 -18.613  -0.188  1.00  0.00     0.104 C 
ATOM      3  C   UNL     1       3.690 -19.977  -0.926  1.00  0.00     0.104 C 
ATOM      4  C   UNL     1       2.379 -20.186  -1.760  1.00  0.00     0.175 C 
ATOM      5  C   UNL     1       2.020 -18.887  -2.550  1.00  0.00     0.070 C 
ATOM      6  C   UNL     1       3.212 -17.918  -2.679  1.00  0.00     0.050 C 
ATOM      7  C   UNL     1       2.916 -17.526  -1.206  1.00  0.00     0.115 C 
ATOM      8  C   UNL     1       1.493 -18.057  -1.378  1.00  0.00     0.096 C 
ATOM      9  C   UNL     1       1.251 -19.030  -0.236  1.00  0.00     0.267 C 
ATOM     10  O   UNL     1       2.332 -18.847   0.665  1.00  0.00    -0.342 OA
ATOM     11  O   UNL     1       1.339 -20.324  -0.812  1.00  0.00    -0.320 OA
ENDROOT
BRANCH   7  12
ATOM     12  O   UNL     1       3.023 -16.196  -0.687  1.00  0.00    -0.339 OA
BRANCH  12  13
ATOM     13  C   UNL     1       3.457 -15.177  -1.578  1.00  0.00     0.282 C 
ATOM     14  C   UNL     1       4.752 -14.484  -1.080  1.00  0.00     0.202 C 
ATOM     15  O   UNL     1       2.418 -14.230  -1.773  1.00  0.00    -0.341 OA
ATOM     16  C   UNL     1       4.505 -13.560   0.132  1.00  0.00     0.179 C 
ATOM     17  C   UNL     1       2.066 -13.574  -0.566  1.00  0.00     0.178 C 
ATOM     18  C   UNL     1       3.237 -12.700  -0.064  1.00  0.00     0.177 C 
BRANCH  14  19
ATOM     19  O   UNL     1       5.737 -15.432  -0.757  1.00  0.00    -0.385 OA
ATOM     20  H   UNL     1       5.526 -16.255  -1.271  1.00  0.00     0.211 HD
ENDBRANCH  14  19
BRANCH  16  21
ATOM     21  O   UNL     1       4.471 -14.276   1.343  1.00  0.00    -0.387 OA
ATOM     22  H   UNL     1       3.672 -13.992   1.851  1.00  0.00     0.211 HD
ENDBRANCH  16  21
BRANCH  17  23
ATOM     23  C   UNL     1       0.813 -12.725  -0.813  1.00  0.00     0.191 C 
BRANCH  23  24
ATOM     24  O   UNL     1      -0.032 -13.387  -1.712  1.00  0.00    -0.394 OA
ATOM     25  H   UNL     1       0.184 -13.026  -2.611  1.00  0.00     0.210 HD
ENDBRANCH  23  24
ENDBRANCH  17  23
BRANCH  18  26
ATOM     26  O   UNL     1       3.499 -11.682  -0.997  1.00  0.00    -0.387 OA
ATOM     27  H   UNL     1       2.639 -11.216  -1.167  1.00  0.00     0.211 HD
ENDBRANCH  18  26
ENDBRANCH  12  13
ENDBRANCH   7  12
BRANCH   4  28
ATOM     28  O   UNL     1       2.445 -21.316  -2.585  1.00  0.00    -0.365 OA
ATOM     29  H   UNL     1       2.863 -21.023  -3.436  1.00  0.00     0.214 HD
ENDBRANCH   4  28
BRANCH   8  30
ATOM     30  C   UNL     1       0.359 -17.059  -1.691  1.00  0.00     0.249 C 
BRANCH  30  31
ATOM     31  O   UNL     1      -0.786 -17.331  -0.884  1.00  0.00    -0.461 OA
BRANCH  31  32
ATOM     32  C   UNL     1      -1.830 -16.422  -0.670  1.00  0.00     0.338 C 
ATOM     33  O   UNL     1      -1.598 -15.302  -0.135  1.00  0.00    -0.246 OA
BRANCH  32  34
ATOM     34  C   UNL     1      -3.210 -16.786  -1.057  1.00  0.00     0.060 A 
ATOM     35  C   UNL     1      -3.456 -17.897  -1.884  1.00  0.00     0.015 A 
ATOM     36  C   UNL     1      -4.299 -16.028  -0.590  1.00  0.00     0.015 A 
ATOM     37  C   UNL     1      -4.764 -18.238  -2.240  1.00  0.00     0.001 A 
ATOM     38  C   UNL     1      -5.607 -16.373  -0.950  1.00  0.00     0.001 A 
ATOM     39  C   UNL     1      -5.839 -17.476  -1.774  1.00  0.00     0.000 A 
ENDBRANCH  32  34
ENDBRANCH  31  32
ENDBRANCH  30  31
ENDBRANCH   8  30
TORSDOF 12
ENDMDL
MODEL 7
REMARK VINA RESULT:    -5.215      4.689      7.041
REMARK INTER + INTRA:          -9.516
REMARK INTER:                  -8.752
REMARK INTRA:                  -0.764
REMARK UNBOUND:                -1.404
REMARK SMILES C[C@@]12C[C@@]3(O)O[C@@H](O1)[C@]1(COC(=O)c4ccccc4)[C@H]3C[C@@]12O[C@H]1O[C@H](CO)[C@H](O)[C@@H](O)[C@H]1O
REMARK SMILES IDX 1 1 2 2 3 3 4 4 20 5 21 6 22 7 9 8 7 9 8 10 6 11 23 12 24 13
REMARK SMILES IDX 33 14 25 15 31 16 26 17 29 18 34 19 32 21 27 23 28 24 30 26
REMARK SMILES IDX 5 28 10 30 11 31 12 32 13 33 14 34 15 35 19 36 16 37 18 38
REMARK SMILES IDX 17 39
REMARK H PARENT 34 20 32 22 28 25 30 27 5 29
REMARK Flexibility Score: inf
ROOT
ATOM      1  C   UNL     1       6.017 -20.562  -3.455  1.00  0.00     0.046 C 
ATOM      2  C   UNL     1       5.039 -21.285  -4.382  1.00  0.00     0.104 C 
ATOM      3  C   UNL     1       5.351 -20.988  -5.894  1.00  0.00     0.104 C 
ATOM      4  C   UNL     1       4.189 -21.719  -6.651  1.00  0.00     0.175 C 
ATOM      5  C   UNL     1       2.808 -21.355  -6.016  1.00  0.00     0.070 C 
ATOM      6  C   UNL     1       2.868 -20.084  -5.145  1.00  0.00     0.050 C 
ATOM      7  C   UNL     1       3.524 -20.985  -4.064  1.00  0.00     0.115 C 
ATOM      8  C   UNL     1       2.917 -22.208  -4.753  1.00  0.00     0.096 C 
ATOM      9  C   UNL     1       4.057 -23.184  -4.989  1.00  0.00     0.267 C 
ATOM     10  O   UNL     1       5.156 -22.686  -4.242  1.00  0.00    -0.342 OA
ATOM     11  O   UNL     1       4.356 -23.094  -6.373  1.00  0.00    -0.320 OA
ENDROOT
BRANCH   7  12
ATOM     12  O   UNL     1       3.273 -20.875  -2.659  1.00  0.00    -0.339 OA
BRANCH  12  13
ATOM     13  C   UNL     1       3.466 -19.603  -2.056  1.00  0.00     0.282 C 
ATOM     14  C   UNL     1       3.765 -19.719  -0.539  1.00  0.00     0.202 C 
ATOM     15  O   UNL     1       2.334 -18.780  -2.288  1.00  0.00    -0.341 OA
ATOM     16  C   UNL     1       2.519 -20.113   0.285  1.00  0.00     0.179 C 
ATOM     17  C   UNL     1       1.159 -19.318  -1.703  1.00  0.00     0.178 C 
ATOM     18  C   UNL     1       1.273 -19.318  -0.163  1.00  0.00     0.177 C 
BRANCH  14  19
ATOM     19  O   UNL     1       4.798 -20.639  -0.300  1.00  0.00    -0.385 OA
ATOM     20  H   UNL     1       5.649 -20.188  -0.541  1.00  0.00     0.211 HD
ENDBRANCH  14  19
BRANCH  16  21
ATOM     21  O   UNL     1       2.291 -21.501   0.264  1.00  0.00    -0.387 OA
ATOM     22  H   UNL     1       3.165 -21.962   0.287  1.00  0.00     0.211 HD
ENDBRANCH  16  21
BRANCH  17  23
ATOM     23  C   UNL     1      -0.046 -18.490  -2.165  1.00  0.00     0.191 C 
BRANCH  23  24
ATOM     24  O   UNL     1      -1.077 -18.597  -1.223  1.00  0.00    -0.394 OA
ATOM     25  H   UNL     1      -0.833 -17.991  -0.476  1.00  0.00     0.210 HD
ENDBRANCH  23  24
ENDBRANCH  17  23
BRANCH  18  26
ATOM     26  O   UNL     1       1.368 -17.994   0.303  1.00  0.00    -0.387 OA
ATOM     27  H   UNL     1       2.041 -17.992   1.033  1.00  0.00     0.211 HD
ENDBRANCH  18  26
ENDBRANCH  12  13
ENDBRANCH   7  12
BRANCH   4  28
ATOM     28  O   UNL     1       4.223 -21.488  -8.033  1.00  0.00    -0.365 OA
ATOM     29  H   UNL     1       3.947 -22.335  -8.470  1.00  0.00     0.214 HD
ENDBRANCH   4  28
BRANCH   8  30
ATOM     30  C   UNL     1       1.603 -22.798  -4.199  1.00  0.00     0.249 C 
BRANCH  30  31
ATOM     31  O   UNL     1       1.817 -24.115  -3.694  1.00  0.00    -0.461 OA
BRANCH  31  32
ATOM     32  C   UNL     1       1.509 -25.285  -4.400  1.00  0.00     0.338 C 
ATOM     33  O   UNL     1       2.197 -26.330  -4.229  1.00  0.00    -0.246 OA
BRANCH  32  34
ATOM     34  C   UNL     1       0.385 -25.287  -5.361  1.00  0.00     0.060 A 
ATOM     35  C   UNL     1       0.569 -25.729  -6.684  1.00  0.00     0.015 A 
ATOM     36  C   UNL     1      -0.892 -24.855  -4.957  1.00  0.00     0.015 A 
ATOM     37  C   UNL     1      -0.500 -25.733  -7.584  1.00  0.00     0.001 A 
ATOM     38  C   UNL     1      -1.959 -24.861  -5.862  1.00  0.00     0.001 A 
ATOM     39  C   UNL     1      -1.764 -25.300  -7.174  1.00  0.00     0.000 A 
ENDBRANCH  32  34
ENDBRANCH  31  32
ENDBRANCH  30  31
ENDBRANCH   8  30
TORSDOF 12
ENDMDL
MODEL 8
REMARK VINA RESULT:    -5.212      1.850      6.328
REMARK INTER + INTRA:          -9.510
REMARK INTER:                  -8.190
REMARK INTRA:                  -1.321
REMARK UNBOUND:                -1.404
REMARK SMILES C[C@@]12C[C@@]3(O)O[C@@H](O1)[C@]1(COC(=O)c4ccccc4)[C@H]3C[C@@]12O[C@H]1O[C@H](CO)[C@H](O)[C@@H](O)[C@H]1O
REMARK SMILES IDX 1 1 2 2 3 3 4 4 20 5 21 6 22 7 9 8 7 9 8 10 6 11 23 12 24 13
REMARK SMILES IDX 33 14 25 15 31 16 26 17 29 18 34 19 32 21 27 23 28 24 30 26
REMARK SMILES IDX 5 28 10 30 11 31 12 32 13 33 14 34 15 35 19 36 16 37 18 38
REMARK SMILES IDX 17 39
REMARK H PARENT 34 20 32 22 28 25 30 27 5 29
REMARK Flexibility Score: inf
ROOT
ATOM      1  C   UNL     1       0.018 -19.916   0.278  1.00  0.00     0.046 C 
ATOM      2  C   UNL     1      -0.153 -18.556  -0.399  1.00  0.00     0.104 C 
ATOM      3  C   UNL     1      -1.438 -18.519  -1.304  1.00  0.00     0.104 C 
ATOM      4  C   UNL     1      -1.364 -17.105  -1.977  1.00  0.00     0.175 C 
ATOM      5  C   UNL     1       0.060 -16.856  -2.571  1.00  0.00     0.070 C 
ATOM      6  C   UNL     1       0.867 -18.156  -2.752  1.00  0.00     0.050 C 
ATOM      7  C   UNL     1       1.111 -18.092  -1.220  1.00  0.00     0.115 C 
ATOM      8  C   UNL     1       0.801 -16.596  -1.260  1.00  0.00     0.096 C 
ATOM      9  C   UNL     1      -0.264 -16.344  -0.206  1.00  0.00     0.267 C 
ATOM     10  O   UNL     1      -0.341 -17.535   0.561  1.00  0.00    -0.342 OA
ATOM     11  O   UNL     1      -1.477 -16.172  -0.921  1.00  0.00    -0.320 OA
ENDROOT
BRANCH   7  12
ATOM     12  O   UNL     1       2.339 -18.455  -0.581  1.00  0.00    -0.339 OA
BRANCH  12  13
ATOM     13  C   UNL     1       3.286 -19.187  -1.348  1.00  0.00     0.282 C 
ATOM     14  C   UNL     1       4.025 -20.251  -0.495  1.00  0.00     0.202 C 
ATOM     15  O   UNL     1       4.208 -18.297  -1.958  1.00  0.00    -0.341 OA
ATOM     16  C   UNL     1       5.042 -19.627   0.485  1.00  0.00     0.179 C 
ATOM     17  C   UNL     1       4.957 -17.571  -0.998  1.00  0.00     0.178 C 
ATOM     18  C   UNL     1       5.876 -18.520  -0.197  1.00  0.00     0.177 C 
BRANCH  14  19
ATOM     19  O   UNL     1       3.112 -21.047   0.216  1.00  0.00    -0.385 OA
ATOM     20  H   UNL     1       3.000 -20.631   1.111  1.00  0.00     0.211 HD
ENDBRANCH  14  19
BRANCH  16  21
ATOM     21  O   UNL     1       4.426 -19.168   1.664  1.00  0.00    -0.387 OA
ATOM     22  H   UNL     1       3.448 -19.171   1.525  1.00  0.00     0.211 HD
ENDBRANCH  16  21
BRANCH  17  23
ATOM     23  C   UNL     1       5.775 -16.495  -1.722  1.00  0.00     0.191 C 
BRANCH  23  24
ATOM     24  O   UNL     1       5.838 -15.341  -0.930  1.00  0.00    -0.394 OA
ATOM     25  H   UNL     1       6.801 -15.119  -0.843  1.00  0.00     0.210 HD
ENDBRANCH  23  24
ENDBRANCH  17  23
BRANCH  18  26
ATOM     26  O   UNL     1       6.817 -19.106  -1.062  1.00  0.00    -0.387 OA
ATOM     27  H   UNL     1       6.620 -20.078  -1.087  1.00  0.00     0.211 HD
ENDBRANCH  18  26
ENDBRANCH  12  13
ENDBRANCH   7  12
BRANCH   4  28
ATOM     28  O   UNL     1      -2.382 -16.908  -2.919  1.00  0.00    -0.365 OA
ATOM     29  H   UNL     1      -3.200 -17.330  -2.548  1.00  0.00     0.214 HD
ENDBRANCH   4  28
BRANCH   8  30
ATOM     30  C   UNL     1       1.974 -15.595  -1.314  1.00  0.00     0.249 C 
BRANCH  30  31
ATOM     31  O   UNL     1       1.578 -14.328  -0.790  1.00  0.00    -0.461 OA
BRANCH  31  32
ATOM     32  C   UNL     1       2.235 -13.123  -1.068  1.00  0.00     0.338 C 
ATOM     33  O   UNL     1       1.771 -12.332  -1.935  1.00  0.00    -0.246 OA
BRANCH  32  34
ATOM     34  C   UNL     1       3.486 -12.789  -0.355  1.00  0.00     0.060 A 
ATOM     35  C   UNL     1       3.683 -13.190   0.979  1.00  0.00     0.015 A 
ATOM     36  C   UNL     1       4.504 -12.071  -1.009  1.00  0.00     0.015 A 
ATOM     37  C   UNL     1       4.872 -12.876   1.644  1.00  0.00     0.001 A 
ATOM     38  C   UNL     1       5.692 -11.758  -0.338  1.00  0.00     0.001 A 
ATOM     39  C   UNL     1       5.876 -12.160   0.986  1.00  0.00     0.000 A 
ENDBRANCH  32  34
ENDBRANCH  31  32
ENDBRANCH  30  31
ENDBRANCH   8  30
TORSDOF 12
ENDMDL
MODEL 9
REMARK VINA RESULT:    -5.064      4.159      8.212
REMARK INTER + INTRA:          -9.280
REMARK INTER:                  -7.412
REMARK INTRA:                  -1.868
REMARK UNBOUND:                -1.404
REMARK SMILES C[C@@]12C[C@@]3(O)O[C@@H](O1)[C@]1(COC(=O)c4ccccc4)[C@H]3C[C@@]12O[C@H]1O[C@H](CO)[C@H](O)[C@@H](O)[C@H]1O
REMARK SMILES IDX 1 1 2 2 3 3 4 4 20 5 21 6 22 7 9 8 7 9 8 10 6 11 23 12 24 13
REMARK SMILES IDX 33 14 25 15 31 16 26 17 29 18 34 19 32 21 27 23 28 24 30 26
REMARK SMILES IDX 5 28 10 30 11 31 12 32 13 33 14 34 15 35 19 36 16 37 18 38
REMARK SMILES IDX 17 39
REMARK H PARENT 34 20 32 22 28 25 30 27 5 29
REMARK Flexibility Score: inf
ROOT
ATOM      1  C   UNL     1       4.371 -19.451  -6.858  1.00  0.00     0.046 C 
ATOM      2  C   UNL     1       4.205 -19.353  -5.341  1.00  0.00     0.104 C 
ATOM      3  C   UNL     1       5.510 -18.812  -4.651  1.00  0.00     0.104 C 
ATOM      4  C   UNL     1       5.170 -18.895  -3.123  1.00  0.00     0.175 C 
ATOM      5  C   UNL     1       4.581 -20.299  -2.769  1.00  0.00     0.070 C 
ATOM      6  C   UNL     1       4.883 -21.362  -3.844  1.00  0.00     0.050 C 
ATOM      7  C   UNL     1       3.744 -20.701  -4.665  1.00  0.00     0.115 C 
ATOM      8  C   UNL     1       3.188 -20.109  -3.370  1.00  0.00     0.096 C 
ATOM      9  C   UNL     1       3.021 -18.618  -3.609  1.00  0.00     0.267 C 
ATOM     10  O   UNL     1       3.190 -18.427  -5.005  1.00  0.00    -0.342 OA
ATOM     11  O   UNL     1       4.096 -17.998  -2.921  1.00  0.00    -0.320 OA
ENDROOT
BRANCH   7  12
ATOM     12  O   UNL     1       2.806 -21.422  -5.471  1.00  0.00    -0.339 OA
BRANCH  12  13
ATOM     13  C   UNL     1       3.133 -22.761  -5.818  1.00  0.00     0.282 C 
ATOM     14  C   UNL     1       2.491 -23.184  -7.165  1.00  0.00     0.202 C 
ATOM     15  O   UNL     1       2.745 -23.641  -4.774  1.00  0.00    -0.341 OA
ATOM     16  C   UNL     1       0.966 -23.402  -7.057  1.00  0.00     0.179 C 
ATOM     17  C   UNL     1       1.344 -23.621  -4.558  1.00  0.00     0.178 C 
ATOM     18  C   UNL     1       0.599 -24.195  -5.784  1.00  0.00     0.177 C 
BRANCH  14  19
ATOM     19  O   UNL     1       2.763 -22.240  -8.169  1.00  0.00    -0.385 OA
ATOM     20  H   UNL     1       2.651 -22.703  -9.040  1.00  0.00     0.211 HD
ENDBRANCH  14  19
BRANCH  16  21
ATOM     21  O   UNL     1       0.254 -22.191  -7.144  1.00  0.00    -0.387 OA
ATOM     22  H   UNL     1       0.343 -21.842  -8.064  1.00  0.00     0.211 HD
ENDBRANCH  16  21
BRANCH  17  23
ATOM     23  C   UNL     1       1.028 -24.431  -3.295  1.00  0.00     0.191 C 
BRANCH  23  24
ATOM     24  O   UNL     1       1.884 -25.536  -3.220  1.00  0.00    -0.394 OA
ATOM     25  H   UNL     1       1.742 -26.053  -4.055  1.00  0.00     0.210 HD
ENDBRANCH  23  24
ENDBRANCH  17  23
BRANCH  18  26
ATOM     26  O   UNL     1       0.947 -25.547  -5.957  1.00  0.00    -0.387 OA
ATOM     27  H   UNL     1       0.520 -25.850  -6.800  1.00  0.00     0.211 HD
ENDBRANCH  18  26
ENDBRANCH  12  13
ENDBRANCH   7  12
BRANCH   4  28
ATOM     28  O   UNL     1       6.260 -18.549  -2.314  1.00  0.00    -0.365 OA
ATOM     29  H   UNL     1       6.526 -19.372  -1.828  1.00  0.00     0.214 HD
ENDBRANCH   4  28
BRANCH   8  30
ATOM     30  C   UNL     1       2.024 -20.832  -2.661  1.00  0.00     0.249 C 
BRANCH  30  31
ATOM     31  O   UNL     1       1.273 -19.916  -1.865  1.00  0.00    -0.461 OA
BRANCH  31  32
ATOM     32  C   UNL     1       1.291 -19.896  -0.465  1.00  0.00     0.338 C 
ATOM     33  O   UNL     1       0.220 -19.728   0.182  1.00  0.00    -0.246 OA
BRANCH  32  34
ATOM     34  C   UNL     1       2.574 -20.054   0.254  1.00  0.00     0.060 A 
ATOM     35  C   UNL     1       3.421 -18.951   0.466  1.00  0.00     0.015 A 
ATOM     36  C   UNL     1       2.959 -21.315   0.746  1.00  0.00     0.015 A 
ATOM     37  C   UNL     1       4.629 -19.108   1.152  1.00  0.00     0.001 A 
ATOM     38  C   UNL     1       4.170 -21.466   1.432  1.00  0.00     0.001 A 
ATOM     39  C   UNL     1       5.003 -20.364   1.634  1.00  0.00     0.000 A 
ENDBRANCH  32  34
ENDBRANCH  31  32
ENDBRANCH  30  31
ENDBRANCH   8  30
TORSDOF 12
ENDMDL
