MODEL 1
REMARK VINA RESULT:    -4.124      0.000      0.000
REMARK INTER + INTRA:          -5.036
REMARK INTER:                  -4.968
REMARK INTRA:                  -0.068
REMARK UNBOUND:                -0.068
REMARK SMILES Oc1cc(O)c2c(c1)O[C@H](c1ccc(O)c(O)c1)[C@@H](O)C2
REMARK SMILES IDX 21 1 19 2 10 3 9 4 7 5 8 6 2 7 3 8 4 9 6 10 20 11 11 13
REMARK SMILES IDX 18 14 12 15 16 16 13 17 14 18 17 19 15 21 5 23 1 25
REMARK H PARENT 20 12 17 20 15 22 5 24 1 26
REMARK Flexibility Score: inf
ROOT
ATOM      1  C   UNL     1     148.985  14.552  33.143  1.00  0.00     0.079 C 
ATOM      2  C   UNL     1     148.481  15.821  33.858  1.00  0.00     0.164 C 
ATOM      3  C   UNL     1     149.124  15.938  35.255  1.00  0.00     0.232 C 
ATOM      4  O   UNL     1     148.850  14.758  36.009  1.00  0.00    -0.482 OA
ATOM      5  C   UNL     1     148.847  13.483  35.432  1.00  0.00     0.131 A 
ATOM      6  C   UNL     1     148.758  12.364  36.264  1.00  0.00     0.093 A 
ATOM      7  C   UNL     1     148.768  11.079  35.720  1.00  0.00     0.122 A 
ATOM      8  C   UNL     1     148.877  10.910  34.335  1.00  0.00     0.092 A 
ATOM      9  C   UNL     1     148.967  12.019  33.486  1.00  0.00     0.126 A 
ATOM     10  C   UNL     1     148.913  13.325  34.030  1.00  0.00     0.039 A 
ENDROOT
BRANCH   2  11
ATOM     11  O   UNL     1     148.737  16.963  33.077  1.00  0.00    -0.389 OA
ATOM     12  H   UNL     1     149.215  16.667  32.259  1.00  0.00     0.211 HD
ENDBRANCH   2  11
BRANCH   3  13
ATOM     13  C   UNL     1     148.605  17.148  35.994  1.00  0.00    -0.001 A 
ATOM     14  C   UNL     1     149.091  18.432  35.695  1.00  0.00     0.057 A 
ATOM     15  C   UNL     1     147.663  16.996  37.024  1.00  0.00     0.012 A 
ATOM     16  C   UNL     1     148.627  19.552  36.402  1.00  0.00     0.157 A 
ATOM     17  C   UNL     1     147.200  18.111  37.729  1.00  0.00     0.050 A 
ATOM     18  C   UNL     1     147.678  19.391  37.419  1.00  0.00     0.157 A 
BRANCH  16  19
ATOM     19  O   UNL     1     149.106  20.824  36.099  1.00  0.00    -0.504 OA
ATOM     20  H   UNL     1     149.128  21.171  35.146  1.00  0.00     0.293 HD
ENDBRANCH  16  19
BRANCH  18  21
ATOM     21  O   UNL     1     147.219  20.505  38.118  1.00  0.00    -0.504 OA
ATOM     22  H   UNL     1     147.416  20.628  39.105  1.00  0.00     0.293 HD
ENDBRANCH  18  21
ENDBRANCH   3  13
BRANCH   9  23
ATOM     23  O   UNL     1     149.119  11.787  32.117  1.00  0.00    -0.507 OA
ATOM     24  H   UNL     1     148.631  12.317  31.406  1.00  0.00     0.293 HD
ENDBRANCH   9  23
BRANCH   7  25
ATOM     25  O   UNL     1     148.677   9.975  36.565  1.00  0.00    -0.508 OA
ATOM     26  H   UNL     1     148.000   9.937  37.318  1.00  0.00     0.293 HD
ENDBRANCH   7  25
TORSDOF 6
ENDMDL
MODEL 2
REMARK VINA RESULT:    -3.541      1.436      6.851
REMARK INTER + INTRA:          -4.333
REMARK INTER:                  -4.729
REMARK INTRA:                   0.396
REMARK UNBOUND:                -0.068
REMARK SMILES Oc1cc(O)c2c(c1)O[C@H](c1ccc(O)c(O)c1)[C@@H](O)C2
REMARK SMILES IDX 21 1 19 2 10 3 9 4 7 5 8 6 2 7 3 8 4 9 6 10 20 11 11 13
REMARK SMILES IDX 18 14 12 15 16 16 13 17 14 18 17 19 15 21 5 23 1 25
REMARK H PARENT 20 12 17 20 15 22 5 24 1 26
REMARK Flexibility Score: inf
ROOT
ATOM      1  C   UNL     1     148.484  17.563  34.740  1.00  0.00     0.079 C 
ATOM      2  C   UNL     1     148.744  16.107  34.308  1.00  0.00     0.164 C 
ATOM      3  C   UNL     1     147.972  15.133  35.222  1.00  0.00     0.232 C 
ATOM      4  O   UNL     1     148.342  15.359  36.582  1.00  0.00    -0.482 OA
ATOM      5  C   UNL     1     148.570  16.640  37.094  1.00  0.00     0.131 A 
ATOM      6  C   UNL     1     148.740  16.798  38.471  1.00  0.00     0.093 A 
ATOM      7  C   UNL     1     148.956  18.065  39.015  1.00  0.00     0.122 A 
ATOM      8  C   UNL     1     148.991  19.185  38.176  1.00  0.00     0.092 A 
ATOM      9  C   UNL     1     148.822  19.047  36.793  1.00  0.00     0.126 A 
ATOM     10  C   UNL     1     148.648  17.758  36.234  1.00  0.00     0.039 A 
ENDROOT
BRANCH   2  11
ATOM     11  O   UNL     1     148.401  15.924  32.956  1.00  0.00    -0.389 OA
ATOM     12  H   UNL     1     148.034  15.007  32.860  1.00  0.00     0.211 HD
ENDBRANCH   2  11
BRANCH   3  13
ATOM     13  C   UNL     1     148.254  13.696  34.848  1.00  0.00    -0.001 A 
ATOM     14  C   UNL     1     147.981  12.656  35.753  1.00  0.00     0.057 A 
ATOM     15  C   UNL     1     148.838  13.391  33.609  1.00  0.00     0.012 A 
ATOM     16  C   UNL     1     148.269  11.326  35.415  1.00  0.00     0.157 A 
ATOM     17  C   UNL     1     149.125  12.065  33.271  1.00  0.00     0.050 A 
ATOM     18  C   UNL     1     148.839  11.030  34.171  1.00  0.00     0.157 A 
BRANCH  16  19
ATOM     19  O   UNL     1     147.991  10.295  36.310  1.00  0.00    -0.504 OA
ATOM     20  H   UNL     1     147.153  10.298  36.881  1.00  0.00     0.293 HD
ENDBRANCH  16  19
BRANCH  18  21
ATOM     21  O   UNL     1     149.123   9.707  33.838  1.00  0.00    -0.504 OA
ATOM     22  H   UNL     1     149.852   9.473  33.173  1.00  0.00     0.293 HD
ENDBRANCH  18  21
ENDBRANCH   3  13
BRANCH   9  23
ATOM     23  O   UNL     1     148.822  20.205  36.013  1.00  0.00    -0.507 OA
ATOM     24  H   UNL     1     148.206  20.342  35.223  1.00  0.00     0.293 HD
ENDBRANCH   9  23
BRANCH   7  25
ATOM     25  O   UNL     1     149.125  18.204  40.391  1.00  0.00    -0.508 OA
ATOM     26  H   UNL     1     149.005  17.419  41.021  1.00  0.00     0.293 HD
ENDBRANCH   7  25
TORSDOF 6
ENDMDL
MODEL 3
REMARK VINA RESULT:    -2.848      1.673      2.056
REMARK INTER + INTRA:          -3.498
REMARK INTER:                  -3.460
REMARK INTRA:                  -0.039
REMARK UNBOUND:                -0.068
REMARK SMILES Oc1cc(O)c2c(c1)O[C@H](c1ccc(O)c(O)c1)[C@@H](O)C2
REMARK SMILES IDX 21 1 19 2 10 3 9 4 7 5 8 6 2 7 3 8 4 9 6 10 20 11 11 13
REMARK SMILES IDX 18 14 12 15 16 16 13 17 14 18 17 19 15 21 5 23 1 25
REMARK H PARENT 20 12 17 20 15 22 5 24 1 26
REMARK Flexibility Score: inf
ROOT
ATOM      1  C   UNL     1     146.708  15.014  34.010  1.00  0.00     0.079 C 
ATOM      2  C   UNL     1     146.916  16.292  34.847  1.00  0.00     0.164 C 
ATOM      3  C   UNL     1     148.394  16.419  35.269  1.00  0.00     0.232 C 
ATOM      4  O   UNL     1     148.792  15.247  35.979  1.00  0.00    -0.482 OA
ATOM      5  C   UNL     1     148.359  13.967  35.615  1.00  0.00     0.131 A 
ATOM      6  C   UNL     1     148.937  12.856  36.234  1.00  0.00     0.093 A 
ATOM      7  C   UNL     1     148.537  11.566  35.884  1.00  0.00     0.122 A 
ATOM      8  C   UNL     1     147.558  11.384  34.900  1.00  0.00     0.092 A 
ATOM      9  C   UNL     1     146.968  12.485  34.269  1.00  0.00     0.126 A 
ATOM     10  C   UNL     1     147.340  13.796  34.653  1.00  0.00     0.039 A 
ENDROOT
BRANCH   2  11
ATOM     11  O   UNL     1     146.485  17.426  34.134  1.00  0.00    -0.389 OA
ATOM     12  H   UNL     1     146.298  18.143  34.794  1.00  0.00     0.211 HD
ENDBRANCH   2  11
BRANCH   3  13
ATOM     13  C   UNL     1     148.611  17.638  36.134  1.00  0.00    -0.001 A 
ATOM     14  C   UNL     1     148.742  17.511  37.528  1.00  0.00     0.057 A 
ATOM     15  C   UNL     1     148.636  18.918  35.558  1.00  0.00     0.012 A 
ATOM     16  C   UNL     1     148.915  18.646  38.333  1.00  0.00     0.157 A 
ATOM     17  C   UNL     1     148.810  20.050  36.360  1.00  0.00     0.050 A 
ATOM     18  C   UNL     1     148.952  19.918  37.747  1.00  0.00     0.157 A 
BRANCH  16  19
ATOM     19  O   UNL     1     149.051  18.517  39.714  1.00  0.00    -0.504 OA
ATOM     20  H   UNL     1     149.930  18.246  40.138  1.00  0.00     0.293 HD
ENDBRANCH  16  19
BRANCH  18  21
ATOM     21  O   UNL     1     149.125  21.043  38.550  1.00  0.00    -0.504 OA
ATOM     22  H   UNL     1     150.040  21.454  38.695  1.00  0.00     0.293 HD
ENDBRANCH  18  21
ENDBRANCH   3  13
BRANCH   9  23
ATOM     23  O   UNL     1     146.030  12.240  33.264  1.00  0.00    -0.507 OA
ATOM     24  H   UNL     1     146.228  11.683  32.442  1.00  0.00     0.293 HD
ENDBRANCH   9  23
BRANCH   7  25
ATOM     25  O   UNL     1     149.123  10.470  36.512  1.00  0.00    -0.508 OA
ATOM     26  H   UNL     1     149.679   9.796  35.996  1.00  0.00     0.293 HD
ENDBRANCH   7  25
TORSDOF 6
ENDMDL
MODEL 4
REMARK VINA RESULT:    -2.507      1.584      3.104
REMARK INTER + INTRA:          -3.089
REMARK INTER:                  -3.371
REMARK INTRA:                   0.282
REMARK UNBOUND:                -0.068
REMARK SMILES Oc1cc(O)c2c(c1)O[C@H](c1ccc(O)c(O)c1)[C@@H](O)C2
REMARK SMILES IDX 21 1 19 2 10 3 9 4 7 5 8 6 2 7 3 8 4 9 6 10 20 11 11 13
REMARK SMILES IDX 18 14 12 15 16 16 13 17 14 18 17 19 15 21 5 23 1 25
REMARK H PARENT 20 12 17 20 15 22 5 24 1 26
REMARK Flexibility Score: inf
ROOT
ATOM      1  C   UNL     1     146.640  14.277  36.823  1.00  0.00     0.079 C 
ATOM      2  C   UNL     1     147.151  15.696  37.143  1.00  0.00     0.164 C 
ATOM      3  C   UNL     1     147.117  16.574  35.876  1.00  0.00     0.232 C 
ATOM      4  O   UNL     1     147.881  15.953  34.842  1.00  0.00    -0.482 OA
ATOM      5  C   UNL     1     147.881  14.569  34.638  1.00  0.00     0.131 A 
ATOM      6  C   UNL     1     148.498  14.054  33.496  1.00  0.00     0.093 A 
ATOM      7  C   UNL     1     148.503  12.679  33.256  1.00  0.00     0.122 A 
ATOM      8  C   UNL     1     147.876  11.813  34.159  1.00  0.00     0.092 A 
ATOM      9  C   UNL     1     147.252  12.311  35.309  1.00  0.00     0.126 A 
ATOM     10  C   UNL     1     147.284  13.701  35.579  1.00  0.00     0.039 A 
ENDROOT
BRANCH   2  11
ATOM     11  O   UNL     1     146.399  16.268  38.186  1.00  0.00    -0.389 OA
ATOM     12  H   UNL     1     146.875  16.082  39.037  1.00  0.00     0.211 HD
ENDBRANCH   2  11
BRANCH   3  13
ATOM     13  C   UNL     1     147.663  17.955  36.155  1.00  0.00    -0.001 A 
ATOM     14  C   UNL     1     147.171  18.714  37.230  1.00  0.00     0.057 A 
ATOM     15  C   UNL     1     148.637  18.512  35.311  1.00  0.00     0.012 A 
ATOM     16  C   UNL     1     147.659  20.007  37.471  1.00  0.00     0.157 A 
ATOM     17  C   UNL     1     149.125  19.800  35.551  1.00  0.00     0.050 A 
ATOM     18  C   UNL     1     148.640  20.549  36.631  1.00  0.00     0.157 A 
BRANCH  16  19
ATOM     19  O   UNL     1     147.174  20.756  38.540  1.00  0.00    -0.504 OA
ATOM     20  H   UNL     1     146.257  20.584  38.936  1.00  0.00     0.293 HD
ENDBRANCH  16  19
BRANCH  18  21
ATOM     21  O   UNL     1     149.124  21.833  36.874  1.00  0.00    -0.504 OA
ATOM     22  H   UNL     1     149.226  22.191  37.817  1.00  0.00     0.293 HD
ENDBRANCH  18  21
ENDBRANCH   3  13
BRANCH   9  23
ATOM     23  O   UNL     1     146.605  11.403  36.150  1.00  0.00    -0.507 OA
ATOM     24  H   UNL     1     145.952  11.682  36.872  1.00  0.00     0.293 HD
ENDBRANCH   9  23
BRANCH   7  25
ATOM     25  O   UNL     1     149.125  12.183  32.113  1.00  0.00    -0.508 OA
ATOM     26  H   UNL     1     150.111  12.336  31.936  1.00  0.00     0.293 HD
ENDBRANCH   7  25
TORSDOF 6
ENDMDL
MODEL 5
REMARK VINA RESULT:    -1.344      2.572      7.017
REMARK INTER + INTRA:          -1.687
REMARK INTER:                  -1.403
REMARK INTRA:                  -0.284
REMARK UNBOUND:                -0.068
REMARK SMILES Oc1cc(O)c2c(c1)O[C@H](c1ccc(O)c(O)c1)[C@@H](O)C2
REMARK SMILES IDX 21 1 19 2 10 3 9 4 7 5 8 6 2 7 3 8 4 9 6 10 20 11 11 13
REMARK SMILES IDX 18 14 12 15 16 16 13 17 14 18 17 19 15 21 5 23 1 25
REMARK H PARENT 20 12 17 20 15 22 5 24 1 26
REMARK Flexibility Score: inf
ROOT
ATOM      1  C   UNL     1     148.779  16.486  37.879  1.00  0.00     0.079 C 
ATOM      2  C   UNL     1     148.199  15.939  36.560  1.00  0.00     0.164 C 
ATOM      3  C   UNL     1     148.912  16.586  35.355  1.00  0.00     0.232 C 
ATOM      4  O   UNL     1     148.799  18.006  35.438  1.00  0.00    -0.482 OA
ATOM      5  C   UNL     1     148.885  18.695  36.652  1.00  0.00     0.131 A 
ATOM      6  C   UNL     1     148.956  20.091  36.634  1.00  0.00     0.093 A 
ATOM      7  C   UNL     1     149.057  20.807  37.828  1.00  0.00     0.122 A 
ATOM      8  C   UNL     1     149.097  20.123  39.048  1.00  0.00     0.092 A 
ATOM      9  C   UNL     1     149.027  18.725  39.086  1.00  0.00     0.126 A 
ATOM     10  C   UNL     1     148.880  17.998  37.880  1.00  0.00     0.039 A 
ENDROOT
BRANCH   2  11
ATOM     11  O   UNL     1     148.295  14.536  36.522  1.00  0.00    -0.389 OA
ATOM     12  H   UNL     1     147.373  14.172  36.469  1.00  0.00     0.211 HD
ENDBRANCH   2  11
BRANCH   3  13
ATOM     13  C   UNL     1     148.324  16.102  34.050  1.00  0.00    -0.001 A 
ATOM     14  C   UNL     1     147.133  16.660  33.553  1.00  0.00     0.057 A 
ATOM     15  C   UNL     1     148.937  15.055  33.345  1.00  0.00     0.012 A 
ATOM     16  C   UNL     1     146.574  16.191  32.355  1.00  0.00     0.157 A 
ATOM     17  C   UNL     1     148.381  14.587  32.150  1.00  0.00     0.050 A 
ATOM     18  C   UNL     1     147.200  15.154  31.652  1.00  0.00     0.157 A 
BRANCH  16  19
ATOM     19  O   UNL     1     145.397  16.749  31.861  1.00  0.00    -0.504 OA
ATOM     20  H   UNL     1     145.330  17.088  30.908  1.00  0.00     0.293 HD
ENDBRANCH  16  19
BRANCH  18  21
ATOM     21  O   UNL     1     146.642  14.691  30.462  1.00  0.00    -0.504 OA
ATOM     22  H   UNL     1     146.874  13.778  30.089  1.00  0.00     0.293 HD
ENDBRANCH  18  21
ENDBRANCH   3  13
BRANCH   9  23
ATOM     23  O   UNL     1     149.117  18.097  40.330  1.00  0.00    -0.507 OA
ATOM     24  H   UNL     1     149.493  17.167  40.456  1.00  0.00     0.293 HD
ENDBRANCH   9  23
BRANCH   7  25
ATOM     25  O   UNL     1     149.125  22.198  37.791  1.00  0.00    -0.508 OA
ATOM     26  H   UNL     1     148.390  22.776  38.183  1.00  0.00     0.293 HD
ENDBRANCH   7  25
TORSDOF 6
ENDMDL
