MODEL 1
REMARK VINA RESULT:    -3.571      0.000      0.000
REMARK INTER + INTRA:          -4.261
REMARK INTER:                  -4.197
REMARK INTRA:                  -0.064
REMARK UNBOUND:                -0.064
REMARK SMILES CCCCC(=O)[O-]
REMARK SMILES IDX 4 1 5 2 6 3 7 4 3 5 2 6 1 7
REMARK H PARENT
REMARK Flexibility Score: inf
ROOT
ATOM      1  C   UNL     1     -38.414  18.668 -30.431  1.00  0.00     0.053 C 
ENDROOT
BRANCH   1   2
ATOM      2  C   UNL     1     -38.576  17.182 -30.532  1.00  0.00     0.041 C 
ATOM      3  O   UNL     1     -39.545  16.693 -31.171  1.00  0.00    -0.550 OA
ATOM      4  O   UNL     1     -37.638  16.339 -29.950  1.00  0.00    -0.550 OA
ENDBRANCH   1   2
BRANCH   1   5
ATOM      5  C   UNL     1     -38.608  19.165 -28.992  1.00  0.00     0.006 C 
BRANCH   5   6
ATOM      6  C   UNL     1     -39.927  19.932 -28.815  1.00  0.00    -0.003 C 
ATOM      7  C   UNL     1     -40.915  19.140 -27.964  1.00  0.00     0.004 C 
ENDBRANCH   5   6
ENDBRANCH   1   5
TORSDOF 3
ENDMDL
MODEL 2
REMARK VINA RESULT:    -3.427      2.459      3.652
REMARK INTER + INTRA:          -4.092
REMARK INTER:                  -4.025
REMARK INTRA:                  -0.067
REMARK UNBOUND:                -0.064
REMARK SMILES CCCCC(=O)[O-]
REMARK SMILES IDX 4 1 5 2 6 3 7 4 3 5 2 6 1 7
REMARK H PARENT
REMARK Flexibility Score: inf
ROOT
ATOM      1  C   UNL     1     -38.694  19.004 -28.665  1.00  0.00     0.053 C 
ENDROOT
BRANCH   1   2
ATOM      2  C   UNL     1     -40.026  19.689 -28.656  1.00  0.00     0.041 C 
ATOM      3  O   UNL     1     -41.017  19.141 -28.103  1.00  0.00    -0.550 OA
ATOM      4  O   UNL     1     -40.166  20.947 -29.227  1.00  0.00    -0.550 OA
ENDBRANCH   1   2
BRANCH   1   5
ATOM      5  C   UNL     1     -38.226  18.691 -30.093  1.00  0.00     0.006 C 
BRANCH   5   6
ATOM      6  C   UNL     1     -38.226  17.184 -30.386  1.00  0.00    -0.003 C 
ATOM      7  C   UNL     1     -39.471  16.775 -31.168  1.00  0.00     0.004 C 
ENDBRANCH   5   6
ENDBRANCH   1   5
TORSDOF 3
ENDMDL
MODEL 3
REMARK VINA RESULT:    -3.368      2.475      3.636
REMARK INTER + INTRA:          -4.023
REMARK INTER:                  -3.942
REMARK INTRA:                  -0.081
REMARK UNBOUND:                -0.064
REMARK SMILES CCCCC(=O)[O-]
REMARK SMILES IDX 4 1 5 2 6 3 7 4 3 5 2 6 1 7
REMARK H PARENT
REMARK Flexibility Score: inf
ROOT
ATOM      1  C   UNL     1     -38.474  19.598 -29.100  1.00  0.00     0.053 C 
ENDROOT
BRANCH   1   2
ATOM      2  C   UNL     1     -39.879  20.056 -28.858  1.00  0.00     0.041 C 
ATOM      3  O   UNL     1     -40.275  21.159 -29.322  1.00  0.00    -0.550 OA
ATOM      4  O   UNL     1     -40.761  19.252 -28.148  1.00  0.00    -0.550 OA
ENDBRANCH   1   2
BRANCH   1   5
ATOM      5  C   UNL     1     -38.334  18.879 -30.448  1.00  0.00     0.006 C 
BRANCH   5   6
ATOM      6  C   UNL     1     -38.374  17.351 -30.298  1.00  0.00    -0.003 C 
ATOM      7  C   UNL     1     -39.462  16.740 -31.177  1.00  0.00     0.004 C 
ENDBRANCH   5   6
ENDBRANCH   1   5
TORSDOF 3
ENDMDL
MODEL 4
REMARK VINA RESULT:    -3.343      2.629      3.914
REMARK INTER + INTRA:          -3.993
REMARK INTER:                  -3.976
REMARK INTRA:                  -0.016
REMARK UNBOUND:                -0.064
REMARK SMILES CCCCC(=O)[O-]
REMARK SMILES IDX 4 1 5 2 6 3 7 4 3 5 2 6 1 7
REMARK H PARENT
REMARK Flexibility Score: inf
ROOT
ATOM      1  C   UNL     1     -38.789  18.930 -28.691  1.00  0.00     0.053 C 
ENDROOT
BRANCH   1   2
ATOM      2  C   UNL     1     -40.074  19.686 -28.539  1.00  0.00     0.041 C 
ATOM      3  O   UNL     1     -40.208  20.821 -29.068  1.00  0.00    -0.550 OA
ATOM      4  O   UNL     1     -41.134  19.122 -27.841  1.00  0.00    -0.550 OA
ENDBRANCH   1   2
BRANCH   1   5
ATOM      5  C   UNL     1     -38.707  18.215 -30.047  1.00  0.00     0.006 C 
BRANCH   5   6
ATOM      6  C   UNL     1     -37.816  16.966 -29.990  1.00  0.00    -0.003 C 
ATOM      7  C   UNL     1     -36.338  17.341 -30.049  1.00  0.00     0.004 C 
ENDBRANCH   5   6
ENDBRANCH   1   5
TORSDOF 3
ENDMDL
MODEL 5
REMARK VINA RESULT:    -3.334      0.725      1.720
REMARK INTER + INTRA:          -3.983
REMARK INTER:                  -3.966
REMARK INTRA:                  -0.017
REMARK UNBOUND:                -0.064
REMARK SMILES CCCCC(=O)[O-]
REMARK SMILES IDX 4 1 5 2 6 3 7 4 3 5 2 6 1 7
REMARK H PARENT
REMARK Flexibility Score: inf
ROOT
ATOM      1  C   UNL     1     -38.568  18.612 -30.283  1.00  0.00     0.053 C 
ENDROOT
BRANCH   1   2
ATOM      2  C   UNL     1     -38.574  17.136 -30.541  1.00  0.00     0.041 C 
ATOM      3  O   UNL     1     -37.678  16.403 -30.043  1.00  0.00    -0.550 OA
ATOM      4  O   UNL     1     -39.585  16.567 -31.303  1.00  0.00    -0.550 OA
ENDBRANCH   1   2
BRANCH   1   5
ATOM      5  C   UNL     1     -39.099  18.947 -28.883  1.00  0.00     0.006 C 
BRANCH   5   6
ATOM      6  C   UNL     1     -39.928  20.240 -28.871  1.00  0.00    -0.003 C 
ATOM      7  C   UNL     1     -39.027  21.471 -28.825  1.00  0.00     0.004 C 
ENDBRANCH   5   6
ENDBRANCH   1   5
TORSDOF 3
ENDMDL
MODEL 6
REMARK VINA RESULT:    -3.257      1.216      1.516
REMARK INTER + INTRA:          -3.892
REMARK INTER:                  -3.803
REMARK INTRA:                  -0.089
REMARK UNBOUND:                -0.064
REMARK SMILES CCCCC(=O)[O-]
REMARK SMILES IDX 4 1 5 2 6 3 7 4 3 5 2 6 1 7
REMARK H PARENT
REMARK Flexibility Score: inf
ROOT
ATOM      1  C   UNL     1     -38.977  18.235 -29.883  1.00  0.00     0.053 C 
ENDROOT
BRANCH   1   2
ATOM      2  C   UNL     1     -37.694  17.569 -29.489  1.00  0.00     0.041 C 
ATOM      3  O   UNL     1     -37.234  16.622 -30.181  1.00  0.00    -0.550 OA
ATOM      4  O   UNL     1     -36.991  18.015 -28.378  1.00  0.00    -0.550 OA
ENDBRANCH   1   2
BRANCH   1   5
ATOM      5  C   UNL     1     -38.888  19.761 -29.756  1.00  0.00     0.006 C 
BRANCH   5   6
ATOM      6  C   UNL     1     -39.961  20.329 -28.814  1.00  0.00    -0.003 C 
ATOM      7  C   UNL     1     -40.732  19.209 -28.121  1.00  0.00     0.004 C 
ENDBRANCH   5   6
ENDBRANCH   1   5
TORSDOF 3
ENDMDL
MODEL 7
REMARK VINA RESULT:    -3.254      1.576      2.020
REMARK INTER + INTRA:          -3.889
REMARK INTER:                  -3.841
REMARK INTRA:                  -0.048
REMARK UNBOUND:                -0.064
REMARK SMILES CCCCC(=O)[O-]
REMARK SMILES IDX 4 1 5 2 6 3 7 4 3 5 2 6 1 7
REMARK H PARENT
REMARK Flexibility Score: inf
ROOT
ATOM      1  C   UNL     1     -37.839  18.554 -30.390  1.00  0.00     0.053 C 
ENDROOT
BRANCH   1   2
ATOM      2  C   UNL     1     -36.695  17.775 -29.818  1.00  0.00     0.041 C 
ATOM      3  O   UNL     1     -36.112  18.178 -28.777  1.00  0.00    -0.550 OA
ATOM      4  O   UNL     1     -36.295  16.587 -30.414  1.00  0.00    -0.550 OA
ENDBRANCH   1   2
BRANCH   1   5
ATOM      5  C   UNL     1     -39.148  18.280 -29.637  1.00  0.00     0.006 C 
BRANCH   5   6
ATOM      6  C   UNL     1     -39.484  19.393 -28.635  1.00  0.00    -0.003 C 
ATOM      7  C   UNL     1     -40.878  19.199 -28.044  1.00  0.00     0.004 C 
ENDBRANCH   5   6
ENDBRANCH   1   5
TORSDOF 3
ENDMDL
MODEL 8
REMARK VINA RESULT:    -3.169      2.690      3.866
REMARK INTER + INTRA:          -3.789
REMARK INTER:                  -3.704
REMARK INTRA:                  -0.085
REMARK UNBOUND:                -0.064
REMARK SMILES CCCCC(=O)[O-]
REMARK SMILES IDX 4 1 5 2 6 3 7 4 3 5 2 6 1 7
REMARK H PARENT
REMARK Flexibility Score: inf
ROOT
ATOM      1  C   UNL     1     -39.206  18.792 -29.360  1.00  0.00     0.053 C 
ENDROOT
BRANCH   1   2
ATOM      2  C   UNL     1     -39.024  20.226 -29.756  1.00  0.00     0.041 C 
ATOM      3  O   UNL     1     -39.212  21.144 -28.914  1.00  0.00    -0.550 OA
ATOM      4  O   UNL     1     -38.615  20.545 -31.044  1.00  0.00    -0.550 OA
ENDBRANCH   1   2
BRANCH   1   5
ATOM      5  C   UNL     1     -38.732  17.833 -30.460  1.00  0.00     0.006 C 
BRANCH   5   6
ATOM      6  C   UNL     1     -37.647  16.868 -29.962  1.00  0.00    -0.003 C 
ATOM      7  C   UNL     1     -36.276  17.538 -29.954  1.00  0.00     0.004 C 
ENDBRANCH   5   6
ENDBRANCH   1   5
TORSDOF 3
ENDMDL
MODEL 9
REMARK VINA RESULT:    -3.113      3.460      4.266
REMARK INTER + INTRA:          -3.723
REMARK INTER:                  -3.651
REMARK INTRA:                  -0.072
REMARK UNBOUND:                -0.064
REMARK SMILES CCCCC(=O)[O-]
REMARK SMILES IDX 4 1 5 2 6 3 7 4 3 5 2 6 1 7
REMARK H PARENT
REMARK Flexibility Score: inf
ROOT
ATOM      1  C   UNL     1     -39.521  20.843 -29.446  1.00  0.00     0.053 C 
ENDROOT
BRANCH   1   2
ATOM      2  C   UNL     1     -38.619  21.796 -28.724  1.00  0.00     0.041 C 
ATOM      3  O   UNL     1     -39.085  22.853 -28.223  1.00  0.00    -0.550 OA
ATOM      4  O   UNL     1     -37.270  21.500 -28.577  1.00  0.00    -0.550 OA
ENDBRANCH   1   2
BRANCH   1   5
ATOM      5  C   UNL     1     -39.568  19.471 -28.759  1.00  0.00     0.006 C 
BRANCH   5   6
ATOM      6  C   UNL     1     -39.063  18.346 -29.675  1.00  0.00    -0.003 C 
ATOM      7  C   UNL     1     -38.292  18.910 -30.865  1.00  0.00     0.004 C 
ENDBRANCH   5   6
ENDBRANCH   1   5
TORSDOF 3
ENDMDL
