MODEL 1
REMARK VINA RESULT:    -3.716      0.000      0.000
REMARK INTER + INTRA:          -9.621
REMARK INTER:                  -7.193
REMARK INTRA:                  -2.428
REMARK UNBOUND:                -2.428
REMARK SMILES CCCCCCCCCCCCCCCCCC(=O)[O-]
REMARK SMILES IDX 10 1 11 2 12 3 13 4 14 5 15 6 16 7 17 8 18 9 19 10 20 11
REMARK SMILES IDX 9 12 8 13 7 14 6 15 5 16 4 17 3 18 2 19 1 20
REMARK H PARENT
REMARK Flexibility Score: inf
ROOT
ATOM      1  C   UNL     1     161.301 164.500 187.798  1.00  0.00     0.000 C 
ENDROOT
BRANCH   1   2
ATOM      2  C   UNL     1     161.545 163.225 188.621  1.00  0.00     0.000 C 
BRANCH   2   3
ATOM      3  C   UNL     1     162.954 162.646 188.408  1.00  0.00     0.000 C 
BRANCH   3   4
ATOM      4  C   UNL     1     162.983 161.113 188.514  1.00  0.00     0.000 C 
BRANCH   4   5
ATOM      5  C   UNL     1     164.392 160.530 188.315  1.00  0.00     0.000 C 
BRANCH   5   6
ATOM      6  C   UNL     1     164.991 159.963 189.613  1.00  0.00     0.000 C 
BRANCH   6   7
ATOM      7  C   UNL     1     166.280 160.684 190.064  1.00  0.00     0.006 C 
BRANCH   7   8
ATOM      8  C   UNL     1     166.697 161.793 189.090  1.00  0.00     0.053 C 
BRANCH   8   9
ATOM      9  C   UNL     1     166.799 163.104 189.802  1.00  0.00     0.041 C 
ATOM     10  O   UNL     1     167.876 163.756 189.780  1.00  0.00    -0.550 OA
ATOM     11  O   UNL     1     165.690 163.632 190.450  1.00  0.00    -0.550 OA
ENDBRANCH   8   9
ENDBRANCH   7   8
ENDBRANCH   6   7
ENDBRANCH   5   6
ENDBRANCH   4   5
ENDBRANCH   3   4
ENDBRANCH   2   3
ENDBRANCH   1   2
BRANCH   1  12
ATOM     12  C   UNL     1     162.338 164.692 186.680  1.00  0.00     0.000 C 
BRANCH  12  13
ATOM     13  C   UNL     1     161.653 164.954 185.334  1.00  0.00    -0.000 C 
BRANCH  13  14
ATOM     14  C   UNL     1     160.226 164.387 185.323  1.00  0.00    -0.000 C 
BRANCH  14  15
ATOM     15  C   UNL     1     160.123 163.060 184.556  1.00  0.00    -0.000 C 
BRANCH  15  16
ATOM     16  C   UNL     1     159.904 161.854 185.488  1.00  0.00    -0.000 C 
BRANCH  16  17
ATOM     17  C   UNL     1     160.976 160.767 185.313  1.00  0.00    -0.000 C 
BRANCH  17  18
ATOM     18  C   UNL     1     162.359 161.352 184.976  1.00  0.00    -0.000 C 
BRANCH  18  19
ATOM     19  C   UNL     1     163.050 160.603 183.825  1.00  0.00    -0.003 C 
ATOM     20  C   UNL     1     164.503 161.034 183.626  1.00  0.00     0.004 C 
ENDBRANCH  18  19
ENDBRANCH  17  18
ENDBRANCH  16  17
ENDBRANCH  15  16
ENDBRANCH  14  15
ENDBRANCH  13  14
ENDBRANCH  12  13
ENDBRANCH   1  12
TORSDOF 16
ENDMDL
MODEL 2
REMARK VINA RESULT:    -3.644      2.515      3.757
REMARK INTER + INTRA:          -9.481
REMARK INTER:                  -6.694
REMARK INTRA:                  -2.787
REMARK UNBOUND:                -2.428
REMARK SMILES CCCCCCCCCCCCCCCCCC(=O)[O-]
REMARK SMILES IDX 10 1 11 2 12 3 13 4 14 5 15 6 16 7 17 8 18 9 19 10 20 11
REMARK SMILES IDX 9 12 8 13 7 14 6 15 5 16 4 17 3 18 2 19 1 20
REMARK H PARENT
REMARK Flexibility Score: inf
ROOT
ATOM      1  C   UNL     1     161.638 161.467 187.140  1.00  0.00     0.000 C 
ENDROOT
BRANCH   1   2
ATOM      2  C   UNL     1     163.097 160.986 187.160  1.00  0.00     0.000 C 
BRANCH   2   3
ATOM      3  C   UNL     1     163.816 161.335 188.475  1.00  0.00     0.000 C 
BRANCH   3   4
ATOM      4  C   UNL     1     164.320 160.088 189.219  1.00  0.00     0.000 C 
BRANCH   4   5
ATOM      5  C   UNL     1     165.762 160.243 189.730  1.00  0.00     0.000 C 
BRANCH   5   6
ATOM      6  C   UNL     1     166.322 161.659 189.515  1.00  0.00     0.000 C 
BRANCH   6   7
ATOM      7  C   UNL     1     167.636 161.686 188.705  1.00  0.00     0.006 C 
BRANCH   7   8
ATOM      8  C   UNL     1     167.995 160.309 188.132  1.00  0.00     0.053 C 
BRANCH   8   9
ATOM      9  C   UNL     1     167.712 160.261 186.664  1.00  0.00     0.041 C 
ATOM     10  O   UNL     1     166.587 159.879 186.248  1.00  0.00    -0.550 OA
ATOM     11  O   UNL     1     168.673 160.685 185.756  1.00  0.00    -0.550 OA
ENDBRANCH   8   9
ENDBRANCH   7   8
ENDBRANCH   6   7
ENDBRANCH   5   6
ENDBRANCH   4   5
ENDBRANCH   3   4
ENDBRANCH   2   3
ENDBRANCH   1   2
BRANCH   1  12
ATOM     12  C   UNL     1     161.088 161.751 188.547  1.00  0.00     0.000 C 
BRANCH  12  13
ATOM     13  C   UNL     1     160.285 163.057 188.570  1.00  0.00    -0.000 C 
BRANCH  13  14
ATOM     14  C   UNL     1     160.411 163.804 187.233  1.00  0.00    -0.000 C 
BRANCH  14  15
ATOM     15  C   UNL     1     161.053 165.191 187.389  1.00  0.00    -0.000 C 
BRANCH  15  16
ATOM     16  C   UNL     1     162.548 165.113 187.749  1.00  0.00    -0.000 C 
BRANCH  16  17
ATOM     17  C   UNL     1     163.423 164.690 186.559  1.00  0.00    -0.000 C 
BRANCH  17  18
ATOM     18  C   UNL     1     164.890 164.452 186.960  1.00  0.00    -0.000 C 
BRANCH  18  19
ATOM     19  C   UNL     1     165.612 163.489 186.004  1.00  0.00    -0.003 C 
ATOM     20  C   UNL     1     167.072 163.876 185.765  1.00  0.00     0.004 C 
ENDBRANCH  18  19
ENDBRANCH  17  18
ENDBRANCH  16  17
ENDBRANCH  15  16
ENDBRANCH  14  15
ENDBRANCH  13  14
ENDBRANCH  12  13
ENDBRANCH   1  12
TORSDOF 16
ENDMDL
MODEL 3
REMARK VINA RESULT:    -3.640      2.138      4.668
REMARK INTER + INTRA:          -9.472
REMARK INTER:                  -6.596
REMARK INTRA:                  -2.877
REMARK UNBOUND:                -2.428
REMARK SMILES CCCCCCCCCCCCCCCCCC(=O)[O-]
REMARK SMILES IDX 10 1 11 2 12 3 13 4 14 5 15 6 16 7 17 8 18 9 19 10 20 11
REMARK SMILES IDX 9 12 8 13 7 14 6 15 5 16 4 17 3 18 2 19 1 20
REMARK H PARENT
REMARK Flexibility Score: inf
ROOT
ATOM      1  C   UNL     1     160.956 161.039 185.748  1.00  0.00     0.000 C 
ENDROOT
BRANCH   1   2
ATOM      2  C   UNL     1     159.911 161.355 186.830  1.00  0.00     0.000 C 
BRANCH   2   3
ATOM      3  C   UNL     1     160.508 161.343 188.248  1.00  0.00     0.000 C 
BRANCH   3   4
ATOM      4  C   UNL     1     160.212 162.637 189.022  1.00  0.00     0.000 C 
BRANCH   4   5
ATOM      5  C   UNL     1     161.053 163.828 188.534  1.00  0.00     0.000 C 
BRANCH   5   6
ATOM      6  C   UNL     1     162.562 163.619 188.746  1.00  0.00     0.000 C 
BRANCH   6   7
ATOM      7  C   UNL     1     163.397 163.806 187.461  1.00  0.00     0.006 C 
BRANCH   7   8
ATOM      8  C   UNL     1     164.533 164.820 187.648  1.00  0.00     0.053 C 
BRANCH   8   9
ATOM      9  C   UNL     1     164.094 166.184 187.223  1.00  0.00     0.041 C 
ATOM     10  O   UNL     1     163.532 166.954 188.045  1.00  0.00    -0.550 OA
ATOM     11  O   UNL     1     164.348 166.626 185.931  1.00  0.00    -0.550 OA
ENDBRANCH   8   9
ENDBRANCH   7   8
ENDBRANCH   6   7
ENDBRANCH   5   6
ENDBRANCH   4   5
ENDBRANCH   3   4
ENDBRANCH   2   3
ENDBRANCH   1   2
BRANCH   1  12
ATOM     12  C   UNL     1     161.285 162.255 184.867  1.00  0.00     0.000 C 
BRANCH  12  13
ATOM     13  C   UNL     1     162.614 162.055 184.130  1.00  0.00    -0.000 C 
BRANCH  13  14
ATOM     14  C   UNL     1     163.378 160.846 184.689  1.00  0.00    -0.000 C 
BRANCH  14  15
ATOM     15  C   UNL     1     164.691 161.243 185.379  1.00  0.00    -0.000 C 
BRANCH  15  16
ATOM     16  C   UNL     1     165.092 160.265 186.499  1.00  0.00    -0.000 C 
BRANCH  16  17
ATOM     17  C   UNL     1     164.153 160.338 187.713  1.00  0.00    -0.000 C 
BRANCH  17  18
ATOM     18  C   UNL     1     164.911 160.566 189.033  1.00  0.00    -0.000 C 
BRANCH  18  19
ATOM     19  C   UNL     1     166.090 161.539 188.873  1.00  0.00    -0.003 C 
ATOM     20  C   UNL     1     166.439 162.265 190.172  1.00  0.00     0.004 C 
ENDBRANCH  18  19
ENDBRANCH  17  18
ENDBRANCH  16  17
ENDBRANCH  15  16
ENDBRANCH  14  15
ENDBRANCH  13  14
ENDBRANCH  12  13
ENDBRANCH   1  12
TORSDOF 16
ENDMDL
MODEL 4
REMARK VINA RESULT:    -3.622     14.895     18.249
REMARK INTER + INTRA:          -9.437
REMARK INTER:                  -8.017
REMARK INTRA:                  -1.420
REMARK UNBOUND:                -2.428
REMARK SMILES CCCCCCCCCCCCCCCCCC(=O)[O-]
REMARK SMILES IDX 10 1 11 2 12 3 13 4 14 5 15 6 16 7 17 8 18 9 19 10 20 11
REMARK SMILES IDX 9 12 8 13 7 14 6 15 5 16 4 17 3 18 2 19 1 20
REMARK H PARENT
REMARK Flexibility Score: inf
ROOT
ATOM      1  C   UNL     1     179.931 172.650 188.468  1.00  0.00     0.000 C 
ENDROOT
BRANCH   1   2
ATOM      2  C   UNL     1     178.461 173.050 188.668  1.00  0.00     0.000 C 
BRANCH   2   3
ATOM      3  C   UNL     1     178.310 174.405 189.381  1.00  0.00     0.000 C 
BRANCH   3   4
ATOM      4  C   UNL     1     176.862 174.685 189.813  1.00  0.00     0.000 C 
BRANCH   4   5
ATOM      5  C   UNL     1     175.910 174.865 188.618  1.00  0.00     0.000 C 
BRANCH   5   6
ATOM      6  C   UNL     1     176.127 176.196 187.878  1.00  0.00     0.000 C 
BRANCH   6   7
ATOM      7  C   UNL     1     176.159 176.049 186.341  1.00  0.00     0.006 C 
BRANCH   7   8
ATOM      8  C   UNL     1     176.774 174.716 185.897  1.00  0.00     0.053 C 
BRANCH   8   9
ATOM      9  C   UNL     1     178.146 174.931 185.342  1.00  0.00     0.041 C 
ATOM     10  O   UNL     1     179.062 175.388 186.075  1.00  0.00    -0.550 OA
ATOM     11  O   UNL     1     178.428 174.580 184.028  1.00  0.00    -0.550 OA
ENDBRANCH   8   9
ENDBRANCH   7   8
ENDBRANCH   6   7
ENDBRANCH   5   6
ENDBRANCH   4   5
ENDBRANCH   3   4
ENDBRANCH   2   3
ENDBRANCH   1   2
BRANCH   1  12
ATOM     12  C   UNL     1     180.118 171.132 188.317  1.00  0.00     0.000 C 
BRANCH  12  13
ATOM     13  C   UNL     1     178.866 170.377 188.778  1.00  0.00    -0.000 C 
BRANCH  13  14
ATOM     14  C   UNL     1     178.506 169.254 187.793  1.00  0.00    -0.000 C 
BRANCH  14  15
ATOM     15  C   UNL     1     179.461 168.054 187.890  1.00  0.00    -0.000 C 
BRANCH  15  16
ATOM     16  C   UNL     1     178.969 166.840 187.080  1.00  0.00    -0.000 C 
BRANCH  16  17
ATOM     17  C   UNL     1     177.441 166.817 186.915  1.00  0.00    -0.000 C 
BRANCH  17  18
ATOM     18  C   UNL     1     176.754 165.871 187.916  1.00  0.00    -0.000 C 
BRANCH  18  19
ATOM     19  C   UNL     1     177.724 164.839 188.511  1.00  0.00    -0.003 C 
ATOM     20  C   UNL     1     177.113 164.050 189.669  1.00  0.00     0.004 C 
ENDBRANCH  18  19
ENDBRANCH  17  18
ENDBRANCH  16  17
ENDBRANCH  15  16
ENDBRANCH  14  15
ENDBRANCH  13  14
ENDBRANCH  12  13
ENDBRANCH   1  12
TORSDOF 16
ENDMDL
MODEL 5
REMARK VINA RESULT:    -3.567      2.434      5.602
REMARK INTER + INTRA:          -9.332
REMARK INTER:                  -7.121
REMARK INTRA:                  -2.211
REMARK UNBOUND:                -2.428
REMARK SMILES CCCCCCCCCCCCCCCCCC(=O)[O-]
REMARK SMILES IDX 10 1 11 2 12 3 13 4 14 5 15 6 16 7 17 8 18 9 19 10 20 11
REMARK SMILES IDX 9 12 8 13 7 14 6 15 5 16 4 17 3 18 2 19 1 20
REMARK H PARENT
REMARK Flexibility Score: inf
ROOT
ATOM      1  C   UNL     1     160.649 164.619 187.755  1.00  0.00     0.000 C 
ENDROOT
BRANCH   1   2
ATOM      2  C   UNL     1     161.912 165.169 187.075  1.00  0.00     0.000 C 
BRANCH   2   3
ATOM      3  C   UNL     1     162.057 164.689 185.621  1.00  0.00     0.000 C 
BRANCH   3   4
ATOM      4  C   UNL     1     160.745 164.126 185.053  1.00  0.00     0.000 C 
BRANCH   4   5
ATOM      5  C   UNL     1     160.900 162.700 184.499  1.00  0.00     0.000 C 
BRANCH   5   6
ATOM      6  C   UNL     1     162.365 162.233 184.455  1.00  0.00     0.000 C 
BRANCH   6   7
ATOM      7  C   UNL     1     162.522 160.698 184.408  1.00  0.00     0.006 C 
BRANCH   7   8
ATOM      8  C   UNL     1     163.482 160.245 183.300  1.00  0.00     0.053 C 
BRANCH   8   9
ATOM      9  C   UNL     1     164.899 160.318 183.772  1.00  0.00     0.041 C 
ATOM     10  O   UNL     1     165.212 159.875 184.908  1.00  0.00    -0.550 OA
ATOM     11  O   UNL     1     165.884 160.830 182.937  1.00  0.00    -0.550 OA
ENDBRANCH   8   9
ENDBRANCH   7   8
ENDBRANCH   6   7
ENDBRANCH   5   6
ENDBRANCH   4   5
ENDBRANCH   3   4
ENDBRANCH   2   3
ENDBRANCH   1   2
BRANCH   1  12
ATOM     12  C   UNL     1     160.966 163.620 188.879  1.00  0.00     0.000 C 
BRANCH  12  13
ATOM     13  C   UNL     1     160.406 162.231 188.554  1.00  0.00    -0.000 C 
BRANCH  13  14
ATOM     14  C   UNL     1     161.475 161.346 187.895  1.00  0.00    -0.000 C 
BRANCH  14  15
ATOM     15  C   UNL     1     162.888 161.632 188.425  1.00  0.00    -0.000 C 
BRANCH  15  16
ATOM     16  C   UNL     1     163.755 160.362 188.512  1.00  0.00    -0.000 C 
BRANCH  16  17
ATOM     17  C   UNL     1     165.253 160.654 188.329  1.00  0.00    -0.000 C 
BRANCH  17  18
ATOM     18  C   UNL     1     165.997 160.788 189.670  1.00  0.00    -0.000 C 
BRANCH  18  19
ATOM     19  C   UNL     1     166.848 162.065 189.745  1.00  0.00    -0.003 C 
ATOM     20  C   UNL     1     166.063 163.270 190.264  1.00  0.00     0.004 C 
ENDBRANCH  18  19
ENDBRANCH  17  18
ENDBRANCH  16  17
ENDBRANCH  15  16
ENDBRANCH  14  15
ENDBRANCH  13  14
ENDBRANCH  12  13
ENDBRANCH   1  12
TORSDOF 16
ENDMDL
MODEL 6
REMARK VINA RESULT:    -3.546     17.102     18.793
REMARK INTER + INTRA:          -9.291
REMARK INTER:                  -7.315
REMARK INTRA:                  -1.976
REMARK UNBOUND:                -2.428
REMARK SMILES CCCCCCCCCCCCCCCCCC(=O)[O-]
REMARK SMILES IDX 10 1 11 2 12 3 13 4 14 5 15 6 16 7 17 8 18 9 19 10 20 11
REMARK SMILES IDX 9 12 8 13 7 14 6 15 5 16 4 17 3 18 2 19 1 20
REMARK H PARENT
REMARK Flexibility Score: inf
ROOT
ATOM      1  C   UNL     1     174.674 176.264 187.370  1.00  0.00     0.000 C 
ENDROOT
BRANCH   1   2
ATOM      2  C   UNL     1     175.438 175.139 188.085  1.00  0.00     0.000 C 
BRANCH   2   3
ATOM      3  C   UNL     1     176.719 175.641 188.774  1.00  0.00     0.000 C 
BRANCH   3   4
ATOM      4  C   UNL     1     177.401 174.550 189.615  1.00  0.00     0.000 C 
BRANCH   4   5
ATOM      5  C   UNL     1     177.416 173.182 188.914  1.00  0.00     0.000 C 
BRANCH   5   6
ATOM      6  C   UNL     1     178.836 172.708 188.561  1.00  0.00     0.000 C 
BRANCH   6   7
ATOM      7  C   UNL     1     179.345 173.240 187.204  1.00  0.00     0.006 C 
BRANCH   7   8
ATOM      8  C   UNL     1     178.272 173.165 186.110  1.00  0.00     0.053 C 
BRANCH   8   9
ATOM      9  C   UNL     1     178.153 174.477 185.403  1.00  0.00     0.041 C 
ATOM     10  O   UNL     1     178.748 175.494 185.848  1.00  0.00    -0.550 OA
ATOM     11  O   UNL     1     177.425 174.568 184.224  1.00  0.00    -0.550 OA
ENDBRANCH   8   9
ENDBRANCH   7   8
ENDBRANCH   6   7
ENDBRANCH   5   6
ENDBRANCH   4   5
ENDBRANCH   3   4
ENDBRANCH   2   3
ENDBRANCH   1   2
BRANCH   1  12
ATOM     12  C   UNL     1     175.348 177.636 187.532  1.00  0.00     0.000 C 
BRANCH  12  13
ATOM     13  C   UNL     1     174.501 178.743 186.894  1.00  0.00    -0.000 C 
BRANCH  13  14
ATOM     14  C   UNL     1     174.371 179.950 187.835  1.00  0.00    -0.000 C 
BRANCH  14  15
ATOM     15  C   UNL     1     173.348 179.716 188.957  1.00  0.00    -0.000 C 
BRANCH  15  16
ATOM     16  C   UNL     1     171.919 179.509 188.422  1.00  0.00    -0.000 C 
BRANCH  16  17
ATOM     17  C   UNL     1     171.302 178.178 188.879  1.00  0.00    -0.000 C 
BRANCH  17  18
ATOM     18  C   UNL     1     171.169 177.164 187.729  1.00  0.00    -0.000 C 
BRANCH  18  19
ATOM     19  C   UNL     1     170.879 177.839 186.380  1.00  0.00    -0.003 C 
ATOM     20  C   UNL     1     169.388 178.083 186.149  1.00  0.00     0.004 C 
ENDBRANCH  18  19
ENDBRANCH  17  18
ENDBRANCH  16  17
ENDBRANCH  15  16
ENDBRANCH  14  15
ENDBRANCH  13  14
ENDBRANCH  12  13
ENDBRANCH   1  12
TORSDOF 16
ENDMDL
MODEL 7
REMARK VINA RESULT:    -3.535      2.626      6.073
REMARK INTER + INTRA:          -9.269
REMARK INTER:                  -7.319
REMARK INTRA:                  -1.950
REMARK UNBOUND:                -2.428
REMARK SMILES CCCCCCCCCCCCCCCCCC(=O)[O-]
REMARK SMILES IDX 10 1 11 2 12 3 13 4 14 5 15 6 16 7 17 8 18 9 19 10 20 11
REMARK SMILES IDX 9 12 8 13 7 14 6 15 5 16 4 17 3 18 2 19 1 20
REMARK H PARENT
REMARK Flexibility Score: inf
ROOT
ATOM      1  C   UNL     1     163.110 162.389 188.094  1.00  0.00     0.000 C 
ENDROOT
BRANCH   1   2
ATOM      2  C   UNL     1     161.776 163.086 188.403  1.00  0.00     0.000 C 
BRANCH   2   3
ATOM      3  C   UNL     1     160.688 162.101 188.863  1.00  0.00     0.000 C 
BRANCH   3   4
ATOM      4  C   UNL     1     159.876 161.531 187.690  1.00  0.00     0.000 C 
BRANCH   4   5
ATOM      5  C   UNL     1     159.948 162.413 186.433  1.00  0.00     0.000 C 
BRANCH   5   6
ATOM      6  C   UNL     1     160.197 161.603 185.149  1.00  0.00     0.000 C 
BRANCH   6   7
ATOM      7  C   UNL     1     161.592 160.943 185.097  1.00  0.00     0.006 C 
BRANCH   7   8
ATOM      8  C   UNL     1     162.410 161.408 183.886  1.00  0.00     0.053 C 
BRANCH   8   9
ATOM      9  C   UNL     1     163.851 161.048 184.058  1.00  0.00     0.041 C 
ATOM     10  O   UNL     1     164.185 160.130 184.852  1.00  0.00    -0.550 OA
ATOM     11  O   UNL     1     164.824 161.693 183.305  1.00  0.00    -0.550 OA
ENDBRANCH   8   9
ENDBRANCH   7   8
ENDBRANCH   6   7
ENDBRANCH   5   6
ENDBRANCH   4   5
ENDBRANCH   3   4
ENDBRANCH   2   3
ENDBRANCH   1   2
BRANCH   1  12
ATOM     12  C   UNL     1     163.117 160.910 188.512  1.00  0.00     0.000 C 
BRANCH  12  13
ATOM     13  C   UNL     1     164.519 160.306 188.368  1.00  0.00    -0.000 C 
BRANCH  13  14
ATOM     14  C   UNL     1     165.096 159.921 189.739  1.00  0.00    -0.000 C 
BRANCH  14  15
ATOM     15  C   UNL     1     166.499 160.501 189.974  1.00  0.00    -0.000 C 
BRANCH  15  16
ATOM     16  C   UNL     1     166.552 162.025 189.761  1.00  0.00    -0.000 C 
BRANCH  16  17
ATOM     17  C   UNL     1     167.572 162.439 188.688  1.00  0.00    -0.000 C 
BRANCH  17  18
ATOM     18  C   UNL     1     166.957 162.489 187.278  1.00  0.00    -0.000 C 
BRANCH  18  19
ATOM     19  C   UNL     1     167.272 161.230 186.454  1.00  0.00    -0.003 C 
ATOM     20  C   UNL     1     168.761 160.880 186.454  1.00  0.00     0.004 C 
ENDBRANCH  18  19
ENDBRANCH  17  18
ENDBRANCH  16  17
ENDBRANCH  15  16
ENDBRANCH  14  15
ENDBRANCH  13  14
ENDBRANCH  12  13
ENDBRANCH   1  12
TORSDOF 16
ENDMDL
MODEL 8
REMARK VINA RESULT:    -3.479      2.753      4.590
REMARK INTER + INTRA:          -9.161
REMARK INTER:                  -6.581
REMARK INTRA:                  -2.580
REMARK UNBOUND:                -2.428
REMARK SMILES CCCCCCCCCCCCCCCCCC(=O)[O-]
REMARK SMILES IDX 10 1 11 2 12 3 13 4 14 5 15 6 16 7 17 8 18 9 19 10 20 11
REMARK SMILES IDX 9 12 8 13 7 14 6 15 5 16 4 17 3 18 2 19 1 20
REMARK H PARENT
REMARK Flexibility Score: inf
ROOT
ATOM      1  C   UNL     1     165.265 163.925 187.571  1.00  0.00     0.000 C 
ENDROOT
BRANCH   1   2
ATOM      2  C   UNL     1     165.382 163.675 189.082  1.00  0.00     0.000 C 
BRANCH   2   3
ATOM      3  C   UNL     1     166.743 163.076 189.478  1.00  0.00     0.000 C 
BRANCH   3   4
ATOM      4  C   UNL     1     166.619 161.647 190.029  1.00  0.00     0.000 C 
BRANCH   4   5
ATOM      5  C   UNL     1     166.972 160.575 188.984  1.00  0.00     0.000 C 
BRANCH   5   6
ATOM      6  C   UNL     1     167.650 161.161 187.734  1.00  0.00     0.000 C 
BRANCH   6   7
ATOM      7  C   UNL     1     167.404 160.333 186.454  1.00  0.00     0.006 C 
BRANCH   7   8
ATOM      8  C   UNL     1     165.930 159.941 186.289  1.00  0.00     0.053 C 
BRANCH   8   9
ATOM      9  C   UNL     1     165.393 160.456 184.991  1.00  0.00     0.041 C 
ATOM     10  O   UNL     1     166.147 161.074 184.194  1.00  0.00    -0.550 OA
ATOM     11  O   UNL     1     164.072 160.212 184.639  1.00  0.00    -0.550 OA
ENDBRANCH   8   9
ENDBRANCH   7   8
ENDBRANCH   6   7
ENDBRANCH   5   6
ENDBRANCH   4   5
ENDBRANCH   3   4
ENDBRANCH   2   3
ENDBRANCH   1   2
BRANCH   1  12
ATOM     12  C   UNL     1     164.075 163.185 186.937  1.00  0.00     0.000 C 
BRANCH  12  13
ATOM     13  C   UNL     1     163.479 162.166 187.915  1.00  0.00    -0.000 C 
BRANCH  13  14
ATOM     14  C   UNL     1     162.105 161.677 187.431  1.00  0.00    -0.000 C 
BRANCH  14  15
ATOM     15  C   UNL     1     161.120 161.445 188.587  1.00  0.00    -0.000 C 
BRANCH  15  16
ATOM     16  C   UNL     1     159.925 162.416 188.549  1.00  0.00    -0.000 C 
BRANCH  16  17
ATOM     17  C   UNL     1     160.359 163.890 188.566  1.00  0.00    -0.000 C 
BRANCH  17  18
ATOM     18  C   UNL     1     159.875 164.663 187.326  1.00  0.00    -0.000 C 
BRANCH  18  19
ATOM     19  C   UNL     1     161.035 165.272 186.524  1.00  0.00    -0.003 C 
ATOM     20  C   UNL     1     161.931 166.175 187.371  1.00  0.00     0.004 C 
ENDBRANCH  18  19
ENDBRANCH  17  18
ENDBRANCH  16  17
ENDBRANCH  15  16
ENDBRANCH  14  15
ENDBRANCH  13  14
ENDBRANCH  12  13
ENDBRANCH   1  12
TORSDOF 16
ENDMDL
MODEL 9
REMARK VINA RESULT:    -3.429      3.043      5.848
REMARK INTER + INTRA:          -9.064
REMARK INTER:                  -6.574
REMARK INTRA:                  -2.490
REMARK UNBOUND:                -2.428
REMARK SMILES CCCCCCCCCCCCCCCCCC(=O)[O-]
REMARK SMILES IDX 10 1 11 2 12 3 13 4 14 5 15 6 16 7 17 8 18 9 19 10 20 11
REMARK SMILES IDX 9 12 8 13 7 14 6 15 5 16 4 17 3 18 2 19 1 20
REMARK H PARENT
REMARK Flexibility Score: inf
ROOT
ATOM      1  C   UNL     1     161.358 162.765 188.878  1.00  0.00     0.000 C 
ENDROOT
BRANCH   1   2
ATOM      2  C   UNL     1     160.029 163.228 188.262  1.00  0.00     0.000 C 
BRANCH   2   3
ATOM      3  C   UNL     1     159.875 162.792 186.794  1.00  0.00     0.000 C 
BRANCH   3   4
ATOM      4  C   UNL     1     160.100 161.284 186.601  1.00  0.00     0.000 C 
BRANCH   4   5
ATOM      5  C   UNL     1     161.296 160.974 185.686  1.00  0.00     0.000 C 
BRANCH   5   6
ATOM      6  C   UNL     1     161.734 162.185 184.846  1.00  0.00     0.000 C 
BRANCH   6   7
ATOM      7  C   UNL     1     162.366 161.800 183.491  1.00  0.00     0.006 C 
BRANCH   7   8
ATOM      8  C   UNL     1     163.278 160.571 183.603  1.00  0.00     0.053 C 
BRANCH   8   9
ATOM      9  C   UNL     1     164.419 160.676 182.642  1.00  0.00     0.041 C 
ATOM     10  O   UNL     1     164.245 161.186 181.505  1.00  0.00    -0.550 OA
ATOM     11  O   UNL     1     165.688 160.256 183.021  1.00  0.00    -0.550 OA
ENDBRANCH   8   9
ENDBRANCH   7   8
ENDBRANCH   6   7
ENDBRANCH   5   6
ENDBRANCH   4   5
ENDBRANCH   3   4
ENDBRANCH   2   3
ENDBRANCH   1   2
BRANCH   1  12
ATOM     12  C   UNL     1     162.564 163.565 188.360  1.00  0.00     0.000 C 
BRANCH  12  13
ATOM     13  C   UNL     1     163.821 162.690 188.306  1.00  0.00    -0.000 C 
BRANCH  13  14
ATOM     14  C   UNL     1     163.471 161.208 188.503  1.00  0.00    -0.000 C 
BRANCH  14  15
ATOM     15  C   UNL     1     164.329 160.276 187.634  1.00  0.00    -0.000 C 
BRANCH  15  16
ATOM     16  C   UNL     1     165.383 161.040 186.810  1.00  0.00    -0.000 C 
BRANCH  16  17
ATOM     17  C   UNL     1     166.748 160.334 186.794  1.00  0.00    -0.000 C 
BRANCH  17  18
ATOM     18  C   UNL     1     167.531 160.534 188.104  1.00  0.00    -0.000 C 
BRANCH  18  19
ATOM     19  C   UNL     1     167.410 161.966 188.649  1.00  0.00    -0.003 C 
ATOM     20  C   UNL     1     168.503 162.895 188.121  1.00  0.00     0.004 C 
ENDBRANCH  18  19
ENDBRANCH  17  18
ENDBRANCH  16  17
ENDBRANCH  15  16
ENDBRANCH  14  15
ENDBRANCH  13  14
ENDBRANCH  12  13
ENDBRANCH   1  12
TORSDOF 16
ENDMDL
