MODEL 1
REMARK VINA RESULT:    -2.551      0.000      0.000
REMARK INTER + INTRA:          -2.883
REMARK INTER:                  -2.849
REMARK INTRA:                  -0.034
REMARK UNBOUND:                -0.034
REMARK SMILES CCCC(=O)[O-]
REMARK SMILES IDX 3 1 4 2 5 3 6 4 2 5 1 6
REMARK H PARENT
REMARK Flexibility Score: inf
ROOT
ATOM      1  C   UNL     1      -1.764   9.622  38.175  1.00  0.00     0.052 C 
ENDROOT
BRANCH   1   2
ATOM      2  C   UNL     1      -1.249   9.190  36.837  1.00  0.00     0.041 C 
ATOM      3  O   UNL     1      -0.378   8.285  36.755  1.00  0.00    -0.550 OA
ATOM      4  O   UNL     1      -1.703   9.813  35.681  1.00  0.00    -0.550 OA
ENDBRANCH   1   2
BRANCH   1   5
ATOM      5  C   UNL     1      -1.348   8.649  39.286  1.00  0.00     0.003 C 
ATOM      6  C   UNL     1      -2.529   7.846  39.832  1.00  0.00     0.004 C 
ENDBRANCH   1   5
TORSDOF 2
ENDMDL
MODEL 2
REMARK VINA RESULT:    -2.508      2.087      3.252
REMARK INTER + INTRA:          -2.836
REMARK INTER:                  -2.793
REMARK INTRA:                  -0.042
REMARK UNBOUND:                -0.034
REMARK SMILES CCCC(=O)[O-]
REMARK SMILES IDX 3 1 4 2 5 3 6 4 2 5 1 6
REMARK H PARENT
REMARK Flexibility Score: inf
ROOT
ATOM      1  C   UNL     1      -1.151   9.259  38.871  1.00  0.00     0.052 C 
ENDROOT
BRANCH   1   2
ATOM      2  C   UNL     1      -1.859   7.978  39.190  1.00  0.00     0.041 C 
ATOM      3  O   UNL     1      -2.747   7.951  40.082  1.00  0.00    -0.550 OA
ATOM      4  O   UNL     1      -1.514   6.807  38.528  1.00  0.00    -0.550 OA
ENDBRANCH   1   2
BRANCH   1   5
ATOM      5  C   UNL     1      -1.899  10.072  37.805  1.00  0.00     0.003 C 
ATOM      6  C   UNL     1      -1.446   9.728  36.386  1.00  0.00     0.004 C 
ENDBRANCH   1   5
TORSDOF 2
ENDMDL
MODEL 3
REMARK VINA RESULT:    -2.458      9.397     10.710
REMARK INTER + INTRA:          -2.780
REMARK INTER:                  -2.708
REMARK INTRA:                  -0.072
REMARK UNBOUND:                -0.034
REMARK SMILES CCCC(=O)[O-]
REMARK SMILES IDX 3 1 4 2 5 3 6 4 2 5 1 6
REMARK H PARENT
REMARK Flexibility Score: inf
ROOT
ATOM      1  C   UNL     1       4.332   9.246  29.031  1.00  0.00     0.052 C 
ENDROOT
BRANCH   1   2
ATOM      2  C   UNL     1       2.858   9.285  29.295  1.00  0.00     0.041 C 
ATOM      3  O   UNL     1       2.117  10.059  28.634  1.00  0.00    -0.550 OA
ATOM      4  O   UNL     1       2.307   8.494  30.296  1.00  0.00    -0.550 OA
ENDBRANCH   1   2
BRANCH   1   5
ATOM      5  C   UNL     1       4.644   8.726  27.622  1.00  0.00     0.003 C 
ATOM      6  C   UNL     1       4.176   7.285  27.415  1.00  0.00     0.004 C 
ENDBRANCH   1   5
TORSDOF 2
ENDMDL
MODEL 4
REMARK VINA RESULT:    -2.437      1.714      2.325
REMARK INTER + INTRA:          -2.756
REMARK INTER:                  -2.748
REMARK INTRA:                  -0.007
REMARK UNBOUND:                -0.034
REMARK SMILES CCCC(=O)[O-]
REMARK SMILES IDX 3 1 4 2 5 3 6 4 2 5 1 6
REMARK H PARENT
REMARK Flexibility Score: inf
ROOT
ATOM      1  C   UNL     1      -1.498   7.986  38.679  1.00  0.00     0.052 C 
ENDROOT
BRANCH   1   2
ATOM      2  C   UNL     1      -1.361   9.467  38.501  1.00  0.00     0.041 C 
ATOM      3  O   UNL     1      -2.249  10.116  37.889  1.00  0.00    -0.550 OA
ATOM      4  O   UNL     1      -0.235  10.125  38.979  1.00  0.00    -0.550 OA
ENDBRANCH   1   2
BRANCH   1   5
ATOM      5  C   UNL     1      -2.407   7.636  39.865  1.00  0.00     0.003 C 
ATOM      6  C   UNL     1      -3.018   6.241  39.738  1.00  0.00     0.004 C 
ENDBRANCH   1   5
TORSDOF 2
ENDMDL
MODEL 5
REMARK VINA RESULT:    -2.432      1.679      2.030
REMARK INTER + INTRA:          -2.751
REMARK INTER:                  -2.725
REMARK INTRA:                  -0.025
REMARK UNBOUND:                -0.034
REMARK SMILES CCCC(=O)[O-]
REMARK SMILES IDX 3 1 4 2 5 3 6 4 2 5 1 6
REMARK H PARENT
REMARK Flexibility Score: inf
ROOT
ATOM      1  C   UNL     1      -1.563   8.001  38.936  1.00  0.00     0.052 C 
ENDROOT
BRANCH   1   2
ATOM      2  C   UNL     1      -1.316   9.431  38.566  1.00  0.00     0.041 C 
ATOM      3  O   UNL     1      -0.279  10.019  38.969  1.00  0.00    -0.550 OA
ATOM      4  O   UNL     1      -2.249  10.125  37.804  1.00  0.00    -0.550 OA
ENDBRANCH   1   2
BRANCH   1   5
ATOM      5  C   UNL     1      -2.621   7.873  40.040  1.00  0.00     0.003 C 
ATOM      6  C   UNL     1      -2.026   7.399  41.366  1.00  0.00     0.004 C 
ENDBRANCH   1   5
TORSDOF 2
ENDMDL
MODEL 6
REMARK VINA RESULT:    -2.341     11.108     11.703
REMARK INTER + INTRA:          -2.649
REMARK INTER:                  -2.641
REMARK INTRA:                  -0.008
REMARK UNBOUND:                -0.034
REMARK SMILES CCCC(=O)[O-]
REMARK SMILES IDX 3 1 4 2 5 3 6 4 2 5 1 6
REMARK H PARENT
REMARK Flexibility Score: inf
ROOT
ATOM      1  C   UNL     1       4.544   7.748  27.332  1.00  0.00     0.052 C 
ENDROOT
BRANCH   1   2
ATOM      2  C   UNL     1       4.592   9.152  27.852  1.00  0.00     0.041 C 
ATOM      3  O   UNL     1       4.517  10.125  27.056  1.00  0.00    -0.550 OA
ATOM      4  O   UNL     1       4.755   9.387  29.212  1.00  0.00    -0.550 OA
ENDBRANCH   1   2
BRANCH   1   5
ATOM      5  C   UNL     1       3.432   6.931  28.003  1.00  0.00     0.003 C 
ATOM      6  C   UNL     1       3.636   5.424  27.838  1.00  0.00     0.004 C 
ENDBRANCH   1   5
TORSDOF 2
ENDMDL
MODEL 7
REMARK VINA RESULT:    -2.335     10.819     11.567
REMARK INTER + INTRA:          -2.643
REMARK INTER:                  -2.626
REMARK INTRA:                  -0.017
REMARK UNBOUND:                -0.034
REMARK SMILES CCCC(=O)[O-]
REMARK SMILES IDX 3 1 4 2 5 3 6 4 2 5 1 6
REMARK H PARENT
REMARK Flexibility Score: inf
ROOT
ATOM      1  C   UNL     1       2.744   8.782  27.985  1.00  0.00     0.052 C 
ENDROOT
BRANCH   1   2
ATOM      2  C   UNL     1       4.091   9.431  28.082  1.00  0.00     0.041 C 
ATOM      3  O   UNL     1       4.742   9.379  29.159  1.00  0.00    -0.550 OA
ATOM      4  O   UNL     1       4.611  10.124  26.996  1.00  0.00    -0.550 OA
ENDBRANCH   1   2
BRANCH   1   5
ATOM      5  C   UNL     1       1.999   9.205  26.711  1.00  0.00     0.003 C 
ATOM      6  C   UNL     1       1.194   8.059  26.099  1.00  0.00     0.004 C 
ENDBRANCH   1   5
TORSDOF 2
ENDMDL
MODEL 8
REMARK VINA RESULT:    -2.332      2.459      3.202
REMARK INTER + INTRA:          -2.639
REMARK INTER:                  -2.607
REMARK INTRA:                  -0.032
REMARK UNBOUND:                -0.034
REMARK SMILES CCCC(=O)[O-]
REMARK SMILES IDX 3 1 4 2 5 3 6 4 2 5 1 6
REMARK H PARENT
REMARK Flexibility Score: inf
ROOT
ATOM      1  C   UNL     1      -0.265   8.356  39.048  1.00  0.00     0.052 C 
ENDROOT
BRANCH   1   2
ATOM      2  C   UNL     1      -1.701   8.765  38.929  1.00  0.00     0.041 C 
ATOM      3  O   UNL     1      -2.030   9.704  38.158  1.00  0.00    -0.550 OA
ATOM      4  O   UNL     1      -2.671   8.133  39.697  1.00  0.00    -0.550 OA
ENDBRANCH   1   2
BRANCH   1   5
ATOM      5  C   UNL     1       0.456   9.124  40.164  1.00  0.00     0.003 C 
ATOM      6  C   UNL     1       1.479  10.121  39.619  1.00  0.00     0.004 C 
ENDBRANCH   1   5
TORSDOF 2
ENDMDL
MODEL 9
REMARK VINA RESULT:    -2.329      2.238      3.257
REMARK INTER + INTRA:          -2.635
REMARK INTER:                  -2.582
REMARK INTRA:                  -0.053
REMARK UNBOUND:                -0.034
REMARK SMILES CCCC(=O)[O-]
REMARK SMILES IDX 3 1 4 2 5 3 6 4 2 5 1 6
REMARK H PARENT
REMARK Flexibility Score: inf
ROOT
ATOM      1  C   UNL     1      -1.890   8.672  38.984  1.00  0.00     0.052 C 
ENDROOT
BRANCH   1   2
ATOM      2  C   UNL     1      -0.540   8.363  39.556  1.00  0.00     0.041 C 
ATOM      3  O   UNL     1      -0.072   9.067  40.489  1.00  0.00    -0.550 OA
ATOM      4  O   UNL     1       0.216   7.321  39.034  1.00  0.00    -0.550 OA
ENDBRANCH   1   2
BRANCH   1   5
ATOM      5  C   UNL     1      -1.847   9.884  38.045  1.00  0.00     0.003 C 
ATOM      6  C   UNL     1      -1.305   9.529  36.660  1.00  0.00     0.004 C 
ENDBRANCH   1   5
TORSDOF 2
ENDMDL
