MODEL 1
REMARK VINA RESULT:    -5.750      0.000      0.000
REMARK INTER + INTRA:          -8.623
REMARK INTER:                  -7.767
REMARK INTRA:                  -0.856
REMARK UNBOUND:                -0.856
REMARK SMILES O=c1c(-c2ccc(O)cc2)coc2c([C@@H]3O[C@H](CO)[C@H](O)[C@H](O)[C@H]3O)c(O)ccc12
REMARK SMILES IDX 3 1 11 2 12 3 13 4 30 5 2 6 1 7 29 8 28 9 26 10 14 11 4 12
REMARK SMILES IDX 5 13 6 14 7 15 10 16 9 17 8 18 15 20 24 21 16 22 22 23 17 24
REMARK SMILES IDX 20 25 25 26 23 28 18 30 19 31 21 33 27 35
REMARK H PARENT 8 19 25 27 23 29 19 32 21 34 27 36
REMARK Flexibility Score: inf
ROOT
ATOM      1  C   UNL     1       7.388  16.227  15.555  1.00  0.00     0.065 A 
ATOM      2  C   UNL     1       8.512  16.620  14.814  1.00  0.00     0.208 A 
ATOM      3  O   UNL     1       9.450  15.742  14.480  1.00  0.00    -0.463 OA
ATOM      4  C   UNL     1       9.395  14.456  14.815  1.00  0.00     0.147 A 
ATOM      5  C   UNL     1       8.301  13.975  15.572  1.00  0.00     0.066 A 
ATOM      6  C   UNL     1       7.290  14.879  15.945  1.00  0.00     0.200 A 
ATOM      7  O   UNL     1       6.314  14.491  16.645  1.00  0.00    -0.288 OA
ATOM      8  C   UNL     1       8.254  12.622  15.940  1.00  0.00     0.020 A 
ATOM      9  C   UNL     1       9.281  11.757  15.571  1.00  0.00     0.047 A 
ATOM     10  C   UNL     1      10.371  12.222  14.824  1.00  0.00     0.125 A 
ATOM     11  C   UNL     1      10.430  13.575  14.420  1.00  0.00     0.069 A 
ENDROOT
BRANCH   1  12
ATOM     12  C   UNL     1       6.348  17.226  15.909  1.00  0.00    -0.011 A 
ATOM     13  C   UNL     1       6.717  18.476  16.439  1.00  0.00     0.013 A 
ATOM     14  C   UNL     1       5.740  19.421  16.766  1.00  0.00     0.047 A 
ATOM     15  C   UNL     1       4.387  19.135  16.563  1.00  0.00     0.115 A 
ATOM     16  C   UNL     1       4.986  16.947  15.702  1.00  0.00     0.013 A 
ATOM     17  C   UNL     1       4.012  17.896  16.029  1.00  0.00     0.047 A 
BRANCH  15  18
ATOM     18  O   UNL     1       3.426  20.087  16.894  1.00  0.00    -0.508 OA
ATOM     19  H   UNL     1       3.352  20.462  17.833  1.00  0.00     0.293 HD
ENDBRANCH  15  18
ENDBRANCH   1  12
BRANCH  11  20
ATOM     20  C   UNL     1      11.622  14.094  13.627  1.00  0.00     0.188 C 
ATOM     21  C   UNL     1      12.788  14.439  14.584  1.00  0.00     0.179 C 
ATOM     22  O   UNL     1      12.010  13.115  12.675  1.00  0.00    -0.362 OA
ATOM     23  C   UNL     1      14.018  14.887  13.773  1.00  0.00     0.177 C 
ATOM     24  C   UNL     1      13.051  13.602  11.844  1.00  0.00     0.176 C 
ATOM     25  C   UNL     1      14.332  13.855  12.671  1.00  0.00     0.177 C 
BRANCH  21  26
ATOM     26  O   UNL     1      12.391  15.472  15.451  1.00  0.00    -0.387 OA
ATOM     27  H   UNL     1      11.452  15.284  15.713  1.00  0.00     0.211 HD
ENDBRANCH  21  26
BRANCH  23  28
ATOM     28  O   UNL     1      15.119  15.040  14.631  1.00  0.00    -0.387 OA
ATOM     29  H   UNL     1      15.769  15.621  14.158  1.00  0.00     0.211 HD
ENDBRANCH  23  28
BRANCH  24  30
ATOM     30  C   UNL     1      13.294  12.609  10.700  1.00  0.00     0.191 C 
BRANCH  30  31
ATOM     31  O   UNL     1      12.959  11.307  11.095  1.00  0.00    -0.394 OA
ATOM     32  H   UNL     1      13.344  10.703  10.408  1.00  0.00     0.210 HD
ENDBRANCH  30  31
ENDBRANCH  24  30
BRANCH  25  33
ATOM     33  O   UNL     1      14.779  12.653  13.248  1.00  0.00    -0.388 OA
ATOM     34  H   UNL     1      15.771  12.665  13.209  1.00  0.00     0.211 HD
ENDBRANCH  25  33
ENDBRANCH  11  20
BRANCH  10  35
ATOM     35  O   UNL     1      11.396  11.338  14.486  1.00  0.00    -0.507 OA
ATOM     36  H   UNL     1      11.904  10.816  15.191  1.00  0.00     0.293 HD
ENDBRANCH  10  35
TORSDOF 9
ENDMDL
MODEL 2
REMARK VINA RESULT:    -5.733     12.722     14.501
REMARK INTER + INTRA:          -8.600
REMARK INTER:                  -7.607
REMARK INTRA:                  -0.992
REMARK UNBOUND:                -0.856
REMARK SMILES O=c1c(-c2ccc(O)cc2)coc2c([C@@H]3O[C@H](CO)[C@H](O)[C@H](O)[C@H]3O)c(O)ccc12
REMARK SMILES IDX 3 1 11 2 12 3 13 4 30 5 2 6 1 7 29 8 28 9 26 10 14 11 4 12
REMARK SMILES IDX 5 13 6 14 7 15 10 16 9 17 8 18 15 20 24 21 16 22 22 23 17 24
REMARK SMILES IDX 20 25 25 26 23 28 18 30 19 31 21 33 27 35
REMARK H PARENT 8 19 25 27 23 29 19 32 21 34 27 36
REMARK Flexibility Score: inf
ROOT
ATOM      1  C   UNL     1       6.295  14.437   1.322  1.00  0.00     0.065 A 
ATOM      2  C   UNL     1       7.052  13.773   0.347  1.00  0.00     0.208 A 
ATOM      3  O   UNL     1       8.361  13.970   0.248  1.00  0.00    -0.463 OA
ATOM      4  C   UNL     1       9.036  14.792   1.047  1.00  0.00     0.147 A 
ATOM      5  C   UNL     1       8.349  15.511   2.053  1.00  0.00     0.066 A 
ATOM      6  C   UNL     1       6.960  15.328   2.183  1.00  0.00     0.200 A 
ATOM      7  O   UNL     1       6.310  15.975   3.051  1.00  0.00    -0.288 OA
ATOM      8  C   UNL     1       9.058  16.392   2.884  1.00  0.00     0.020 A 
ATOM      9  C   UNL     1      10.430  16.565   2.715  1.00  0.00     0.047 A 
ATOM     10  C   UNL     1      11.120  15.861   1.721  1.00  0.00     0.125 A 
ATOM     11  C   UNL     1      10.433  14.950   0.887  1.00  0.00     0.069 A 
ENDROOT
BRANCH   1  12
ATOM     12  C   UNL     1       4.834  14.194   1.417  1.00  0.00    -0.011 A 
ATOM     13  C   UNL     1       4.320  13.335   2.406  1.00  0.00     0.013 A 
ATOM     14  C   UNL     1       2.943  13.111   2.502  1.00  0.00     0.047 A 
ATOM     15  C   UNL     1       2.063  13.744   1.620  1.00  0.00     0.115 A 
ATOM     16  C   UNL     1       3.942  14.832   0.537  1.00  0.00     0.013 A 
ATOM     17  C   UNL     1       2.566  14.607   0.637  1.00  0.00     0.047 A 
BRANCH  15  18
ATOM     18  O   UNL     1       0.694  13.511   1.728  1.00  0.00    -0.508 OA
ATOM     19  H   UNL     1       0.185  13.731   2.577  1.00  0.00     0.293 HD
ENDBRANCH  15  18
ENDBRANCH   1  12
BRANCH  11  20
ATOM     20  C   UNL     1      11.172  14.196  -0.210  1.00  0.00     0.188 C 
ATOM     21  C   UNL     1      11.764  15.194  -1.234  1.00  0.00     0.179 C 
ATOM     22  O   UNL     1      12.189  13.397   0.376  1.00  0.00    -0.362 OA
ATOM     23  C   UNL     1      12.578  14.434  -2.297  1.00  0.00     0.177 C 
ATOM     24  C   UNL     1      12.833  12.599  -0.603  1.00  0.00     0.176 C 
ATOM     25  C   UNL     1      13.588  13.488  -1.617  1.00  0.00     0.177 C 
BRANCH  21  26
ATOM     26  O   UNL     1      10.719  15.901  -1.854  1.00  0.00    -0.387 OA
ATOM     27  H   UNL     1      10.793  16.845  -1.557  1.00  0.00     0.211 HD
ENDBRANCH  21  26
BRANCH  23  28
ATOM     28  O   UNL     1      13.246  15.352  -3.125  1.00  0.00    -0.387 OA
ATOM     29  H   UNL     1      14.203  15.088  -3.128  1.00  0.00     0.211 HD
ENDBRANCH  23  28
BRANCH  24  30
ATOM     30  C   UNL     1      13.768  11.601   0.092  1.00  0.00     0.191 C 
BRANCH  30  31
ATOM     31  O   UNL     1      14.625  12.261   0.982  1.00  0.00    -0.394 OA
ATOM     32  H   UNL     1      14.103  12.399   1.815  1.00  0.00     0.210 HD
ENDBRANCH  30  31
ENDBRANCH  24  30
BRANCH  25  33
ATOM     33  O   UNL     1      14.582  14.233  -0.959  1.00  0.00    -0.388 OA
ATOM     34  H   UNL     1      15.121  14.680  -1.663  1.00  0.00     0.211 HD
ENDBRANCH  25  33
ENDBRANCH  11  20
BRANCH  10  35
ATOM     35  O   UNL     1      12.491  16.069   1.561  1.00  0.00    -0.507 OA
ATOM     36  H   UNL     1      13.174  15.397   1.891  1.00  0.00     0.293 HD
ENDBRANCH  10  35
TORSDOF 9
ENDMDL
MODEL 3
REMARK VINA RESULT:    -5.478      2.801      5.539
REMARK INTER + INTRA:          -8.256
REMARK INTER:                  -7.951
REMARK INTRA:                  -0.305
REMARK UNBOUND:                -0.856
REMARK SMILES O=c1c(-c2ccc(O)cc2)coc2c([C@@H]3O[C@H](CO)[C@H](O)[C@H](O)[C@H]3O)c(O)ccc12
REMARK SMILES IDX 3 1 11 2 12 3 13 4 30 5 2 6 1 7 29 8 28 9 26 10 14 11 4 12
REMARK SMILES IDX 5 13 6 14 7 15 10 16 9 17 8 18 15 20 24 21 16 22 22 23 17 24
REMARK SMILES IDX 20 25 25 26 23 28 18 30 19 31 21 33 27 35
REMARK H PARENT 8 19 25 27 23 29 19 32 21 34 27 36
REMARK Flexibility Score: inf
ROOT
ATOM      1  C   UNL     1       6.761  11.992  15.712  1.00  0.00     0.065 A 
ATOM      2  C   UNL     1       8.125  11.685  15.620  1.00  0.00     0.208 A 
ATOM      3  O   UNL     1       9.017  12.620  15.316  1.00  0.00    -0.463 OA
ATOM      4  C   UNL     1       8.690  13.889  15.083  1.00  0.00     0.147 A 
ATOM      5  C   UNL     1       7.333  14.285  15.145  1.00  0.00     0.066 A 
ATOM      6  C   UNL     1       6.362  13.318  15.460  1.00  0.00     0.200 A 
ATOM      7  O   UNL     1       5.139  13.629  15.496  1.00  0.00    -0.288 OA
ATOM      8  C   UNL     1       6.988  15.619  14.880  1.00  0.00     0.020 A 
ATOM      9  C   UNL     1       7.972  16.548  14.551  1.00  0.00     0.047 A 
ATOM     10  C   UNL     1       9.318  16.166  14.484  1.00  0.00     0.125 A 
ATOM     11  C   UNL     1       9.695  14.835  14.769  1.00  0.00     0.069 A 
ENDROOT
BRANCH   1  12
ATOM     12  C   UNL     1       5.784  10.930  16.060  1.00  0.00    -0.011 A 
ATOM     13  C   UNL     1       4.608  11.249  16.763  1.00  0.00     0.013 A 
ATOM     14  C   UNL     1       3.683  10.252  17.085  1.00  0.00     0.047 A 
ATOM     15  C   UNL     1       3.916   8.927  16.706  1.00  0.00     0.115 A 
ATOM     16  C   UNL     1       6.009   9.596  15.677  1.00  0.00     0.013 A 
ATOM     17  C   UNL     1       5.081   8.601  16.000  1.00  0.00     0.047 A 
BRANCH  15  18
ATOM     18  O   UNL     1       2.986   7.944  17.034  1.00  0.00    -0.508 OA
ATOM     19  H   UNL     1       2.229   8.126  17.683  1.00  0.00     0.293 HD
ENDBRANCH  15  18
ENDBRANCH   1  12
BRANCH  11  20
ATOM     20  C   UNL     1      11.153  14.407  14.678  1.00  0.00     0.188 C 
ATOM     21  C   UNL     1      11.702  14.691  13.259  1.00  0.00     0.179 C 
ATOM     22  O   UNL     1      11.904  15.094  15.668  1.00  0.00    -0.362 OA
ATOM     23  C   UNL     1      13.199  14.332  13.194  1.00  0.00     0.177 C 
ATOM     24  C   UNL     1      13.249  14.645  15.685  1.00  0.00     0.176 C 
ATOM     25  C   UNL     1      13.957  15.001  14.358  1.00  0.00     0.177 C 
BRANCH  21  26
ATOM     26  O   UNL     1      10.991  13.925  12.320  1.00  0.00    -0.387 OA
ATOM     27  H   UNL     1      10.304  14.520  11.923  1.00  0.00     0.211 HD
ENDBRANCH  21  26
BRANCH  23  28
ATOM     28  O   UNL     1      13.729  14.744  11.961  1.00  0.00    -0.387 OA
ATOM     29  H   UNL     1      13.065  14.492  11.267  1.00  0.00     0.211 HD
ENDBRANCH  23  28
BRANCH  24  30
ATOM     30  C   UNL     1      13.969  15.247  16.899  1.00  0.00     0.191 C 
BRANCH  30  31
ATOM     31  O   UNL     1      13.905  16.647  16.869  1.00  0.00    -0.394 OA
ATOM     32  H   UNL     1      13.015  16.875  16.492  1.00  0.00     0.210 HD
ENDBRANCH  30  31
ENDBRANCH  24  30
BRANCH  25  33
ATOM     33  O   UNL     1      13.979  16.396  14.182  1.00  0.00    -0.388 OA
ATOM     34  H   UNL     1      14.930  16.677  14.217  1.00  0.00     0.211 HD
ENDBRANCH  25  33
ENDBRANCH  11  20
BRANCH  10  35
ATOM     35  O   UNL     1      10.281  17.113  14.132  1.00  0.00    -0.507 OA
ATOM     36  H   UNL     1      11.204  17.116  14.550  1.00  0.00     0.293 HD
ENDBRANCH  10  35
TORSDOF 9
ENDMDL
MODEL 4
REMARK VINA RESULT:    -5.118      2.559      5.025
REMARK INTER + INTRA:          -7.770
REMARK INTER:                  -7.258
REMARK INTRA:                  -0.512
REMARK UNBOUND:                -0.856
REMARK SMILES O=c1c(-c2ccc(O)cc2)coc2c([C@@H]3O[C@H](CO)[C@H](O)[C@H](O)[C@H]3O)c(O)ccc12
REMARK SMILES IDX 3 1 11 2 12 3 13 4 30 5 2 6 1 7 29 8 28 9 26 10 14 11 4 12
REMARK SMILES IDX 5 13 6 14 7 15 10 16 9 17 8 18 15 20 24 21 16 22 22 23 17 24
REMARK SMILES IDX 20 25 25 26 23 28 18 30 19 31 21 33 27 35
REMARK H PARENT 8 19 25 27 23 29 19 32 21 34 27 36
REMARK Flexibility Score: inf
ROOT
ATOM      1  C   UNL     1       8.076  12.194  15.107  1.00  0.00     0.065 A 
ATOM      2  C   UNL     1       9.439  11.955  14.882  1.00  0.00     0.208 A 
ATOM      3  O   UNL     1      10.274  12.954  14.624  1.00  0.00    -0.463 OA
ATOM      4  C   UNL     1       9.889  14.226  14.560  1.00  0.00     0.147 A 
ATOM      5  C   UNL     1       8.529  14.557  14.765  1.00  0.00     0.066 A 
ATOM      6  C   UNL     1       7.617  13.522  15.038  1.00  0.00     0.200 A 
ATOM      7  O   UNL     1       6.391  13.777  15.196  1.00  0.00    -0.288 OA
ATOM      8  C   UNL     1       8.121  15.897  14.680  1.00  0.00     0.020 A 
ATOM      9  C   UNL     1       9.047  16.896  14.388  1.00  0.00     0.047 A 
ATOM     10  C   UNL     1      10.396  16.580  14.181  1.00  0.00     0.125 A 
ATOM     11  C   UNL     1      10.836  15.241  14.285  1.00  0.00     0.069 A 
ENDROOT
BRANCH   1  12
ATOM     12  C   UNL     1       7.164  11.060  15.402  1.00  0.00    -0.011 A 
ATOM     13  C   UNL     1       6.447  11.022  16.612  1.00  0.00     0.013 A 
ATOM     14  C   UNL     1       5.582   9.960  16.888  1.00  0.00     0.047 A 
ATOM     15  C   UNL     1       5.416   8.927  15.960  1.00  0.00     0.115 A 
ATOM     16  C   UNL     1       6.988  10.021  14.471  1.00  0.00     0.013 A 
ATOM     17  C   UNL     1       6.120   8.961  14.750  1.00  0.00     0.047 A 
BRANCH  15  18
ATOM     18  O   UNL     1       4.550   7.875  16.249  1.00  0.00    -0.508 OA
ATOM     19  H   UNL     1       4.705   7.264  17.044  1.00  0.00     0.293 HD
ENDBRANCH  15  18
ENDBRANCH   1  12
BRANCH  11  20
ATOM     20  C   UNL     1      12.296  14.886  14.040  1.00  0.00     0.188 C 
ATOM     21  C   UNL     1      12.874  14.139  15.267  1.00  0.00     0.179 C 
ATOM     22  O   UNL     1      12.394  14.096  12.864  1.00  0.00    -0.362 OA
ATOM     23  C   UNL     1      14.326  13.710  14.984  1.00  0.00     0.177 C 
ATOM     24  C   UNL     1      13.750  13.831  12.544  1.00  0.00     0.176 C 
ATOM     25  C   UNL     1      14.407  12.962  13.639  1.00  0.00     0.177 C 
BRANCH  21  26
ATOM     26  O   UNL     1      12.840  14.986  16.388  1.00  0.00    -0.387 OA
ATOM     27  H   UNL     1      13.764  15.029  16.745  1.00  0.00     0.211 HD
ENDBRANCH  21  26
BRANCH  23  28
ATOM     28  O   UNL     1      14.788  12.895  16.030  1.00  0.00    -0.387 OA
ATOM     29  H   UNL     1      15.194  12.093  15.607  1.00  0.00     0.211 HD
ENDBRANCH  23  28
BRANCH  24  30
ATOM     30  C   UNL     1      13.824  13.167  11.163  1.00  0.00     0.191 C 
BRANCH  30  31
ATOM     31  O   UNL     1      12.821  12.197  11.025  1.00  0.00    -0.394 OA
ATOM     32  H   UNL     1      12.435  12.327  10.120  1.00  0.00     0.210 HD
ENDBRANCH  30  31
ENDBRANCH  24  30
BRANCH  25  33
ATOM     33  O   UNL     1      13.746  11.725  13.734  1.00  0.00    -0.388 OA
ATOM     34  H   UNL     1      14.313  11.137  14.299  1.00  0.00     0.211 HD
ENDBRANCH  25  33
ENDBRANCH  11  20
BRANCH  10  35
ATOM     35  O   UNL     1      11.297  17.598  13.870  1.00  0.00    -0.507 OA
ATOM     36  H   UNL     1      11.918  17.992  14.568  1.00  0.00     0.293 HD
ENDBRANCH  10  35
TORSDOF 9
ENDMDL
MODEL 5
REMARK VINA RESULT:    -5.118      1.579      2.648
REMARK INTER + INTRA:          -7.769
REMARK INTER:                  -7.757
REMARK INTRA:                  -0.012
REMARK UNBOUND:                -0.856
REMARK SMILES O=c1c(-c2ccc(O)cc2)coc2c([C@@H]3O[C@H](CO)[C@H](O)[C@H](O)[C@H]3O)c(O)ccc12
REMARK SMILES IDX 3 1 11 2 12 3 13 4 30 5 2 6 1 7 29 8 28 9 26 10 14 11 4 12
REMARK SMILES IDX 5 13 6 14 7 15 10 16 9 17 8 18 15 20 24 21 16 22 22 23 17 24
REMARK SMILES IDX 20 25 25 26 23 28 18 30 19 31 21 33 27 35
REMARK H PARENT 8 19 25 27 23 29 19 32 21 34 27 36
REMARK Flexibility Score: inf
ROOT
ATOM      1  C   UNL     1       6.974  16.136  15.691  1.00  0.00     0.065 A 
ATOM      2  C   UNL     1       8.328  16.438  15.492  1.00  0.00     0.208 A 
ATOM      3  O   UNL     1       9.209  15.482  15.225  1.00  0.00    -0.463 OA
ATOM      4  C   UNL     1       8.881  14.196  15.127  1.00  0.00     0.147 A 
ATOM      5  C   UNL     1       7.537  13.800  15.323  1.00  0.00     0.066 A 
ATOM      6  C   UNL     1       6.578  14.788  15.612  1.00  0.00     0.200 A 
ATOM      7  O   UNL     1       5.375  14.467  15.822  1.00  0.00    -0.288 OA
ATOM      8  C   UNL     1       7.195  12.442  15.239  1.00  0.00     0.020 A 
ATOM      9  C   UNL     1       8.173  11.487  14.971  1.00  0.00     0.047 A 
ATOM     10  C   UNL     1       9.507  11.867  14.778  1.00  0.00     0.125 A 
ATOM     11  C   UNL     1       9.873  13.231  14.834  1.00  0.00     0.069 A 
ENDROOT
BRANCH   1  12
ATOM     12  C   UNL     1       6.007  17.224  15.981  1.00  0.00    -0.011 A 
ATOM     13  C   UNL     1       6.454  18.447  16.513  1.00  0.00     0.013 A 
ATOM     14  C   UNL     1       5.546  19.476  16.780  1.00  0.00     0.047 A 
ATOM     15  C   UNL     1       4.185  19.301  16.514  1.00  0.00     0.115 A 
ATOM     16  C   UNL     1       4.637  17.057  15.710  1.00  0.00     0.013 A 
ATOM     17  C   UNL     1       3.732  18.089  15.977  1.00  0.00     0.047 A 
BRANCH  15  18
ATOM     18  O   UNL     1       3.292  20.335  16.785  1.00  0.00    -0.508 OA
ATOM     19  H   UNL     1       2.342  20.321  16.431  1.00  0.00     0.293 HD
ENDBRANCH  15  18
ENDBRANCH   1  12
BRANCH  11  20
ATOM     20  C   UNL     1      11.324  13.650  14.647  1.00  0.00     0.188 C 
ATOM     21  C   UNL     1      11.444  14.631  13.455  1.00  0.00     0.179 C 
ATOM     22  O   UNL     1      11.798  14.241  15.848  1.00  0.00    -0.362 OA
ATOM     23  C   UNL     1      12.899  15.116  13.318  1.00  0.00     0.177 C 
ATOM     24  C   UNL     1      13.179  14.551  15.748  1.00  0.00     0.176 C 
ATOM     25  C   UNL     1      13.415  15.636  14.674  1.00  0.00     0.177 C 
BRANCH  21  26
ATOM     26  O   UNL     1      11.049  13.980  12.273  1.00  0.00    -0.387 OA
ATOM     27  H   UNL     1      11.846  13.503  11.926  1.00  0.00     0.211 HD
ENDBRANCH  21  26
BRANCH  23  28
ATOM     28  O   UNL     1      12.970  16.126  12.345  1.00  0.00    -0.387 OA
ATOM     29  H   UNL     1      12.681  15.716  11.488  1.00  0.00     0.211 HD
ENDBRANCH  23  28
BRANCH  24  30
ATOM     30  C   UNL     1      13.701  14.982  17.125  1.00  0.00     0.191 C 
BRANCH  30  31
ATOM     31  O   UNL     1      14.495  16.132  17.016  1.00  0.00    -0.394 OA
ATOM     32  H   UNL     1      15.328  15.850  16.555  1.00  0.00     0.210 HD
ENDBRANCH  30  31
ENDBRANCH  24  30
BRANCH  25  33
ATOM     33  O   UNL     1      12.741  16.818  15.027  1.00  0.00    -0.388 OA
ATOM     34  H   UNL     1      11.777  16.667  14.842  1.00  0.00     0.211 HD
ENDBRANCH  25  33
ENDBRANCH  11  20
BRANCH  10  35
ATOM     35  O   UNL     1      10.469  10.887  14.532  1.00  0.00    -0.507 OA
ATOM     36  H   UNL     1      10.394   9.955  14.925  1.00  0.00     0.293 HD
ENDBRANCH  10  35
TORSDOF 9
ENDMDL
MODEL 6
REMARK VINA RESULT:    -4.441     12.546     13.996
REMARK INTER + INTRA:          -6.855
REMARK INTER:                  -9.650
REMARK INTRA:                   2.795
REMARK UNBOUND:                -0.856
REMARK SMILES O=c1c(-c2ccc(O)cc2)coc2c([C@@H]3O[C@H](CO)[C@H](O)[C@H](O)[C@H]3O)c(O)ccc12
REMARK SMILES IDX 3 1 11 2 12 3 13 4 30 5 2 6 1 7 29 8 28 9 26 10 14 11 4 12
REMARK SMILES IDX 5 13 6 14 7 15 10 16 9 17 8 18 15 20 24 21 16 22 22 23 17 24
REMARK SMILES IDX 20 25 25 26 23 28 18 30 19 31 21 33 27 35
REMARK H PARENT 8 19 25 27 23 29 19 32 21 34 27 36
REMARK Flexibility Score: inf
ROOT
ATOM      1  C   UNL     1      -1.673  14.812   6.293  1.00  0.00     0.065 A 
ATOM      2  C   UNL     1      -0.284  14.826   6.478  1.00  0.00     0.208 A 
ATOM      3  O   UNL     1       0.544  14.678   5.450  1.00  0.00    -0.463 OA
ATOM      4  C   UNL     1       0.126  14.509   4.198  1.00  0.00     0.147 A 
ATOM      5  C   UNL     1      -1.261  14.472   3.922  1.00  0.00     0.066 A 
ATOM      6  C   UNL     1      -2.166  14.622   4.989  1.00  0.00     0.200 A 
ATOM      7  O   UNL     1      -3.410  14.565   4.783  1.00  0.00    -0.288 OA
ATOM      8  C   UNL     1      -1.700  14.275   2.604  1.00  0.00     0.020 A 
ATOM      9  C   UNL     1      -0.778  14.109   1.573  1.00  0.00     0.047 A 
ATOM     10  C   UNL     1       0.597  14.142   1.835  1.00  0.00     0.125 A 
ATOM     11  C   UNL     1       1.066  14.362   3.150  1.00  0.00     0.069 A 
ENDROOT
BRANCH   1  12
ATOM     12  C   UNL     1      -2.577  14.987   7.457  1.00  0.00    -0.011 A 
ATOM     13  C   UNL     1      -2.097  15.560   8.649  1.00  0.00     0.013 A 
ATOM     14  C   UNL     1      -2.949  15.733   9.744  1.00  0.00     0.047 A 
ATOM     15  C   UNL     1      -4.289  15.344   9.662  1.00  0.00     0.115 A 
ATOM     16  C   UNL     1      -3.928  14.603   7.380  1.00  0.00     0.013 A 
ATOM     17  C   UNL     1      -4.777  14.780   8.477  1.00  0.00     0.047 A 
BRANCH  15  18
ATOM     18  O   UNL     1      -5.125  15.523  10.761  1.00  0.00    -0.508 OA
ATOM     19  H   UNL     1      -5.746  14.787  11.080  1.00  0.00     0.293 HD
ENDBRANCH  15  18
ENDBRANCH   1  12
BRANCH  11  20
ATOM     20  C   UNL     1       2.559  14.378   3.448  1.00  0.00     0.188 C 
ATOM     21  C   UNL     1       3.361  14.104   2.152  1.00  0.00     0.179 C 
ATOM     22  O   UNL     1       2.909  15.631   4.015  1.00  0.00    -0.362 OA
ATOM     23  C   UNL     1       4.871  14.201   2.440  1.00  0.00     0.177 C 
ATOM     24  C   UNL     1       4.273  15.648   4.403  1.00  0.00     0.176 C 
ATOM     25  C   UNL     1       5.190  15.523   3.166  1.00  0.00     0.177 C 
BRANCH  21  26
ATOM     26  O   UNL     1       3.051  12.820   1.673  1.00  0.00    -0.387 OA
ATOM     27  H   UNL     1       2.065  12.723   1.724  1.00  0.00     0.211 HD
ENDBRANCH  21  26
BRANCH  23  28
ATOM     28  O   UNL     1       5.587  14.116   1.235  1.00  0.00    -0.387 OA
ATOM     29  H   UNL     1       5.378  13.228   0.842  1.00  0.00     0.211 HD
ENDBRANCH  23  28
BRANCH  24  30
ATOM     30  C   UNL     1       4.557  16.927   5.201  1.00  0.00     0.191 C 
BRANCH  30  31
ATOM     31  O   UNL     1       4.233  16.749   6.553  1.00  0.00    -0.394 OA
ATOM     32  H   UNL     1       3.514  17.404   6.753  1.00  0.00     0.210 HD
ENDBRANCH  30  31
ENDBRANCH  24  30
BRANCH  25  33
ATOM     33  O   UNL     1       4.984  16.611   2.300  1.00  0.00    -0.388 OA
ATOM     34  H   UNL     1       4.007  16.792   2.291  1.00  0.00     0.211 HD
ENDBRANCH  25  33
ENDBRANCH  11  20
BRANCH  10  35
ATOM     35  O   UNL     1       1.499  13.953   0.787  1.00  0.00    -0.507 OA
ATOM     36  H   UNL     1       2.168  13.191   0.790  1.00  0.00     0.293 HD
ENDBRANCH  10  35
TORSDOF 9
ENDMDL
MODEL 7
REMARK VINA RESULT:    -3.806     11.388     14.257
REMARK INTER + INTRA:          -5.997
REMARK INTER:                  -6.161
REMARK INTRA:                   0.164
REMARK UNBOUND:                -0.856
REMARK SMILES O=c1c(-c2ccc(O)cc2)coc2c([C@@H]3O[C@H](CO)[C@H](O)[C@H](O)[C@H]3O)c(O)ccc12
REMARK SMILES IDX 3 1 11 2 12 3 13 4 30 5 2 6 1 7 29 8 28 9 26 10 14 11 4 12
REMARK SMILES IDX 5 13 6 14 7 15 10 16 9 17 8 18 15 20 24 21 16 22 22 23 17 24
REMARK SMILES IDX 20 25 25 26 23 28 18 30 19 31 21 33 27 35
REMARK H PARENT 8 19 25 27 23 29 19 32 21 34 27 36
REMARK Flexibility Score: inf
ROOT
ATOM      1  C   UNL     1      11.515  17.629   2.885  1.00  0.00     0.065 A 
ATOM      2  C   UNL     1      12.311  17.126   1.846  1.00  0.00     0.208 A 
ATOM      3  O   UNL     1      11.851  16.189   1.027  1.00  0.00    -0.463 OA
ATOM      4  C   UNL     1      10.631  15.668   1.128  1.00  0.00     0.147 A 
ATOM      5  C   UNL     1       9.764  16.111   2.155  1.00  0.00     0.066 A 
ATOM      6  C   UNL     1      10.221  17.101   3.043  1.00  0.00     0.200 A 
ATOM      7  O   UNL     1       9.485  17.498   3.989  1.00  0.00    -0.288 OA
ATOM      8  C   UNL     1       8.484  15.548   2.272  1.00  0.00     0.020 A 
ATOM      9  C   UNL     1       8.070  14.554   1.388  1.00  0.00     0.047 A 
ATOM     10  C   UNL     1       8.920  14.107   0.369  1.00  0.00     0.125 A 
ATOM     11  C   UNL     1      10.205  14.674   0.215  1.00  0.00     0.069 A 
ENDROOT
BRANCH   1  12
ATOM     12  C   UNL     1      12.050  18.683   3.784  1.00  0.00    -0.011 A 
ATOM     13  C   UNL     1      11.539  18.832   5.086  1.00  0.00     0.013 A 
ATOM     14  C   UNL     1      12.046  19.819   5.936  1.00  0.00     0.047 A 
ATOM     15  C   UNL     1      13.072  20.664   5.502  1.00  0.00     0.115 A 
ATOM     16  C   UNL     1      13.086  19.533   3.356  1.00  0.00     0.013 A 
ATOM     17  C   UNL     1      13.592  20.517   4.209  1.00  0.00     0.047 A 
BRANCH  15  18
ATOM     18  O   UNL     1      13.567  21.642   6.361  1.00  0.00    -0.508 OA
ATOM     19  H   UNL     1      13.441  22.629   6.168  1.00  0.00     0.293 HD
ENDBRANCH  15  18
ENDBRANCH   1  12
BRANCH  11  20
ATOM     20  C   UNL     1      11.144  14.179  -0.876  1.00  0.00     0.188 C 
ATOM     21  C   UNL     1      11.833  15.379  -1.569  1.00  0.00     0.179 C 
ATOM     22  O   UNL     1      12.098  13.296  -0.306  1.00  0.00    -0.362 OA
ATOM     23  C   UNL     1      12.842  14.872  -2.616  1.00  0.00     0.177 C 
ATOM     24  C   UNL     1      12.927  12.731  -1.308  1.00  0.00     0.176 C 
ATOM     25  C   UNL     1      13.782  13.825  -1.986  1.00  0.00     0.177 C 
BRANCH  21  26
ATOM     26  O   UNL     1      10.862  16.179  -2.195  1.00  0.00    -0.387 OA
ATOM     27  H   UNL     1       9.998  15.986  -1.747  1.00  0.00     0.211 HD
ENDBRANCH  21  26
BRANCH  23  28
ATOM     28  O   UNL     1      13.580  15.954  -3.123  1.00  0.00    -0.387 OA
ATOM     29  H   UNL     1      14.145  16.286  -2.377  1.00  0.00     0.211 HD
ENDBRANCH  23  28
BRANCH  24  30
ATOM     30  C   UNL     1      13.794  11.628  -0.686  1.00  0.00     0.191 C 
BRANCH  30  31
ATOM     31  O   UNL     1      14.090  11.925   0.651  1.00  0.00    -0.394 OA
ATOM     32  H   UNL     1      14.932  11.443   0.861  1.00  0.00     0.210 HD
ENDBRANCH  30  31
ENDBRANCH  24  30
BRANCH  25  33
ATOM     33  O   UNL     1      14.621  14.437  -1.039  1.00  0.00    -0.388 OA
ATOM     34  H   UNL     1      15.349  13.792  -0.839  1.00  0.00     0.211 HD
ENDBRANCH  25  33
ENDBRANCH  11  20
BRANCH  10  35
ATOM     35  O   UNL     1       8.487  13.096  -0.489  1.00  0.00    -0.507 OA
ATOM     36  H   UNL     1       9.030  12.813  -1.296  1.00  0.00     0.293 HD
ENDBRANCH  10  35
TORSDOF 9
ENDMDL
MODEL 8
REMARK VINA RESULT:    -3.282      2.487      4.571
REMARK INTER + INTRA:          -5.290
REMARK INTER:                  -5.633
REMARK INTRA:                   0.343
REMARK UNBOUND:                -0.856
REMARK SMILES O=c1c(-c2ccc(O)cc2)coc2c([C@@H]3O[C@H](CO)[C@H](O)[C@H](O)[C@H]3O)c(O)ccc12
REMARK SMILES IDX 3 1 11 2 12 3 13 4 30 5 2 6 1 7 29 8 28 9 26 10 14 11 4 12
REMARK SMILES IDX 5 13 6 14 7 15 10 16 9 17 8 18 15 20 24 21 16 22 22 23 17 24
REMARK SMILES IDX 20 25 25 26 23 28 18 30 19 31 21 33 27 35
REMARK H PARENT 8 19 25 27 23 29 19 32 21 34 27 36
REMARK Flexibility Score: inf
ROOT
ATOM      1  C   UNL     1       9.409  14.206  14.697  1.00  0.00     0.065 A 
ATOM      2  C   UNL     1       9.631  12.891  15.129  1.00  0.00     0.208 A 
ATOM      3  O   UNL     1      10.712  12.221  14.749  1.00  0.00    -0.463 OA
ATOM      4  C   UNL     1      11.643  12.734  13.949  1.00  0.00     0.147 A 
ATOM      5  C   UNL     1      11.494  14.052  13.458  1.00  0.00     0.066 A 
ATOM      6  C   UNL     1      10.358  14.790  13.838  1.00  0.00     0.200 A 
ATOM      7  O   UNL     1      10.178  15.958  13.395  1.00  0.00    -0.288 OA
ATOM      8  C   UNL     1      12.467  14.587  12.599  1.00  0.00     0.020 A 
ATOM      9  C   UNL     1      13.570  13.823  12.226  1.00  0.00     0.047 A 
ATOM     10  C   UNL     1      13.727  12.516  12.704  1.00  0.00     0.125 A 
ATOM     11  C   UNL     1      12.773  11.963  13.589  1.00  0.00     0.069 A 
ENDROOT
BRANCH   1  12
ATOM     12  C   UNL     1       8.196  14.937  15.142  1.00  0.00    -0.011 A 
ATOM     13  C   UNL     1       8.222  16.336  15.283  1.00  0.00     0.013 A 
ATOM     14  C   UNL     1       7.079  17.027  15.695  1.00  0.00     0.047 A 
ATOM     15  C   UNL     1       5.895  16.334  15.964  1.00  0.00     0.115 A 
ATOM     16  C   UNL     1       7.000  14.246  15.408  1.00  0.00     0.013 A 
ATOM     17  C   UNL     1       5.858  14.941  15.818  1.00  0.00     0.047 A 
BRANCH  15  18
ATOM     18  O   UNL     1       4.764  17.036  16.372  1.00  0.00    -0.508 OA
ATOM     19  H   UNL     1       3.859  16.876  15.945  1.00  0.00     0.293 HD
ENDBRANCH  15  18
ENDBRANCH   1  12
BRANCH  11  20
ATOM     20  C   UNL     1      12.925  10.536  14.097  1.00  0.00     0.188 C 
ATOM     21  C   UNL     1      13.841  10.510  15.344  1.00  0.00     0.179 C 
ATOM     22  O   UNL     1      11.641  10.006  14.390  1.00  0.00    -0.362 OA
ATOM     23  C   UNL     1      13.927   9.078  15.903  1.00  0.00     0.177 C 
ATOM     24  C   UNL     1      11.731   8.642  14.767  1.00  0.00     0.176 C 
ATOM     25  C   UNL     1      12.512   8.495  16.092  1.00  0.00     0.177 C 
BRANCH  21  26
ATOM     26  O   UNL     1      15.125  10.959  14.990  1.00  0.00    -0.387 OA
ATOM     27  H   UNL     1      15.042  11.921  14.762  1.00  0.00     0.211 HD
ENDBRANCH  21  26
BRANCH  23  28
ATOM     28  O   UNL     1      14.622   9.089  17.123  1.00  0.00    -0.387 OA
ATOM     29  H   UNL     1      15.448   8.556  16.984  1.00  0.00     0.211 HD
ENDBRANCH  23  28
BRANCH  24  30
ATOM     30  C   UNL     1      10.319   8.049  14.865  1.00  0.00     0.191 C 
BRANCH  30  31
ATOM     31  O   UNL     1       9.354   9.010  14.533  1.00  0.00    -0.394 OA
ATOM     32  H   UNL     1       8.664   8.966  15.244  1.00  0.00     0.210 HD
ENDBRANCH  30  31
ENDBRANCH  24  30
BRANCH  25  33
ATOM     33  O   UNL     1      11.844   9.176  17.124  1.00  0.00    -0.388 OA
ATOM     34  H   UNL     1      11.753   8.538  17.880  1.00  0.00     0.211 HD
ENDBRANCH  25  33
ENDBRANCH  11  20
BRANCH  10  35
ATOM     35  O   UNL     1      14.831  11.766  12.298  1.00  0.00    -0.507 OA
ATOM     36  H   UNL     1      15.345  11.180  12.945  1.00  0.00     0.293 HD
ENDBRANCH  10  35
TORSDOF 9
ENDMDL
