MODEL 1
REMARK VINA RESULT:    -3.771      0.000      0.000
REMARK INTER + INTRA:          -6.590
REMARK INTER:                  -5.755
REMARK INTRA:                  -0.834
REMARK UNBOUND:                -0.834
REMARK SMILES O=C([O-])CCCCCCCCC(=O)[O-]
REMARK SMILES IDX 7 1 6 2 5 3 4 4 2 5 1 6 3 7 8 8 9 9 10 10 11 11 12 12 13 13
REMARK SMILES IDX 14 14
REMARK H PARENT
REMARK Flexibility Score: inf
ROOT
ATOM      1  C   UNL     1      22.593  -2.324  17.671  1.00  0.00     0.000 C 
ENDROOT
BRANCH   1   2
ATOM      2  C   UNL     1      21.895  -2.120  19.025  1.00  0.00     0.000 C 
BRANCH   2   3
ATOM      3  C   UNL     1      21.260  -3.428  19.519  1.00  0.00     0.006 C 
BRANCH   3   4
ATOM      4  C   UNL     1      22.197  -4.631  19.350  1.00  0.00     0.053 C 
BRANCH   4   5
ATOM      5  C   UNL     1      21.500  -5.793  18.711  1.00  0.00     0.041 C 
ATOM      6  O   UNL     1      20.294  -6.034  18.979  1.00  0.00    -0.550 OA
ATOM      7  O   UNL     1      22.192  -6.629  17.845  1.00  0.00    -0.550 OA
ENDBRANCH   4   5
ENDBRANCH   3   4
ENDBRANCH   2   3
ENDBRANCH   1   2
BRANCH   1   8
ATOM      8  C   UNL     1      23.911  -1.542  17.558  1.00  0.00     0.000 C 
BRANCH   8   9
ATOM      9  C   UNL     1      25.138  -2.394  17.926  1.00  0.00     0.000 C 
BRANCH   9  10
ATOM     10  C   UNL     1      25.156  -3.747  17.195  1.00  0.00     0.006 C 
BRANCH  10  11
ATOM     11  C   UNL     1      25.638  -4.897  18.090  1.00  0.00     0.053 C 
BRANCH  11  12
ATOM     12  C   UNL     1      25.548  -6.198  17.359  1.00  0.00     0.041 C 
ATOM     13  O   UNL     1      25.799  -7.279  17.955  1.00  0.00    -0.550 OA
ATOM     14  O   UNL     1      25.141  -6.223  16.032  1.00  0.00    -0.550 OA
ENDBRANCH  11  12
ENDBRANCH  10  11
ENDBRANCH   9  10
ENDBRANCH   8   9
ENDBRANCH   1   8
TORSDOF 9
ENDMDL
MODEL 2
REMARK VINA RESULT:    -3.714     12.095     13.837
REMARK INTER + INTRA:          -6.502
REMARK INTER:                  -5.679
REMARK INTRA:                  -0.823
REMARK UNBOUND:                -0.834
REMARK SMILES O=C([O-])CCCCCCCCC(=O)[O-]
REMARK SMILES IDX 7 1 6 2 5 3 4 4 2 5 1 6 3 7 8 8 9 9 10 10 11 11 12 12 13 13
REMARK SMILES IDX 14 14
REMARK H PARENT
REMARK Flexibility Score: inf
ROOT
ATOM      1  C   UNL     1      27.056  -2.160   8.128  1.00  0.00     0.000 C 
ENDROOT
BRANCH   1   2
ATOM      2  C   UNL     1      27.014  -0.655   7.821  1.00  0.00     0.000 C 
BRANCH   2   3
ATOM      3  C   UNL     1      26.579  -0.402   6.370  1.00  0.00     0.006 C 
BRANCH   3   4
ATOM      4  C   UNL     1      27.680   0.273   5.541  1.00  0.00     0.053 C 
BRANCH   4   5
ATOM      5  C   UNL     1      27.618   1.766   5.646  1.00  0.00     0.041 C 
ATOM      6  O   UNL     1      26.870   2.425   4.877  1.00  0.00    -0.550 OA
ATOM      7  O   UNL     1      28.411   2.432   6.572  1.00  0.00    -0.550 OA
ENDBRANCH   4   5
ENDBRANCH   3   4
ENDBRANCH   2   3
ENDBRANCH   1   2
BRANCH   1   8
ATOM      8  C   UNL     1      28.484  -2.730   8.116  1.00  0.00     0.000 C 
BRANCH   8   9
ATOM      9  C   UNL     1      28.741  -3.657   6.916  1.00  0.00     0.000 C 
BRANCH   9  10
ATOM     10  C   UNL     1      27.469  -3.925   6.095  1.00  0.00     0.006 C 
BRANCH  10  11
ATOM     11  C   UNL     1      27.656  -3.631   4.600  1.00  0.00     0.053 C 
BRANCH  11  12
ATOM     12  C   UNL     1      27.514  -4.888   3.801  1.00  0.00     0.041 C 
ATOM     13  O   UNL     1      27.569  -6.010   4.370  1.00  0.00    -0.550 OA
ATOM     14  O   UNL     1      27.274  -4.820   2.436  1.00  0.00    -0.550 OA
ENDBRANCH  11  12
ENDBRANCH  10  11
ENDBRANCH   9  10
ENDBRANCH   8   9
ENDBRANCH   1   8
TORSDOF 9
ENDMDL
MODEL 3
REMARK VINA RESULT:    -3.651     10.112     11.650
REMARK INTER + INTRA:          -6.407
REMARK INTER:                  -5.440
REMARK INTRA:                  -0.966
REMARK UNBOUND:                -0.834
REMARK SMILES O=C([O-])CCCCCCCCC(=O)[O-]
REMARK SMILES IDX 7 1 6 2 5 3 4 4 2 5 1 6 3 7 8 8 9 9 10 10 11 11 12 12 13 13
REMARK SMILES IDX 14 14
REMARK H PARENT
REMARK Flexibility Score: inf
ROOT
ATOM      1  C   UNL     1      26.780   2.607   6.599  1.00  0.00     0.000 C 
ENDROOT
BRANCH   1   2
ATOM      2  C   UNL     1      26.299   2.570   8.058  1.00  0.00     0.000 C 
BRANCH   2   3
ATOM      3  C   UNL     1      25.264   1.456   8.268  1.00  0.00     0.006 C 
BRANCH   3   4
ATOM      4  C   UNL     1      25.029   1.151   9.753  1.00  0.00     0.053 C 
BRANCH   4   5
ATOM      5  C   UNL     1      25.821  -0.036  10.209  1.00  0.00     0.041 C 
ATOM      6  O   UNL     1      26.863   0.125  10.898  1.00  0.00    -0.550 OA
ATOM      7  O   UNL     1      25.426  -1.318   9.847  1.00  0.00    -0.550 OA
ENDBRANCH   4   5
ENDBRANCH   3   4
ENDBRANCH   2   3
ENDBRANCH   1   2
BRANCH   1   8
ATOM      8  C   UNL     1      28.000   1.704   6.352  1.00  0.00     0.000 C 
BRANCH   8   9
ATOM      9  C   UNL     1      27.643   0.431   5.565  1.00  0.00     0.000 C 
BRANCH   9  10
ATOM     10  C   UNL     1      27.570  -0.816   6.461  1.00  0.00     0.006 C 
BRANCH  10  11
ATOM     11  C   UNL     1      28.360  -0.655   7.767  1.00  0.00     0.053 C 
BRANCH  11  12
ATOM     12  C   UNL     1      28.757  -1.993   8.303  1.00  0.00     0.041 C 
ATOM     13  O   UNL     1      28.847  -2.984   7.531  1.00  0.00    -0.550 OA
ATOM     14  O   UNL     1      29.074  -2.137   9.647  1.00  0.00    -0.550 OA
ENDBRANCH  11  12
ENDBRANCH  10  11
ENDBRANCH   9  10
ENDBRANCH   8   9
ENDBRANCH   1   8
TORSDOF 9
ENDMDL
MODEL 4
REMARK VINA RESULT:    -3.648     11.211     12.716
REMARK INTER + INTRA:          -6.402
REMARK INTER:                  -5.646
REMARK INTRA:                  -0.756
REMARK UNBOUND:                -0.834
REMARK SMILES O=C([O-])CCCCCCCCC(=O)[O-]
REMARK SMILES IDX 7 1 6 2 5 3 4 4 2 5 1 6 3 7 8 8 9 9 10 10 11 11 12 12 13 13
REMARK SMILES IDX 14 14
REMARK H PARENT
REMARK Flexibility Score: inf
ROOT
ATOM      1  C   UNL     1      27.564  -0.613   6.471  1.00  0.00     0.000 C 
ENDROOT
BRANCH   1   2
ATOM      2  C   UNL     1      28.361  -0.476   7.778  1.00  0.00     0.000 C 
BRANCH   2   3
ATOM      3  C   UNL     1      28.828  -1.849   8.282  1.00  0.00     0.006 C 
BRANCH   3   4
ATOM      4  C   UNL     1      28.767  -2.924   7.188  1.00  0.00     0.053 C 
BRANCH   4   5
ATOM      5  C   UNL     1      28.294  -4.239   7.727  1.00  0.00     0.041 C 
ATOM      6  O   UNL     1      29.125  -5.094   8.133  1.00  0.00    -0.550 OA
ATOM      7  O   UNL     1      26.936  -4.534   7.751  1.00  0.00    -0.550 OA
ENDBRANCH   4   5
ENDBRANCH   3   4
ENDBRANCH   2   3
ENDBRANCH   1   2
BRANCH   1   8
ATOM      8  C   UNL     1      27.811   0.552   5.499  1.00  0.00     0.000 C 
BRANCH   8   9
ATOM      9  C   UNL     1      28.001   1.896   6.224  1.00  0.00     0.000 C 
BRANCH   9  10
ATOM     10  C   UNL     1      26.670   2.623   6.476  1.00  0.00     0.006 C 
BRANCH  10  11
ATOM     11  C   UNL     1      26.357   2.786   7.970  1.00  0.00     0.053 C 
BRANCH  11  12
ATOM     12  C   UNL     1      25.375   1.748   8.411  1.00  0.00     0.041 C 
ATOM     13  O   UNL     1      25.247   1.476   9.635  1.00  0.00    -0.550 OA
ATOM     14  O   UNL     1      24.565   1.116   7.478  1.00  0.00    -0.550 OA
ENDBRANCH  11  12
ENDBRANCH  10  11
ENDBRANCH   9  10
ENDBRANCH   8   9
ENDBRANCH   1   8
TORSDOF 9
ENDMDL
MODEL 5
REMARK VINA RESULT:    -3.646      2.635      4.482
REMARK INTER + INTRA:          -6.398
REMARK INTER:                  -5.516
REMARK INTRA:                  -0.882
REMARK UNBOUND:                -0.834
REMARK SMILES O=C([O-])CCCCCCCCC(=O)[O-]
REMARK SMILES IDX 7 1 6 2 5 3 4 4 2 5 1 6 3 7 8 8 9 9 10 10 11 11 12 12 13 13
REMARK SMILES IDX 14 14
REMARK H PARENT
REMARK Flexibility Score: inf
ROOT
ATOM      1  C   UNL     1      23.538  -5.003  18.950  1.00  0.00     0.000 C 
ENDROOT
BRANCH   1   2
ATOM      2  C   UNL     1      22.686  -5.187  17.685  1.00  0.00     0.000 C 
BRANCH   2   3
ATOM      3  C   UNL     1      22.231  -6.646  17.537  1.00  0.00     0.006 C 
BRANCH   3   4
ATOM      4  C   UNL     1      23.350  -7.557  17.016  1.00  0.00     0.053 C 
BRANCH   4   5
ATOM      5  C   UNL     1      23.866  -7.098  15.686  1.00  0.00     0.041 C 
ATOM      6  O   UNL     1      25.051  -6.690  15.573  1.00  0.00    -0.550 OA
ATOM      7  O   UNL     1      23.027  -7.092  14.578  1.00  0.00    -0.550 OA
ENDBRANCH   4   5
ENDBRANCH   3   4
ENDBRANCH   2   3
ENDBRANCH   1   2
BRANCH   1   8
ATOM      8  C   UNL     1      25.025  -4.770  18.637  1.00  0.00     0.000 C 
BRANCH   8   9
ATOM      9  C   UNL     1      25.242  -3.672  17.582  1.00  0.00     0.000 C 
BRANCH   9  10
ATOM     10  C   UNL     1      25.122  -2.257  18.170  1.00  0.00     0.006 C 
BRANCH  10  11
ATOM     11  C   UNL     1      23.894  -1.499  17.647  1.00  0.00     0.053 C 
BRANCH  11  12
ATOM     12  C   UNL     1      22.985  -1.137  18.779  1.00  0.00     0.041 C 
ATOM     13  O   UNL     1      21.965  -1.835  19.020  1.00  0.00    -0.550 OA
ATOM     14  O   UNL     1      23.290  -0.058  19.597  1.00  0.00    -0.550 OA
ENDBRANCH  11  12
ENDBRANCH  10  11
ENDBRANCH   9  10
ENDBRANCH   8   9
ENDBRANCH   1   8
TORSDOF 9
ENDMDL
MODEL 6
REMARK VINA RESULT:    -3.614      3.012      4.857
REMARK INTER + INTRA:          -6.350
REMARK INTER:                  -5.783
REMARK INTRA:                  -0.567
REMARK UNBOUND:                -0.834
REMARK SMILES O=C([O-])CCCCCCCCC(=O)[O-]
REMARK SMILES IDX 7 1 6 2 5 3 4 4 2 5 1 6 3 7 8 8 9 9 10 10 11 11 12 12 13 13
REMARK SMILES IDX 14 14
REMARK H PARENT
REMARK Flexibility Score: inf
ROOT
ATOM      1  C   UNL     1      23.947  -5.608  18.395  1.00  0.00     0.000 C 
ENDROOT
BRANCH   1   2
ATOM      2  C   UNL     1      23.385  -6.716  17.491  1.00  0.00     0.000 C 
BRANCH   2   3
ATOM      3  C   UNL     1      24.516  -7.460  16.765  1.00  0.00     0.006 C 
BRANCH   3   4
ATOM      4  C   UNL     1      24.001  -8.660  15.960  1.00  0.00     0.053 C 
BRANCH   4   5
ATOM      5  C   UNL     1      23.732  -9.844  16.838  1.00  0.00     0.041 C 
ATOM      6  O   UNL     1      24.685 -10.554  17.254  1.00  0.00    -0.550 OA
ATOM      7  O   UNL     1      22.426 -10.183  17.169  1.00  0.00    -0.550 OA
ENDBRANCH   4   5
ENDBRANCH   3   4
ENDBRANCH   2   3
ENDBRANCH   1   2
BRANCH   1   8
ATOM      8  C   UNL     1      25.463  -5.415  18.225  1.00  0.00     0.000 C 
BRANCH   8   9
ATOM      9  C   UNL     1      25.814  -4.114  17.484  1.00  0.00     0.000 C 
BRANCH   9  10
ATOM     10  C   UNL     1      24.614  -3.159  17.369  1.00  0.00     0.006 C 
BRANCH  10  11
ATOM     11  C   UNL     1      24.784  -1.889  18.215  1.00  0.00     0.053 C 
BRANCH  11  12
ATOM     12  C   UNL     1      23.501  -1.545  18.901  1.00  0.00     0.041 C 
ATOM     13  O   UNL     1      23.345  -0.408  19.420  1.00  0.00    -0.550 OA
ATOM     14  O   UNL     1      22.459  -2.461  18.926  1.00  0.00    -0.550 OA
ENDBRANCH  11  12
ENDBRANCH  10  11
ENDBRANCH   9  10
ENDBRANCH   8   9
ENDBRANCH   1   8
TORSDOF 9
ENDMDL
MODEL 7
REMARK VINA RESULT:    -3.613     10.495     12.541
REMARK INTER + INTRA:          -6.347
REMARK INTER:                  -5.448
REMARK INTRA:                  -0.899
REMARK UNBOUND:                -0.834
REMARK SMILES O=C([O-])CCCCCCCCC(=O)[O-]
REMARK SMILES IDX 7 1 6 2 5 3 4 4 2 5 1 6 3 7 8 8 9 9 10 10 11 11 12 12 13 13
REMARK SMILES IDX 14 14
REMARK H PARENT
REMARK Flexibility Score: inf
ROOT
ATOM      1  C   UNL     1      28.640  -2.135   8.847  1.00  0.00     0.000 C 
ENDROOT
BRANCH   1   2
ATOM      2  C   UNL     1      28.053  -1.980   7.436  1.00  0.00     0.000 C 
BRANCH   2   3
ATOM      3  C   UNL     1      27.999  -0.502   7.022  1.00  0.00     0.006 C 
BRANCH   3   4
ATOM      4  C   UNL     1      26.978  -0.247   5.905  1.00  0.00     0.053 C 
BRANCH   4   5
ATOM      5  C   UNL     1      27.061   1.156   5.387  1.00  0.00     0.041 C 
ATOM      6  O   UNL     1      26.069   1.679   4.813  1.00  0.00    -0.550 OA
ATOM      7  O   UNL     1      28.242   1.876   5.510  1.00  0.00    -0.550 OA
ENDBRANCH   4   5
ENDBRANCH   3   4
ENDBRANCH   2   3
ENDBRANCH   1   2
BRANCH   1   8
ATOM      8  C   UNL     1      29.022  -0.788   9.483  1.00  0.00     0.000 C 
BRANCH   8   9
ATOM      9  C   UNL     1      28.200  -0.476  10.745  1.00  0.00     0.000 C 
BRANCH   9  10
ATOM     10  C   UNL     1      26.737  -0.934  10.625  1.00  0.00     0.006 C 
BRANCH  10  11
ATOM     11  C   UNL     1      25.742   0.232  10.699  1.00  0.00     0.053 C 
BRANCH  11  12
ATOM     12  C   UNL     1      25.549   0.839   9.346  1.00  0.00     0.041 C 
ATOM     13  O   UNL     1      24.677   0.378   8.563  1.00  0.00    -0.550 OA
ATOM     14  O   UNL     1      26.298   1.945   8.967  1.00  0.00    -0.550 OA
ENDBRANCH  11  12
ENDBRANCH  10  11
ENDBRANCH   9  10
ENDBRANCH   8   9
ENDBRANCH   1   8
TORSDOF 9
ENDMDL
MODEL 8
REMARK VINA RESULT:    -3.579     10.483     12.081
REMARK INTER + INTRA:          -6.295
REMARK INTER:                  -5.320
REMARK INTRA:                  -0.976
REMARK UNBOUND:                -0.834
REMARK SMILES O=C([O-])CCCCCCCCC(=O)[O-]
REMARK SMILES IDX 7 1 6 2 5 3 4 4 2 5 1 6 3 7 8 8 9 9 10 10 11 11 12 12 13 13
REMARK SMILES IDX 14 14
REMARK H PARENT
REMARK Flexibility Score: inf
ROOT
ATOM      1  C   UNL     1      27.609  -0.113  10.576  1.00  0.00     0.000 C 
ENDROOT
BRANCH   1   2
ATOM      2  C   UNL     1      26.233  -0.795  10.637  1.00  0.00     0.000 C 
BRANCH   2   3
ATOM      3  C   UNL     1      25.104   0.230  10.454  1.00  0.00     0.006 C 
BRANCH   3   4
ATOM      4  C   UNL     1      24.942   0.665   8.992  1.00  0.00     0.053 C 
BRANCH   4   5
ATOM      5  C   UNL     1      25.018   2.154   8.843  1.00  0.00     0.041 C 
ATOM      6  O   UNL     1      23.966   2.845   8.841  1.00  0.00    -0.550 OA
ATOM      7  O   UNL     1      26.249   2.775   8.675  1.00  0.00    -0.550 OA
ENDBRANCH   4   5
ENDBRANCH   3   4
ENDBRANCH   2   3
ENDBRANCH   1   2
BRANCH   1   8
ATOM      8  C   UNL     1      28.717  -1.054  10.078  1.00  0.00     0.000 C 
BRANCH   8   9
ATOM      9  C   UNL     1      28.697  -1.234   8.550  1.00  0.00     0.000 C 
BRANCH   9  10
ATOM     10  C   UNL     1      28.328   0.061   7.808  1.00  0.00     0.006 C 
BRANCH  10  11
ATOM     11  C   UNL     1      27.587  -0.202   6.490  1.00  0.00     0.053 C 
BRANCH  11  12
ATOM     12  C   UNL     1      27.319   1.086   5.778  1.00  0.00     0.041 C 
ATOM     13  O   UNL     1      28.267   1.874   5.516  1.00  0.00    -0.550 OA
ATOM     14  O   UNL     1      26.032   1.396   5.361  1.00  0.00    -0.550 OA
ENDBRANCH  11  12
ENDBRANCH  10  11
ENDBRANCH   9  10
ENDBRANCH   8   9
ENDBRANCH   1   8
TORSDOF 9
ENDMDL
MODEL 9
REMARK VINA RESULT:    -3.576     10.235     12.162
REMARK INTER + INTRA:          -6.292
REMARK INTER:                  -5.255
REMARK INTRA:                  -1.037
REMARK UNBOUND:                -0.834
REMARK SMILES O=C([O-])CCCCCCCCC(=O)[O-]
REMARK SMILES IDX 7 1 6 2 5 3 4 4 2 5 1 6 3 7 8 8 9 9 10 10 11 11 12 12 13 13
REMARK SMILES IDX 14 14
REMARK H PARENT
REMARK Flexibility Score: inf
ROOT
ATOM      1  C   UNL     1      26.744   2.245   5.935  1.00  0.00     0.000 C 
ENDROOT
BRANCH   1   2
ATOM      2  C   UNL     1      27.750   1.170   5.494  1.00  0.00     0.000 C 
BRANCH   2   3
ATOM      3  C   UNL     1      27.971   0.135   6.606  1.00  0.00     0.006 C 
BRANCH   3   4
ATOM      4  C   UNL     1      27.134  -1.134   6.396  1.00  0.00     0.053 C 
BRANCH   4   5
ATOM      5  C   UNL     1      27.596  -2.256   7.275  1.00  0.00     0.041 C 
ATOM      6  O   UNL     1      26.881  -3.282   7.421  1.00  0.00    -0.550 OA
ATOM      7  O   UNL     1      28.802  -2.156   7.957  1.00  0.00    -0.550 OA
ENDBRANCH   4   5
ENDBRANCH   3   4
ENDBRANCH   2   3
ENDBRANCH   1   2
BRANCH   1   8
ATOM      8  C   UNL     1      26.866   2.596   7.427  1.00  0.00     0.000 C 
BRANCH   8   9
ATOM      9  C   UNL     1      25.509   2.577   8.151  1.00  0.00     0.000 C 
BRANCH   9  10
ATOM     10  C   UNL     1      25.048   1.154   8.503  1.00  0.00     0.006 C 
BRANCH  10  11
ATOM     11  C   UNL     1      25.246   0.817   9.988  1.00  0.00     0.053 C 
BRANCH  11  12
ATOM     12  C   UNL     1      26.357  -0.170  10.153  1.00  0.00     0.041 C 
ATOM     13  O   UNL     1      27.557   0.212  10.105  1.00  0.00    -0.550 OA
ATOM     14  O   UNL     1      26.071  -1.504  10.409  1.00  0.00    -0.550 OA
ENDBRANCH  11  12
ENDBRANCH  10  11
ENDBRANCH   9  10
ENDBRANCH   8   9
ENDBRANCH   1   8
TORSDOF 9
ENDMDL
