MODEL 1
REMARK VINA RESULT:    28.027      0.000      0.000
REMARK INTER + INTRA:          33.466
REMARK INTER:                  33.762
REMARK INTRA:                  -0.295
REMARK UNBOUND:                -0.295
REMARK SMILES Oc1cc(O)c2cc(O)c(-c3ccc(O)c(O)c3)[o+]c2c1
REMARK SMILES IDX 10 1 19 2 20 3 21 4 2 5 3 6 4 7 6 8 7 9 8 10 11 11 12 12
REMARK SMILES IDX 13 13 14 14 18 15 16 16 15 17 17 19 9 21 1 23 5 25
REMARK H PARENT 15 18 17 20 9 22 1 24 5 26
REMARK Flexibility Score: inf
ROOT
ATOM      1  C   UNL     1      12.870   5.030  18.431  1.00  0.00     0.402 A 
ATOM      2  O   UNL     1      11.984   5.507  17.561  1.00  0.00    -0.202 OA
ATOM      3  C   UNL     1      11.919   6.788  17.214  1.00  0.00     0.368 A 
ATOM      4  C   UNL     1      10.953   7.194  16.289  1.00  0.00     0.162 A 
ATOM      5  C   UNL     1      10.864   8.533  15.903  1.00  0.00     0.128 A 
ATOM      6  C   UNL     1      11.747   9.473  16.446  1.00  0.00     0.093 A 
ATOM      7  C   UNL     1      12.723   9.092  17.374  1.00  0.00     0.136 A 
ATOM      8  C   UNL     1      12.816   7.733  17.771  1.00  0.00     0.125 A 
ATOM      9  C   UNL     1      13.753   7.262  18.704  1.00  0.00     0.078 A 
ATOM     10  C   UNL     1      13.780   5.907  19.049  1.00  0.00     0.223 A 
ENDROOT
BRANCH   1  11
ATOM     11  C   UNL     1      12.847   3.579  18.728  1.00  0.00     0.087 A 
ATOM     12  C   UNL     1      12.300   3.086  19.926  1.00  0.00     0.022 A 
ATOM     13  C   UNL     1      12.310   1.714  20.194  1.00  0.00     0.051 A 
ATOM     14  C   UNL     1      12.880   0.819  19.280  1.00  0.00     0.157 A 
ATOM     15  C   UNL     1      13.435   2.679  17.824  1.00  0.00     0.068 A 
ATOM     16  C   UNL     1      13.445   1.303  18.093  1.00  0.00     0.158 A 
BRANCH  14  17
ATOM     17  O   UNL     1      12.892  -0.550  19.543  1.00  0.00    -0.504 OA
ATOM     18  H   UNL     1      12.409  -1.208  18.944  1.00  0.00     0.293 HD
ENDBRANCH  14  17
BRANCH  16  19
ATOM     19  O   UNL     1      14.018   0.411  17.187  1.00  0.00    -0.504 OA
ATOM     20  H   UNL     1      13.545   0.151  16.329  1.00  0.00     0.293 HD
ENDBRANCH  16  19
ENDBRANCH   1  11
BRANCH  10  21
ATOM     21  O   UNL     1      14.677   5.448  20.014  1.00  0.00    -0.500 OA
ATOM     22  H   UNL     1      14.861   5.971  20.861  1.00  0.00     0.294 HD
ENDBRANCH  10  21
BRANCH   5  23
ATOM     23  O   UNL     1       9.895   8.918  14.980  1.00  0.00    -0.507 OA
ATOM     24  H   UNL     1       9.722   9.893  14.770  1.00  0.00     0.293 HD
ENDBRANCH   5  23
BRANCH   7  25
ATOM     25  O   UNL     1      13.569  10.091  17.866  1.00  0.00    -0.507 OA
ATOM     26  H   UNL     1      14.542  10.188  17.615  1.00  0.00     0.293 HD
ENDBRANCH   7  25
TORSDOF 6
ENDMDL
MODEL 2
REMARK VINA RESULT:    28.064      1.078      2.616
REMARK INTER + INTRA:          33.510
REMARK INTER:                  33.821
REMARK INTRA:                  -0.311
REMARK UNBOUND:                -0.295
REMARK SMILES Oc1cc(O)c2cc(O)c(-c3ccc(O)c(O)c3)[o+]c2c1
REMARK SMILES IDX 10 1 19 2 20 3 21 4 2 5 3 6 4 7 6 8 7 9 8 10 11 11 12 12
REMARK SMILES IDX 13 13 14 14 18 15 16 16 15 17 17 19 9 21 1 23 5 25
REMARK H PARENT 15 18 17 20 9 22 1 24 5 26
REMARK Flexibility Score: inf
ROOT
ATOM      1  C   UNL     1      12.216   5.147  17.900  1.00  0.00     0.402 A 
ATOM      2  O   UNL     1      13.002   6.139  18.309  1.00  0.00    -0.202 OA
ATOM      3  C   UNL     1      12.811   7.409  17.970  1.00  0.00     0.368 A 
ATOM      4  C   UNL     1      13.690   8.382  18.453  1.00  0.00     0.162 A 
ATOM      5  C   UNL     1      13.512   9.724  18.115  1.00  0.00     0.128 A 
ATOM      6  C   UNL     1      12.447  10.099  17.288  1.00  0.00     0.093 A 
ATOM      7  C   UNL     1      11.552   9.143  16.790  1.00  0.00     0.136 A 
ATOM      8  C   UNL     1      11.731   7.777  17.130  1.00  0.00     0.125 A 
ATOM      9  C   UNL     1      10.893   6.750  16.668  1.00  0.00     0.078 A 
ATOM     10  C   UNL     1      11.136   5.424  17.042  1.00  0.00     0.223 A 
ENDROOT
BRANCH   1  11
ATOM     11  C   UNL     1      12.528   3.773  18.355  1.00  0.00     0.087 A 
ATOM     12  C   UNL     1      12.199   3.339  19.652  1.00  0.00     0.022 A 
ATOM     13  C   UNL     1      12.523   2.045  20.067  1.00  0.00     0.051 A 
ATOM     14  C   UNL     1      13.193   1.171  19.201  1.00  0.00     0.157 A 
ATOM     15  C   UNL     1      13.217   2.899  17.498  1.00  0.00     0.068 A 
ATOM     16  C   UNL     1      13.542   1.601  17.914  1.00  0.00     0.158 A 
BRANCH  14  17
ATOM     17  O   UNL     1      13.517  -0.121  19.611  1.00  0.00    -0.504 OA
ATOM     18  H   UNL     1      13.637  -0.873  18.943  1.00  0.00     0.293 HD
ENDBRANCH  14  17
BRANCH  16  19
ATOM     19  O   UNL     1      14.215   0.732  17.055  1.00  0.00    -0.504 OA
ATOM     20  H   UNL     1      14.955   0.126  17.388  1.00  0.00     0.293 HD
ENDBRANCH  16  19
ENDBRANCH   1  11
BRANCH  10  21
ATOM     21  O   UNL     1      10.333   4.398  16.542  1.00  0.00    -0.500 OA
ATOM     22  H   UNL     1       9.859   4.479  15.651  1.00  0.00     0.294 HD
ENDBRANCH  10  21
BRANCH   5  23
ATOM     23  O   UNL     1      14.399  10.680  18.606  1.00  0.00    -0.507 OA
ATOM     24  H   UNL     1      14.491  10.856  19.600  1.00  0.00     0.293 HD
ENDBRANCH   5  23
BRANCH   7  25
ATOM     25  O   UNL     1      10.513   9.598  15.974  1.00  0.00    -0.507 OA
ATOM     26  H   UNL     1      10.142   9.088  15.186  1.00  0.00     0.293 HD
ENDBRANCH   7  25
TORSDOF 6
ENDMDL
MODEL 3
REMARK VINA RESULT:    28.684      4.879      7.824
REMARK INTER + INTRA:          34.257
REMARK INTER:                  34.556
REMARK INTRA:                  -0.298
REMARK UNBOUND:                -0.295
REMARK SMILES Oc1cc(O)c2cc(O)c(-c3ccc(O)c(O)c3)[o+]c2c1
REMARK SMILES IDX 10 1 19 2 20 3 21 4 2 5 3 6 4 7 6 8 7 9 8 10 11 11 12 12
REMARK SMILES IDX 13 13 14 14 18 15 16 16 15 17 17 19 9 21 1 23 5 25
REMARK H PARENT 15 18 17 20 9 22 1 24 5 26
REMARK Flexibility Score: inf
ROOT
ATOM      1  C   UNL     1       9.974  10.002  19.808  1.00  0.00     0.402 A 
ATOM      2  O   UNL     1       9.716   9.528  18.592  1.00  0.00    -0.202 OA
ATOM      3  C   UNL     1      10.657   9.074  17.770  1.00  0.00     0.368 A 
ATOM      4  C   UNL     1      10.286   8.593  16.512  1.00  0.00     0.162 A 
ATOM      5  C   UNL     1      11.253   8.107  15.630  1.00  0.00     0.128 A 
ATOM      6  C   UNL     1      12.601   8.102  16.008  1.00  0.00     0.093 A 
ATOM      7  C   UNL     1      12.997   8.578  17.263  1.00  0.00     0.136 A 
ATOM      8  C   UNL     1      12.018   9.075  18.162  1.00  0.00     0.125 A 
ATOM      9  C   UNL     1      12.324   9.584  19.435  1.00  0.00     0.078 A 
ATOM     10  C   UNL     1      11.304  10.061  20.264  1.00  0.00     0.223 A 
ENDROOT
BRANCH   1  11
ATOM     11  C   UNL     1       8.837  10.469  20.633  1.00  0.00     0.087 A 
ATOM     12  C   UNL     1       7.967   9.562  21.264  1.00  0.00     0.022 A 
ATOM     13  C   UNL     1       6.887  10.027  22.019  1.00  0.00     0.051 A 
ATOM     14  C   UNL     1       6.652  11.403  22.142  1.00  0.00     0.157 A 
ATOM     15  C   UNL     1       8.584  11.847  20.744  1.00  0.00     0.068 A 
ATOM     16  C   UNL     1       7.501  12.314  21.502  1.00  0.00     0.158 A 
BRANCH  14  17
ATOM     17  O   UNL     1       5.576  11.871  22.896  1.00  0.00    -0.504 OA
ATOM     18  H   UNL     1       5.501  11.678  23.888  1.00  0.00     0.293 HD
ENDBRANCH  14  17
BRANCH  16  19
ATOM     19  O   UNL     1       7.260  13.682  21.621  1.00  0.00    -0.504 OA
ATOM     20  H   UNL     1       6.852  14.077  22.459  1.00  0.00     0.293 HD
ENDBRANCH  16  19
ENDBRANCH   1  11
BRANCH  10  21
ATOM     21  O   UNL     1      11.613  10.612  21.507  1.00  0.00    -0.500 OA
ATOM     22  H   UNL     1      12.345  11.304  21.615  1.00  0.00     0.294 HD
ENDBRANCH  10  21
BRANCH   5  23
ATOM     23  O   UNL     1      10.864   7.633  14.380  1.00  0.00    -0.507 OA
ATOM     24  H   UNL     1      11.468   7.034  13.828  1.00  0.00     0.293 HD
ENDBRANCH   5  23
BRANCH   7  25
ATOM     25  O   UNL     1      14.361   8.534  17.567  1.00  0.00    -0.507 OA
ATOM     26  H   UNL     1      14.881   9.302  17.965  1.00  0.00     0.293 HD
ENDBRANCH   7  25
TORSDOF 6
ENDMDL
MODEL 4
REMARK VINA RESULT:    28.859      5.045      8.374
REMARK INTER + INTRA:          34.468
REMARK INTER:                  34.755
REMARK INTRA:                  -0.286
REMARK UNBOUND:                -0.295
REMARK SMILES Oc1cc(O)c2cc(O)c(-c3ccc(O)c(O)c3)[o+]c2c1
REMARK SMILES IDX 10 1 19 2 20 3 21 4 2 5 3 6 4 7 6 8 7 9 8 10 11 11 12 12
REMARK SMILES IDX 13 13 14 14 18 15 16 16 15 17 17 19 9 21 1 23 5 25
REMARK H PARENT 15 18 17 20 9 22 1 24 5 26
REMARK Flexibility Score: inf
ROOT
ATOM      1  C   UNL     1       9.212   9.964  19.470  1.00  0.00     0.402 A 
ATOM      2  O   UNL     1      10.530   9.965  19.655  1.00  0.00    -0.202 OA
ATOM      3  C   UNL     1      11.396   9.538  18.742  1.00  0.00     0.368 A 
ATOM      4  C   UNL     1      12.762   9.582  19.028  1.00  0.00     0.162 A 
ATOM      5  C   UNL     1      13.695   9.143  18.087  1.00  0.00     0.128 A 
ATOM      6  C   UNL     1      13.258   8.657  16.849  1.00  0.00     0.093 A 
ATOM      7  C   UNL     1      11.895   8.603  16.538  1.00  0.00     0.136 A 
ATOM      8  C   UNL     1      10.943   9.046  17.493  1.00  0.00     0.125 A 
ATOM      9  C   UNL     1       9.557   9.016  17.274  1.00  0.00     0.078 A 
ATOM     10  C   UNL     1       8.680   9.466  18.266  1.00  0.00     0.223 A 
ENDROOT
BRANCH   1  11
ATOM     11  C   UNL     1       8.352  10.475  20.561  1.00  0.00     0.087 A 
ATOM     12  C   UNL     1       7.612   9.604  21.380  1.00  0.00     0.022 A 
ATOM     13  C   UNL     1       6.789  10.111  22.389  1.00  0.00     0.051 A 
ATOM     14  C   UNL     1       6.680  11.494  22.584  1.00  0.00     0.157 A 
ATOM     15  C   UNL     1       8.224  11.862  20.748  1.00  0.00     0.068 A 
ATOM     16  C   UNL     1       7.398  12.371  21.761  1.00  0.00     0.158 A 
BRANCH  14  17
ATOM     17  O   UNL     1       5.861  12.004  23.590  1.00  0.00    -0.504 OA
ATOM     18  H   UNL     1       6.093  11.890  24.570  1.00  0.00     0.293 HD
ENDBRANCH  14  17
BRANCH  16  19
ATOM     19  O   UNL     1       7.284  13.747  21.952  1.00  0.00    -0.504 OA
ATOM     20  H   UNL     1       7.425  14.401  21.192  1.00  0.00     0.293 HD
ENDBRANCH  16  19
ENDBRANCH   1  11
BRANCH  10  21
ATOM     21  O   UNL     1       7.301   9.390  18.068  1.00  0.00    -0.500 OA
ATOM     22  H   UNL     1       6.673   9.088  18.804  1.00  0.00     0.294 HD
ENDBRANCH  10  21
BRANCH   5  23
ATOM     23  O   UNL     1      15.053   9.195  18.390  1.00  0.00    -0.507 OA
ATOM     24  H   UNL     1      15.420   8.797  19.247  1.00  0.00     0.293 HD
ENDBRANCH   5  23
BRANCH   7  25
ATOM     25  O   UNL     1      11.541   8.108  15.280  1.00  0.00    -0.507 OA
ATOM     26  H   UNL     1      10.615   7.791  15.031  1.00  0.00     0.293 HD
ENDBRANCH   7  25
TORSDOF 6
ENDMDL
