MODEL 1
REMARK VINA RESULT:    -2.915      0.000      0.000
REMARK INTER + INTRA:         -10.204
REMARK INTER:                  -6.323
REMARK INTRA:                  -3.881
REMARK UNBOUND:                -3.881
REMARK SMILES CCCCCCCCCCCCCCCCCCCCCC(=O)[O-]
REMARK SMILES IDX 12 1 11 2 10 3 9 4 8 5 7 6 6 7 5 8 4 9 3 10 2 11 1 12 13 13
REMARK SMILES IDX 14 14 15 15 16 16 17 17 18 18 19 19 20 20 21 21 22 22 23 23
REMARK SMILES IDX 24 24
REMARK H PARENT
REMARK Flexibility Score: inf
ROOT
ATOM      1  C   UNL     1     150.324 163.835 154.538  1.00  0.00     0.000 C 
ENDROOT
BRANCH   1   2
ATOM      2  C   UNL     1     149.275 164.092 155.635  1.00  0.00     0.000 C 
BRANCH   2   3
ATOM      3  C   UNL     1     148.089 164.939 155.125  1.00  0.00     0.000 C 
BRANCH   3   4
ATOM      4  C   UNL     1     146.731 164.518 155.714  1.00  0.00    -0.000 C 
BRANCH   4   5
ATOM      5  C   UNL     1     146.470 163.008 155.591  1.00  0.00    -0.000 C 
BRANCH   5   6
ATOM      6  C   UNL     1     146.311 162.323 156.957  1.00  0.00    -0.000 C 
BRANCH   6   7
ATOM      7  C   UNL     1     146.981 160.942 157.007  1.00  0.00    -0.000 C 
BRANCH   7   8
ATOM      8  C   UNL     1     147.658 160.613 155.669  1.00  0.00    -0.000 C 
BRANCH   8   9
ATOM      9  C   UNL     1     148.918 159.746 155.831  1.00  0.00    -0.000 C 
BRANCH   9  10
ATOM     10  C   UNL     1     150.230 160.558 155.865  1.00  0.00    -0.000 C 
BRANCH  10  11
ATOM     11  C   UNL     1     151.291 159.992 154.911  1.00  0.00    -0.003 C 
ATOM     12  C   UNL     1     150.644 159.214 153.768  1.00  0.00     0.004 C 
ENDBRANCH  10  11
ENDBRANCH   9  10
ENDBRANCH   8   9
ENDBRANCH   7   8
ENDBRANCH   6   7
ENDBRANCH   5   6
ENDBRANCH   4   5
ENDBRANCH   3   4
ENDBRANCH   2   3
ENDBRANCH   1   2
BRANCH   1  13
ATOM     13  C   UNL     1     149.757 164.028 153.119  1.00  0.00     0.000 C 
BRANCH  13  14
ATOM     14  C   UNL     1     150.358 163.078 152.067  1.00  0.00     0.000 C 
BRANCH  14  15
ATOM     15  C   UNL     1     149.320 162.093 151.505  1.00  0.00     0.000 C 
BRANCH  15  16
ATOM     16  C   UNL     1     148.242 161.722 152.534  1.00  0.00     0.000 C 
BRANCH  16  17
ATOM     17  C   UNL     1     146.866 161.481 151.886  1.00  0.00     0.000 C 
BRANCH  17  18
ATOM     18  C   UNL     1     146.330 162.738 151.170  1.00  0.00     0.000 C 
BRANCH  18  19
ATOM     19  C   UNL     1     146.027 163.907 152.124  1.00  0.00     0.000 C 
BRANCH  19  20
ATOM     20  C   UNL     1     146.029 165.272 151.418  1.00  0.00     0.006 C 
BRANCH  20  21
ATOM     21  C   UNL     1     147.066 166.233 152.014  1.00  0.00     0.053 C 
BRANCH  21  22
ATOM     22  C   UNL     1     147.766 167.020 150.950  1.00  0.00     0.041 C 
ATOM     23  O   UNL     1     148.836 167.631 151.213  1.00  0.00    -0.550 OA
ATOM     24  O   UNL     1     147.219 167.108 149.676  1.00  0.00    -0.550 OA
ENDBRANCH  21  22
ENDBRANCH  20  21
ENDBRANCH  19  20
ENDBRANCH  18  19
ENDBRANCH  17  18
ENDBRANCH  16  17
ENDBRANCH  15  16
ENDBRANCH  14  15
ENDBRANCH  13  14
ENDBRANCH   1  13
TORSDOF 20
ENDMDL
MODEL 2
REMARK VINA RESULT:    -2.835      1.643      3.716
REMARK INTER + INTRA:         -10.031
REMARK INTER:                  -6.009
REMARK INTRA:                  -4.023
REMARK UNBOUND:                -3.881
REMARK SMILES CCCCCCCCCCCCCCCCCCCCCC(=O)[O-]
REMARK SMILES IDX 12 1 11 2 10 3 9 4 8 5 7 6 6 7 5 8 4 9 3 10 2 11 1 12 13 13
REMARK SMILES IDX 14 14 15 15 16 16 17 17 18 18 19 19 20 20 21 21 22 22 23 23
REMARK SMILES IDX 24 24
REMARK H PARENT
REMARK Flexibility Score: inf
ROOT
ATOM      1  C   UNL     1     146.348 165.049 155.564  1.00  0.00     0.000 C 
ENDROOT
BRANCH   1   2
ATOM      2  C   UNL     1     146.337 163.616 156.129  1.00  0.00     0.000 C 
BRANCH   2   3
ATOM      3  C   UNL     1     147.571 162.802 155.684  1.00  0.00     0.000 C 
BRANCH   3   4
ATOM      4  C   UNL     1     147.399 161.281 155.846  1.00  0.00    -0.000 C 
BRANCH   4   5
ATOM      5  C   UNL     1     148.631 160.489 155.378  1.00  0.00    -0.000 C 
BRANCH   5   6
ATOM      6  C   UNL     1     149.880 161.372 155.232  1.00  0.00    -0.000 C 
BRANCH   6   7
ATOM      7  C   UNL     1     150.936 160.753 154.304  1.00  0.00    -0.000 C 
BRANCH   7   8
ATOM      8  C   UNL     1     150.569 159.306 153.946  1.00  0.00    -0.000 C 
BRANCH   8   9
ATOM      9  C   UNL     1     151.215 158.830 152.632  1.00  0.00    -0.000 C 
BRANCH   9  10
ATOM     10  C   UNL     1     150.802 159.664 151.401  1.00  0.00    -0.000 C 
BRANCH  10  11
ATOM     11  C   UNL     1     152.007 160.317 150.709  1.00  0.00    -0.003 C 
ATOM     12  C   UNL     1     151.563 161.182 149.532  1.00  0.00     0.004 C 
ENDBRANCH  10  11
ENDBRANCH   9  10
ENDBRANCH   8   9
ENDBRANCH   7   8
ENDBRANCH   6   7
ENDBRANCH   5   6
ENDBRANCH   4   5
ENDBRANCH   3   4
ENDBRANCH   2   3
ENDBRANCH   1   2
BRANCH   1  13
ATOM     13  C   UNL     1     147.559 165.317 154.653  1.00  0.00     0.000 C 
BRANCH  13  14
ATOM     14  C   UNL     1     147.207 166.021 153.329  1.00  0.00     0.000 C 
BRANCH  14  15
ATOM     15  C   UNL     1     145.955 165.425 152.663  1.00  0.00     0.000 C 
BRANCH  15  16
ATOM     16  C   UNL     1     146.147 165.186 151.158  1.00  0.00     0.000 C 
BRANCH  16  17
ATOM     17  C   UNL     1     146.192 163.690 150.799  1.00  0.00     0.000 C 
BRANCH  17  18
ATOM     18  C   UNL     1     146.170 162.788 152.051  1.00  0.00     0.000 C 
BRANCH  18  19
ATOM     19  C   UNL     1     147.396 161.864 152.165  1.00  0.00     0.000 C 
BRANCH  19  20
ATOM     20  C   UNL     1     148.586 162.343 151.318  1.00  0.00     0.006 C 
BRANCH  20  21
ATOM     21  C   UNL     1     149.510 163.287 152.097  1.00  0.00     0.053 C 
BRANCH  21  22
ATOM     22  C   UNL     1     149.900 164.480 151.278  1.00  0.00     0.041 C 
ATOM     23  O   UNL     1     150.418 165.486 151.830  1.00  0.00    -0.550 OA
ATOM     24  O   UNL     1     149.657 164.493 149.911  1.00  0.00    -0.550 OA
ENDBRANCH  21  22
ENDBRANCH  20  21
ENDBRANCH  19  20
ENDBRANCH  18  19
ENDBRANCH  17  18
ENDBRANCH  16  17
ENDBRANCH  15  16
ENDBRANCH  14  15
ENDBRANCH  13  14
ENDBRANCH   1  13
TORSDOF 20
ENDMDL
MODEL 3
REMARK VINA RESULT:    -2.803      3.106      6.016
REMARK INTER + INTRA:          -9.961
REMARK INTER:                  -5.662
REMARK INTRA:                  -4.298
REMARK UNBOUND:                -3.881
REMARK SMILES CCCCCCCCCCCCCCCCCCCCCC(=O)[O-]
REMARK SMILES IDX 12 1 11 2 10 3 9 4 8 5 7 6 6 7 5 8 4 9 3 10 2 11 1 12 13 13
REMARK SMILES IDX 14 14 15 15 16 16 17 17 18 18 19 19 20 20 21 21 22 22 23 23
REMARK SMILES IDX 24 24
REMARK H PARENT
REMARK Flexibility Score: inf
ROOT
ATOM      1  C   UNL     1     146.437 165.405 152.541  1.00  0.00     0.000 C 
ENDROOT
BRANCH   1   2
ATOM      2  C   UNL     1     147.632 164.993 151.662  1.00  0.00     0.000 C 
BRANCH   2   3
ATOM      3  C   UNL     1     147.438 163.598 151.027  1.00  0.00     0.000 C 
BRANCH   3   4
ATOM      4  C   UNL     1     146.485 162.686 151.819  1.00  0.00    -0.000 C 
BRANCH   4   5
ATOM      5  C   UNL     1     146.967 161.227 151.878  1.00  0.00    -0.000 C 
BRANCH   5   6
ATOM      6  C   UNL     1     148.364 161.042 151.265  1.00  0.00    -0.000 C 
BRANCH   6   7
ATOM      7  C   UNL     1     149.431 160.702 152.316  1.00  0.00    -0.000 C 
BRANCH   7   8
ATOM      8  C   UNL     1     150.738 161.458 152.035  1.00  0.00    -0.000 C 
BRANCH   8   9
ATOM      9  C   UNL     1     150.756 162.870 152.645  1.00  0.00    -0.000 C 
BRANCH   9  10
ATOM     10  C   UNL     1     151.751 163.028 153.814  1.00  0.00    -0.000 C 
BRANCH  10  11
ATOM     11  C   UNL     1     151.295 164.087 154.829  1.00  0.00    -0.003 C 
ATOM     12  C   UNL     1     150.380 165.119 154.174  1.00  0.00     0.004 C 
ENDBRANCH  10  11
ENDBRANCH   9  10
ENDBRANCH   8   9
ENDBRANCH   7   8
ENDBRANCH   6   7
ENDBRANCH   5   6
ENDBRANCH   4   5
ENDBRANCH   3   4
ENDBRANCH   2   3
ENDBRANCH   1   2
BRANCH   1  13
ATOM     13  C   UNL     1     146.872 165.951 153.913  1.00  0.00     0.000 C 
BRANCH  13  14
ATOM     14  C   UNL     1     145.981 165.496 155.083  1.00  0.00     0.000 C 
BRANCH  14  15
ATOM     15  C   UNL     1     145.988 163.969 155.267  1.00  0.00     0.000 C 
BRANCH  15  16
ATOM     16  C   UNL     1     147.238 163.471 156.009  1.00  0.00     0.000 C 
BRANCH  16  17
ATOM     17  C   UNL     1     148.013 162.408 155.210  1.00  0.00     0.000 C 
BRANCH  17  18
ATOM     18  C   UNL     1     147.530 160.976 155.521  1.00  0.00     0.000 C 
BRANCH  18  19
ATOM     19  C   UNL     1     148.667 160.016 155.916  1.00  0.00     0.000 C 
BRANCH  19  20
ATOM     20  C   UNL     1     150.032 160.715 156.016  1.00  0.00     0.006 C 
BRANCH  20  21
ATOM     21  C   UNL     1     151.181 159.719 156.221  1.00  0.00     0.053 C 
BRANCH  21  22
ATOM     22  C   UNL     1     151.708 159.208 154.915  1.00  0.00     0.041 C 
ATOM     23  O   UNL     1     152.719 159.741 154.386  1.00  0.00    -0.550 OA
ATOM     24  O   UNL     1     151.060 158.165 154.265  1.00  0.00    -0.550 OA
ENDBRANCH  21  22
ENDBRANCH  20  21
ENDBRANCH  19  20
ENDBRANCH  18  19
ENDBRANCH  17  18
ENDBRANCH  16  17
ENDBRANCH  15  16
ENDBRANCH  14  15
ENDBRANCH  13  14
ENDBRANCH   1  13
TORSDOF 20
ENDMDL
MODEL 4
REMARK VINA RESULT:    -2.791      5.797      8.759
REMARK INTER + INTRA:          -9.934
REMARK INTER:                  -5.972
REMARK INTRA:                  -3.963
REMARK UNBOUND:                -3.881
REMARK SMILES CCCCCCCCCCCCCCCCCCCCCC(=O)[O-]
REMARK SMILES IDX 12 1 11 2 10 3 9 4 8 5 7 6 6 7 5 8 4 9 3 10 2 11 1 12 13 13
REMARK SMILES IDX 14 14 15 15 16 16 17 17 18 18 19 19 20 20 21 21 22 22 23 23
REMARK SMILES IDX 24 24
REMARK H PARENT
REMARK Flexibility Score: inf
ROOT
ATOM      1  C   UNL     1     147.552 157.635 163.431  1.00  0.00     0.000 C 
ENDROOT
BRANCH   1   2
ATOM      2  C   UNL     1     147.181 156.153 163.615  1.00  0.00     0.000 C 
BRANCH   2   3
ATOM      3  C   UNL     1     146.089 155.695 162.624  1.00  0.00     0.000 C 
BRANCH   3   4
ATOM      4  C   UNL     1     145.875 156.665 161.449  1.00  0.00    -0.000 C 
BRANCH   4   5
ATOM      5  C   UNL     1     145.898 155.960 160.083  1.00  0.00    -0.000 C 
BRANCH   5   6
ATOM      6  C   UNL     1     146.953 154.844 160.012  1.00  0.00    -0.000 C 
BRANCH   6   7
ATOM      7  C   UNL     1     148.292 155.331 159.439  1.00  0.00    -0.000 C 
BRANCH   7   8
ATOM      8  C   UNL     1     149.314 155.565 160.561  1.00  0.00    -0.000 C 
BRANCH   8   9
ATOM      9  C   UNL     1     150.707 155.952 160.033  1.00  0.00    -0.000 C 
BRANCH   9  10
ATOM     10  C   UNL     1     150.670 156.733 158.703  1.00  0.00    -0.000 C 
BRANCH  10  11
ATOM     11  C   UNL     1     151.751 157.822 158.637  1.00  0.00    -0.003 C 
ATOM     12  C   UNL     1     152.133 158.304 160.034  1.00  0.00     0.004 C 
ENDBRANCH  10  11
ENDBRANCH   9  10
ENDBRANCH   8   9
ENDBRANCH   7   8
ENDBRANCH   6   7
ENDBRANCH   5   6
ENDBRANCH   4   5
ENDBRANCH   3   4
ENDBRANCH   2   3
ENDBRANCH   1   2
BRANCH   1  13
ATOM     13  C   UNL     1     149.073 157.875 163.468  1.00  0.00     0.000 C 
BRANCH  13  14
ATOM     14  C   UNL     1     149.531 159.127 162.698  1.00  0.00     0.000 C 
BRANCH  14  15
ATOM     15  C   UNL     1     148.434 159.683 161.775  1.00  0.00     0.000 C 
BRANCH  15  16
ATOM     16  C   UNL     1     148.741 159.454 160.288  1.00  0.00     0.000 C 
BRANCH  16  17
ATOM     17  C   UNL     1     147.479 159.130 159.468  1.00  0.00     0.000 C 
BRANCH  17  18
ATOM     18  C   UNL     1     147.814 158.718 158.019  1.00  0.00     0.000 C 
BRANCH  18  19
ATOM     19  C   UNL     1     146.958 159.439 156.962  1.00  0.00     0.000 C 
BRANCH  19  20
ATOM     20  C   UNL     1     147.800 160.225 155.944  1.00  0.00     0.006 C 
BRANCH  20  21
ATOM     21  C   UNL     1     149.305 160.092 156.210  1.00  0.00     0.053 C 
BRANCH  21  22
ATOM     22  C   UNL     1     150.004 159.388 155.088  1.00  0.00     0.041 C 
ATOM     23  O   UNL     1     150.713 158.373 155.319  1.00  0.00    -0.550 OA
ATOM     24  O   UNL     1     149.903 159.875 153.791  1.00  0.00    -0.550 OA
ENDBRANCH  21  22
ENDBRANCH  20  21
ENDBRANCH  19  20
ENDBRANCH  18  19
ENDBRANCH  17  18
ENDBRANCH  16  17
ENDBRANCH  15  16
ENDBRANCH  14  15
ENDBRANCH  13  14
ENDBRANCH   1  13
TORSDOF 20
ENDMDL
MODEL 5
REMARK VINA RESULT:    -2.753      2.374      4.420
REMARK INTER + INTRA:          -9.852
REMARK INTER:                  -5.446
REMARK INTRA:                  -4.406
REMARK UNBOUND:                -3.881
REMARK SMILES CCCCCCCCCCCCCCCCCCCCCC(=O)[O-]
REMARK SMILES IDX 12 1 11 2 10 3 9 4 8 5 7 6 6 7 5 8 4 9 3 10 2 11 1 12 13 13
REMARK SMILES IDX 14 14 15 15 16 16 17 17 18 18 19 19 20 20 21 21 22 22 23 23
REMARK SMILES IDX 24 24
REMARK H PARENT
REMARK Flexibility Score: inf
ROOT
ATOM      1  C   UNL     1     150.421 163.497 150.015  1.00  0.00     0.000 C 
ENDROOT
BRANCH   1   2
ATOM      2  C   UNL     1     149.320 163.124 151.023  1.00  0.00     0.000 C 
BRANCH   2   3
ATOM      3  C   UNL     1     149.205 161.598 151.228  1.00  0.00     0.000 C 
BRANCH   3   4
ATOM      4  C   UNL     1     147.852 161.152 151.810  1.00  0.00    -0.000 C 
BRANCH   4   5
ATOM      5  C   UNL     1     146.715 162.139 151.499  1.00  0.00    -0.000 C 
BRANCH   5   6
ATOM      6  C   UNL     1     145.875 162.482 152.740  1.00  0.00    -0.000 C 
BRANCH   6   7
ATOM      7  C   UNL     1     146.501 163.600 153.588  1.00  0.00    -0.000 C 
BRANCH   7   8
ATOM      8  C   UNL     1     146.602 163.178 155.061  1.00  0.00    -0.000 C 
BRANCH   8   9
ATOM      9  C   UNL     1     148.010 163.382 155.647  1.00  0.00    -0.000 C 
BRANCH   9  10
ATOM     10  C   UNL     1     149.127 163.406 154.584  1.00  0.00    -0.000 C 
BRANCH  10  11
ATOM     11  C   UNL     1     150.268 162.433 154.915  1.00  0.00    -0.003 C 
ATOM     12  C   UNL     1     151.468 162.659 153.997  1.00  0.00     0.004 C 
ENDBRANCH  10  11
ENDBRANCH   9  10
ENDBRANCH   8   9
ENDBRANCH   7   8
ENDBRANCH   6   7
ENDBRANCH   5   6
ENDBRANCH   4   5
ENDBRANCH   3   4
ENDBRANCH   2   3
ENDBRANCH   1   2
BRANCH   1  13
ATOM     13  C   UNL     1     149.978 164.595 149.031  1.00  0.00     0.000 C 
BRANCH  13  14
ATOM     14  C   UNL     1     148.559 164.398 148.466  1.00  0.00     0.000 C 
BRANCH  14  15
ATOM     15  C   UNL     1     147.649 165.609 148.731  1.00  0.00     0.000 C 
BRANCH  15  16
ATOM     16  C   UNL     1     146.442 165.257 149.614  1.00  0.00     0.000 C 
BRANCH  16  17
ATOM     17  C   UNL     1     146.537 165.880 151.019  1.00  0.00     0.000 C 
BRANCH  17  18
ATOM     18  C   UNL     1     147.772 166.792 151.171  1.00  0.00     0.000 C 
BRANCH  18  19
ATOM     19  C   UNL     1     148.694 166.390 152.336  1.00  0.00     0.000 C 
BRANCH  19  20
ATOM     20  C   UNL     1     150.180 166.641 152.038  1.00  0.00     0.006 C 
BRANCH  20  21
ATOM     21  C   UNL     1     151.077 166.313 153.239  1.00  0.00     0.053 C 
BRANCH  21  22
ATOM     22  C   UNL     1     152.491 166.056 152.818  1.00  0.00     0.041 C 
ATOM     23  O   UNL     1     153.426 166.128 153.659  1.00  0.00    -0.550 OA
ATOM     24  O   UNL     1     152.781 165.773 151.490  1.00  0.00    -0.550 OA
ENDBRANCH  21  22
ENDBRANCH  20  21
ENDBRANCH  19  20
ENDBRANCH  18  19
ENDBRANCH  17  18
ENDBRANCH  16  17
ENDBRANCH  15  16
ENDBRANCH  14  15
ENDBRANCH  13  14
ENDBRANCH   1  13
TORSDOF 20
ENDMDL
MODEL 6
REMARK VINA RESULT:    -2.721      2.469      5.257
REMARK INTER + INTRA:          -9.783
REMARK INTER:                  -6.124
REMARK INTRA:                  -3.658
REMARK UNBOUND:                -3.881
REMARK SMILES CCCCCCCCCCCCCCCCCCCCCC(=O)[O-]
REMARK SMILES IDX 12 1 11 2 10 3 9 4 8 5 7 6 6 7 5 8 4 9 3 10 2 11 1 12 13 13
REMARK SMILES IDX 14 14 15 15 16 16 17 17 18 18 19 19 20 20 21 21 22 22 23 23
REMARK SMILES IDX 24 24
REMARK H PARENT
REMARK Flexibility Score: inf
ROOT
ATOM      1  C   UNL     1     149.529 161.614 151.868  1.00  0.00     0.000 C 
ENDROOT
BRANCH   1   2
ATOM      2  C   UNL     1     150.235 161.316 150.532  1.00  0.00     0.000 C 
BRANCH   2   3
ATOM      3  C   UNL     1     150.832 162.586 149.889  1.00  0.00     0.000 C 
BRANCH   3   4
ATOM      4  C   UNL     1     149.791 163.683 149.605  1.00  0.00    -0.000 C 
BRANCH   4   5
ATOM      5  C   UNL     1     150.205 165.057 150.157  1.00  0.00    -0.000 C 
BRANCH   5   6
ATOM      6  C   UNL     1     150.748 164.976 151.593  1.00  0.00    -0.000 C 
BRANCH   6   7
ATOM      7  C   UNL     1     149.726 165.446 152.639  1.00  0.00    -0.000 C 
BRANCH   7   8
ATOM      8  C   UNL     1     149.840 164.616 153.927  1.00  0.00    -0.000 C 
BRANCH   8   9
ATOM      9  C   UNL     1     148.618 164.771 154.850  1.00  0.00    -0.000 C 
BRANCH   9  10
ATOM     10  C   UNL     1     147.630 165.865 154.393  1.00  0.00    -0.000 C 
BRANCH  10  11
ATOM     11  C   UNL     1     146.612 166.224 155.485  1.00  0.00    -0.003 C 
ATOM     12  C   UNL     1     145.890 164.980 155.995  1.00  0.00     0.004 C 
ENDBRANCH  10  11
ENDBRANCH   9  10
ENDBRANCH   8   9
ENDBRANCH   7   8
ENDBRANCH   6   7
ENDBRANCH   5   6
ENDBRANCH   4   5
ENDBRANCH   3   4
ENDBRANCH   2   3
ENDBRANCH   1   2
BRANCH   1  13
ATOM     13  C   UNL     1     148.083 161.086 151.905  1.00  0.00     0.000 C 
BRANCH  13  14
ATOM     14  C   UNL     1     147.039 162.137 152.322  1.00  0.00     0.000 C 
BRANCH  14  15
ATOM     15  C   UNL     1     146.593 163.020 151.145  1.00  0.00     0.000 C 
BRANCH  15  16
ATOM     16  C   UNL     1     146.325 164.473 151.565  1.00  0.00     0.000 C 
BRANCH  16  17
ATOM     17  C   UNL     1     146.025 165.389 150.365  1.00  0.00     0.000 C 
BRANCH  17  18
ATOM     18  C   UNL     1     146.920 166.646 150.352  1.00  0.00     0.000 C 
BRANCH  18  19
ATOM     19  C   UNL     1     147.472 166.992 148.958  1.00  0.00     0.000 C 
BRANCH  19  20
ATOM     20  C   UNL     1     148.490 168.143 148.986  1.00  0.00     0.006 C 
BRANCH  20  21
ATOM     21  C   UNL     1     148.680 168.717 150.396  1.00  0.00     0.053 C 
BRANCH  21  22
ATOM     22  C   UNL     1     148.489 170.203 150.418  1.00  0.00     0.041 C 
ATOM     23  O   UNL     1     149.272 170.933 151.082  1.00  0.00    -0.550 OA
ATOM     24  O   UNL     1     147.425 170.777 149.735  1.00  0.00    -0.550 OA
ENDBRANCH  21  22
ENDBRANCH  20  21
ENDBRANCH  19  20
ENDBRANCH  18  19
ENDBRANCH  17  18
ENDBRANCH  16  17
ENDBRANCH  15  16
ENDBRANCH  14  15
ENDBRANCH  13  14
ENDBRANCH   1  13
TORSDOF 20
ENDMDL
MODEL 7
REMARK VINA RESULT:    -2.719      5.658      8.558
REMARK INTER + INTRA:          -9.780
REMARK INTER:                  -6.249
REMARK INTRA:                  -3.530
REMARK UNBOUND:                -3.881
REMARK SMILES CCCCCCCCCCCCCCCCCCCCCC(=O)[O-]
REMARK SMILES IDX 12 1 11 2 10 3 9 4 8 5 7 6 6 7 5 8 4 9 3 10 2 11 1 12 13 13
REMARK SMILES IDX 14 14 15 15 16 16 17 17 18 18 19 19 20 20 21 21 22 22 23 23
REMARK SMILES IDX 24 24
REMARK H PARENT
REMARK Flexibility Score: inf
ROOT
ATOM      1  C   UNL     1     149.202 159.020 161.703  1.00  0.00     0.000 C 
ENDROOT
BRANCH   1   2
ATOM      2  C   UNL     1     150.196 159.705 160.749  1.00  0.00     0.000 C 
BRANCH   2   3
ATOM      3  C   UNL     1     150.860 158.705 159.777  1.00  0.00     0.000 C 
BRANCH   3   4
ATOM      4  C   UNL     1     149.854 157.908 158.928  1.00  0.00    -0.000 C 
BRANCH   4   5
ATOM      5  C   UNL     1     149.913 156.396 159.197  1.00  0.00    -0.000 C 
BRANCH   5   6
ATOM      6  C   UNL     1     148.541 155.716 159.053  1.00  0.00    -0.000 C 
BRANCH   6   7
ATOM      7  C   UNL     1     148.162 154.883 160.286  1.00  0.00    -0.000 C 
BRANCH   7   8
ATOM      8  C   UNL     1     146.648 154.630 160.331  1.00  0.00    -0.000 C 
BRANCH   8   9
ATOM      9  C   UNL     1     145.958 155.325 161.517  1.00  0.00    -0.000 C 
BRANCH   9  10
ATOM     10  C   UNL     1     146.943 155.924 162.543  1.00  0.00    -0.000 C 
BRANCH  10  11
ATOM     11  C   UNL     1     146.225 156.682 163.668  1.00  0.00    -0.003 C 
ATOM     12  C   UNL     1     147.223 157.387 164.582  1.00  0.00     0.004 C 
ENDBRANCH  10  11
ENDBRANCH   9  10
ENDBRANCH   8   9
ENDBRANCH   7   8
ENDBRANCH   6   7
ENDBRANCH   5   6
ENDBRANCH   4   5
ENDBRANCH   3   4
ENDBRANCH   2   3
ENDBRANCH   1   2
BRANCH   1  13
ATOM     13  C   UNL     1     147.955 159.880 161.979  1.00  0.00     0.000 C 
BRANCH  13  14
ATOM     14  C   UNL     1     147.044 160.078 160.753  1.00  0.00     0.000 C 
BRANCH  14  15
ATOM     15  C   UNL     1     146.390 158.766 160.290  1.00  0.00     0.000 C 
BRANCH  15  16
ATOM     16  C   UNL     1     146.270 158.675 158.761  1.00  0.00     0.000 C 
BRANCH  16  17
ATOM     17  C   UNL     1     146.896 159.886 158.047  1.00  0.00     0.000 C 
BRANCH  17  18
ATOM     18  C   UNL     1     147.348 159.547 156.611  1.00  0.00     0.000 C 
BRANCH  18  19
ATOM     19  C   UNL     1     147.846 160.769 155.819  1.00  0.00     0.000 C 
BRANCH  19  20
ATOM     20  C   UNL     1     149.080 160.461 154.956  1.00  0.00     0.006 C 
BRANCH  20  21
ATOM     21  C   UNL     1     150.184 159.754 155.754  1.00  0.00     0.053 C 
BRANCH  21  22
ATOM     22  C   UNL     1     150.792 158.628 154.975  1.00  0.00     0.041 C 
ATOM     23  O   UNL     1     150.962 158.735 153.732  1.00  0.00    -0.550 OA
ATOM     24  O   UNL     1     151.139 157.447 155.618  1.00  0.00    -0.550 OA
ENDBRANCH  21  22
ENDBRANCH  20  21
ENDBRANCH  19  20
ENDBRANCH  18  19
ENDBRANCH  17  18
ENDBRANCH  16  17
ENDBRANCH  15  16
ENDBRANCH  14  15
ENDBRANCH  13  14
ENDBRANCH   1  13
TORSDOF 20
ENDMDL
MODEL 8
REMARK VINA RESULT:    -2.697      2.859      6.134
REMARK INTER + INTRA:          -9.732
REMARK INTER:                  -5.229
REMARK INTRA:                  -4.503
REMARK UNBOUND:                -3.881
REMARK SMILES CCCCCCCCCCCCCCCCCCCCCC(=O)[O-]
REMARK SMILES IDX 12 1 11 2 10 3 9 4 8 5 7 6 6 7 5 8 4 9 3 10 2 11 1 12 13 13
REMARK SMILES IDX 14 14 15 15 16 16 17 17 18 18 19 19 20 20 21 21 22 22 23 23
REMARK SMILES IDX 24 24
REMARK H PARENT
REMARK Flexibility Score: inf
ROOT
ATOM      1  C   UNL     1     146.616 161.833 152.534  1.00  0.00     0.000 C 
ENDROOT
BRANCH   1   2
ATOM      2  C   UNL     1     147.276 162.977 151.744  1.00  0.00     0.000 C 
BRANCH   2   3
ATOM      3  C   UNL     1     146.288 163.670 150.781  1.00  0.00     0.000 C 
BRANCH   3   4
ATOM      4  C   UNL     1     145.924 165.107 151.197  1.00  0.00    -0.000 C 
BRANCH   4   5
ATOM      5  C   UNL     1     146.399 165.454 152.618  1.00  0.00    -0.000 C 
BRANCH   5   6
ATOM      6  C   UNL     1     147.419 166.604 152.635  1.00  0.00    -0.000 C 
BRANCH   6   7
ATOM      7  C   UNL     1     148.849 166.121 152.920  1.00  0.00    -0.000 C 
BRANCH   7   8
ATOM      8  C   UNL     1     149.616 165.880 151.612  1.00  0.00    -0.000 C 
BRANCH   8   9
ATOM      9  C   UNL     1     149.384 166.986 150.568  1.00  0.00    -0.000 C 
BRANCH   9  10
ATOM     10  C   UNL     1     148.963 166.452 149.182  1.00  0.00    -0.000 C 
BRANCH  10  11
ATOM     11  C   UNL     1     149.239 164.949 149.028  1.00  0.00    -0.003 C 
ATOM     12  C   UNL     1     148.479 164.369 147.838  1.00  0.00     0.004 C 
ENDBRANCH  10  11
ENDBRANCH   9  10
ENDBRANCH   8   9
ENDBRANCH   7   8
ENDBRANCH   6   7
ENDBRANCH   5   6
ENDBRANCH   4   5
ENDBRANCH   3   4
ENDBRANCH   2   3
ENDBRANCH   1   2
BRANCH   1  13
ATOM     13  C   UNL     1     147.280 161.596 153.903  1.00  0.00     0.000 C 
BRANCH  13  14
ATOM     14  C   UNL     1     147.046 162.728 154.920  1.00  0.00     0.000 C 
BRANCH  14  15
ATOM     15  C   UNL     1     148.359 163.378 155.388  1.00  0.00     0.000 C 
BRANCH  15  16
ATOM     16  C   UNL     1     149.589 162.515 155.073  1.00  0.00     0.000 C 
BRANCH  16  17
ATOM     17  C   UNL     1     150.650 163.275 154.256  1.00  0.00     0.000 C 
BRANCH  17  18
ATOM     18  C   UNL     1     150.873 162.649 152.863  1.00  0.00     0.000 C 
BRANCH  18  19
ATOM     19  C   UNL     1     150.666 161.124 152.834  1.00  0.00     0.000 C 
BRANCH  19  20
ATOM     20  C   UNL     1     150.124 160.619 151.487  1.00  0.00     0.006 C 
BRANCH  20  21
ATOM     21  C   UNL     1     150.392 161.607 150.345  1.00  0.00     0.053 C 
BRANCH  21  22
ATOM     22  C   UNL     1     151.606 161.223 149.556  1.00  0.00     0.041 C 
ATOM     23  O   UNL     1     152.702 161.812 149.751  1.00  0.00    -0.550 OA
ATOM     24  O   UNL     1     151.517 160.238 148.581  1.00  0.00    -0.550 OA
ENDBRANCH  21  22
ENDBRANCH  20  21
ENDBRANCH  19  20
ENDBRANCH  18  19
ENDBRANCH  17  18
ENDBRANCH  16  17
ENDBRANCH  15  16
ENDBRANCH  14  15
ENDBRANCH  13  14
ENDBRANCH   1  13
TORSDOF 20
ENDMDL
MODEL 9
REMARK VINA RESULT:    -0.357      1.865      4.022
REMARK INTER + INTRA:          -4.656
REMARK INTER:                  -0.357
REMARK INTRA:                  -4.299
REMARK UNBOUND:                -3.881
REMARK SMILES CCCCCCCCCCCCCCCCCCCCCC(=O)[O-]
REMARK SMILES IDX 12 1 11 2 10 3 9 4 8 5 7 6 6 7 5 8 4 9 3 10 2 11 1 12 13 13
REMARK SMILES IDX 14 14 15 15 16 16 17 17 18 18 19 19 20 20 21 21 22 22 23 23
REMARK SMILES IDX 24 24
REMARK H PARENT
REMARK Flexibility Score: inf
ROOT
ATOM      1  C   UNL     1     148.151 161.789 154.676  1.00  0.00     0.000 C 
ENDROOT
BRANCH   1   2
ATOM      2  C   UNL     1     147.704 162.593 155.910  1.00  0.00     0.000 C 
BRANCH   2   3
ATOM      3  C   UNL     1     146.193 162.910 155.887  1.00  0.00     0.000 C 
BRANCH   3   4
ATOM      4  C   UNL     1     145.875 164.411 156.004  1.00  0.00    -0.000 C 
BRANCH   4   5
ATOM      5  C   UNL     1     147.082 165.304 155.671  1.00  0.00    -0.000 C 
BRANCH   5   6
ATOM      6  C   UNL     1     146.779 166.313 154.551  1.00  0.00    -0.000 C 
BRANCH   6   7
ATOM      7  C   UNL     1     146.661 165.648 153.172  1.00  0.00    -0.000 C 
BRANCH   7   8
ATOM      8  C   UNL     1     148.032 165.164 152.679  1.00  0.00    -0.000 C 
BRANCH   8   9
ATOM      9  C   UNL     1     149.097 166.274 152.681  1.00  0.00    -0.000 C 
BRANCH   9  10
ATOM     10  C   UNL     1     150.460 165.826 153.248  1.00  0.00    -0.000 C 
BRANCH  10  11
ATOM     11  C   UNL     1     150.366 164.494 154.006  1.00  0.00    -0.003 C 
ATOM     12  C   UNL     1     151.752 163.977 154.383  1.00  0.00     0.004 C 
ENDBRANCH  10  11
ENDBRANCH   9  10
ENDBRANCH   8   9
ENDBRANCH   7   8
ENDBRANCH   6   7
ENDBRANCH   5   6
ENDBRANCH   4   5
ENDBRANCH   3   4
ENDBRANCH   2   3
ENDBRANCH   1   2
BRANCH   1  13
ATOM     13  C   UNL     1     147.045 161.675 153.611  1.00  0.00     0.000 C 
BRANCH  13  14
ATOM     14  C   UNL     1     147.569 161.605 152.164  1.00  0.00     0.000 C 
BRANCH  14  15
ATOM     15  C   UNL     1     149.100 161.465 152.101  1.00  0.00     0.000 C 
BRANCH  15  16
ATOM     16  C   UNL     1     149.657 161.723 150.693  1.00  0.00     0.000 C 
BRANCH  16  17
ATOM     17  C   UNL     1     150.722 162.834 150.675  1.00  0.00     0.000 C 
BRANCH  17  18
ATOM     18  C   UNL     1     150.253 164.080 149.893  1.00  0.00     0.000 C 
BRANCH  18  19
ATOM     19  C   UNL     1     149.948 163.796 148.412  1.00  0.00     0.000 C 
BRANCH  19  20
ATOM     20  C   UNL     1     148.608 164.391 147.951  1.00  0.00     0.006 C 
BRANCH  20  21
ATOM     21  C   UNL     1     147.688 164.731 149.130  1.00  0.00     0.053 C 
BRANCH  21  22
ATOM     22  C   UNL     1     147.349 166.190 149.164  1.00  0.00     0.041 C 
ATOM     23  O   UNL     1     148.222 167.051 148.875  1.00  0.00    -0.550 OA
ATOM     24  O   UNL     1     146.079 166.600 149.548  1.00  0.00    -0.550 OA
ENDBRANCH  21  22
ENDBRANCH  20  21
ENDBRANCH  19  20
ENDBRANCH  18  19
ENDBRANCH  17  18
ENDBRANCH  16  17
ENDBRANCH  15  16
ENDBRANCH  14  15
ENDBRANCH  13  14
ENDBRANCH   1  13
TORSDOF 20
ENDMDL
