MODEL 1
REMARK VINA RESULT:    -4.364      0.000      0.000
REMARK INTER + INTRA:          -5.786
REMARK INTER:                  -5.640
REMARK INTRA:                  -0.147
REMARK UNBOUND:                -0.147
REMARK SMILES CCCCCCC(=O)[O-]
REMARK SMILES IDX 5 1 6 2 7 3 8 4 9 5 4 6 3 7 2 8 1 9
REMARK H PARENT
REMARK Flexibility Score: inf
ROOT
ATOM      1  C   UNL     1      37.565  55.585  59.956  1.00  0.00     0.006 C 
ENDROOT
BRANCH   1   2
ATOM      2  C   UNL     1      38.413  54.460  60.565  1.00  0.00     0.053 C 
BRANCH   2   3
ATOM      3  C   UNL     1      39.875  54.778  60.517  1.00  0.00     0.041 C 
ATOM      4  O   UNL     1      40.262  55.947  60.253  1.00  0.00    -0.550 OA
ATOM      5  O   UNL     1      40.812  53.791  60.799  1.00  0.00    -0.550 OA
ENDBRANCH   2   3
ENDBRANCH   1   2
BRANCH   1   6
ATOM      6  C   UNL     1      36.245  55.061  59.363  1.00  0.00     0.000 C 
BRANCH   6   7
ATOM      7  C   UNL     1      36.249  53.536  59.168  1.00  0.00    -0.000 C 
BRANCH   7   8
ATOM      8  C   UNL     1      35.124  53.057  58.240  1.00  0.00    -0.003 C 
ATOM      9  C   UNL     1      35.195  51.548  58.025  1.00  0.00     0.004 C 
ENDBRANCH   7   8
ENDBRANCH   6   7
ENDBRANCH   1   6
TORSDOF 5
ENDMDL
MODEL 2
REMARK VINA RESULT:    -4.315      0.763      1.338
REMARK INTER + INTRA:          -5.723
REMARK INTER:                  -5.563
REMARK INTRA:                  -0.160
REMARK UNBOUND:                -0.147
REMARK SMILES CCCCCCC(=O)[O-]
REMARK SMILES IDX 5 1 6 2 7 3 8 4 9 5 4 6 3 7 2 8 1 9
REMARK H PARENT
REMARK Flexibility Score: inf
ROOT
ATOM      1  C   UNL     1      38.241  55.976  60.332  1.00  0.00     0.006 C 
ENDROOT
BRANCH   1   2
ATOM      2  C   UNL     1      38.996  54.680  60.657  1.00  0.00     0.053 C 
BRANCH   2   3
ATOM      3  C   UNL     1      40.466  54.814  60.404  1.00  0.00     0.041 C 
ATOM      4  O   UNL     1      41.206  53.796  60.412  1.00  0.00    -0.550 OA
ATOM      5  O   UNL     1      41.013  56.060  60.122  1.00  0.00    -0.550 OA
ENDBRANCH   2   3
ENDBRANCH   1   2
BRANCH   1   6
ATOM      6  C   UNL     1      36.888  55.703  59.651  1.00  0.00     0.000 C 
BRANCH   6   7
ATOM      7  C   UNL     1      36.541  54.206  59.603  1.00  0.00    -0.000 C 
BRANCH   7   8
ATOM      8  C   UNL     1      35.443  53.887  58.580  1.00  0.00    -0.003 C 
ATOM      9  C   UNL     1      35.495  52.422  58.157  1.00  0.00     0.004 C 
ENDBRANCH   7   8
ENDBRANCH   6   7
ENDBRANCH   1   6
TORSDOF 5
ENDMDL
MODEL 3
REMARK VINA RESULT:    -4.253      3.417      5.085
REMARK INTER + INTRA:          -5.643
REMARK INTER:                  -5.489
REMARK INTRA:                  -0.154
REMARK UNBOUND:                -0.147
REMARK SMILES CCCCCCC(=O)[O-]
REMARK SMILES IDX 5 1 6 2 7 3 8 4 9 5 4 6 3 7 2 8 1 9
REMARK H PARENT
REMARK Flexibility Score: inf
ROOT
ATOM      1  C   UNL     1      36.469  53.927  59.460  1.00  0.00     0.006 C 
ENDROOT
BRANCH   1   2
ATOM      2  C   UNL     1      35.303  53.915  58.462  1.00  0.00     0.053 C 
BRANCH   2   3
ATOM      3  C   UNL     1      34.927  52.522  58.063  1.00  0.00     0.041 C 
ATOM      4  O   UNL     1      35.802  51.728  57.629  1.00  0.00    -0.550 OA
ATOM      5  O   UNL     1      33.615  52.088  58.204  1.00  0.00    -0.550 OA
ENDBRANCH   2   3
ENDBRANCH   1   2
BRANCH   1   6
ATOM      6  C   UNL     1      36.913  55.357  59.816  1.00  0.00     0.000 C 
BRANCH   6   7
ATOM      7  C   UNL     1      38.339  55.408  60.386  1.00  0.00    -0.000 C 
BRANCH   7   8
ATOM      8  C   UNL     1      38.822  54.042  60.894  1.00  0.00    -0.003 C 
ATOM      9  C   UNL     1      40.346  53.970  60.913  1.00  0.00     0.004 C 
ENDBRANCH   7   8
ENDBRANCH   6   7
ENDBRANCH   1   6
TORSDOF 5
ENDMDL
MODEL 4
REMARK VINA RESULT:    -4.248      3.249      4.693
REMARK INTER + INTRA:          -5.636
REMARK INTER:                  -5.312
REMARK INTRA:                  -0.323
REMARK UNBOUND:                -0.147
REMARK SMILES CCCCCCC(=O)[O-]
REMARK SMILES IDX 5 1 6 2 7 3 8 4 9 5 4 6 3 7 2 8 1 9
REMARK H PARENT
REMARK Flexibility Score: inf
ROOT
ATOM      1  C   UNL     1      42.606  54.876  60.601  1.00  0.00     0.006 C 
ENDROOT
BRANCH   1   2
ATOM      2  C   UNL     1      43.242  55.937  59.693  1.00  0.00     0.053 C 
BRANCH   2   3
ATOM      3  C   UNL     1      42.271  57.021  59.339  1.00  0.00     0.041 C 
ATOM      4  O   UNL     1      41.810  57.777  60.234  1.00  0.00    -0.550 OA
ATOM      5  O   UNL     1      41.902  57.220  58.014  1.00  0.00    -0.550 OA
ENDBRANCH   2   3
ENDBRANCH   1   2
BRANCH   1   6
ATOM      6  C   UNL     1      41.332  54.273  59.983  1.00  0.00     0.000 C 
BRANCH   6   7
ATOM      7  C   UNL     1      40.269  53.928  61.038  1.00  0.00    -0.000 C 
BRANCH   7   8
ATOM      8  C   UNL     1      38.866  54.409  60.643  1.00  0.00    -0.003 C 
ATOM      9  C   UNL     1      38.812  55.932  60.556  1.00  0.00     0.004 C 
ENDBRANCH   7   8
ENDBRANCH   6   7
ENDBRANCH   1   6
TORSDOF 5
ENDMDL
MODEL 5
REMARK VINA RESULT:    -4.228      2.857      4.119
REMARK INTER + INTRA:          -5.610
REMARK INTER:                  -5.386
REMARK INTRA:                  -0.224
REMARK UNBOUND:                -0.147
REMARK SMILES CCCCCCC(=O)[O-]
REMARK SMILES IDX 5 1 6 2 7 3 8 4 9 5 4 6 3 7 2 8 1 9
REMARK H PARENT
REMARK Flexibility Score: inf
ROOT
ATOM      1  C   UNL     1      41.210  54.359  59.973  1.00  0.00     0.006 C 
ENDROOT
BRANCH   1   2
ATOM      2  C   UNL     1      42.538  54.800  60.603  1.00  0.00     0.053 C 
BRANCH   2   3
ATOM      3  C   UNL     1      42.863  56.224  60.275  1.00  0.00     0.041 C 
ATOM      4  O   UNL     1      44.062  56.605  60.223  1.00  0.00    -0.550 OA
ATOM      5  O   UNL     1      41.842  57.124  59.993  1.00  0.00    -0.550 OA
ENDBRANCH   2   3
ENDBRANCH   1   2
BRANCH   1   6
ATOM      6  C   UNL     1      40.171  53.954  61.034  1.00  0.00     0.000 C 
BRANCH   6   7
ATOM      7  C   UNL     1      38.741  54.362  60.646  1.00  0.00    -0.000 C 
BRANCH   7   8
ATOM      8  C   UNL     1      38.599  55.873  60.416  1.00  0.00    -0.003 C 
ATOM      9  C   UNL     1      37.306  56.197  59.674  1.00  0.00     0.004 C 
ENDBRANCH   7   8
ENDBRANCH   6   7
ENDBRANCH   1   6
TORSDOF 5
ENDMDL
MODEL 6
REMARK VINA RESULT:    -4.162      3.239      5.618
REMARK INTER + INTRA:          -5.525
REMARK INTER:                  -5.222
REMARK INTRA:                  -0.303
REMARK UNBOUND:                -0.147
REMARK SMILES CCCCCCC(=O)[O-]
REMARK SMILES IDX 5 1 6 2 7 3 8 4 9 5 4 6 3 7 2 8 1 9
REMARK H PARENT
REMARK Flexibility Score: inf
ROOT
ATOM      1  C   UNL     1      41.442  54.197  59.958  1.00  0.00     0.006 C 
ENDROOT
BRANCH   1   2
ATOM      2  C   UNL     1      40.275  54.061  60.945  1.00  0.00     0.053 C 
BRANCH   2   3
ATOM      3  C   UNL     1      39.125  54.944  60.571  1.00  0.00     0.041 C 
ATOM      4  O   UNL     1      39.262  56.196  60.567  1.00  0.00    -0.550 OA
ATOM      5  O   UNL     1      37.912  54.384  60.192  1.00  0.00    -0.550 OA
ENDBRANCH   2   3
ENDBRANCH   1   2
BRANCH   1   6
ATOM      6  C   UNL     1      42.683  54.832  60.611  1.00  0.00     0.000 C 
BRANCH   6   7
ATOM      7  C   UNL     1      42.847  56.316  60.250  1.00  0.00    -0.000 C 
BRANCH   7   8
ATOM      8  C   UNL     1      43.067  56.538  58.746  1.00  0.00    -0.003 C 
ATOM      9  C   UNL     1      42.007  57.471  58.168  1.00  0.00     0.004 C 
ENDBRANCH   7   8
ENDBRANCH   6   7
ENDBRANCH   1   6
TORSDOF 5
ENDMDL
MODEL 7
REMARK VINA RESULT:    -4.153      3.160      5.558
REMARK INTER + INTRA:          -5.513
REMARK INTER:                  -5.178
REMARK INTRA:                  -0.335
REMARK UNBOUND:                -0.147
REMARK SMILES CCCCCCC(=O)[O-]
REMARK SMILES IDX 5 1 6 2 7 3 8 4 9 5 4 6 3 7 2 8 1 9
REMARK H PARENT
REMARK Flexibility Score: inf
ROOT
ATOM      1  C   UNL     1      41.399  54.251  59.943  1.00  0.00     0.006 C 
ENDROOT
BRANCH   1   2
ATOM      2  C   UNL     1      40.289  53.968  60.964  1.00  0.00     0.053 C 
BRANCH   2   3
ATOM      3  C   UNL     1      39.018  54.679  60.615  1.00  0.00     0.041 C 
ATOM      4  O   UNL     1      38.019  54.030  60.208  1.00  0.00    -0.550 OA
ATOM      5  O   UNL     1      38.925  56.057  60.773  1.00  0.00    -0.550 OA
ENDBRANCH   2   3
ENDBRANCH   1   2
BRANCH   1   6
ATOM      6  C   UNL     1      42.658  54.840  60.604  1.00  0.00     0.000 C 
BRANCH   6   7
ATOM      7  C   UNL     1      42.986  56.253  60.098  1.00  0.00    -0.000 C 
BRANCH   7   8
ATOM      8  C   UNL     1      42.205  56.622  58.828  1.00  0.00    -0.003 C 
ATOM      9  C   UNL     1      41.403  57.904  59.030  1.00  0.00     0.004 C 
ENDBRANCH   7   8
ENDBRANCH   6   7
ENDBRANCH   1   6
TORSDOF 5
ENDMDL
MODEL 8
REMARK VINA RESULT:    -4.122      2.496      4.892
REMARK INTER + INTRA:          -5.474
REMARK INTER:                  -5.302
REMARK INTRA:                  -0.172
REMARK UNBOUND:                -0.147
REMARK SMILES CCCCCCC(=O)[O-]
REMARK SMILES IDX 5 1 6 2 7 3 8 4 9 5 4 6 3 7 2 8 1 9
REMARK H PARENT
REMARK Flexibility Score: inf
ROOT
ATOM      1  C   UNL     1      38.421  56.016  60.782  1.00  0.00     0.006 C 
ENDROOT
BRANCH   1   2
ATOM      2  C   UNL     1      37.373  56.050  59.661  1.00  0.00     0.053 C 
BRANCH   2   3
ATOM      3  C   UNL     1      36.693  54.726  59.496  1.00  0.00     0.041 C 
ATOM      4  O   UNL     1      35.695  54.616  58.735  1.00  0.00    -0.550 OA
ATOM      5  O   UNL     1      37.182  53.604  60.153  1.00  0.00    -0.550 OA
ENDBRANCH   2   3
ENDBRANCH   1   2
BRANCH   1   6
ATOM      6  C   UNL     1      39.854  55.907  60.233  1.00  0.00     0.000 C 
BRANCH   6   7
ATOM      7  C   UNL     1      40.481  54.527  60.485  1.00  0.00    -0.000 C 
BRANCH   7   8
ATOM      8  C   UNL     1      42.014  54.550  60.398  1.00  0.00    -0.003 C 
ATOM      9  C   UNL     1      42.487  55.472  59.279  1.00  0.00     0.004 C 
ENDBRANCH   7   8
ENDBRANCH   6   7
ENDBRANCH   1   6
TORSDOF 5
ENDMDL
MODEL 9
REMARK VINA RESULT:    -4.098      3.783      5.907
REMARK INTER + INTRA:          -5.442
REMARK INTER:                  -5.103
REMARK INTRA:                  -0.339
REMARK UNBOUND:                -0.147
REMARK SMILES CCCCCCC(=O)[O-]
REMARK SMILES IDX 5 1 6 2 7 3 8 4 9 5 4 6 3 7 2 8 1 9
REMARK H PARENT
REMARK Flexibility Score: inf
ROOT
ATOM      1  C   UNL     1      42.788  54.835  60.627  1.00  0.00     0.006 C 
ENDROOT
BRANCH   1   2
ATOM      2  C   UNL     1      41.560  54.422  59.803  1.00  0.00     0.053 C 
BRANCH   2   3
ATOM      3  C   UNL     1      40.307  54.445  60.623  1.00  0.00     0.041 C 
ATOM      4  O   UNL     1      40.061  53.511  61.431  1.00  0.00    -0.550 OA
ATOM      5  O   UNL     1      39.428  55.516  60.522  1.00  0.00    -0.550 OA
ENDBRANCH   2   3
ENDBRANCH   1   2
BRANCH   1   6
ATOM      6  C   UNL     1      43.336  56.208  60.202  1.00  0.00     0.000 C 
BRANCH   6   7
ATOM      7  C   UNL     1      43.087  56.510  58.715  1.00  0.00    -0.000 C 
BRANCH   7   8
ATOM      8  C   UNL     1      42.559  57.933  58.482  1.00  0.00    -0.003 C 
ATOM      9  C   UNL     1      41.034  57.961  58.487  1.00  0.00     0.004 C 
ENDBRANCH   7   8
ENDBRANCH   6   7
ENDBRANCH   1   6
TORSDOF 5
ENDMDL
