MODEL 1
REMARK VINA RESULT:    -2.810      0.000      0.000
REMARK INTER + INTRA:          -3.345
REMARK INTER:                  -3.303
REMARK INTRA:                  -0.043
REMARK UNBOUND:                -0.043
REMARK SMILES CCCCC(=O)[O-]
REMARK SMILES IDX 4 1 5 2 6 3 7 4 3 5 2 6 1 7
REMARK H PARENT
REMARK Flexibility Score: inf
ROOT
ATOM      1  C   UNL     1      19.213  23.682  45.183  1.00  0.00     0.053 C 
ENDROOT
BRANCH   1   2
ATOM      2  C   UNL     1      17.824  24.022  44.745  1.00  0.00     0.041 C 
ATOM      3  O   UNL     1      16.886  24.066  45.585  1.00  0.00    -0.550 OA
ATOM      4  O   UNL     1      17.553  24.241  43.400  1.00  0.00    -0.550 OA
ENDBRANCH   1   2
BRANCH   1   5
ATOM      5  C   UNL     1      19.218  23.243  46.653  1.00  0.00     0.006 C 
BRANCH   5   6
ATOM      6  C   UNL     1      20.239  22.130  46.932  1.00  0.00    -0.003 C 
ATOM      7  C   UNL     1      21.348  22.068  45.882  1.00  0.00     0.004 C 
ENDBRANCH   5   6
ENDBRANCH   1   5
TORSDOF 3
ENDMDL
MODEL 2
REMARK VINA RESULT:    -2.791      2.823      3.813
REMARK INTER + INTRA:          -3.323
REMARK INTER:                  -3.285
REMARK INTRA:                  -0.038
REMARK UNBOUND:                -0.043
REMARK SMILES CCCCC(=O)[O-]
REMARK SMILES IDX 4 1 5 2 6 3 7 4 3 5 2 6 1 7
REMARK H PARENT
REMARK Flexibility Score: inf
ROOT
ATOM      1  C   UNL     1      19.891  23.143  45.315  1.00  0.00     0.053 C 
ENDROOT
BRANCH   1   2
ATOM      2  C   UNL     1      20.952  22.293  45.939  1.00  0.00     0.041 C 
ATOM      3  O   UNL     1      20.642  21.393  46.763  1.00  0.00    -0.550 OA
ATOM      4  O   UNL     1      22.291  22.528  45.649  1.00  0.00    -0.550 OA
ENDBRANCH   1   2
BRANCH   1   5
ATOM      5  C   UNL     1      18.868  23.581  46.372  1.00  0.00     0.006 C 
BRANCH   5   6
ATOM      6  C   UNL     1      17.544  24.051  45.750  1.00  0.00    -0.003 C 
ATOM      7  C   UNL     1      17.605  24.144  44.226  1.00  0.00     0.004 C 
ENDBRANCH   5   6
ENDBRANCH   1   5
TORSDOF 3
ENDMDL
MODEL 3
REMARK VINA RESULT:    -2.041     18.302     19.250
REMARK INTER + INTRA:          -2.442
REMARK INTER:                  -2.404
REMARK INTRA:                  -0.038
REMARK UNBOUND:                -0.043
REMARK SMILES CCCCC(=O)[O-]
REMARK SMILES IDX 4 1 5 2 6 3 7 4 3 5 2 6 1 7
REMARK H PARENT
REMARK Flexibility Score: inf
ROOT
ATOM      1  C   UNL     1      30.546  24.051  30.516  1.00  0.00     0.053 C 
ENDROOT
BRANCH   1   2
ATOM      2  C   UNL     1      30.303  24.690  31.847  1.00  0.00     0.041 C 
ATOM      3  O   UNL     1      31.261  24.891  32.639  1.00  0.00    -0.550 OA
ATOM      4  O   UNL     1      29.010  25.018  32.234  1.00  0.00    -0.550 OA
ENDBRANCH   1   2
BRANCH   1   5
ATOM      5  C   UNL     1      30.537  25.109  29.406  1.00  0.00     0.006 C 
BRANCH   5   6
ATOM      6  C   UNL     1      29.452  24.848  28.351  1.00  0.00    -0.003 C 
ATOM      7  C   UNL     1      29.974  24.068  27.145  1.00  0.00     0.004 C 
ENDBRANCH   5   6
ENDBRANCH   1   5
TORSDOF 3
ENDMDL
MODEL 4
REMARK VINA RESULT:    -2.027     18.307     19.281
REMARK INTER + INTRA:          -2.424
REMARK INTER:                  -2.369
REMARK INTRA:                  -0.056
REMARK UNBOUND:                -0.043
REMARK SMILES CCCCC(=O)[O-]
REMARK SMILES IDX 4 1 5 2 6 3 7 4 3 5 2 6 1 7
REMARK H PARENT
REMARK Flexibility Score: inf
ROOT
ATOM      1  C   UNL     1      30.556  24.365  30.563  1.00  0.00     0.053 C 
ENDROOT
BRANCH   1   2
ATOM      2  C   UNL     1      30.283  24.669  32.002  1.00  0.00     0.041 C 
ATOM      3  O   UNL     1      29.098  24.716  32.427  1.00  0.00    -0.550 OA
ATOM      4  O   UNL     1      31.334  24.951  32.865  1.00  0.00    -0.550 OA
ENDBRANCH   1   2
BRANCH   1   5
ATOM      5  C   UNL     1      31.828  25.086  30.097  1.00  0.00     0.006 C 
BRANCH   5   6
ATOM      6  C   UNL     1      32.688  24.221  29.164  1.00  0.00    -0.003 C 
ATOM      7  C   UNL     1      32.031  22.883  28.824  1.00  0.00     0.004 C 
ENDBRANCH   5   6
ENDBRANCH   1   5
TORSDOF 3
ENDMDL
MODEL 5
REMARK VINA RESULT:    -2.012     19.158     20.146
REMARK INTER + INTRA:          -2.408
REMARK INTER:                  -2.333
REMARK INTRA:                  -0.074
REMARK UNBOUND:                -0.043
REMARK SMILES CCCCC(=O)[O-]
REMARK SMILES IDX 4 1 5 2 6 3 7 4 3 5 2 6 1 7
REMARK H PARENT
REMARK Flexibility Score: inf
ROOT
ATOM      1  C   UNL     1      30.869  23.654  29.458  1.00  0.00     0.053 C 
ENDROOT
BRANCH   1   2
ATOM      2  C   UNL     1      32.285  23.600  28.980  1.00  0.00     0.041 C 
ATOM      3  O   UNL     1      33.170  24.302  29.536  1.00  0.00    -0.550 OA
ATOM      4  O   UNL     1      32.620  22.810  27.887  1.00  0.00    -0.550 OA
ENDBRANCH   1   2
BRANCH   1   5
ATOM      5  C   UNL     1      30.663  24.862  30.381  1.00  0.00     0.006 C 
BRANCH   5   6
ATOM      6  C   UNL     1      30.273  24.453  31.810  1.00  0.00    -0.003 C 
ATOM      7  C   UNL     1      31.140  25.125  32.874  1.00  0.00     0.004 C 
ENDBRANCH   5   6
ENDBRANCH   1   5
TORSDOF 3
ENDMDL
MODEL 6
REMARK VINA RESULT:    -1.950     18.582     19.561
REMARK INTER + INTRA:          -2.335
REMARK INTER:                  -2.303
REMARK INTRA:                  -0.032
REMARK UNBOUND:                -0.043
REMARK SMILES CCCCC(=O)[O-]
REMARK SMILES IDX 4 1 5 2 6 3 7 4 3 5 2 6 1 7
REMARK H PARENT
REMARK Flexibility Score: inf
ROOT
ATOM      1  C   UNL     1      31.152  24.002  29.918  1.00  0.00     0.053 C 
ENDROOT
BRANCH   1   2
ATOM      2  C   UNL     1      30.644  24.021  28.512  1.00  0.00     0.041 C 
ATOM      3  O   UNL     1      31.369  23.608  27.568  1.00  0.00    -0.550 OA
ATOM      4  O   UNL     1      29.385  24.541  28.234  1.00  0.00    -0.550 OA
ENDBRANCH   1   2
BRANCH   1   5
ATOM      5  C   UNL     1      30.458  25.087  30.752  1.00  0.00     0.006 C 
BRANCH   5   6
ATOM      6  C   UNL     1      30.134  24.617  32.178  1.00  0.00    -0.003 C 
ATOM      7  C   UNL     1      31.140  25.124  33.211  1.00  0.00     0.004 C 
ENDBRANCH   5   6
ENDBRANCH   1   5
TORSDOF 3
ENDMDL
MODEL 7
REMARK VINA RESULT:    -1.937     17.158     18.201
REMARK INTER + INTRA:          -2.319
REMARK INTER:                  -2.290
REMARK INTRA:                  -0.029
REMARK UNBOUND:                -0.043
REMARK SMILES CCCCC(=O)[O-]
REMARK SMILES IDX 4 1 5 2 6 3 7 4 3 5 2 6 1 7
REMARK H PARENT
REMARK Flexibility Score: inf
ROOT
ATOM      1  C   UNL     1      31.106  25.125  33.292  1.00  0.00     0.053 C 
ENDROOT
BRANCH   1   2
ATOM      2  C   UNL     1      30.148  24.629  32.256  1.00  0.00     0.041 C 
ATOM      3  O   UNL     1      30.576  24.123  31.185  1.00  0.00    -0.550 OA
ATOM      4  O   UNL     1      28.779  24.770  32.450  1.00  0.00    -0.550 OA
ENDBRANCH   1   2
BRANCH   1   5
ATOM      5  C   UNL     1      32.537  25.125  32.740  1.00  0.00     0.006 C 
BRANCH   5   6
ATOM      6  C   UNL     1      33.585  24.809  33.818  1.00  0.00    -0.003 C 
ATOM      7  C   UNL     1      35.004  24.727  33.257  1.00  0.00     0.004 C 
ENDBRANCH   5   6
ENDBRANCH   1   5
TORSDOF 3
ENDMDL
MODEL 8
REMARK VINA RESULT:    -1.728     20.534     21.538
REMARK INTER + INTRA:          -2.073
REMARK INTER:                  -1.954
REMARK INTRA:                  -0.119
REMARK UNBOUND:                -0.043
REMARK SMILES CCCCC(=O)[O-]
REMARK SMILES IDX 4 1 5 2 6 3 7 4 3 5 2 6 1 7
REMARK H PARENT
REMARK Flexibility Score: inf
ROOT
ATOM      1  C   UNL     1      32.067  22.747  28.637  1.00  0.00     0.053 C 
ENDROOT
BRANCH   1   2
ATOM      2  C   UNL     1      30.771  23.448  28.893  1.00  0.00     0.041 C 
ATOM      3  O   UNL     1      30.539  23.962  30.019  1.00  0.00    -0.550 OA
ATOM      4  O   UNL     1      29.797  23.491  27.903  1.00  0.00    -0.550 OA
ENDBRANCH   1   2
BRANCH   1   5
ATOM      5  C   UNL     1      32.754  23.329  27.395  1.00  0.00     0.006 C 
BRANCH   5   6
ATOM      6  C   UNL     1      33.395  24.699  27.664  1.00  0.00    -0.003 C 
ATOM      7  C   UNL     1      34.309  24.695  28.890  1.00  0.00     0.004 C 
ENDBRANCH   5   6
ENDBRANCH   1   5
TORSDOF 3
ENDMDL
MODEL 9
REMARK VINA RESULT:    -1.601     20.286     21.170
REMARK INTER + INTRA:          -1.924
REMARK INTER:                  -1.885
REMARK INTRA:                  -0.039
REMARK UNBOUND:                -0.043
REMARK SMILES CCCCC(=O)[O-]
REMARK SMILES IDX 4 1 5 2 6 3 7 4 3 5 2 6 1 7
REMARK H PARENT
REMARK Flexibility Score: inf
ROOT
ATOM      1  C   UNL     1      31.276  23.564  29.438  1.00  0.00     0.053 C 
ENDROOT
BRANCH   1   2
ATOM      2  C   UNL     1      32.675  23.987  29.121  1.00  0.00     0.041 C 
ATOM      3  O   UNL     1      33.286  23.481  28.143  1.00  0.00    -0.550 OA
ATOM      4  O   UNL     1      33.325  24.907  29.936  1.00  0.00    -0.550 OA
ENDBRANCH   1   2
BRANCH   1   5
ATOM      5  C   UNL     1      30.375  24.791  29.623  1.00  0.00     0.006 C 
BRANCH   5   6
ATOM      6  C   UNL     1      29.567  25.125  28.360  1.00  0.00    -0.003 C 
ATOM      7  C   UNL     1      29.629  24.018  27.308  1.00  0.00     0.004 C 
ENDBRANCH   5   6
ENDBRANCH   1   5
TORSDOF 3
ENDMDL
