MODEL 1
REMARK VINA RESULT:    -4.203      0.000      0.000
REMARK INTER + INTRA:          -5.627
REMARK INTER:                  -5.186
REMARK INTRA:                  -0.442
REMARK UNBOUND:                -0.442
REMARK SMILES C=CC[C@H](C)C(=O)CC
REMARK SMILES IDX 4 1 5 2 6 3 7 4 8 5 9 6 3 7 2 8 1 9
REMARK H PARENT
REMARK Flexibility Score: inf
ROOT
ATOM      1  C   UNL     1      34.924  39.525  83.904  1.00  0.00     0.057 C 
ATOM      2  C   UNL     1      36.432  39.282  84.053  1.00  0.00     0.016 C 
ENDROOT
BRANCH   1   3
ATOM      3  C   UNL     1      34.649  40.647  82.923  1.00  0.00     0.135 C 
ATOM      4  O   UNL     1      34.012  40.424  81.903  1.00  0.00    -0.299 OA
BRANCH   3   5
ATOM      5  C   UNL     1      35.147  42.044  83.182  1.00  0.00     0.072 C 
ATOM      6  C   UNL     1      34.050  43.068  82.911  1.00  0.00     0.012 C 
ENDBRANCH   3   5
ENDBRANCH   1   3
BRANCH   1   7
ATOM      7  C   UNL     1      34.230  39.767  85.261  1.00  0.00     0.038 C 
BRANCH   7   8
ATOM      8  C   UNL     1      32.736  39.940  85.150  1.00  0.00    -0.034 C 
ATOM      9  C   UNL     1      32.105  40.996  85.674  1.00  0.00     0.004 C 
ENDBRANCH   7   8
ENDBRANCH   1   7
TORSDOF 4
ENDMDL
MODEL 2
REMARK VINA RESULT:    -4.043      1.401      1.572
REMARK INTER + INTRA:          -5.431
REMARK INTER:                  -4.964
REMARK INTRA:                  -0.467
REMARK UNBOUND:                -0.442
REMARK SMILES C=CC[C@H](C)C(=O)CC
REMARK SMILES IDX 4 1 5 2 6 3 7 4 8 5 9 6 3 7 2 8 1 9
REMARK H PARENT
REMARK Flexibility Score: inf
ROOT
ATOM      1  C   UNL     1      35.190  39.818  84.282  1.00  0.00     0.057 C 
ATOM      2  C   UNL     1      36.483  39.001  84.417  1.00  0.00     0.016 C 
ENDROOT
BRANCH   1   3
ATOM      3  C   UNL     1      35.476  41.202  83.736  1.00  0.00     0.135 C 
ATOM      4  O   UNL     1      36.456  41.822  84.126  1.00  0.00    -0.299 OA
BRANCH   3   5
ATOM      5  C   UNL     1      34.571  41.836  82.713  1.00  0.00     0.072 C 
ATOM      6  C   UNL     1      33.771  40.773  81.967  1.00  0.00     0.012 C 
ENDBRANCH   3   5
ENDBRANCH   1   3
BRANCH   1   7
ATOM      7  C   UNL     1      34.389  39.875  85.600  1.00  0.00     0.038 C 
BRANCH   7   8
ATOM      8  C   UNL     1      32.898  39.764  85.403  1.00  0.00    -0.034 C 
ATOM      9  C   UNL     1      32.105  40.840  85.385  1.00  0.00     0.004 C 
ENDBRANCH   7   8
ENDBRANCH   1   7
TORSDOF 4
ENDMDL
MODEL 3
REMARK VINA RESULT:    -4.032      1.493      2.162
REMARK INTER + INTRA:          -5.416
REMARK INTER:                  -4.965
REMARK INTRA:                  -0.452
REMARK UNBOUND:                -0.442
REMARK SMILES C=CC[C@H](C)C(=O)CC
REMARK SMILES IDX 4 1 5 2 6 3 7 4 8 5 9 6 3 7 2 8 1 9
REMARK H PARENT
REMARK Flexibility Score: inf
ROOT
ATOM      1  C   UNL     1      34.311  39.913  85.539  1.00  0.00     0.057 C 
ATOM      2  C   UNL     1      34.728  41.199  86.267  1.00  0.00     0.016 C 
ENDROOT
BRANCH   1   3
ATOM      3  C   UNL     1      35.057  39.766  84.227  1.00  0.00     0.135 C 
ATOM      4  O   UNL     1      35.663  38.733  83.980  1.00  0.00    -0.299 OA
BRANCH   3   5
ATOM      5  C   UNL     1      35.064  40.878  83.211  1.00  0.00     0.072 C 
ATOM      6  C   UNL     1      34.090  40.579  82.075  1.00  0.00     0.012 C 
ENDBRANCH   3   5
ENDBRANCH   1   3
BRANCH   1   7
ATOM      7  C   UNL     1      32.784  39.814  85.344  1.00  0.00     0.038 C 
BRANCH   7   8
ATOM      8  C   UNL     1      32.076  41.140  85.467  1.00  0.00    -0.034 C 
ATOM      9  C   UNL     1      31.485  41.726  84.421  1.00  0.00     0.004 C 
ENDBRANCH   7   8
ENDBRANCH   1   7
TORSDOF 4
ENDMDL
MODEL 4
REMARK VINA RESULT:    -4.030      1.883      3.238
REMARK INTER + INTRA:          -5.414
REMARK INTER:                  -5.040
REMARK INTRA:                  -0.373
REMARK UNBOUND:                -0.442
REMARK SMILES C=CC[C@H](C)C(=O)CC
REMARK SMILES IDX 4 1 5 2 6 3 7 4 8 5 9 6 3 7 2 8 1 9
REMARK H PARENT
REMARK Flexibility Score: inf
ROOT
ATOM      1  C   UNL     1      34.400  40.654  84.930  1.00  0.00     0.057 C 
ATOM      2  C   UNL     1      34.436  41.550  86.176  1.00  0.00     0.016 C 
ENDROOT
BRANCH   1   3
ATOM      3  C   UNL     1      32.986  40.508  84.407  1.00  0.00     0.135 C 
ATOM      4  O   UNL     1      32.114  40.035  85.123  1.00  0.00    -0.299 OA
BRANCH   3   5
ATOM      5  C   UNL     1      32.627  40.941  83.009  1.00  0.00     0.072 C 
ATOM      6  C   UNL     1      33.836  40.841  82.085  1.00  0.00     0.012 C 
ENDBRANCH   3   5
ENDBRANCH   1   3
BRANCH   1   7
ATOM      7  C   UNL     1      35.066  39.283  85.172  1.00  0.00     0.038 C 
BRANCH   7   8
ATOM      8  C   UNL     1      36.225  39.006  84.246  1.00  0.00    -0.034 C 
ATOM      9  C   UNL     1      37.337  39.748  84.265  1.00  0.00     0.004 C 
ENDBRANCH   7   8
ENDBRANCH   1   7
TORSDOF 4
ENDMDL
MODEL 5
REMARK VINA RESULT:    -3.946      1.586      1.676
REMARK INTER + INTRA:          -5.310
REMARK INTER:                  -5.042
REMARK INTRA:                  -0.267
REMARK UNBOUND:                -0.442
REMARK SMILES C=CC[C@H](C)C(=O)CC
REMARK SMILES IDX 4 1 5 2 6 3 7 4 8 5 9 6 3 7 2 8 1 9
REMARK H PARENT
REMARK Flexibility Score: inf
ROOT
ATOM      1  C   UNL     1      34.929  40.037  84.064  1.00  0.00     0.057 C 
ATOM      2  C   UNL     1      35.819  38.793  83.932  1.00  0.00     0.016 C 
ENDROOT
BRANCH   1   3
ATOM      3  C   UNL     1      35.739  41.306  83.885  1.00  0.00     0.135 C 
ATOM      4  O   UNL     1      36.921  41.326  84.202  1.00  0.00    -0.299 OA
BRANCH   3   5
ATOM      5  C   UNL     1      35.114  42.553  83.319  1.00  0.00     0.072 C 
ATOM      6  C   UNL     1      36.186  43.541  82.871  1.00  0.00     0.012 C 
ENDBRANCH   3   5
ENDBRANCH   1   3
BRANCH   1   7
ATOM      7  C   UNL     1      34.127  40.050  85.382  1.00  0.00     0.038 C 
BRANCH   7   8
ATOM      8  C   UNL     1      32.634  39.985  85.178  1.00  0.00    -0.034 C 
ATOM      9  C   UNL     1      32.012  40.737  84.263  1.00  0.00     0.004 C 
ENDBRANCH   7   8
ENDBRANCH   1   7
TORSDOF 4
ENDMDL
MODEL 6
REMARK VINA RESULT:    -3.926      1.700      3.627
REMARK INTER + INTRA:          -5.286
REMARK INTER:                  -4.823
REMARK INTRA:                  -0.462
REMARK UNBOUND:                -0.442
REMARK SMILES C=CC[C@H](C)C(=O)CC
REMARK SMILES IDX 4 1 5 2 6 3 7 4 8 5 9 6 3 7 2 8 1 9
REMARK H PARENT
REMARK Flexibility Score: inf
ROOT
ATOM      1  C   UNL     1      33.356  39.996  84.538  1.00  0.00     0.057 C 
ATOM      2  C   UNL     1      32.488  40.742  85.561  1.00  0.00     0.016 C 
ENDROOT
BRANCH   1   3
ATOM      3  C   UNL     1      34.712  39.655  85.122  1.00  0.00     0.135 C 
ATOM      4  O   UNL     1      34.988  39.994  86.264  1.00  0.00    -0.299 OA
BRANCH   3   5
ATOM      5  C   UNL     1      35.735  38.897  84.318  1.00  0.00     0.072 C 
ATOM      6  C   UNL     1      37.085  39.607  84.355  1.00  0.00     0.012 C 
ENDBRANCH   3   5
ENDBRANCH   1   3
BRANCH   1   7
ATOM      7  C   UNL     1      33.483  40.762  83.204  1.00  0.00     0.038 C 
BRANCH   7   8
ATOM      8  C   UNL     1      33.953  42.186  83.371  1.00  0.00    -0.034 C 
ATOM      9  C   UNL     1      35.179  42.572  83.006  1.00  0.00     0.004 C 
ENDBRANCH   7   8
ENDBRANCH   1   7
TORSDOF 4
ENDMDL
MODEL 7
REMARK VINA RESULT:    -3.859      1.684      2.907
REMARK INTER + INTRA:          -5.202
REMARK INTER:                  -4.879
REMARK INTRA:                  -0.323
REMARK UNBOUND:                -0.442
REMARK SMILES C=CC[C@H](C)C(=O)CC
REMARK SMILES IDX 4 1 5 2 6 3 7 4 8 5 9 6 3 7 2 8 1 9
REMARK H PARENT
REMARK Flexibility Score: inf
ROOT
ATOM      1  C   UNL     1      34.327  41.633  83.124  1.00  0.00     0.057 C 
ATOM      2  C   UNL     1      34.000  40.581  82.055  1.00  0.00     0.016 C 
ENDROOT
BRANCH   1   3
ATOM      3  C   UNL     1      35.501  41.195  83.976  1.00  0.00     0.135 C 
ATOM      4  O   UNL     1      36.091  42.011  84.670  1.00  0.00    -0.299 OA
BRANCH   3   5
ATOM      5  C   UNL     1      35.959  39.760  83.987  1.00  0.00     0.072 C 
ATOM      6  C   UNL     1      37.442  39.669  84.332  1.00  0.00     0.012 C 
ENDBRANCH   3   5
ENDBRANCH   1   3
BRANCH   1   7
ATOM      7  C   UNL     1      33.100  42.000  83.984  1.00  0.00     0.038 C 
BRANCH   7   8
ATOM      8  C   UNL     1      32.172  40.837  84.233  1.00  0.00    -0.034 C 
ATOM      9  C   UNL     1      32.249  40.097  85.344  1.00  0.00     0.004 C 
ENDBRANCH   7   8
ENDBRANCH   1   7
TORSDOF 4
ENDMDL
MODEL 8
REMARK VINA RESULT:    -3.843      1.514      2.635
REMARK INTER + INTRA:          -5.184
REMARK INTER:                  -4.681
REMARK INTRA:                  -0.503
REMARK UNBOUND:                -0.442
REMARK SMILES C=CC[C@H](C)C(=O)CC
REMARK SMILES IDX 4 1 5 2 6 3 7 4 8 5 9 6 3 7 2 8 1 9
REMARK H PARENT
REMARK Flexibility Score: inf
ROOT
ATOM      1  C   UNL     1      35.102  40.228  84.257  1.00  0.00     0.057 C 
ATOM      2  C   UNL     1      35.797  38.912  83.880  1.00  0.00     0.016 C 
ENDROOT
BRANCH   1   3
ATOM      3  C   UNL     1      33.927  40.503  83.340  1.00  0.00     0.135 C 
ATOM      4  O   UNL     1      34.077  40.467  82.127  1.00  0.00    -0.299 OA
BRANCH   3   5
ATOM      5  C   UNL     1      32.565  40.823  83.898  1.00  0.00     0.072 C 
ATOM      6  C   UNL     1      32.352  40.124  85.237  1.00  0.00     0.012 C 
ENDBRANCH   3   5
ENDBRANCH   1   3
BRANCH   1   7
ATOM      7  C   UNL     1      36.082  41.419  84.306  1.00  0.00     0.038 C 
BRANCH   7   8
ATOM      8  C   UNL     1      35.805  42.378  85.437  1.00  0.00    -0.034 C 
ATOM      9  C   UNL     1      35.345  41.961  86.621  1.00  0.00     0.004 C 
ENDBRANCH   7   8
ENDBRANCH   1   7
TORSDOF 4
ENDMDL
MODEL 9
REMARK VINA RESULT:    -3.790      1.842      2.870
REMARK INTER + INTRA:          -5.118
REMARK INTER:                  -4.636
REMARK INTRA:                  -0.482
REMARK UNBOUND:                -0.442
REMARK SMILES C=CC[C@H](C)C(=O)CC
REMARK SMILES IDX 4 1 5 2 6 3 7 4 8 5 9 6 3 7 2 8 1 9
REMARK H PARENT
REMARK Flexibility Score: inf
ROOT
ATOM      1  C   UNL     1      34.901  39.717  83.888  1.00  0.00     0.057 C 
ATOM      2  C   UNL     1      33.911  39.827  85.057  1.00  0.00     0.016 C 
ENDROOT
BRANCH   1   3
ATOM      3  C   UNL     1      36.281  40.190  84.300  1.00  0.00     0.135 C 
ATOM      4  O   UNL     1      37.256  39.480  84.098  1.00  0.00    -0.299 OA
BRANCH   3   5
ATOM      5  C   UNL     1      36.478  41.530  84.958  1.00  0.00     0.072 C 
ATOM      6  C   UNL     1      37.200  42.492  84.020  1.00  0.00     0.012 C 
ENDBRANCH   3   5
ENDBRANCH   1   3
BRANCH   1   7
ATOM      7  C   UNL     1      34.400  40.443  82.622  1.00  0.00     0.038 C 
BRANCH   7   8
ATOM      8  C   UNL     1      33.338  41.477  82.902  1.00  0.00    -0.034 C 
ATOM      9  C   UNL     1      33.588  42.787  82.819  1.00  0.00     0.004 C 
ENDBRANCH   7   8
ENDBRANCH   1   7
TORSDOF 4
ENDMDL
