MODEL 1
REMARK VINA RESULT:    -4.188      0.000      0.000
REMARK INTER + INTRA:          -4.395
REMARK INTER:                  -5.168
REMARK INTRA:                   0.773
REMARK UNBOUND:                 0.773
REMARK SMILES CC1=CC=CC(C)(C)CC1=O
REMARK SMILES IDX 1 1 2 2 3 3 10 4 11 5 9 6 4 8 5 9 6 10 7 11 8 12
REMARK H PARENT
REMARK Flexibility Score: 80.00
ROOT
ATOM      1  C   UNL     1     -13.992 -20.327  28.683  1.00  0.00     0.048 C 
ATOM      2  C   UNL     1     -13.255 -19.536  29.738  1.00  0.00    -0.008 C 
ATOM      3  C   UNL     1     -12.802 -20.206  30.819  1.00  0.00     0.007 C 
ENDROOT
BRANCH   2   4
ATOM      4  C   UNL     1     -13.022 -18.097  29.463  1.00  0.00     0.159 C 
ATOM      5  O   UNL     1     -13.267 -17.650  28.308  1.00  0.00    -0.295 OA
BRANCH   4   6
ATOM      6  C   UNL     1     -12.521 -17.129  30.491  1.00  0.00     0.091 CG0
ATOM      7  G   UNL     1     -11.140 -17.515  31.068  1.00  0.00     0.000 G0
ENDBRANCH   4   6
ENDBRANCH   2   4
BRANCH   3   8
ATOM      8  C   UNL     1     -12.035 -19.716  31.989  1.00  0.00    -0.003 C 
ATOM      9  C   UNL     1     -11.315 -18.594  32.117  1.00  0.00    -0.020 C 
BRANCH   9  10
ATOM     10  C   UNL     1     -11.137 -17.519  31.072  1.00  0.00    -0.010 CG0
ATOM     11  C   UNL     1     -10.527 -16.274  31.756  1.00  0.00     0.016 C 
ATOM     12  C   UNL     1     -10.148 -17.998  29.984  1.00  0.00     0.016 C 
ATOM     13  G   UNL     1     -12.513 -17.122  30.493  1.00  0.00     0.000 G0
ENDBRANCH   9  10
ENDBRANCH   3   8
TORSDOF 0
ENDMDL
MODEL 2
REMARK VINA RESULT:    -4.157      1.585      3.102
REMARK INTER + INTRA:          -4.356
REMARK INTER:                  -5.123
REMARK INTRA:                   0.767
REMARK UNBOUND:                 0.773
REMARK SMILES CC1=CC=CC(C)(C)CC1=O
REMARK SMILES IDX 1 1 2 2 3 3 10 4 11 5 9 6 4 8 5 9 6 10 7 11 8 12
REMARK H PARENT
REMARK Flexibility Score: 80.00
ROOT
ATOM      1  C   UNL     1     -12.738 -15.356  28.378  1.00  0.00     0.048 C 
ATOM      2  C   UNL     1     -12.615 -16.393  29.470  1.00  0.00    -0.008 C 
ATOM      3  C   UNL     1     -13.281 -16.168  30.623  1.00  0.00     0.007 C 
ENDROOT
BRANCH   2   4
ATOM      4  C   UNL     1     -11.832 -17.614  29.156  1.00  0.00     0.159 C 
ATOM      5  O   UNL     1     -11.477 -17.820  27.963  1.00  0.00    -0.295 OA
BRANCH   4   6
ATOM      6  C   UNL     1     -11.421 -18.620  30.188  1.00  0.00     0.091 CG0
ATOM      7  G   UNL     1     -12.619 -19.244  30.940  1.00  0.00     0.000 G0
ENDBRANCH   4   6
ENDBRANCH   2   4
BRANCH   3   8
ATOM      8  C   UNL     1     -13.372 -17.002  31.846  1.00  0.00    -0.003 C 
ATOM      9  C   UNL     1     -13.111 -18.305  32.001  1.00  0.00    -0.020 C 
BRANCH   9  10
ATOM     10  C   UNL     1     -12.617 -19.254  30.934  1.00  0.00    -0.010 CG0
ATOM     11  C   UNL     1     -12.125 -20.546  31.625  1.00  0.00     0.016 C 
ATOM     12  C   UNL     1     -13.778 -19.633  29.985  1.00  0.00     0.016 C 
ATOM     13  G   UNL     1     -11.420 -18.623  30.188  1.00  0.00     0.000 G0
ENDBRANCH   9  10
ENDBRANCH   3   8
TORSDOF 0
ENDMDL
MODEL 3
REMARK VINA RESULT:    -4.156      1.716      2.703
REMARK INTER + INTRA:          -4.355
REMARK INTER:                  -5.097
REMARK INTRA:                   0.742
REMARK UNBOUND:                 0.773
REMARK SMILES CC1=CC=CC(C)(C)CC1=O
REMARK SMILES IDX 1 1 2 2 3 3 10 4 11 5 9 6 4 8 5 9 6 10 7 11 8 12
REMARK H PARENT
REMARK Flexibility Score: 80.00
ROOT
ATOM      1  C   UNL     1     -12.442 -20.340  32.012  1.00  0.00     0.048 C 
ATOM      2  C   UNL     1     -12.782 -19.008  31.385  1.00  0.00    -0.008 C 
ATOM      3  C   UNL     1     -13.076 -17.983  32.214  1.00  0.00     0.007 C 
ENDROOT
BRANCH   2   4
ATOM      4  C   UNL     1     -12.692 -18.916  29.906  1.00  0.00     0.159 C 
ATOM      5  O   UNL     1     -12.136 -19.853  29.271  1.00  0.00    -0.295 OA
BRANCH   4   6
ATOM      6  C   UNL     1     -13.242 -17.769  29.115  1.00  0.00     0.091 CG0
ATOM      7  G   UNL     1     -12.614 -16.409  29.498  1.00  0.00     0.000 G0
ENDBRANCH   4   6
ENDBRANCH   2   4
BRANCH   3   8
ATOM      8  C   UNL     1     -13.418 -16.575  31.900  1.00  0.00    -0.003 C 
ATOM      9  C   UNL     1     -13.221 -15.891  30.767  1.00  0.00    -0.020 C 
BRANCH   9  10
ATOM     10  C   UNL     1     -12.609 -16.422  29.492  1.00  0.00    -0.010 CG0
ATOM     11  C   UNL     1     -12.936 -15.435  28.349  1.00  0.00     0.016 C 
ATOM     12  C   UNL     1     -11.072 -16.496  29.635  1.00  0.00     0.016 C 
ATOM     13  G   UNL     1     -13.241 -17.788  29.141  1.00  0.00     0.000 G0
ENDBRANCH   9  10
ENDBRANCH   3   8
TORSDOF 0
ENDMDL
MODEL 4
REMARK VINA RESULT:    -4.098      2.190      3.531
REMARK INTER + INTRA:          -4.283
REMARK INTER:                  -5.049
REMARK INTRA:                   0.765
REMARK UNBOUND:                 0.773
REMARK SMILES CC1=CC=CC(C)(C)CC1=O
REMARK SMILES IDX 1 1 2 2 3 3 10 4 11 5 9 6 4 8 5 9 6 10 7 11 8 12
REMARK H PARENT
REMARK Flexibility Score: 80.00
ROOT
ATOM      1  C   UNL     1     -13.542 -17.781  32.374  1.00  0.00     0.048 C 
ATOM      2  C   UNL     1     -13.244 -17.387  30.946  1.00  0.00    -0.008 C 
ATOM      3  C   UNL     1     -13.322 -16.076  30.631  1.00  0.00     0.007 C 
ENDROOT
BRANCH   2   4
ATOM      4  C   UNL     1     -12.816 -18.467  30.023  1.00  0.00     0.159 C 
ATOM      5  O   UNL     1     -12.547 -19.604  30.499  1.00  0.00    -0.295 OA
BRANCH   4   6
ATOM      6  C   UNL     1     -12.697 -18.287  28.540  1.00  0.00     0.091 CG0
ATOM      7  G   UNL     1     -11.712 -17.166  28.140  1.00  0.00     0.000 G0
ENDBRANCH   4   6
ENDBRANCH   2   4
BRANCH   3   8
ATOM      8  C   UNL     1     -13.065 -15.392  29.340  1.00  0.00    -0.003 C 
ATOM      9  C   UNL     1     -12.379 -15.826  28.277  1.00  0.00    -0.020 C 
BRANCH   9  10
ATOM     10  C   UNL     1     -11.708 -17.172  28.129  1.00  0.00    -0.010 CG0
ATOM     11  C   UNL     1     -11.350 -17.375  26.640  1.00  0.00     0.016 C 
ATOM     12  C   UNL     1     -10.394 -17.200  28.944  1.00  0.00     0.016 C 
ATOM     13  G   UNL     1     -12.689 -18.291  28.544  1.00  0.00     0.000 G0
ENDBRANCH   9  10
ENDBRANCH   3   8
TORSDOF 0
ENDMDL
MODEL 5
REMARK VINA RESULT:    -4.053      1.685      2.920
REMARK INTER + INTRA:          -4.228
REMARK INTER:                  -4.986
REMARK INTRA:                   0.758
REMARK UNBOUND:                 0.773
REMARK SMILES CC1=CC=CC(C)(C)CC1=O
REMARK SMILES IDX 1 1 2 2 3 3 10 4 11 5 9 6 4 8 5 9 6 10 7 11 8 12
REMARK H PARENT
REMARK Flexibility Score: 80.00
ROOT
ATOM      1  C   UNL     1     -13.453 -16.630  26.753  1.00  0.00     0.048 C 
ATOM      2  C   UNL     1     -12.555 -16.883  27.941  1.00  0.00    -0.008 C 
ATOM      3  C   UNL     1     -11.693 -15.906  28.293  1.00  0.00     0.007 C 
ENDROOT
BRANCH   2   4
ATOM      4  C   UNL     1     -12.748 -18.160  28.672  1.00  0.00     0.159 C 
ATOM      5  O   UNL     1     -13.760 -18.866  28.408  1.00  0.00    -0.295 OA
BRANCH   4   6
ATOM      6  C   UNL     1     -11.794 -18.672  29.708  1.00  0.00     0.091 CG0
ATOM      7  G   UNL     1     -11.625 -17.713  30.908  1.00  0.00     0.000 G0
ENDBRANCH   4   6
ENDBRANCH   2   4
BRANCH   3   8
ATOM      8  C   UNL     1     -10.720 -15.854  29.411  1.00  0.00    -0.003 C 
ATOM      9  C   UNL     1     -10.676 -16.590  30.528  1.00  0.00    -0.020 C 
BRANCH   9  10
ATOM     10  C   UNL     1     -11.626 -17.702  30.907  1.00  0.00    -0.010 CG0
ATOM     11  C   UNL     1     -10.997 -18.499  32.072  1.00  0.00     0.016 C 
ATOM     12  C   UNL     1     -12.965 -17.109  31.401  1.00  0.00     0.016 C 
ATOM     13  G   UNL     1     -11.805 -18.664  29.710  1.00  0.00     0.000 G0
ENDBRANCH   9  10
ENDBRANCH   3   8
TORSDOF 0
ENDMDL
MODEL 6
REMARK VINA RESULT:    -4.040      1.528      2.528
REMARK INTER + INTRA:          -4.212
REMARK INTER:                  -4.979
REMARK INTRA:                   0.767
REMARK UNBOUND:                 0.773
REMARK SMILES CC1=CC=CC(C)(C)CC1=O
REMARK SMILES IDX 1 1 2 2 3 3 10 4 11 5 9 6 4 8 5 9 6 10 7 11 8 12
REMARK H PARENT
REMARK Flexibility Score: 80.00
ROOT
ATOM      1  C   UNL     1     -13.946 -20.346  28.745  1.00  0.00     0.048 C 
ATOM      2  C   UNL     1     -13.105 -19.232  29.326  1.00  0.00    -0.008 C 
ATOM      3  C   UNL     1     -13.037 -18.075  28.635  1.00  0.00     0.007 C 
ENDROOT
BRANCH   2   4
ATOM      4  C   UNL     1     -12.483 -19.478  30.651  1.00  0.00     0.159 C 
ATOM      5  O   UNL     1     -12.828 -20.499  31.306  1.00  0.00    -0.295 OA
BRANCH   4   6
ATOM      6  C   UNL     1     -11.447 -18.580  31.256  1.00  0.00     0.091 CG0
ATOM      7  G   UNL     1     -11.937 -17.127  31.448  1.00  0.00     0.000 G0
ENDBRANCH   4   6
ENDBRANCH   2   4
BRANCH   3   8
ATOM      8  C   UNL     1     -12.325 -16.815  28.958  1.00  0.00    -0.003 C 
ATOM      9  C   UNL     1     -11.862 -16.385  30.139  1.00  0.00    -0.020 C 
BRANCH   9  10
ATOM     10  C   UNL     1     -11.937 -17.124  31.454  1.00  0.00    -0.010 CG0
ATOM     11  C   UNL     1     -10.989 -16.427  32.456  1.00  0.00     0.016 C 
ATOM     12  C   UNL     1     -13.373 -17.047  32.023  1.00  0.00     0.016 C 
ATOM     13  G   UNL     1     -11.449 -18.578  31.264  1.00  0.00     0.000 G0
ENDBRANCH   9  10
ENDBRANCH   3   8
TORSDOF 0
ENDMDL
MODEL 7
REMARK VINA RESULT:    -3.882      1.741      2.835
REMARK INTER + INTRA:          -4.017
REMARK INTER:                  -5.063
REMARK INTRA:                   1.046
REMARK UNBOUND:                 0.773
REMARK SMILES CC1=CC=CC(C)(C)CC1=O
REMARK SMILES IDX 1 1 2 2 3 3 10 4 11 5 9 6 4 8 5 9 6 10 7 11 8 12
REMARK H PARENT
REMARK Flexibility Score: 80.00
ROOT
ATOM      1  C   UNL     1     -12.519 -20.713  31.985  1.00  0.00     0.048 C 
ATOM      2  C   UNL     1     -12.704 -19.616  30.963  1.00  0.00    -0.008 C 
ATOM      3  C   UNL     1     -13.278 -19.947  29.787  1.00  0.00     0.007 C 
ENDROOT
BRANCH   2   4
ATOM      4  C   UNL     1     -12.305 -18.244  31.366  1.00  0.00     0.159 C 
ATOM      5  O   UNL     1     -11.541 -18.099  32.360  1.00  0.00    -0.295 OA
BRANCH   4   6
ATOM      6  C   UNL     1     -12.751 -17.009  30.645  1.00  0.00     0.091 CG0
ATOM      7  G   UNL     1     -12.292 -16.964  29.170  1.00  0.00     0.000 G0
ENDBRANCH   4   6
ENDBRANCH   2   4
BRANCH   3   8
ATOM      8  C   UNL     1     -13.610 -19.097  28.618  1.00  0.00    -0.003 C 
ATOM      9  C   UNL     1     -13.218 -17.847  28.345  1.00  0.00    -0.020 C 
BRANCH   9  10
ATOM     10  C   UNL     1     -12.292 -16.994  29.180  1.00  0.00    -0.010 CG0
ATOM     11  C   UNL     1     -10.872 -17.600  29.102  1.00  0.00     0.016 C 
ATOM     12  C   UNL     1     -12.232 -15.560  28.605  1.00  0.00     0.016 C 
ATOM     13  G   UNL     1     -12.747 -17.024  30.657  1.00  0.00     0.000 G0
ENDBRANCH   9  10
ENDBRANCH   3   8
TORSDOF 0
ENDMDL
MODEL 8
REMARK VINA RESULT:    -3.822      2.201      3.697
REMARK INTER + INTRA:          -3.943
REMARK INTER:                  -4.681
REMARK INTRA:                   0.738
REMARK UNBOUND:                 0.773
REMARK SMILES CC1=CC=CC(C)(C)CC1=O
REMARK SMILES IDX 1 1 2 2 3 3 10 4 11 5 9 6 4 8 5 9 6 10 7 11 8 12
REMARK H PARENT
REMARK Flexibility Score: 80.00
ROOT
ATOM      1  C   UNL     1     -11.735 -16.616  32.658  1.00  0.00     0.048 C 
ATOM      2  C   UNL     1     -11.837 -17.122  31.237  1.00  0.00    -0.008 C 
ATOM      3  C   UNL     1     -12.852 -17.962  30.944  1.00  0.00     0.007 C 
ENDROOT
BRANCH   2   4
ATOM      4  C   UNL     1     -10.853 -16.592  30.261  1.00  0.00     0.159 C 
ATOM      5  O   UNL     1     -10.103 -15.639  30.608  1.00  0.00    -0.295 OA
BRANCH   4   6
ATOM      6  C   UNL     1     -10.688 -17.139  28.876  1.00  0.00     0.091 CG0
ATOM      7  G   UNL     1     -11.985 -17.078  28.038  1.00  0.00     0.000 G0
ENDBRANCH   4   6
ENDBRANCH   2   4
BRANCH   3   8
ATOM      8  C   UNL     1     -13.220 -18.594  29.654  1.00  0.00    -0.003 C 
ATOM      9  C   UNL     1     -12.876 -18.238  28.411  1.00  0.00    -0.020 C 
BRANCH   9  10
ATOM     10  C   UNL     1     -11.977 -17.088  28.023  1.00  0.00    -0.010 CG0
ATOM     11  C   UNL     1     -11.558 -17.276  26.547  1.00  0.00     0.016 C 
ATOM     12  C   UNL     1     -12.750 -15.753  28.134  1.00  0.00     0.016 C 
ATOM     13  G   UNL     1     -10.699 -17.110  28.892  1.00  0.00     0.000 G0
ENDBRANCH   9  10
ENDBRANCH   3   8
TORSDOF 0
ENDMDL
MODEL 9
REMARK VINA RESULT:    -3.707      1.631      3.606
REMARK INTER + INTRA:          -3.801
REMARK INTER:                  -4.554
REMARK INTRA:                   0.753
REMARK UNBOUND:                 0.773
REMARK SMILES CC1=CC=CC(C)(C)CC1=O
REMARK SMILES IDX 1 1 2 2 3 3 10 4 11 5 9 6 4 8 5 9 6 10 7 11 8 12
REMARK H PARENT
REMARK Flexibility Score: 80.00
ROOT
ATOM      1  C   UNL     1     -11.442 -15.488  33.503  1.00  0.00     0.048 C 
ATOM      2  C   UNL     1     -11.504 -16.413  32.310  1.00  0.00    -0.008 C 
ATOM      3  C   UNL     1     -10.439 -17.211  32.082  1.00  0.00     0.007 C 
ENDROOT
BRANCH   2   4
ATOM      4  C   UNL     1     -12.765 -16.421  31.528  1.00  0.00     0.159 C 
ATOM      5  O   UNL     1     -13.772 -15.818  31.990  1.00  0.00    -0.295 OA
BRANCH   4   6
ATOM      6  C   UNL     1     -12.910 -17.102  30.202  1.00  0.00     0.091 CG0
ATOM      7  G   UNL     1     -12.619 -18.619  30.260  1.00  0.00     0.000 G0
ENDBRANCH   4   6
ENDBRANCH   2   4
BRANCH   3   8
ATOM      8  C   UNL     1     -10.221 -18.225  31.022  1.00  0.00    -0.003 C 
ATOM      9  C   UNL     1     -11.120 -18.841  30.246  1.00  0.00    -0.020 C 
BRANCH   9  10
ATOM     10  C   UNL     1     -12.614 -18.617  30.250  1.00  0.00    -0.010 CG0
ATOM     11  C   UNL     1     -13.204 -19.252  28.971  1.00  0.00     0.016 C 
ATOM     12  C   UNL     1     -13.251 -19.321  31.470  1.00  0.00     0.016 C 
ATOM     13  G   UNL     1     -12.913 -17.101  30.215  1.00  0.00     0.000 G0
ENDBRANCH   9  10
ENDBRANCH   3   8
TORSDOF 0
ENDMDL
