MODEL 1
REMARK VINA RESULT:    -3.559      0.000      0.000
REMARK INTER + INTRA:          -5.261
REMARK INTER:                  -4.808
REMARK INTRA:                  -0.454
REMARK UNBOUND:                -0.454
REMARK SMILES CCCCCCCC(=O)[O-]
REMARK SMILES IDX 5 1 6 2 7 3 8 4 9 5 10 6 4 7 3 8 2 9 1 10
REMARK H PARENT
REMARK Flexibility Score: inf
ROOT
ATOM      1  C   UNL     1      -6.766  21.326 -10.320  1.00  0.00     0.000 C 
ENDROOT
BRANCH   1   2
ATOM      2  C   UNL     1      -7.758  20.529 -11.180  1.00  0.00     0.006 C 
BRANCH   2   3
ATOM      3  C   UNL     1      -7.503  20.762 -12.672  1.00  0.00     0.053 C 
BRANCH   3   4
ATOM      4  C   UNL     1      -6.072  20.486 -13.009  1.00  0.00     0.041 C 
ATOM      5  O   UNL     1      -5.371  21.371 -13.568  1.00  0.00    -0.550 OA
ATOM      6  O   UNL     1      -5.525  19.236 -12.751  1.00  0.00    -0.550 OA
ENDBRANCH   3   4
ENDBRANCH   2   3
ENDBRANCH   1   2
BRANCH   1   7
ATOM      7  C   UNL     1      -6.325  20.548  -9.063  1.00  0.00     0.000 C 
BRANCH   7   8
ATOM      8  C   UNL     1      -6.435  19.020  -9.214  1.00  0.00    -0.000 C 
BRANCH   8   9
ATOM      9  C   UNL     1      -7.057  18.341  -7.986  1.00  0.00    -0.003 C 
ATOM     10  C   UNL     1      -7.821  19.347  -7.129  1.00  0.00     0.004 C 
ENDBRANCH   8   9
ENDBRANCH   7   8
ENDBRANCH   1   7
TORSDOF 6
ENDMDL
MODEL 2
REMARK VINA RESULT:    -3.465      1.802      2.035
REMARK INTER + INTRA:          -5.134
REMARK INTER:                  -4.748
REMARK INTRA:                  -0.386
REMARK UNBOUND:                -0.454
REMARK SMILES CCCCCCCC(=O)[O-]
REMARK SMILES IDX 5 1 6 2 7 3 8 4 9 5 10 6 4 7 3 8 2 9 1 10
REMARK H PARENT
REMARK Flexibility Score: inf
ROOT
ATOM      1  C   UNL     1      -6.488  20.069 -10.857  1.00  0.00     0.000 C 
ENDROOT
BRANCH   1   2
ATOM      2  C   UNL     1      -7.300  21.353 -10.631  1.00  0.00     0.006 C 
BRANCH   2   3
ATOM      3  C   UNL     1      -6.378  22.562 -10.445  1.00  0.00     0.053 C 
BRANCH   3   4
ATOM      4  C   UNL     1      -5.579  22.808 -11.686  1.00  0.00     0.041 C 
ATOM      5  O   UNL     1      -6.159  23.101 -12.765  1.00  0.00    -0.550 OA
ATOM      6  O   UNL     1      -4.198  22.665 -11.664  1.00  0.00    -0.550 OA
ENDBRANCH   3   4
ENDBRANCH   2   3
ENDBRANCH   1   2
BRANCH   1   7
ATOM      7  C   UNL     1      -5.925  19.495  -9.541  1.00  0.00     0.000 C 
BRANCH   7   8
ATOM      8  C   UNL     1      -6.730  18.303  -8.994  1.00  0.00    -0.000 C 
BRANCH   8   9
ATOM      9  C   UNL     1      -6.921  18.360  -7.472  1.00  0.00    -0.003 C 
ATOM     10  C   UNL     1      -7.893  19.469  -7.080  1.00  0.00     0.004 C 
ENDBRANCH   8   9
ENDBRANCH   7   8
ENDBRANCH   1   7
TORSDOF 6
ENDMDL
MODEL 3
REMARK VINA RESULT:    -3.410      1.713      2.131
REMARK INTER + INTRA:          -5.060
REMARK INTER:                  -4.750
REMARK INTRA:                  -0.310
REMARK UNBOUND:                -0.454
REMARK SMILES CCCCCCCC(=O)[O-]
REMARK SMILES IDX 5 1 6 2 7 3 8 4 9 5 10 6 4 7 3 8 2 9 1 10
REMARK H PARENT
REMARK Flexibility Score: inf
ROOT
ATOM      1  C   UNL     1      -7.603  20.509 -10.653  1.00  0.00     0.000 C 
ENDROOT
BRANCH   1   2
ATOM      2  C   UNL     1      -6.826  20.904 -11.918  1.00  0.00     0.006 C 
BRANCH   2   3
ATOM      3  C   UNL     1      -5.371  21.246 -11.585  1.00  0.00     0.053 C 
BRANCH   3   4
ATOM      4  C   UNL     1      -5.126  22.713 -11.752  1.00  0.00     0.041 C 
ATOM      5  O   UNL     1      -4.149  23.118 -12.435  1.00  0.00    -0.550 OA
ATOM      6  O   UNL     1      -5.947  23.632 -11.112  1.00  0.00    -0.550 OA
ENDBRANCH   3   4
ENDBRANCH   2   3
ENDBRANCH   1   2
BRANCH   1   7
ATOM      7  C   UNL     1      -6.667  20.151  -9.481  1.00  0.00     0.000 C 
BRANCH   7   8
ATOM      8  C   UNL     1      -6.721  18.666  -9.079  1.00  0.00    -0.000 C 
BRANCH   8   9
ATOM      9  C   UNL     1      -6.876  18.462  -7.566  1.00  0.00    -0.003 C 
ATOM     10  C   UNL     1      -7.983  19.349  -7.002  1.00  0.00     0.004 C 
ENDBRANCH   8   9
ENDBRANCH   7   8
ENDBRANCH   1   7
TORSDOF 6
ENDMDL
MODEL 4
REMARK VINA RESULT:    -3.299      2.548      3.064
REMARK INTER + INTRA:          -4.910
REMARK INTER:                  -4.641
REMARK INTRA:                  -0.269
REMARK UNBOUND:                -0.454
REMARK SMILES CCCCCCCC(=O)[O-]
REMARK SMILES IDX 5 1 6 2 7 3 8 4 9 5 10 6 4 7 3 8 2 9 1 10
REMARK H PARENT
REMARK Flexibility Score: inf
ROOT
ATOM      1  C   UNL     1      -7.185  20.731 -10.536  1.00  0.00     0.000 C 
ENDROOT
BRANCH   1   2
ATOM      2  C   UNL     1      -6.397  21.718 -11.409  1.00  0.00     0.006 C 
BRANCH   2   3
ATOM      3  C   UNL     1      -7.216  22.982 -11.689  1.00  0.00     0.053 C 
BRANCH   3   4
ATOM      4  C   UNL     1      -7.014  23.989 -10.601  1.00  0.00     0.041 C 
ATOM      5  O   UNL     1      -5.962  23.972  -9.909  1.00  0.00    -0.550 OA
ATOM      6  O   UNL     1      -8.009  24.916 -10.319  1.00  0.00    -0.550 OA
ENDBRANCH   3   4
ENDBRANCH   2   3
ENDBRANCH   1   2
BRANCH   1   7
ATOM      7  C   UNL     1      -6.495  20.468  -9.181  1.00  0.00     0.000 C 
BRANCH   7   8
ATOM      8  C   UNL     1      -6.152  18.988  -8.941  1.00  0.00    -0.000 C 
BRANCH   8   9
ATOM      9  C   UNL     1      -7.141  18.290  -7.999  1.00  0.00    -0.003 C 
ATOM     10  C   UNL     1      -7.848  19.299  -7.098  1.00  0.00     0.004 C 
ENDBRANCH   8   9
ENDBRANCH   7   8
ENDBRANCH   1   7
TORSDOF 6
ENDMDL
MODEL 5
REMARK VINA RESULT:    -3.292      1.940      2.348
REMARK INTER + INTRA:          -4.901
REMARK INTER:                  -4.461
REMARK INTRA:                  -0.440
REMARK UNBOUND:                -0.454
REMARK SMILES CCCCCCCC(=O)[O-]
REMARK SMILES IDX 5 1 6 2 7 3 8 4 9 5 10 6 4 7 3 8 2 9 1 10
REMARK H PARENT
REMARK Flexibility Score: inf
ROOT
ATOM      1  C   UNL     1      -6.083  21.130 -10.608  1.00  0.00     0.000 C 
ENDROOT
BRANCH   1   2
ATOM      2  C   UNL     1      -7.026  20.485 -11.635  1.00  0.00     0.006 C 
BRANCH   2   3
ATOM      3  C   UNL     1      -8.439  21.066 -11.525  1.00  0.00     0.053 C 
BRANCH   3   4
ATOM      4  C   UNL     1      -8.482  22.452 -12.086  1.00  0.00     0.041 C 
ATOM      5  O   UNL     1      -8.894  23.409 -11.379  1.00  0.00    -0.550 OA
ATOM      6  O   UNL     1      -8.112  22.680 -13.405  1.00  0.00    -0.550 OA
ENDBRANCH   3   4
ENDBRANCH   2   3
ENDBRANCH   1   2
BRANCH   1   7
ATOM      7  C   UNL     1      -6.142  20.426  -9.237  1.00  0.00     0.000 C 
BRANCH   7   8
ATOM      8  C   UNL     1      -6.146  18.890  -9.333  1.00  0.00    -0.000 C 
BRANCH   8   9
ATOM      9  C   UNL     1      -7.284  18.245  -8.530  1.00  0.00    -0.003 C 
ATOM     10  C   UNL     1      -7.709  19.135  -7.365  1.00  0.00     0.004 C 
ENDBRANCH   8   9
ENDBRANCH   7   8
ENDBRANCH   1   7
TORSDOF 6
ENDMDL
MODEL 6
REMARK VINA RESULT:    -3.093     10.839     11.660
REMARK INTER + INTRA:          -4.631
REMARK INTER:                  -4.429
REMARK INTRA:                  -0.202
REMARK UNBOUND:                -0.454
REMARK SMILES CCCCCCCC(=O)[O-]
REMARK SMILES IDX 5 1 6 2 7 3 8 4 9 5 10 6 4 7 3 8 2 9 1 10
REMARK H PARENT
REMARK Flexibility Score: inf
ROOT
ATOM      1  C   UNL     1     -13.730  26.811 -11.336  1.00  0.00     0.000 C 
ENDROOT
BRANCH   1   2
ATOM      2  C   UNL     1     -15.034  26.257 -11.930  1.00  0.00     0.006 C 
BRANCH   2   3
ATOM      3  C   UNL     1     -16.244  27.064 -11.451  1.00  0.00     0.053 C 
BRANCH   3   4
ATOM      4  C   UNL     1     -16.804  27.883 -12.571  1.00  0.00     0.041 C 
ATOM      5  O   UNL     1     -16.680  29.137 -12.563  1.00  0.00    -0.550 OA
ATOM      6  O   UNL     1     -17.505  27.268 -13.599  1.00  0.00    -0.550 OA
ENDBRANCH   3   4
ENDBRANCH   2   3
ENDBRANCH   1   2
BRANCH   1   7
ATOM      7  C   UNL     1     -13.983  27.973 -10.354  1.00  0.00     0.000 C 
BRANCH   7   8
ATOM      8  C   UNL     1     -12.710  28.472  -9.649  1.00  0.00    -0.000 C 
BRANCH   8   9
ATOM      9  C   UNL     1     -12.764  28.297  -8.125  1.00  0.00    -0.003 C 
ATOM     10  C   UNL     1     -12.908  29.644  -7.421  1.00  0.00     0.004 C 
ENDBRANCH   8   9
ENDBRANCH   7   8
ENDBRANCH   1   7
TORSDOF 6
ENDMDL
MODEL 7
REMARK VINA RESULT:    -3.018     10.473     11.752
REMARK INTER + INTRA:          -4.530
REMARK INTER:                  -4.260
REMARK INTRA:                  -0.270
REMARK UNBOUND:                -0.454
REMARK SMILES CCCCCCCC(=O)[O-]
REMARK SMILES IDX 5 1 6 2 7 3 8 4 9 5 10 6 4 7 3 8 2 9 1 10
REMARK H PARENT
REMARK Flexibility Score: inf
ROOT
ATOM      1  C   UNL     1     -14.020  26.962 -10.819  1.00  0.00     0.000 C 
ENDROOT
BRANCH   1   2
ATOM      2  C   UNL     1     -12.889  27.890 -10.351  1.00  0.00     0.006 C 
BRANCH   2   3
ATOM      3  C   UNL     1     -13.203  28.493  -8.979  1.00  0.00     0.053 C 
BRANCH   3   4
ATOM      4  C   UNL     1     -12.491  27.740  -7.900  1.00  0.00     0.041 C 
ATOM      5  O   UNL     1     -12.675  28.040  -6.691  1.00  0.00    -0.550 OA
ATOM      6  O   UNL     1     -11.588  26.738  -8.231  1.00  0.00    -0.550 OA
ENDBRANCH   3   4
ENDBRANCH   2   3
ENDBRANCH   1   2
BRANCH   1   7
ATOM      7  C   UNL     1     -15.357  27.711 -10.990  1.00  0.00     0.000 C 
BRANCH   7   8
ATOM      8  C   UNL     1     -16.289  27.077 -12.038  1.00  0.00    -0.000 C 
BRANCH   8   9
ATOM      9  C   UNL     1     -16.993  28.117 -12.919  1.00  0.00    -0.003 C 
ATOM     10  C   UNL     1     -16.183  29.408 -13.000  1.00  0.00     0.004 C 
ENDBRANCH   8   9
ENDBRANCH   7   8
ENDBRANCH   1   7
TORSDOF 6
ENDMDL
MODEL 8
REMARK VINA RESULT:    -3.010      3.028      4.964
REMARK INTER + INTRA:          -4.520
REMARK INTER:                  -4.190
REMARK INTRA:                  -0.330
REMARK UNBOUND:                -0.454
REMARK SMILES CCCCCCCC(=O)[O-]
REMARK SMILES IDX 5 1 6 2 7 3 8 4 9 5 10 6 4 7 3 8 2 9 1 10
REMARK H PARENT
REMARK Flexibility Score: inf
ROOT
ATOM      1  C   UNL     1      -6.718  20.665 -11.340  1.00  0.00     0.000 C 
ENDROOT
BRANCH   1   2
ATOM      2  C   UNL     1      -6.132  19.707 -10.292  1.00  0.00     0.006 C 
BRANCH   2   3
ATOM      3  C   UNL     1      -6.468  20.172  -8.873  1.00  0.00     0.053 C 
BRANCH   3   4
ATOM      4  C   UNL     1      -7.289  19.142  -8.164  1.00  0.00     0.041 C 
ATOM      5  O   UNL     1      -7.477  18.012  -8.687  1.00  0.00    -0.550 OA
ATOM      6  O   UNL     1      -7.888  19.446  -6.949  1.00  0.00    -0.550 OA
ENDBRANCH   3   4
ENDBRANCH   2   3
ENDBRANCH   1   2
BRANCH   1   7
ATOM      7  C   UNL     1      -5.673  21.088 -12.394  1.00  0.00     0.000 C 
BRANCH   7   8
ATOM      8  C   UNL     1      -4.891  22.357 -12.012  1.00  0.00    -0.000 C 
BRANCH   8   9
ATOM      9  C   UNL     1      -5.666  23.271 -11.054  1.00  0.00    -0.003 C 
ATOM     10  C   UNL     1      -5.006  24.642 -10.947  1.00  0.00     0.004 C 
ENDBRANCH   8   9
ENDBRANCH   7   8
ENDBRANCH   1   7
TORSDOF 6
ENDMDL
MODEL 9
REMARK VINA RESULT:    -2.995     10.232     11.396
REMARK INTER + INTRA:          -4.500
REMARK INTER:                  -4.299
REMARK INTRA:                  -0.201
REMARK UNBOUND:                -0.454
REMARK SMILES CCCCCCCC(=O)[O-]
REMARK SMILES IDX 5 1 6 2 7 3 8 4 9 5 10 6 4 7 3 8 2 9 1 10
REMARK H PARENT
REMARK Flexibility Score: inf
ROOT
ATOM      1  C   UNL     1     -14.475  27.079 -11.070  1.00  0.00     0.000 C 
ENDROOT
BRANCH   1   2
ATOM      2  C   UNL     1     -13.762  28.074 -10.142  1.00  0.00     0.006 C 
BRANCH   2   3
ATOM      3  C   UNL     1     -12.656  27.383  -9.339  1.00  0.00     0.053 C 
BRANCH   3   4
ATOM      4  C   UNL     1     -12.590  27.939  -7.952  1.00  0.00     0.041 C 
ATOM      5  O   UNL     1     -12.213  27.212  -6.996  1.00  0.00    -0.550 OA
ATOM      6  O   UNL     1     -12.992  29.245  -7.707  1.00  0.00    -0.550 OA
ENDBRANCH   3   4
ENDBRANCH   2   3
ENDBRANCH   1   2
BRANCH   1   7
ATOM      7  C   UNL     1     -15.878  27.568 -11.483  1.00  0.00     0.000 C 
BRANCH   7   8
ATOM      8  C   UNL     1     -16.594  26.627 -12.469  1.00  0.00    -0.000 C 
BRANCH   8   9
ATOM      9  C   UNL     1     -16.155  25.163 -12.322  1.00  0.00    -0.003 C 
ATOM     10  C   UNL     1     -17.262  24.317 -11.698  1.00  0.00     0.004 C 
ENDBRANCH   8   9
ENDBRANCH   7   8
ENDBRANCH   1   7
TORSDOF 6
ENDMDL
