MODEL 1
REMARK VINA RESULT:    -4.480      0.000      0.000
REMARK INTER + INTRA:          -7.870
REMARK INTER:                  -7.099
REMARK INTRA:                  -0.771
REMARK UNBOUND:                -0.771
REMARK SMILES CCCCCCCCCCCC(=O)[O-]
REMARK SMILES IDX 7 1 8 2 9 3 10 4 11 5 12 6 13 7 14 8 6 9 5 10 4 11 3 12 2 13
REMARK SMILES IDX 1 14
REMARK H PARENT
REMARK Flexibility Score: inf
ROOT
ATOM      1  C   UNL     1       6.018  52.737   0.437  1.00  0.00     0.000 C 
ENDROOT
BRANCH   1   2
ATOM      2  C   UNL     1       5.894  52.185  -0.997  1.00  0.00     0.000 C 
BRANCH   2   3
ATOM      3  C   UNL     1       7.129  52.404  -1.894  1.00  0.00     0.000 C 
BRANCH   3   4
ATOM      4  C   UNL     1       8.416  52.789  -1.144  1.00  0.00     0.006 C 
BRANCH   4   5
ATOM      5  C   UNL     1       9.598  51.872  -1.483  1.00  0.00     0.053 C 
BRANCH   5   6
ATOM      6  C   UNL     1      10.891  52.605  -1.317  1.00  0.00     0.041 C 
ATOM      7  O   UNL     1      11.978  51.971  -1.272  1.00  0.00    -0.550 OA
ATOM      8  O   UNL     1      10.894  53.986  -1.163  1.00  0.00    -0.550 OA
ENDBRANCH   5   6
ENDBRANCH   4   5
ENDBRANCH   3   4
ENDBRANCH   2   3
ENDBRANCH   1   2
BRANCH   1   9
ATOM      9  C   UNL     1       5.365  51.869   1.530  1.00  0.00     0.000 C 
BRANCH   9  10
ATOM     10  C   UNL     1       3.831  51.972   1.534  1.00  0.00    -0.000 C 
BRANCH  10  11
ATOM     11  C   UNL     1       3.149  50.603   1.697  1.00  0.00    -0.000 C 
BRANCH  11  12
ATOM     12  C   UNL     1       2.278  50.229   0.485  1.00  0.00    -0.000 C 
BRANCH  12  13
ATOM     13  C   UNL     1       2.096  51.402  -0.491  1.00  0.00    -0.003 C 
ATOM     14  C   UNL     1       2.232  50.982  -1.954  1.00  0.00     0.004 C 
ENDBRANCH  12  13
ENDBRANCH  11  12
ENDBRANCH  10  11
ENDBRANCH   9  10
ENDBRANCH   1   9
TORSDOF 10
ENDMDL
MODEL 2
REMARK VINA RESULT:    -4.424      1.668      3.412
REMARK INTER + INTRA:          -7.781
REMARK INTER:                  -6.734
REMARK INTRA:                  -1.047
REMARK UNBOUND:                -0.771
REMARK SMILES CCCCCCCCCCCC(=O)[O-]
REMARK SMILES IDX 7 1 8 2 9 3 10 4 11 5 12 6 13 7 14 8 6 9 5 10 4 11 3 12 2 13
REMARK SMILES IDX 1 14
REMARK H PARENT
REMARK Flexibility Score: inf
ROOT
ATOM      1  C   UNL     1       3.148  51.223  -3.706  1.00  0.00     0.000 C 
ENDROOT
BRANCH   1   2
ATOM      2  C   UNL     1       3.998  52.455  -3.337  1.00  0.00     0.000 C 
BRANCH   2   3
ATOM      3  C   UNL     1       5.510  52.316  -3.611  1.00  0.00     0.000 C 
BRANCH   3   4
ATOM      4  C   UNL     1       6.347  51.848  -2.407  1.00  0.00     0.006 C 
BRANCH   4   5
ATOM      5  C   UNL     1       7.140  52.988  -1.756  1.00  0.00     0.053 C 
BRANCH   5   6
ATOM      6  C   UNL     1       8.255  52.438  -0.923  1.00  0.00     0.041 C 
ATOM      7  O   UNL     1       8.488  52.915   0.218  1.00  0.00    -0.550 OA
ATOM      8  O   UNL     1       9.068  51.431  -1.427  1.00  0.00    -0.550 OA
ENDBRANCH   5   6
ENDBRANCH   4   5
ENDBRANCH   3   4
ENDBRANCH   2   3
ENDBRANCH   1   2
BRANCH   1   9
ATOM      9  C   UNL     1       2.099  50.816  -2.655  1.00  0.00     0.000 C 
BRANCH   9  10
ATOM     10  C   UNL     1       2.337  51.478  -1.287  1.00  0.00    -0.000 C 
BRANCH  10  11
ATOM     11  C   UNL     1       2.195  50.486  -0.120  1.00  0.00    -0.000 C 
BRANCH  11  12
ATOM     12  C   UNL     1       3.105  50.841   1.069  1.00  0.00    -0.000 C 
BRANCH  12  13
ATOM     13  C   UNL     1       4.088  51.975   0.739  1.00  0.00    -0.003 C 
ATOM     14  C   UNL     1       5.388  51.884   1.539  1.00  0.00     0.004 C 
ENDBRANCH  12  13
ENDBRANCH  11  12
ENDBRANCH  10  11
ENDBRANCH   9  10
ENDBRANCH   1   9
TORSDOF 10
ENDMDL
MODEL 3
REMARK VINA RESULT:    -4.404      3.710      4.445
REMARK INTER + INTRA:          -7.749
REMARK INTER:                  -6.340
REMARK INTRA:                  -1.409
REMARK UNBOUND:                -0.771
REMARK SMILES CCCCCCCCCCCC(=O)[O-]
REMARK SMILES IDX 7 1 8 2 9 3 10 4 11 5 12 6 13 7 14 8 6 9 5 10 4 11 3 12 2 13
REMARK SMILES IDX 1 14
REMARK H PARENT
REMARK Flexibility Score: inf
ROOT
ATOM      1  C   UNL     1       5.810  52.886   0.303  1.00  0.00     0.000 C 
ENDROOT
BRANCH   1   2
ATOM      2  C   UNL     1       6.237  52.272  -1.045  1.00  0.00     0.000 C 
BRANCH   2   3
ATOM      3  C   UNL     1       6.458  53.285  -2.187  1.00  0.00     0.000 C 
BRANCH   3   4
ATOM      4  C   UNL     1       5.795  52.909  -3.524  1.00  0.00     0.006 C 
BRANCH   4   5
ATOM      5  C   UNL     1       5.069  51.559  -3.469  1.00  0.00     0.053 C 
BRANCH   5   6
ATOM      6  C   UNL     1       4.002  51.498  -4.516  1.00  0.00     0.041 C 
ATOM      7  O   UNL     1       4.258  51.833  -5.702  1.00  0.00    -0.550 OA
ATOM      8  O   UNL     1       2.711  51.116  -4.173  1.00  0.00    -0.550 OA
ENDBRANCH   5   6
ENDBRANCH   4   5
ENDBRANCH   3   4
ENDBRANCH   2   3
ENDBRANCH   1   2
BRANCH   1   9
ATOM      9  C   UNL     1       5.257  51.882   1.332  1.00  0.00     0.000 C 
BRANCH   9  10
ATOM     10  C   UNL     1       3.722  51.903   1.420  1.00  0.00    -0.000 C 
BRANCH  10  11
ATOM     11  C   UNL     1       3.063  50.892   0.466  1.00  0.00    -0.000 C 
BRANCH  11  12
ATOM     12  C   UNL     1       2.111  51.563  -0.539  1.00  0.00    -0.000 C 
BRANCH  12  13
ATOM     13  C   UNL     1       2.111  53.095  -0.416  1.00  0.00    -0.003 C 
ATOM     14  C   UNL     1       2.614  53.792  -1.681  1.00  0.00     0.004 C 
ENDBRANCH  12  13
ENDBRANCH  11  12
ENDBRANCH  10  11
ENDBRANCH   9  10
ENDBRANCH   1   9
TORSDOF 10
ENDMDL
MODEL 4
REMARK VINA RESULT:    -4.380      3.557      6.890
REMARK INTER + INTRA:          -7.712
REMARK INTER:                  -7.012
REMARK INTRA:                  -0.699
REMARK UNBOUND:                -0.771
REMARK SMILES CCCCCCCCCCCC(=O)[O-]
REMARK SMILES IDX 7 1 8 2 9 3 10 4 11 5 12 6 13 7 14 8 6 9 5 10 4 11 3 12 2 13
REMARK SMILES IDX 1 14
REMARK H PARENT
REMARK Flexibility Score: inf
ROOT
ATOM      1  C   UNL     1       5.377  52.819  -0.121  1.00  0.00     0.000 C 
ENDROOT
BRANCH   1   2
ATOM      2  C   UNL     1       5.267  51.866   1.086  1.00  0.00     0.000 C 
BRANCH   2   3
ATOM      3  C   UNL     1       3.865  51.271   1.328  1.00  0.00     0.000 C 
BRANCH   3   4
ATOM      4  C   UNL     1       2.756  51.835   0.423  1.00  0.00     0.006 C 
BRANCH   4   5
ATOM      5  C   UNL     1       2.225  50.803  -0.580  1.00  0.00     0.053 C 
BRANCH   5   6
ATOM      6  C   UNL     1       2.264  51.359  -1.969  1.00  0.00     0.041 C 
ATOM      7  O   UNL     1       2.300  50.584  -2.961  1.00  0.00    -0.550 OA
ATOM      8  O   UNL     1       2.307  52.733  -2.168  1.00  0.00    -0.550 OA
ENDBRANCH   5   6
ENDBRANCH   4   5
ENDBRANCH   3   4
ENDBRANCH   2   3
ENDBRANCH   1   2
BRANCH   1   9
ATOM      9  C   UNL     1       5.936  52.182  -1.407  1.00  0.00     0.000 C 
BRANCH   9  10
ATOM     10  C   UNL     1       7.258  52.822  -1.862  1.00  0.00    -0.000 C 
BRANCH  10  11
ATOM     11  C   UNL     1       8.369  52.696  -0.805  1.00  0.00    -0.000 C 
BRANCH  11  12
ATOM     12  C   UNL     1       9.407  51.620  -1.166  1.00  0.00    -0.000 C 
BRANCH  12  13
ATOM     13  C   UNL     1      10.824  51.991  -0.701  1.00  0.00    -0.003 C 
ATOM     14  C   UNL     1      11.571  52.861  -1.713  1.00  0.00     0.004 C 
ENDBRANCH  12  13
ENDBRANCH  11  12
ENDBRANCH  10  11
ENDBRANCH   9  10
ENDBRANCH   1   9
TORSDOF 10
ENDMDL
MODEL 5
REMARK VINA RESULT:    -4.344      2.867      5.646
REMARK INTER + INTRA:          -7.654
REMARK INTER:                  -6.678
REMARK INTRA:                  -0.976
REMARK UNBOUND:                -0.771
REMARK SMILES CCCCCCCCCCCC(=O)[O-]
REMARK SMILES IDX 7 1 8 2 9 3 10 4 11 5 12 6 13 7 14 8 6 9 5 10 4 11 3 12 2 13
REMARK SMILES IDX 1 14
REMARK H PARENT
REMARK Flexibility Score: inf
ROOT
ATOM      1  C   UNL     1       1.875  51.396  -1.990  1.00  0.00     0.000 C 
ENDROOT
BRANCH   1   2
ATOM      2  C   UNL     1       3.005  51.573  -0.956  1.00  0.00     0.000 C 
BRANCH   2   3
ATOM      3  C   UNL     1       2.731  50.952   0.428  1.00  0.00     0.000 C 
BRANCH   3   4
ATOM      4  C   UNL     1       3.781  51.278   1.505  1.00  0.00     0.006 C 
BRANCH   4   5
ATOM      5  C   UNL     1       5.068  51.875   0.919  1.00  0.00     0.053 C 
BRANCH   5   6
ATOM      6  C   UNL     1       5.233  53.294   1.361  1.00  0.00     0.041 C 
ATOM      7  O   UNL     1       6.369  53.837   1.337  1.00  0.00    -0.550 OA
ATOM      8  O   UNL     1       4.142  54.004   1.846  1.00  0.00    -0.550 OA
ENDBRANCH   5   6
ENDBRANCH   4   5
ENDBRANCH   3   4
ENDBRANCH   2   3
ENDBRANCH   1   2
BRANCH   1   9
ATOM      9  C   UNL     1       2.304  50.753  -3.322  1.00  0.00     0.000 C 
BRANCH   9  10
ATOM     10  C   UNL     1       2.956  51.759  -4.286  1.00  0.00    -0.000 C 
BRANCH  10  11
ATOM     11  C   UNL     1       4.456  51.489  -4.495  1.00  0.00    -0.000 C 
BRANCH  11  12
ATOM     12  C   UNL     1       5.346  52.512  -3.770  1.00  0.00    -0.000 C 
BRANCH  12  13
ATOM     13  C   UNL     1       6.259  51.858  -2.721  1.00  0.00    -0.003 C 
ATOM     14  C   UNL     1       7.161  52.866  -2.010  1.00  0.00     0.004 C 
ENDBRANCH  12  13
ENDBRANCH  11  12
ENDBRANCH  10  11
ENDBRANCH   9  10
ENDBRANCH   1   9
TORSDOF 10
ENDMDL
MODEL 6
REMARK VINA RESULT:    -4.286      3.048      4.481
REMARK INTER + INTRA:          -7.563
REMARK INTER:                  -6.298
REMARK INTRA:                  -1.266
REMARK UNBOUND:                -0.771
REMARK SMILES CCCCCCCCCCCC(=O)[O-]
REMARK SMILES IDX 7 1 8 2 9 3 10 4 11 5 12 6 13 7 14 8 6 9 5 10 4 11 3 12 2 13
REMARK SMILES IDX 1 14
REMARK H PARENT
REMARK Flexibility Score: inf
ROOT
ATOM      1  C   UNL     1       2.274  50.415   0.037  1.00  0.00     0.000 C 
ENDROOT
BRANCH   1   2
ATOM      2  C   UNL     1       1.875  51.428  -1.055  1.00  0.00     0.000 C 
BRANCH   2   3
ATOM      3  C   UNL     1       2.397  51.106  -2.470  1.00  0.00     0.000 C 
BRANCH   3   4
ATOM      4  C   UNL     1       3.315  52.180  -3.083  1.00  0.00     0.006 C 
BRANCH   4   5
ATOM      5  C   UNL     1       4.568  51.586  -3.740  1.00  0.00     0.053 C 
BRANCH   5   6
ATOM      6  C   UNL     1       5.788  52.336  -3.307  1.00  0.00     0.041 C 
ATOM      7  O   UNL     1       6.162  53.358  -3.940  1.00  0.00    -0.550 OA
ATOM      8  O   UNL     1       6.541  51.878  -2.233  1.00  0.00    -0.550 OA
ENDBRANCH   5   6
ENDBRANCH   4   5
ENDBRANCH   3   4
ENDBRANCH   2   3
ENDBRANCH   1   2
BRANCH   1   9
ATOM      9  C   UNL     1       3.127  50.993   1.182  1.00  0.00     0.000 C 
BRANCH   9  10
ATOM     10  C   UNL     1       4.501  51.495   0.705  1.00  0.00    -0.000 C 
BRANCH  10  11
ATOM     11  C   UNL     1       4.885  52.845   1.335  1.00  0.00    -0.000 C 
BRANCH  11  12
ATOM     12  C   UNL     1       3.756  53.885   1.237  1.00  0.00    -0.000 C 
BRANCH  12  13
ATOM     13  C   UNL     1       3.610  54.463  -0.180  1.00  0.00    -0.003 C 
ATOM     14  C   UNL     1       2.228  55.065  -0.435  1.00  0.00     0.004 C 
ENDBRANCH  12  13
ENDBRANCH  11  12
ENDBRANCH  10  11
ENDBRANCH   9  10
ENDBRANCH   1   9
TORSDOF 10
ENDMDL
MODEL 7
REMARK VINA RESULT:    -4.252      2.837      5.066
REMARK INTER + INTRA:          -7.509
REMARK INTER:                  -5.969
REMARK INTRA:                  -1.539
REMARK UNBOUND:                -0.771
REMARK SMILES CCCCCCCCCCCC(=O)[O-]
REMARK SMILES IDX 7 1 8 2 9 3 10 4 11 5 12 6 13 7 14 8 6 9 5 10 4 11 3 12 2 13
REMARK SMILES IDX 1 14
REMARK H PARENT
REMARK Flexibility Score: inf
ROOT
ATOM      1  C   UNL     1       2.763  51.069   0.293  1.00  0.00     0.000 C 
ENDROOT
BRANCH   1   2
ATOM      2  C   UNL     1       3.638  51.542   1.471  1.00  0.00     0.000 C 
BRANCH   2   3
ATOM      3  C   UNL     1       5.118  51.804   1.127  1.00  0.00     0.000 C 
BRANCH   3   4
ATOM      4  C   UNL     1       5.623  53.217   1.465  1.00  0.00     0.006 C 
BRANCH   4   5
ATOM      5  C   UNL     1       4.533  54.288   1.324  1.00  0.00     0.053 C 
BRANCH   5   6
ATOM      6  C   UNL     1       4.645  54.975   0.000  1.00  0.00     0.041 C 
ATOM      7  O   UNL     1       5.777  55.215  -0.495  1.00  0.00    -0.550 OA
ATOM      8  O   UNL     1       3.500  55.396  -0.665  1.00  0.00    -0.550 OA
ENDBRANCH   5   6
ENDBRANCH   4   5
ENDBRANCH   3   4
ENDBRANCH   2   3
ENDBRANCH   1   2
BRANCH   1   9
ATOM      9  C   UNL     1       1.875  52.157  -0.339  1.00  0.00     0.000 C 
BRANCH   9  10
ATOM     10  C   UNL     1       2.221  52.425  -1.813  1.00  0.00    -0.000 C 
BRANCH  10  11
ATOM     11  C   UNL     1       3.466  51.649  -2.277  1.00  0.00    -0.000 C 
BRANCH  11  12
ATOM     12  C   UNL     1       4.631  52.578  -2.659  1.00  0.00    -0.000 C 
BRANCH  12  13
ATOM     13  C   UNL     1       5.926  51.805  -2.955  1.00  0.00    -0.003 C 
ATOM     14  C   UNL     1       7.091  52.239  -2.066  1.00  0.00     0.004 C 
ENDBRANCH  12  13
ENDBRANCH  11  12
ENDBRANCH  10  11
ENDBRANCH   9  10
ENDBRANCH   1   9
TORSDOF 10
ENDMDL
MODEL 8
REMARK VINA RESULT:    -4.238      3.008      3.796
REMARK INTER + INTRA:          -7.487
REMARK INTER:                  -6.201
REMARK INTRA:                  -1.286
REMARK UNBOUND:                -0.771
REMARK SMILES CCCCCCCCCCCC(=O)[O-]
REMARK SMILES IDX 7 1 8 2 9 3 10 4 11 5 12 6 13 7 14 8 6 9 5 10 4 11 3 12 2 13
REMARK SMILES IDX 1 14
REMARK H PARENT
REMARK Flexibility Score: inf
ROOT
ATOM      1  C   UNL     1       5.273  51.884   1.211  1.00  0.00     0.000 C 
ENDROOT
BRANCH   1   2
ATOM      2  C   UNL     1       5.761  52.762   0.041  1.00  0.00     0.000 C 
BRANCH   2   3
ATOM      3  C   UNL     1       5.642  52.119  -1.356  1.00  0.00     0.000 C 
BRANCH   3   4
ATOM      4  C   UNL     1       6.605  52.685  -2.415  1.00  0.00     0.006 C 
BRANCH   4   5
ATOM      5  C   UNL     1       5.895  53.070  -3.719  1.00  0.00     0.053 C 
BRANCH   5   6
ATOM      6  C   UNL     1       5.038  54.278  -3.509  1.00  0.00     0.041 C 
ATOM      7  O   UNL     1       3.893  54.341  -4.028  1.00  0.00    -0.550 OA
ATOM      8  O   UNL     1       5.522  55.357  -2.780  1.00  0.00    -0.550 OA
ENDBRANCH   5   6
ENDBRANCH   4   5
ENDBRANCH   3   4
ENDBRANCH   2   3
ENDBRANCH   1   2
BRANCH   1   9
ATOM      9  C   UNL     1       3.765  51.975   1.510  1.00  0.00     0.000 C 
BRANCH   9  10
ATOM     10  C   UNL     1       3.027  50.650   1.258  1.00  0.00    -0.000 C 
BRANCH  10  11
ATOM     11  C   UNL     1       1.993  50.758   0.124  1.00  0.00    -0.000 C 
BRANCH  11  12
ATOM     12  C   UNL     1       1.875  52.187  -0.432  1.00  0.00    -0.000 C 
BRANCH  12  13
ATOM     13  C   UNL     1       2.027  52.237  -1.961  1.00  0.00    -0.003 C 
ATOM     14  C   UNL     1       2.376  50.877  -2.567  1.00  0.00     0.004 C 
ENDBRANCH  12  13
ENDBRANCH  11  12
ENDBRANCH  10  11
ENDBRANCH   9  10
ENDBRANCH   1   9
TORSDOF 10
ENDMDL
MODEL 9
REMARK VINA RESULT:    -4.202      1.259      2.578
REMARK INTER + INTRA:          -7.430
REMARK INTER:                  -6.341
REMARK INTRA:                  -1.089
REMARK UNBOUND:                -0.771
REMARK SMILES CCCCCCCCCCCC(=O)[O-]
REMARK SMILES IDX 7 1 8 2 9 3 10 4 11 5 12 6 13 7 14 8 6 9 5 10 4 11 3 12 2 13
REMARK SMILES IDX 1 14
REMARK H PARENT
REMARK Flexibility Score: inf
ROOT
ATOM      1  C   UNL     1       3.851  51.970   1.064  1.00  0.00     0.000 C 
ENDROOT
BRANCH   1   2
ATOM      2  C   UNL     1       5.324  51.968   1.521  1.00  0.00     0.000 C 
BRANCH   2   3
ATOM      3  C   UNL     1       6.316  52.629   0.543  1.00  0.00     0.000 C 
BRANCH   3   4
ATOM      4  C   UNL     1       6.095  52.279  -0.940  1.00  0.00     0.006 C 
BRANCH   4   5
ATOM      5  C   UNL     1       6.998  53.086  -1.881  1.00  0.00     0.053 C 
BRANCH   5   6
ATOM      6  C   UNL     1       8.439  52.826  -1.571  1.00  0.00     0.041 C 
ATOM      7  O   UNL     1       8.866  51.645  -1.489  1.00  0.00    -0.550 OA
ATOM      8  O   UNL     1       9.300  53.888  -1.325  1.00  0.00    -0.550 OA
ENDBRANCH   5   6
ENDBRANCH   4   5
ENDBRANCH   3   4
ENDBRANCH   2   3
ENDBRANCH   1   2
BRANCH   1   9
ATOM      9  C   UNL     1       3.031  50.741   1.500  1.00  0.00     0.000 C 
BRANCH   9  10
ATOM     10  C   UNL     1       2.047  50.268   0.418  1.00  0.00    -0.000 C 
BRANCH  10  11
ATOM     11  C   UNL     1       1.875  51.296  -0.713  1.00  0.00    -0.000 C 
BRANCH  11  12
ATOM     12  C   UNL     1       2.249  50.725  -2.091  1.00  0.00    -0.000 C 
BRANCH  12  13
ATOM     13  C   UNL     1       3.054  51.721  -2.942  1.00  0.00    -0.003 C 
ATOM     14  C   UNL     1       2.883  53.168  -2.480  1.00  0.00     0.004 C 
ENDBRANCH  12  13
ENDBRANCH  11  12
ENDBRANCH  10  11
ENDBRANCH   9  10
ENDBRANCH   1   9
TORSDOF 10
ENDMDL
