MODEL 1
REMARK VINA RESULT:    -4.245      0.000      0.000
REMARK INTER + INTRA:          -4.652
REMARK INTER:                  -4.493
REMARK INTRA:                  -0.159
REMARK UNBOUND:                -0.159
REMARK SMILES C=C1CC=C(C(C)C)CC1
REMARK SMILES IDX 5 1 4 2 3 3 2 4 1 5 10 6 9 7 6 8 7 9 8 10
REMARK H PARENT
REMARK Flexibility Score: inf
ROOT
ATOM      1  C   UNL     1       7.008   7.472  12.902  1.00  0.00    -0.071 C 
ATOM      2  C   UNL     1       7.122   6.167  13.228  1.00  0.00    -0.023 C 
ATOM      3  C   UNL     1       6.192   5.134  12.643  1.00  0.00     0.057 C 
ATOM      4  C   UNL     1       4.795   5.694  12.482  1.00  0.00    -0.073 C 
ATOM      5  C   UNL     1       3.735   4.876  12.506  1.00  0.00     0.008 C 
ATOM      6  C   UNL     1       4.595   7.180  12.257  1.00  0.00     0.035 C 
ATOM      7  C   UNL     1       5.921   7.881  11.928  1.00  0.00     0.035 C 
ENDROOT
BRANCH   1   8
ATOM      8  C   UNL     1       7.909   8.507  13.560  1.00  0.00     0.008 C 
ATOM      9  C   UNL     1       7.681   8.555  15.075  1.00  0.00     0.012 C 
ATOM     10  C   UNL     1       9.380   8.235  13.230  1.00  0.00     0.012 C 
ENDBRANCH   1   8
TORSDOF 1
ENDMDL
MODEL 2
REMARK VINA RESULT:    -3.551      1.094      4.286
REMARK INTER + INTRA:          -3.917
REMARK INTER:                  -3.760
REMARK INTRA:                  -0.157
REMARK UNBOUND:                -0.159
REMARK SMILES C=C1CC=C(C(C)C)CC1
REMARK SMILES IDX 5 1 4 2 3 3 2 4 1 5 10 6 9 7 6 8 7 9 8 10
REMARK H PARENT
REMARK Flexibility Score: inf
ROOT
ATOM      1  C   UNL     1       5.999   6.763  12.759  1.00  0.00    -0.071 C 
ATOM      2  C   UNL     1       6.961   6.918  11.824  1.00  0.00    -0.023 C 
ATOM      3  C   UNL     1       8.410   7.067  12.215  1.00  0.00     0.057 C 
ATOM      4  C   UNL     1       8.545   7.863  13.496  1.00  0.00    -0.073 C 
ATOM      5  C   UNL     1       9.662   8.561  13.740  1.00  0.00     0.008 C 
ATOM      6  C   UNL     1       7.430   7.842  14.523  1.00  0.00     0.035 C 
ATOM      7  C   UNL     1       6.407   6.738  14.219  1.00  0.00     0.035 C 
ENDROOT
BRANCH   1   8
ATOM      8  C   UNL     1       4.537   6.688  12.346  1.00  0.00     0.008 C 
ATOM      9  C   UNL     1       4.011   5.250  12.429  1.00  0.00     0.012 C 
ATOM     10  C   UNL     1       3.684   7.638  13.193  1.00  0.00     0.012 C 
ENDBRANCH   1   8
TORSDOF 1
ENDMDL
MODEL 3
REMARK VINA RESULT:    -3.147      0.846      1.833
REMARK INTER + INTRA:          -3.490
REMARK INTER:                  -3.326
REMARK INTRA:                  -0.163
REMARK UNBOUND:                -0.159
REMARK SMILES C=C1CC=C(C(C)C)CC1
REMARK SMILES IDX 5 1 4 2 3 3 2 4 1 5 10 6 9 7 6 8 7 9 8 10
REMARK H PARENT
REMARK Flexibility Score: inf
ROOT
ATOM      1  C   UNL     1       6.581   7.340  13.047  1.00  0.00    -0.071 C 
ATOM      2  C   UNL     1       5.458   7.867  12.514  1.00  0.00    -0.023 C 
ATOM      3  C   UNL     1       4.139   7.142  12.605  1.00  0.00     0.057 C 
ATOM      4  C   UNL     1       4.334   5.646  12.482  1.00  0.00    -0.073 C 
ATOM      5  C   UNL     1       3.348   4.875  12.006  1.00  0.00     0.008 C 
ATOM      6  C   UNL     1       5.636   5.012  12.932  1.00  0.00     0.035 C 
ATOM      7  C   UNL     1       6.489   5.997  13.745  1.00  0.00     0.035 C 
ENDROOT
BRANCH   1   8
ATOM      8  C   UNL     1       7.915   8.053  12.880  1.00  0.00     0.008 C 
ATOM      9  C   UNL     1       8.546   8.371  14.241  1.00  0.00     0.012 C 
ATOM     10  C   UNL     1       8.867   7.228  12.008  1.00  0.00     0.012 C 
ENDBRANCH   1   8
TORSDOF 1
ENDMDL
MODEL 4
REMARK VINA RESULT:    -2.313      1.085      4.304
REMARK INTER + INTRA:          -2.608
REMARK INTER:                  -2.440
REMARK INTRA:                  -0.167
REMARK UNBOUND:                -0.159
REMARK SMILES C=C1CC=C(C(C)C)CC1
REMARK SMILES IDX 5 1 4 2 3 3 2 4 1 5 10 6 9 7 6 8 7 9 8 10
REMARK H PARENT
REMARK Flexibility Score: inf
ROOT
ATOM      1  C   UNL     1       6.017   7.259  12.824  1.00  0.00    -0.071 C 
ATOM      2  C   UNL     1       6.341   7.488  14.115  1.00  0.00    -0.023 C 
ATOM      3  C   UNL     1       7.535   8.333  14.480  1.00  0.00     0.057 C 
ATOM      4  C   UNL     1       8.671   8.114  13.503  1.00  0.00    -0.073 C 
ATOM      5  C   UNL     1       9.939   8.304  13.891  1.00  0.00     0.008 C 
ATOM      6  C   UNL     1       8.373   7.712  12.072  1.00  0.00     0.035 C 
ATOM      7  C   UNL     1       6.882   7.874  11.742  1.00  0.00     0.035 C 
ENDROOT
BRANCH   1   8
ATOM      8  C   UNL     1       4.852   6.344  12.479  1.00  0.00     0.008 C 
ATOM      9  C   UNL     1       5.201   4.876  12.751  1.00  0.00     0.012 C 
ATOM     10  C   UNL     1       3.589   6.762  13.238  1.00  0.00     0.012 C 
ENDBRANCH   1   8
TORSDOF 1
ENDMDL
MODEL 5
REMARK VINA RESULT:    -1.573      1.451      2.493
REMARK INTER + INTRA:          -1.824
REMARK INTER:                  -1.637
REMARK INTRA:                  -0.187
REMARK UNBOUND:                -0.159
REMARK SMILES C=C1CC=C(C(C)C)CC1
REMARK SMILES IDX 5 1 4 2 3 3 2 4 1 5 10 6 9 7 6 8 7 9 8 10
REMARK H PARENT
REMARK Flexibility Score: inf
ROOT
ATOM      1  C   UNL     1       6.285   6.766  12.119  1.00  0.00    -0.071 C 
ATOM      2  C   UNL     1       5.403   5.943  12.725  1.00  0.00    -0.023 C 
ATOM      3  C   UNL     1       3.953   6.329  12.877  1.00  0.00     0.057 C 
ATOM      4  C   UNL     1       3.815   7.815  13.136  1.00  0.00    -0.073 C 
ATOM      5  C   UNL     1       2.757   8.284  13.811  1.00  0.00     0.008 C 
ATOM      6  C   UNL     1       4.856   8.778  12.602  1.00  0.00     0.035 C 
ATOM      7  C   UNL     1       5.785   8.095  11.587  1.00  0.00     0.035 C 
ENDROOT
BRANCH   1   8
ATOM      8  C   UNL     1       7.756   6.388  12.041  1.00  0.00     0.008 C 
ATOM      9  C   UNL     1       8.603   7.267  12.969  1.00  0.00     0.012 C 
ATOM     10  C   UNL     1       7.953   4.901  12.357  1.00  0.00     0.012 C 
ENDBRANCH   1   8
TORSDOF 1
ENDMDL
