MODEL 1
REMARK VINA RESULT:    -4.043      0.000      0.000
REMARK INTER + INTRA:          -9.932
REMARK INTER:                  -7.589
REMARK INTRA:                  -2.344
REMARK UNBOUND:                -2.344
REMARK SMILES O=C([O-])CCCCCCCCCCCCCCC(=O)[O-]
REMARK SMILES IDX 10 1 9 2 8 3 7 4 6 5 5 6 4 7 2 8 1 9 3 10 11 11 12 12 13 13
REMARK SMILES IDX 14 14 15 15 16 16 17 17 18 18 19 19 20 20
REMARK H PARENT
REMARK Flexibility Score: inf
ROOT
ATOM      1  C   UNL     1     -12.429   4.460  19.134  1.00  0.00     0.000 C 
ENDROOT
BRANCH   1   2
ATOM      2  C   UNL     1     -13.127   3.734  17.966  1.00  0.00     0.000 C 
BRANCH   2   3
ATOM      3  C   UNL     1     -12.194   2.916  17.050  1.00  0.00     0.000 C 
BRANCH   3   4
ATOM      4  C   UNL     1     -11.204   3.755  16.223  1.00  0.00     0.000 C 
BRANCH   4   5
ATOM      5  C   UNL     1     -10.018   2.927  15.697  1.00  0.00     0.000 C 
BRANCH   5   6
ATOM      6  C   UNL     1     -10.293   1.412  15.725  1.00  0.00     0.006 C 
BRANCH   6   7
ATOM      7  C   UNL     1     -10.622   0.806  14.351  1.00  0.00     0.053 C 
BRANCH   7   8
ATOM      8  C   UNL     1     -12.019   0.267  14.294  1.00  0.00     0.041 C 
ATOM      9  O   UNL     1     -12.767   0.337  15.305  1.00  0.00    -0.550 OA
ATOM     10  O   UNL     1     -12.484  -0.340  13.135  1.00  0.00    -0.550 OA
ENDBRANCH   7   8
ENDBRANCH   6   7
ENDBRANCH   5   6
ENDBRANCH   4   5
ENDBRANCH   3   4
ENDBRANCH   2   3
ENDBRANCH   1   2
BRANCH   1  11
ATOM     11  C   UNL     1     -12.971   4.113  20.532  1.00  0.00     0.000 C 
BRANCH  11  12
ATOM     12  C   UNL     1     -12.717   2.650  20.923  1.00  0.00     0.000 C 
BRANCH  12  13
ATOM     13  C   UNL     1     -11.216   2.378  21.084  1.00  0.00     0.000 C 
BRANCH  13  14
ATOM     14  C   UNL     1     -10.752   1.269  20.132  1.00  0.00     0.000 C 
BRANCH  14  15
ATOM     15  C   UNL     1      -9.481   1.684  19.382  1.00  0.00     0.000 C 
BRANCH  15  16
ATOM     16  C   UNL     1      -9.081   3.125  19.732  1.00  0.00     0.006 C 
BRANCH  16  17
ATOM     17  C   UNL     1      -8.151   3.742  18.679  1.00  0.00     0.053 C 
BRANCH  17  18
ATOM     18  C   UNL     1      -8.501   5.171  18.400  1.00  0.00     0.041 C 
ATOM     19  O   UNL     1      -9.122   5.852  19.257  1.00  0.00    -0.550 OA
ATOM     20  O   UNL     1      -8.111   5.761  17.204  1.00  0.00    -0.550 OA
ENDBRANCH  17  18
ENDBRANCH  16  17
ENDBRANCH  15  16
ENDBRANCH  14  15
ENDBRANCH  13  14
ENDBRANCH  12  13
ENDBRANCH  11  12
ENDBRANCH   1  11
TORSDOF 15
ENDMDL
MODEL 2
REMARK VINA RESULT:    -4.031      2.044      2.614
REMARK INTER + INTRA:          -9.909
REMARK INTER:                  -7.863
REMARK INTRA:                  -2.047
REMARK UNBOUND:                -2.344
REMARK SMILES O=C([O-])CCCCCCCCCCCCCCC(=O)[O-]
REMARK SMILES IDX 10 1 9 2 8 3 7 4 6 5 5 6 4 7 2 8 1 9 3 10 11 11 12 12 13 13
REMARK SMILES IDX 14 14 15 15 16 16 17 17 18 18 19 19 20 20
REMARK H PARENT
REMARK Flexibility Score: inf
ROOT
ATOM      1  C   UNL     1     -13.281   3.609  20.181  1.00  0.00     0.000 C 
ENDROOT
BRANCH   1   2
ATOM      2  C   UNL     1     -13.297   3.939  18.674  1.00  0.00     0.000 C 
BRANCH   2   3
ATOM      3  C   UNL     1     -12.222   4.943  18.210  1.00  0.00     0.000 C 
BRANCH   3   4
ATOM      4  C   UNL     1     -11.765   4.770  16.750  1.00  0.00     0.000 C 
BRANCH   4   5
ATOM      5  C   UNL     1     -11.717   3.296  16.313  1.00  0.00     0.000 C 
BRANCH   5   6
ATOM      6  C   UNL     1     -10.392   2.924  15.622  1.00  0.00     0.006 C 
BRANCH   6   7
ATOM      7  C   UNL     1      -9.994   1.447  15.778  1.00  0.00     0.053 C 
BRANCH   7   8
ATOM      8  C   UNL     1     -10.247   0.662  14.527  1.00  0.00     0.041 C 
ATOM      9  O   UNL     1     -11.426   0.393  14.175  1.00  0.00    -0.550 OA
ATOM     10  O   UNL     1      -9.180   0.200  13.768  1.00  0.00    -0.550 OA
ENDBRANCH   7   8
ENDBRANCH   6   7
ENDBRANCH   5   6
ENDBRANCH   4   5
ENDBRANCH   3   4
ENDBRANCH   2   3
ENDBRANCH   1   2
BRANCH   1  11
ATOM     11  C   UNL     1     -11.942   3.068  20.713  1.00  0.00     0.000 C 
BRANCH  11  12
ATOM     12  C   UNL     1     -11.464   1.818  19.961  1.00  0.00     0.000 C 
BRANCH  12  13
ATOM     13  C   UNL     1     -10.065   2.034  19.370  1.00  0.00     0.000 C 
BRANCH  13  14
ATOM     14  C   UNL     1      -9.427   3.315  19.919  1.00  0.00     0.000 C 
BRANCH  14  15
ATOM     15  C   UNL     1      -8.609   4.031  18.837  1.00  0.00     0.000 C 
BRANCH  15  16
ATOM     16  C   UNL     1      -7.109   3.748  19.004  1.00  0.00     0.006 C 
BRANCH  16  17
ATOM     17  C   UNL     1      -6.248   4.978  18.688  1.00  0.00     0.053 C 
BRANCH  17  18
ATOM     18  C   UNL     1      -4.788   4.696  18.873  1.00  0.00     0.041 C 
ATOM     19  O   UNL     1      -4.169   3.979  18.043  1.00  0.00    -0.550 OA
ATOM     20  O   UNL     1      -4.104   5.251  19.948  1.00  0.00    -0.550 OA
ENDBRANCH  17  18
ENDBRANCH  16  17
ENDBRANCH  15  16
ENDBRANCH  14  15
ENDBRANCH  13  14
ENDBRANCH  12  13
ENDBRANCH  11  12
ENDBRANCH   1  11
TORSDOF 15
ENDMDL
MODEL 3
REMARK VINA RESULT:    -4.020      2.190      3.718
REMARK INTER + INTRA:          -9.888
REMARK INTER:                  -7.284
REMARK INTRA:                  -2.604
REMARK UNBOUND:                -2.344
REMARK SMILES O=C([O-])CCCCCCCCCCCCCCC(=O)[O-]
REMARK SMILES IDX 10 1 9 2 8 3 7 4 6 5 5 6 4 7 2 8 1 9 3 10 11 11 12 12 13 13
REMARK SMILES IDX 14 14 15 15 16 16 17 17 18 18 19 19 20 20
REMARK H PARENT
REMARK Flexibility Score: inf
ROOT
ATOM      1  C   UNL     1      -9.162   5.487  17.565  1.00  0.00     0.000 C 
ENDROOT
BRANCH   1   2
ATOM      2  C   UNL     1     -10.521   5.791  18.228  1.00  0.00     0.000 C 
BRANCH   2   3
ATOM      3  C   UNL     1     -11.759   5.357  17.417  1.00  0.00     0.000 C 
BRANCH   3   4
ATOM      4  C   UNL     1     -11.509   4.209  16.422  1.00  0.00     0.000 C 
BRANCH   4   5
ATOM      5  C   UNL     1     -12.547   3.080  16.546  1.00  0.00     0.000 C 
BRANCH   5   6
ATOM      6  C   UNL     1     -11.955   1.693  16.237  1.00  0.00     0.006 C 
BRANCH   6   7
ATOM      7  C   UNL     1     -10.716   1.725  15.327  1.00  0.00     0.053 C 
BRANCH   7   8
ATOM      8  C   UNL     1     -10.708   0.593  14.347  1.00  0.00     0.041 C 
ATOM      9  O   UNL     1     -11.784   0.203  13.820  1.00  0.00    -0.550 OA
ATOM     10  O   UNL     1      -9.517  -0.052  14.038  1.00  0.00    -0.550 OA
ENDBRANCH   7   8
ENDBRANCH   6   7
ENDBRANCH   5   6
ENDBRANCH   4   5
ENDBRANCH   3   4
ENDBRANCH   2   3
ENDBRANCH   1   2
BRANCH   1  11
ATOM     11  C   UNL     1      -7.994   5.278  18.545  1.00  0.00     0.000 C 
BRANCH  11  12
ATOM     12  C   UNL     1      -8.108   3.969  19.339  1.00  0.00     0.000 C 
BRANCH  12  13
ATOM     13  C   UNL     1      -8.431   2.791  18.411  1.00  0.00     0.000 C 
BRANCH  13  14
ATOM     14  C   UNL     1      -9.622   1.984  18.941  1.00  0.00     0.000 C 
BRANCH  14  15
ATOM     15  C   UNL     1     -10.234   2.652  20.177  1.00  0.00     0.000 C 
BRANCH  15  16
ATOM     16  C   UNL     1     -11.768   2.663  20.094  1.00  0.00     0.006 C 
BRANCH  16  17
ATOM     17  C   UNL     1     -12.400   3.589  21.142  1.00  0.00     0.053 C 
BRANCH  17  18
ATOM     18  C   UNL     1     -13.543   4.371  20.573  1.00  0.00     0.041 C 
ATOM     19  O   UNL     1     -14.133   3.971  19.536  1.00  0.00    -0.550 OA
ATOM     20  O   UNL     1     -13.978   5.528  21.209  1.00  0.00    -0.550 OA
ENDBRANCH  17  18
ENDBRANCH  16  17
ENDBRANCH  15  16
ENDBRANCH  14  15
ENDBRANCH  13  14
ENDBRANCH  12  13
ENDBRANCH  11  12
ENDBRANCH   1  11
TORSDOF 15
ENDMDL
MODEL 4
REMARK VINA RESULT:    -4.001      2.176      6.527
REMARK INTER + INTRA:          -9.854
REMARK INTER:                  -8.284
REMARK INTRA:                  -1.570
REMARK UNBOUND:                -2.344
REMARK SMILES O=C([O-])CCCCCCCCCCCCCCC(=O)[O-]
REMARK SMILES IDX 10 1 9 2 8 3 7 4 6 5 5 6 4 7 2 8 1 9 3 10 11 11 12 12 13 13
REMARK SMILES IDX 14 14 15 15 16 16 17 17 18 18 19 19 20 20
REMARK H PARENT
REMARK Flexibility Score: inf
ROOT
ATOM      1  C   UNL     1     -10.174   2.320  20.258  1.00  0.00     0.000 C 
ENDROOT
BRANCH   1   2
ATOM      2  C   UNL     1      -9.227   1.970  19.092  1.00  0.00     0.000 C 
BRANCH   2   3
ATOM      3  C   UNL     1      -8.324   3.123  18.610  1.00  0.00     0.000 C 
BRANCH   3   4
ATOM      4  C   UNL     1      -8.148   4.271  19.621  1.00  0.00     0.000 C 
BRANCH   4   5
ATOM      5  C   UNL     1      -6.712   4.825  19.646  1.00  0.00     0.000 C 
BRANCH   5   6
ATOM      6  C   UNL     1      -5.763   4.056  18.710  1.00  0.00     0.006 C 
BRANCH   6   7
ATOM      7  C   UNL     1      -4.340   4.635  18.642  1.00  0.00     0.053 C 
BRANCH   7   8
ATOM      8  C   UNL     1      -4.305   5.963  17.950  1.00  0.00     0.041 C 
ATOM      9  O   UNL     1      -3.661   6.922  18.452  1.00  0.00    -0.550 OA
ATOM     10  O   UNL     1      -5.008   6.150  16.767  1.00  0.00    -0.550 OA
ENDBRANCH   7   8
ENDBRANCH   6   7
ENDBRANCH   5   6
ENDBRANCH   4   5
ENDBRANCH   3   4
ENDBRANCH   2   3
ENDBRANCH   1   2
BRANCH   1  11
ATOM     11  C   UNL     1     -11.674   2.200  19.934  1.00  0.00     0.000 C 
BRANCH  11  12
ATOM     12  C   UNL     1     -12.386   3.559  19.899  1.00  0.00     0.000 C 
BRANCH  12  13
ATOM     13  C   UNL     1     -12.148   4.269  18.560  1.00  0.00     0.000 C 
BRANCH  13  14
ATOM     14  C   UNL     1     -12.878   3.552  17.418  1.00  0.00     0.000 C 
BRANCH  14  15
ATOM     15  C   UNL     1     -11.895   3.113  16.327  1.00  0.00     0.000 C 
BRANCH  15  16
ATOM     16  C   UNL     1     -11.739   1.585  16.309  1.00  0.00     0.006 C 
BRANCH  16  17
ATOM     17  C   UNL     1     -12.539   0.932  15.174  1.00  0.00     0.053 C 
BRANCH  17  18
ATOM     18  C   UNL     1     -11.645   0.230  14.199  1.00  0.00     0.041 C 
ATOM     19  O   UNL     1     -11.994  -0.870  13.695  1.00  0.00    -0.550 OA
ATOM     20  O   UNL     1     -10.439   0.807  13.822  1.00  0.00    -0.550 OA
ENDBRANCH  17  18
ENDBRANCH  16  17
ENDBRANCH  15  16
ENDBRANCH  14  15
ENDBRANCH  13  14
ENDBRANCH  12  13
ENDBRANCH  11  12
ENDBRANCH   1  11
TORSDOF 15
ENDMDL
MODEL 5
REMARK VINA RESULT:    -3.974      3.414      4.797
REMARK INTER + INTRA:          -9.802
REMARK INTER:                  -8.283
REMARK INTRA:                  -1.519
REMARK UNBOUND:                -2.344
REMARK SMILES O=C([O-])CCCCCCCCCCCCCCC(=O)[O-]
REMARK SMILES IDX 10 1 9 2 8 3 7 4 6 5 5 6 4 7 2 8 1 9 3 10 11 11 12 12 13 13
REMARK SMILES IDX 14 14 15 15 16 16 17 17 18 18 19 19 20 20
REMARK H PARENT
REMARK Flexibility Score: inf
ROOT
ATOM      1  C   UNL     1      -9.950   1.802  19.861  1.00  0.00     0.000 C 
ENDROOT
BRANCH   1   2
ATOM      2  C   UNL     1     -11.377   2.051  19.332  1.00  0.00     0.000 C 
BRANCH   2   3
ATOM      3  C   UNL     1     -11.560   3.348  18.520  1.00  0.00     0.000 C 
BRANCH   3   4
ATOM      4  C   UNL     1     -12.146   3.150  17.110  1.00  0.00     0.000 C 
BRANCH   4   5
ATOM      5  C   UNL     1     -11.200   3.641  15.999  1.00  0.00     0.000 C 
BRANCH   5   6
ATOM      6  C   UNL     1     -10.019   2.682  15.759  1.00  0.00     0.006 C 
BRANCH   6   7
ATOM      7  C   UNL     1     -10.414   1.197  15.709  1.00  0.00     0.053 C 
BRANCH   7   8
ATOM      8  C   UNL     1     -10.359   0.647  14.317  1.00  0.00     0.041 C 
ATOM      9  O   UNL     1      -9.254   0.534  13.724  1.00  0.00    -0.550 OA
ATOM     10  O   UNL     1     -11.531   0.287  13.664  1.00  0.00    -0.550 OA
ENDBRANCH   7   8
ENDBRANCH   6   7
ENDBRANCH   5   6
ENDBRANCH   4   5
ENDBRANCH   3   4
ENDBRANCH   2   3
ENDBRANCH   1   2
BRANCH   1  11
ATOM     11  C   UNL     1      -9.100   0.844  19.008  1.00  0.00     0.000 C 
BRANCH  11  12
ATOM     12  C   UNL     1      -8.753  -0.459  19.743  1.00  0.00     0.000 C 
BRANCH  12  13
ATOM     13  C   UNL     1      -9.443  -0.518  21.111  1.00  0.00     0.000 C 
BRANCH  13  14
ATOM     14  C   UNL     1      -8.482  -1.029  22.191  1.00  0.00     0.000 C 
BRANCH  14  15
ATOM     15  C   UNL     1      -8.817  -0.422  23.558  1.00  0.00     0.000 C 
BRANCH  15  16
ATOM     16  C   UNL     1      -9.873   0.685  23.425  1.00  0.00     0.006 C 
BRANCH  16  17
ATOM     17  C   UNL     1     -11.022   0.516  24.428  1.00  0.00     0.053 C 
BRANCH  17  18
ATOM     18  C   UNL     1     -12.330   0.278  23.737  1.00  0.00     0.041 C 
ATOM     19  O   UNL     1     -12.471   0.580  22.523  1.00  0.00    -0.550 OA
ATOM     20  O   UNL     1     -13.383  -0.308  24.427  1.00  0.00    -0.550 OA
ENDBRANCH  17  18
ENDBRANCH  16  17
ENDBRANCH  15  16
ENDBRANCH  14  15
ENDBRANCH  13  14
ENDBRANCH  12  13
ENDBRANCH  11  12
ENDBRANCH   1  11
TORSDOF 15
ENDMDL
MODEL 6
REMARK VINA RESULT:    -3.950      1.449      5.348
REMARK INTER + INTRA:          -9.757
REMARK INTER:                  -7.496
REMARK INTRA:                  -2.261
REMARK UNBOUND:                -2.344
REMARK SMILES O=C([O-])CCCCCCCCCCCCCCC(=O)[O-]
REMARK SMILES IDX 10 1 9 2 8 3 7 4 6 5 5 6 4 7 2 8 1 9 3 10 11 11 12 12 13 13
REMARK SMILES IDX 14 14 15 15 16 16 17 17 18 18 19 19 20 20
REMARK H PARENT
REMARK Flexibility Score: inf
ROOT
ATOM      1  C   UNL     1     -13.589   3.132  21.085  1.00  0.00     0.000 C 
ENDROOT
BRANCH   1   2
ATOM      2  C   UNL     1     -12.935   2.692  22.410  1.00  0.00     0.000 C 
BRANCH   2   3
ATOM      3  C   UNL     1     -12.314   1.281  22.399  1.00  0.00     0.000 C 
BRANCH   3   4
ATOM      4  C   UNL     1     -10.802   1.244  22.111  1.00  0.00     0.000 C 
BRANCH   4   5
ATOM      5  C   UNL     1     -10.471   0.583  20.761  1.00  0.00     0.000 C 
BRANCH   5   6
ATOM      6  C   UNL     1     -10.386   1.598  19.608  1.00  0.00     0.006 C 
BRANCH   6   7
ATOM      7  C   UNL     1      -9.910   2.997  20.033  1.00  0.00     0.053 C 
BRANCH   7   8
ATOM      8  C   UNL     1      -9.102   3.665  18.963  1.00  0.00     0.041 C 
ATOM      9  O   UNL     1      -9.353   4.853  18.629  1.00  0.00    -0.550 OA
ATOM     10  O   UNL     1      -8.092   2.966  18.315  1.00  0.00    -0.550 OA
ENDBRANCH   7   8
ENDBRANCH   6   7
ENDBRANCH   5   6
ENDBRANCH   4   5
ENDBRANCH   3   4
ENDBRANCH   2   3
ENDBRANCH   1   2
BRANCH   1  11
ATOM     11  C   UNL     1     -13.517   4.642  20.794  1.00  0.00     0.000 C 
BRANCH  11  12
ATOM     12  C   UNL     1     -12.935   4.955  19.409  1.00  0.00     0.000 C 
BRANCH  12  13
ATOM     13  C   UNL     1     -13.180   3.795  18.436  1.00  0.00     0.000 C 
BRANCH  13  14
ATOM     14  C   UNL     1     -12.431   4.014  17.116  1.00  0.00     0.000 C 
BRANCH  14  15
ATOM     15  C   UNL     1     -12.146   2.680  16.416  1.00  0.00     0.000 C 
BRANCH  15  16
ATOM     16  C   UNL     1     -10.772   2.701  15.730  1.00  0.00     0.006 C 
BRANCH  16  17
ATOM     17  C   UNL     1     -10.076   1.335  15.782  1.00  0.00     0.053 C 
BRANCH  17  18
ATOM     18  C   UNL     1     -10.176   0.611  14.474  1.00  0.00     0.041 C 
ATOM     19  O   UNL     1      -9.154   0.449  13.758  1.00  0.00    -0.550 OA
ATOM     20  O   UNL     1     -11.396   0.089  14.061  1.00  0.00    -0.550 OA
ENDBRANCH  17  18
ENDBRANCH  16  17
ENDBRANCH  15  16
ENDBRANCH  14  15
ENDBRANCH  13  14
ENDBRANCH  12  13
ENDBRANCH  11  12
ENDBRANCH   1  11
TORSDOF 15
ENDMDL
MODEL 7
REMARK VINA RESULT:    -3.901      2.992      6.432
REMARK INTER + INTRA:          -9.666
REMARK INTER:                  -7.846
REMARK INTRA:                  -1.820
REMARK UNBOUND:                -2.344
REMARK SMILES O=C([O-])CCCCCCCCCCCCCCC(=O)[O-]
REMARK SMILES IDX 10 1 9 2 8 3 7 4 6 5 5 6 4 7 2 8 1 9 3 10 11 11 12 12 13 13
REMARK SMILES IDX 14 14 15 15 16 16 17 17 18 18 19 19 20 20
REMARK H PARENT
REMARK Flexibility Score: inf
ROOT
ATOM      1  C   UNL     1      -8.199   3.959  19.215  1.00  0.00     0.000 C 
ENDROOT
BRANCH   1   2
ATOM      2  C   UNL     1      -8.527   2.739  18.330  1.00  0.00     0.000 C 
BRANCH   2   3
ATOM      3  C   UNL     1      -9.259   1.586  19.046  1.00  0.00     0.000 C 
BRANCH   3   4
ATOM      4  C   UNL     1     -10.302   2.031  20.087  1.00  0.00     0.000 C 
BRANCH   4   5
ATOM      5  C   UNL     1     -11.233   0.885  20.522  1.00  0.00     0.000 C 
BRANCH   5   6
ATOM      6  C   UNL     1     -11.059   0.509  22.005  1.00  0.00     0.006 C 
BRANCH   6   7
ATOM      7  C   UNL     1      -9.684   0.873  22.590  1.00  0.00     0.053 C 
BRANCH   7   8
ATOM      8  C   UNL     1      -9.040  -0.292  23.277  1.00  0.00     0.041 C 
ATOM      9  O   UNL     1      -8.267  -1.056  22.639  1.00  0.00    -0.550 OA
ATOM     10  O   UNL     1      -9.316  -0.551  24.613  1.00  0.00    -0.550 OA
ENDBRANCH   7   8
ENDBRANCH   6   7
ENDBRANCH   5   6
ENDBRANCH   4   5
ENDBRANCH   3   4
ENDBRANCH   2   3
ENDBRANCH   1   2
BRANCH   1  11
ATOM     11  C   UNL     1      -9.025   5.222  18.912  1.00  0.00     0.000 C 
BRANCH  11  12
ATOM     12  C   UNL     1      -9.605   5.228  17.491  1.00  0.00     0.000 C 
BRANCH  12  13
ATOM     13  C   UNL     1     -11.128   5.048  17.519  1.00  0.00     0.000 C 
BRANCH  13  14
ATOM     14  C   UNL     1     -11.594   4.115  16.396  1.00  0.00     0.000 C 
BRANCH  14  15
ATOM     15  C   UNL     1     -12.400   2.938  16.957  1.00  0.00     0.000 C 
BRANCH  15  16
ATOM     16  C   UNL     1     -12.118   1.651  16.167  1.00  0.00     0.006 C 
BRANCH  16  17
ATOM     17  C   UNL     1     -10.734   1.668  15.504  1.00  0.00     0.053 C 
BRANCH  17  18
ATOM     18  C   UNL     1     -10.644   0.678  14.384  1.00  0.00     0.041 C 
ATOM     19  O   UNL     1      -9.522   0.270  13.986  1.00  0.00    -0.550 OA
ATOM     20  O   UNL     1     -11.803   0.181  13.801  1.00  0.00    -0.550 OA
ENDBRANCH  17  18
ENDBRANCH  16  17
ENDBRANCH  15  16
ENDBRANCH  14  15
ENDBRANCH  13  14
ENDBRANCH  12  13
ENDBRANCH  11  12
ENDBRANCH   1  11
TORSDOF 15
ENDMDL
MODEL 8
REMARK VINA RESULT:    -3.880      2.138      6.208
REMARK INTER + INTRA:          -9.626
REMARK INTER:                  -7.073
REMARK INTRA:                  -2.553
REMARK UNBOUND:                -2.344
REMARK SMILES O=C([O-])CCCCCCCCCCCCCCC(=O)[O-]
REMARK SMILES IDX 10 1 9 2 8 3 7 4 6 5 5 6 4 7 2 8 1 9 3 10 11 11 12 12 13 13
REMARK SMILES IDX 14 14 15 15 16 16 17 17 18 18 19 19 20 20
REMARK H PARENT
REMARK Flexibility Score: inf
ROOT
ATOM      1  C   UNL     1      -8.113   5.044  18.298  1.00  0.00     0.000 C 
ENDROOT
BRANCH   1   2
ATOM      2  C   UNL     1      -7.709   3.615  18.714  1.00  0.00     0.000 C 
BRANCH   2   3
ATOM      3  C   UNL     1      -8.796   2.540  18.511  1.00  0.00     0.000 C 
BRANCH   3   4
ATOM      4  C   UNL     1      -9.520   2.102  19.797  1.00  0.00     0.000 C 
BRANCH   4   5
ATOM      5  C   UNL     1     -11.023   1.853  19.577  1.00  0.00     0.000 C 
BRANCH   5   6
ATOM      6  C   UNL     1     -11.894   3.036  20.035  1.00  0.00     0.006 C 
BRANCH   6   7
ATOM      7  C   UNL     1     -11.162   4.047  20.933  1.00  0.00     0.053 C 
BRANCH   7   8
ATOM      8  C   UNL     1     -11.780   4.140  22.294  1.00  0.00     0.041 C 
ATOM      9  O   UNL     1     -11.051   4.257  23.315  1.00  0.00    -0.550 OA
ATOM     10  O   UNL     1     -13.159   4.066  22.439  1.00  0.00    -0.550 OA
ENDBRANCH   7   8
ENDBRANCH   6   7
ENDBRANCH   5   6
ENDBRANCH   4   5
ENDBRANCH   3   4
ENDBRANCH   2   3
ENDBRANCH   1   2
BRANCH   1  11
ATOM     11  C   UNL     1      -9.209   5.122  17.221  1.00  0.00     0.000 C 
BRANCH  11  12
ATOM     12  C   UNL     1     -10.490   5.803  17.723  1.00  0.00     0.000 C 
BRANCH  12  13
ATOM     13  C   UNL     1     -11.724   5.259  16.992  1.00  0.00     0.000 C 
BRANCH  13  14
ATOM     14  C   UNL     1     -11.403   3.945  16.271  1.00  0.00     0.000 C 
BRANCH  14  15
ATOM     15  C   UNL     1     -12.534   2.926  16.454  1.00  0.00     0.000 C 
BRANCH  15  16
ATOM     16  C   UNL     1     -12.158   1.570  15.839  1.00  0.00     0.006 C 
BRANCH  16  17
ATOM     17  C   UNL     1     -10.671   1.493  15.468  1.00  0.00     0.053 C 
BRANCH  17  18
ATOM     18  C   UNL     1     -10.434   0.561  14.319  1.00  0.00     0.041 C 
ATOM     19  O   UNL     1      -9.280   0.434  13.831  1.00  0.00    -0.550 OA
ATOM     20  O   UNL     1     -11.484  -0.192  13.808  1.00  0.00    -0.550 OA
ENDBRANCH  17  18
ENDBRANCH  16  17
ENDBRANCH  15  16
ENDBRANCH  14  15
ENDBRANCH  13  14
ENDBRANCH  12  13
ENDBRANCH  11  12
ENDBRANCH   1  11
TORSDOF 15
ENDMDL
MODEL 9
REMARK VINA RESULT:    -3.846      2.544      3.957
REMARK INTER + INTRA:          -9.563
REMARK INTER:                  -7.285
REMARK INTRA:                  -2.278
REMARK UNBOUND:                -2.344
REMARK SMILES O=C([O-])CCCCCCCCCCCCCCC(=O)[O-]
REMARK SMILES IDX 10 1 9 2 8 3 7 4 6 5 5 6 4 7 2 8 1 9 3 10 11 11 12 12 13 13
REMARK SMILES IDX 14 14 15 15 16 16 17 17 18 18 19 19 20 20
REMARK H PARENT
REMARK Flexibility Score: inf
ROOT
ATOM      1  C   UNL     1      -9.965   5.384  18.003  1.00  0.00     0.000 C 
ENDROOT
BRANCH   1   2
ATOM      2  C   UNL     1     -11.362   5.379  18.656  1.00  0.00     0.000 C 
BRANCH   2   3
ATOM      3  C   UNL     1     -12.282   4.217  18.230  1.00  0.00     0.000 C 
BRANCH   3   4
ATOM      4  C   UNL     1     -12.389   4.003  16.709  1.00  0.00     0.000 C 
BRANCH   4   5
ATOM      5  C   UNL     1     -12.506   2.517  16.326  1.00  0.00     0.000 C 
BRANCH   5   6
ATOM      6  C   UNL     1     -11.219   1.725  16.619  1.00  0.00     0.006 C 
BRANCH   6   7
ATOM      7  C   UNL     1     -10.128   1.876  15.546  1.00  0.00     0.053 C 
BRANCH   7   8
ATOM      8  C   UNL     1     -10.221   0.812  14.496  1.00  0.00     0.041 C 
ATOM      9  O   UNL     1      -9.227   0.551  13.768  1.00  0.00    -0.550 OA
ATOM     10  O   UNL     1     -11.415   0.130  14.300  1.00  0.00    -0.550 OA
ENDBRANCH   7   8
ENDBRANCH   6   7
ENDBRANCH   5   6
ENDBRANCH   4   5
ENDBRANCH   3   4
ENDBRANCH   2   3
ENDBRANCH   1   2
BRANCH   1  11
ATOM     11  C   UNL     1      -8.803   5.041  18.952  1.00  0.00     0.000 C 
BRANCH  11  12
ATOM     12  C   UNL     1      -8.236   3.635  18.716  1.00  0.00     0.000 C 
BRANCH  12  13
ATOM     13  C   UNL     1      -9.107   2.571  19.396  1.00  0.00     0.000 C 
BRANCH  13  14
ATOM     14  C   UNL     1      -9.506   3.007  20.810  1.00  0.00     0.000 C 
BRANCH  14  15
ATOM     15  C   UNL     1     -10.818   2.341  21.242  1.00  0.00     0.000 C 
BRANCH  15  16
ATOM     16  C   UNL     1     -11.134   1.125  20.360  1.00  0.00     0.006 C 
BRANCH  16  17
ATOM     17  C   UNL     1     -10.982  -0.200  21.120  1.00  0.00     0.053 C 
BRANCH  17  18
ATOM     18  C   UNL     1      -9.544  -0.598  21.258  1.00  0.00     0.041 C 
ATOM     19  O   UNL     1      -8.873  -0.916  20.241  1.00  0.00    -0.550 OA
ATOM     20  O   UNL     1      -8.938  -0.587  22.508  1.00  0.00    -0.550 OA
ENDBRANCH  17  18
ENDBRANCH  16  17
ENDBRANCH  15  16
ENDBRANCH  14  15
ENDBRANCH  13  14
ENDBRANCH  12  13
ENDBRANCH  11  12
ENDBRANCH   1  11
TORSDOF 15
ENDMDL
