MODEL 1
REMARK VINA RESULT:    -2.419      0.000      0.000
REMARK INTER + INTRA:          -2.419
REMARK INTER:                  -2.419
REMARK INTRA:                   0.000
REMARK UNBOUND:                 0.000
REMARK SMILES CC(=O)[O-]
REMARK SMILES IDX 1 1 2 2 3 3 4 4
REMARK H PARENT
REMARK Flexibility Score: inf
ROOT
ATOM      1  C   UNL     1      39.355  81.009  25.435  1.00  0.00     0.063 C 
ATOM      2  C   UNL     1      38.551  81.822  24.478  1.00  0.00     0.038 C 
ATOM      3  O   UNL     1      37.354  81.514  24.238  1.00  0.00    -0.550 OA
ATOM      4  O   UNL     1      39.135  82.888  23.807  1.00  0.00    -0.550 OA
ENDROOT
TORSDOF 0
ENDMDL
MODEL 2
REMARK VINA RESULT:    -2.408      1.300      1.866
REMARK INTER + INTRA:          -2.408
REMARK INTER:                  -2.408
REMARK INTRA:                   0.000
REMARK UNBOUND:                 0.000
REMARK SMILES CC(=O)[O-]
REMARK SMILES IDX 1 1 2 2 3 3 4 4
REMARK H PARENT
REMARK Flexibility Score: inf
ROOT
ATOM      1  C   UNL     1      36.665  81.877  23.523  1.00  0.00     0.063 C 
ATOM      2  C   UNL     1      38.023  81.963  24.132  1.00  0.00     0.038 C 
ATOM      3  O   UNL     1      38.381  81.123  25.000  1.00  0.00    -0.550 OA
ATOM      4  O   UNL     1      38.879  83.000  23.784  1.00  0.00    -0.550 OA
ENDROOT
TORSDOF 0
ENDMDL
MODEL 3
REMARK VINA RESULT:    -2.398      0.203      1.631
REMARK INTER + INTRA:          -2.398
REMARK INTER:                  -2.398
REMARK INTRA:                   0.000
REMARK UNBOUND:                 0.000
REMARK SMILES CC(=O)[O-]
REMARK SMILES IDX 1 1 2 2 3 3 4 4
REMARK H PARENT
REMARK Flexibility Score: inf
ROOT
ATOM      1  C   UNL     1      39.253  81.119  25.361  1.00  0.00     0.063 C 
ATOM      2  C   UNL     1      38.442  81.903  24.386  1.00  0.00     0.038 C 
ATOM      3  O   UNL     1      38.931  82.925  23.835  1.00  0.00    -0.550 OA
ATOM      4  O   UNL     1      37.128  81.541  24.123  1.00  0.00    -0.550 OA
ENDROOT
TORSDOF 0
ENDMDL
MODEL 4
REMARK VINA RESULT:    -2.059     14.150     14.486
REMARK INTER + INTRA:          -2.059
REMARK INTER:                  -2.059
REMARK INTRA:                   0.000
REMARK UNBOUND:                 0.000
REMARK SMILES CC(=O)[O-]
REMARK SMILES IDX 1 1 2 2 3 3 4 4
REMARK H PARENT
REMARK Flexibility Score: inf
ROOT
ATOM      1  C   UNL     1      34.695  77.736  10.988  1.00  0.00     0.063 C 
ATOM      2  C   UNL     1      36.088  77.241  11.183  1.00  0.00     0.038 C 
ATOM      3  O   UNL     1      36.852  77.814  12.004  1.00  0.00    -0.550 OA
ATOM      4  O   UNL     1      36.564  76.182  10.422  1.00  0.00    -0.550 OA
ENDROOT
TORSDOF 0
ENDMDL
MODEL 5
REMARK VINA RESULT:    -2.032     18.481     18.620
REMARK INTER + INTRA:          -2.032
REMARK INTER:                  -2.032
REMARK INTRA:                   0.000
REMARK UNBOUND:                 0.000
REMARK SMILES CC(=O)[O-]
REMARK SMILES IDX 1 1 2 2 3 3 4 4
REMARK H PARENT
REMARK Flexibility Score: inf
ROOT
ATOM      1  C   UNL     1      42.691  72.960   7.583  1.00  0.00     0.063 C 
ATOM      2  C   UNL     1      43.390  73.185   8.881  1.00  0.00     0.038 C 
ATOM      3  O   UNL     1      43.026  74.121   9.641  1.00  0.00    -0.550 OA
ATOM      4  O   UNL     1      44.479  72.398   9.232  1.00  0.00    -0.550 OA
ENDROOT
TORSDOF 0
ENDMDL
MODEL 6
REMARK VINA RESULT:    -2.015     14.712     15.067
REMARK INTER + INTRA:          -2.015
REMARK INTER:                  -2.015
REMARK INTRA:                   0.000
REMARK UNBOUND:                 0.000
REMARK SMILES CC(=O)[O-]
REMARK SMILES IDX 1 1 2 2 3 3 4 4
REMARK H PARENT
REMARK Flexibility Score: inf
ROOT
ATOM      1  C   UNL     1      36.495  77.641  11.423  1.00  0.00     0.063 C 
ATOM      2  C   UNL     1      36.086  76.364  10.773  1.00  0.00     0.038 C 
ATOM      3  O   UNL     1      36.772  75.886   9.831  1.00  0.00    -0.550 OA
ATOM      4  O   UNL     1      34.917  75.725  11.166  1.00  0.00    -0.550 OA
ENDROOT
TORSDOF 0
ENDMDL
MODEL 7
REMARK VINA RESULT:    -2.001     14.711     14.992
REMARK INTER + INTRA:          -2.001
REMARK INTER:                  -2.001
REMARK INTRA:                   0.000
REMARK UNBOUND:                 0.000
REMARK SMILES CC(=O)[O-]
REMARK SMILES IDX 1 1 2 2 3 3 4 4
REMARK H PARENT
REMARK Flexibility Score: inf
ROOT
ATOM      1  C   UNL     1      36.559  77.632  11.492  1.00  0.00     0.063 C 
ATOM      2  C   UNL     1      36.114  76.410  10.763  1.00  0.00     0.038 C 
ATOM      3  O   UNL     1      35.028  75.852  11.069  1.00  0.00    -0.550 OA
ATOM      4  O   UNL     1      36.921  75.852   9.779  1.00  0.00    -0.550 OA
ENDROOT
TORSDOF 0
ENDMDL
MODEL 8
REMARK VINA RESULT:    -1.972      9.717     10.024
REMARK INTER + INTRA:          -1.972
REMARK INTER:                  -1.972
REMARK INTRA:                   0.000
REMARK UNBOUND:                 0.000
REMARK SMILES CC(=O)[O-]
REMARK SMILES IDX 1 1 2 2 3 3 4 4
REMARK H PARENT
REMARK Flexibility Score: inf
ROOT
ATOM      1  C   UNL     1      32.448  80.518  15.894  1.00  0.00     0.063 C 
ATOM      2  C   UNL     1      32.493  81.775  16.694  1.00  0.00     0.038 C 
ATOM      3  O   UNL     1      32.023  81.798  17.862  1.00  0.00    -0.550 OA
ATOM      4  O   UNL     1      33.005  82.939  16.135  1.00  0.00    -0.550 OA
ENDROOT
TORSDOF 0
ENDMDL
MODEL 9
REMARK VINA RESULT:    -1.954      9.833      9.969
REMARK INTER + INTRA:          -1.954
REMARK INTER:                  -1.954
REMARK INTRA:                   0.000
REMARK UNBOUND:                 0.000
REMARK SMILES CC(=O)[O-]
REMARK SMILES IDX 1 1 2 2 3 3 4 4
REMARK H PARENT
REMARK Flexibility Score: inf
ROOT
ATOM      1  C   UNL     1      31.640  81.765  17.909  1.00  0.00     0.063 C 
ATOM      2  C   UNL     1      32.484  81.730  16.680  1.00  0.00     0.038 C 
ATOM      3  O   UNL     1      32.702  80.637  16.094  1.00  0.00    -0.550 OA
ATOM      4  O   UNL     1      33.076  82.894  16.208  1.00  0.00    -0.550 OA
ENDROOT
TORSDOF 0
ENDMDL
