MODEL 1
REMARK VINA RESULT:    -2.503      0.000      0.000
REMARK INTER + INTRA:          -2.722
REMARK INTER:                  -2.722
REMARK INTRA:                   0.000
REMARK UNBOUND:                 0.000
REMARK SMILES [NH3+]CC(=O)[O-]
REMARK SMILES IDX 2 1 1 2 3 6 4 7 5 8
REMARK H PARENT 1 3 1 4 1 5
REMARK Flexibility Score: inf
ROOT
ATOM      1  C   UNL     1      15.384  -3.007  14.979  1.00  0.00     0.312 C 
ENDROOT
BRANCH   1   2
ATOM      2  N   UNL     1      15.957  -2.327  13.820  1.00  0.00    -0.353 N 
ATOM      3  H   UNL     1      15.411  -2.585  12.967  1.00  0.00     0.344 HD
ATOM      4  H   UNL     1      15.909  -1.290  13.952  1.00  0.00     0.344 HD
ATOM      5  H   UNL     1      16.952  -2.622  13.687  1.00  0.00     0.344 HD
ENDBRANCH   1   2
BRANCH   1   6
ATOM      6  C   UNL     1      14.022  -3.541  14.659  1.00  0.00     0.096 C 
ATOM      7  O   UNL     1      13.898  -4.599  13.987  1.00  0.00    -0.544 OA
ATOM      8  O   UNL     1      12.890  -2.841  15.059  1.00  0.00    -0.544 OA
ENDBRANCH   1   6
TORSDOF 2
ENDMDL
MODEL 2
REMARK VINA RESULT:    -2.482     15.472     15.775
REMARK INTER + INTRA:          -2.700
REMARK INTER:                  -2.700
REMARK INTRA:                   0.000
REMARK UNBOUND:                 0.000
REMARK SMILES [NH3+]CC(=O)[O-]
REMARK SMILES IDX 2 1 1 2 3 6 4 7 5 8
REMARK H PARENT 1 3 1 4 1 5
REMARK Flexibility Score: inf
ROOT
ATOM      1  C   UNL     1      19.143   7.632  24.322  1.00  0.00     0.312 C 
ENDROOT
BRANCH   1   2
ATOM      2  N   UNL     1      18.623   6.814  25.416  1.00  0.00    -0.353 N 
ATOM      3  H   UNL     1      17.892   6.167  25.041  1.00  0.00     0.344 HD
ATOM      4  H   UNL     1      19.394   6.247  25.838  1.00  0.00     0.344 HD
ATOM      5  H   UNL     1      18.191   7.425  26.147  1.00  0.00     0.344 HD
ENDBRANCH   1   2
BRANCH   1   6
ATOM      6  C   UNL     1      18.177   8.722  23.973  1.00  0.00     0.096 C 
ATOM      7  O   UNL     1      18.076   9.122  22.783  1.00  0.00    -0.544 OA
ATOM      8  O   UNL     1      17.427   9.332  24.971  1.00  0.00    -0.544 OA
ENDBRANCH   1   6
TORSDOF 2
ENDMDL
MODEL 3
REMARK VINA RESULT:    -2.393     15.885     16.062
REMARK INTER + INTRA:          -2.603
REMARK INTER:                  -2.603
REMARK INTRA:                   0.000
REMARK UNBOUND:                 0.000
REMARK SMILES [NH3+]CC(=O)[O-]
REMARK SMILES IDX 2 1 1 2 3 6 4 7 5 8
REMARK H PARENT 1 3 1 4 1 5
REMARK Flexibility Score: inf
ROOT
ATOM      1  C   UNL     1      17.257   8.869  24.504  1.00  0.00     0.312 C 
ENDROOT
BRANCH   1   2
ATOM      2  N   UNL     1      17.518   9.780  25.616  1.00  0.00    -0.353 N 
ATOM      3  H   UNL     1      16.612  10.026  26.077  1.00  0.00     0.344 HD
ATOM      4  H   UNL     1      18.141   9.320  26.318  1.00  0.00     0.344 HD
ATOM      5  H   UNL     1      17.967  10.657  25.264  1.00  0.00     0.344 HD
ENDBRANCH   1   2
BRANCH   1   6
ATOM      6  C   UNL     1      18.540   8.323  23.956  1.00  0.00     0.096 C 
ATOM      7  O   UNL     1      19.253   7.558  24.657  1.00  0.00    -0.544 OA
ATOM      8  O   UNL     1      18.972   8.702  22.691  1.00  0.00    -0.544 OA
ENDBRANCH   1   6
TORSDOF 2
ENDMDL
MODEL 4
REMARK VINA RESULT:    -2.369     15.927     16.091
REMARK INTER + INTRA:          -2.577
REMARK INTER:                  -2.577
REMARK INTRA:                   0.000
REMARK UNBOUND:                 0.000
REMARK SMILES [NH3+]CC(=O)[O-]
REMARK SMILES IDX 2 1 1 2 3 6 4 7 5 8
REMARK H PARENT 1 3 1 4 1 5
REMARK Flexibility Score: inf
ROOT
ATOM      1  C   UNL     1      17.164   8.839  24.659  1.00  0.00     0.312 C 
ENDROOT
BRANCH   1   2
ATOM      2  N   UNL     1      17.308  10.065  25.442  1.00  0.00    -0.353 N 
ATOM      3  H   UNL     1      16.443  10.641  25.337  1.00  0.00     0.344 HD
ATOM      4  H   UNL     1      17.439   9.832  26.453  1.00  0.00     0.344 HD
ATOM      5  H   UNL     1      18.127  10.617  25.097  1.00  0.00     0.344 HD
ENDBRANCH   1   2
BRANCH   1   6
ATOM      6  C   UNL     1      18.148   8.814  23.531  1.00  0.00     0.096 C 
ATOM      7  O   UNL     1      17.956   9.521  22.506  1.00  0.00    -0.544 OA
ATOM      8  O   UNL     1      19.250   7.970  23.589  1.00  0.00    -0.544 OA
ENDBRANCH   1   6
TORSDOF 2
ENDMDL
MODEL 5
REMARK VINA RESULT:    -2.364      9.595     10.063
REMARK INTER + INTRA:          -2.572
REMARK INTER:                  -2.572
REMARK INTRA:                   0.000
REMARK UNBOUND:                 0.000
REMARK SMILES [NH3+]CC(=O)[O-]
REMARK SMILES IDX 2 1 1 2 3 6 4 7 5 8
REMARK H PARENT 1 3 1 4 1 5
REMARK Flexibility Score: inf
ROOT
ATOM      1  C   UNL     1      20.203   4.101  19.576  1.00  0.00     0.312 C 
ENDROOT
BRANCH   1   2
ATOM      2  N   UNL     1      21.277   3.911  18.604  1.00  0.00    -0.353 N 
ATOM      3  H   UNL     1      21.827   3.061  18.863  1.00  0.00     0.344 HD
ATOM      4  H   UNL     1      20.876   3.777  17.647  1.00  0.00     0.344 HD
ATOM      5  H   UNL     1      21.915   4.741  18.608  1.00  0.00     0.344 HD
ENDBRANCH   1   2
BRANCH   1   6
ATOM      6  C   UNL     1      19.701   2.781  20.075  1.00  0.00     0.096 C 
ATOM      7  O   UNL     1      18.526   2.410  19.815  1.00  0.00    -0.544 OA
ATOM      8  O   UNL     1      20.516   1.984  20.870  1.00  0.00    -0.544 OA
ENDBRANCH   1   6
TORSDOF 2
ENDMDL
MODEL 6
REMARK VINA RESULT:    -2.276     15.380     15.660
REMARK INTER + INTRA:          -2.475
REMARK INTER:                  -2.475
REMARK INTRA:                   0.000
REMARK UNBOUND:                 0.000
REMARK SMILES [NH3+]CC(=O)[O-]
REMARK SMILES IDX 2 1 1 2 3 6 4 7 5 8
REMARK H PARENT 1 3 1 4 1 5
REMARK Flexibility Score: inf
ROOT
ATOM      1  C   UNL     1      18.678   8.606  22.709  1.00  0.00     0.312 C 
ENDROOT
BRANCH   1   2
ATOM      2  N   UNL     1      17.811   9.673  22.212  1.00  0.00    -0.353 N 
ATOM      3  H   UNL     1      16.844   9.526  22.580  1.00  0.00     0.344 HD
ATOM      4  H   UNL     1      18.161  10.602  22.540  1.00  0.00     0.344 HD
ATOM      5  H   UNL     1      17.782   9.654  21.166  1.00  0.00     0.344 HD
ENDBRANCH   1   2
BRANCH   1   6
ATOM      6  C   UNL     1      18.458   8.384  24.173  1.00  0.00     0.096 C 
ATOM      7  O   UNL     1      19.042   7.439  24.766  1.00  0.00    -0.544 OA
ATOM      8  O   UNL     1      17.567   9.190  24.871  1.00  0.00    -0.544 OA
ENDBRANCH   1   6
TORSDOF 2
ENDMDL
MODEL 7
REMARK VINA RESULT:    -2.260     10.567     10.838
REMARK INTER + INTRA:          -2.458
REMARK INTER:                  -2.458
REMARK INTRA:                   0.000
REMARK UNBOUND:                 0.000
REMARK SMILES [NH3+]CC(=O)[O-]
REMARK SMILES IDX 2 1 1 2 3 6 4 7 5 8
REMARK H PARENT 1 3 1 4 1 5
REMARK Flexibility Score: inf
ROOT
ATOM      1  C   UNL     1      20.171   3.361  19.478  1.00  0.00     0.312 C 
ENDROOT
BRANCH   1   2
ATOM      2  N   UNL     1      21.258   3.938  18.690  1.00  0.00    -0.353 N 
ATOM      3  H   UNL     1      21.900   4.465  19.325  1.00  0.00     0.344 HD
ATOM      4  H   UNL     1      21.799   3.179  18.214  1.00  0.00     0.344 HD
ATOM      5  H   UNL     1      20.872   4.598  17.975  1.00  0.00     0.344 HD
ENDBRANCH   1   2
BRANCH   1   6
ATOM      6  C   UNL     1      19.382   4.438  20.157  1.00  0.00     0.096 C 
ATOM      7  O   UNL     1      18.824   5.339  19.477  1.00  0.00    -0.544 OA
ATOM      8  O   UNL     1      19.307   4.474  21.544  1.00  0.00    -0.544 OA
ENDBRANCH   1   6
TORSDOF 2
ENDMDL
MODEL 8
REMARK VINA RESULT:    -2.141     13.874     14.366
REMARK INTER + INTRA:          -2.329
REMARK INTER:                  -2.329
REMARK INTRA:                   0.000
REMARK UNBOUND:                 0.000
REMARK SMILES [NH3+]CC(=O)[O-]
REMARK SMILES IDX 2 1 1 2 3 6 4 7 5 8
REMARK H PARENT 1 3 1 4 1 5
REMARK Flexibility Score: inf
ROOT
ATOM      1  C   UNL     1      19.103   7.398  24.393  1.00  0.00     0.312 C 
ENDROOT
BRANCH   1   2
ATOM      2  N   UNL     1      18.561   6.675  25.541  1.00  0.00    -0.353 N 
ATOM      3  H   UNL     1      18.207   7.364  26.243  1.00  0.00     0.344 HD
ATOM      4  H   UNL     1      17.770   6.062  25.239  1.00  0.00     0.344 HD
ATOM      5  H   UNL     1      19.310   6.094  25.985  1.00  0.00     0.344 HD
ENDBRANCH   1   2
BRANCH   1   6
ATOM      6  C   UNL     1      18.557   6.843  23.113  1.00  0.00     0.096 C 
ATOM      7  O   UNL     1      18.475   7.572  22.090  1.00  0.00    -0.544 OA
ATOM      8  O   UNL     1      18.090   5.535  23.067  1.00  0.00    -0.544 OA
ENDBRANCH   1   6
TORSDOF 2
ENDMDL
MODEL 9
REMARK VINA RESULT:    -2.108     15.456     15.927
REMARK INTER + INTRA:          -2.293
REMARK INTER:                  -2.293
REMARK INTRA:                   0.000
REMARK UNBOUND:                 0.000
REMARK SMILES [NH3+]CC(=O)[O-]
REMARK SMILES IDX 2 1 1 2 3 6 4 7 5 8
REMARK H PARENT 1 3 1 4 1 5
REMARK Flexibility Score: inf
ROOT
ATOM      1  C   UNL     1      17.554   9.190  24.639  1.00  0.00     0.312 C 
ENDROOT
BRANCH   1   2
ATOM      2  N   UNL     1      17.405  10.047  25.813  1.00  0.00    -0.353 N 
ATOM      3  H   UNL     1      18.236   9.923  26.436  1.00  0.00     0.344 HD
ATOM      4  H   UNL     1      17.347  11.050  25.521  1.00  0.00     0.344 HD
ATOM      5  H   UNL     1      16.542   9.783  26.343  1.00  0.00     0.344 HD
ENDBRANCH   1   2
BRANCH   1   6
ATOM      6  C   UNL     1      16.349   8.317  24.467  1.00  0.00     0.096 C 
ATOM      7  O   UNL     1      16.430   7.251  23.801  1.00  0.00    -0.544 OA
ATOM      8  O   UNL     1      15.126   8.707  24.998  1.00  0.00    -0.544 OA
ENDBRANCH   1   6
TORSDOF 2
ENDMDL
