MODEL 1
REMARK VINA RESULT:    -5.170      0.000      0.000
REMARK INTER + INTRA:         -11.189
REMARK INTER:                  -9.098
REMARK INTRA:                  -2.091
REMARK UNBOUND:                -2.091
REMARK SMILES CCCCCCCCCCCCCCC(=O)[O-]
REMARK SMILES IDX 9 1 10 2 11 3 12 4 13 5 14 6 15 7 16 8 17 9 8 10 7 11 6 12
REMARK SMILES IDX 5 13 4 14 3 15 2 16 1 17
REMARK H PARENT
REMARK Flexibility Score: inf
ROOT
ATOM      1  C   UNL     1      13.264   5.991 -10.076  1.00  0.00     0.000 C 
ENDROOT
BRANCH   1   2
ATOM      2  C   UNL     1      11.849   6.004  -9.469  1.00  0.00     0.000 C 
BRANCH   2   3
ATOM      3  C   UNL     1      10.835   6.752 -10.350  1.00  0.00     0.000 C 
BRANCH   3   4
ATOM      4  C   UNL     1       9.711   5.840 -10.866  1.00  0.00     0.000 C 
BRANCH   4   5
ATOM      5  C   UNL     1       8.959   6.500 -12.028  1.00  0.00     0.006 C 
BRANCH   5   6
ATOM      6  C   UNL     1       9.745   7.691 -12.585  1.00  0.00     0.053 C 
BRANCH   6   7
ATOM      7  C   UNL     1       8.821   8.818 -12.925  1.00  0.00     0.041 C 
ATOM      8  O   UNL     1       7.639   8.822 -12.488  1.00  0.00    -0.550 OA
ATOM      9  O   UNL     1       9.276   9.884 -13.693  1.00  0.00    -0.550 OA
ENDBRANCH   6   7
ENDBRANCH   5   6
ENDBRANCH   4   5
ENDBRANCH   3   4
ENDBRANCH   2   3
ENDBRANCH   1   2
BRANCH   1  10
ATOM     10  C   UNL     1      13.490   7.140 -11.072  1.00  0.00     0.000 C 
BRANCH  10  11
ATOM     11  C   UNL     1      13.772   6.640 -12.498  1.00  0.00    -0.000 C 
BRANCH  11  12
ATOM     12  C   UNL     1      13.299   5.192 -12.727  1.00  0.00    -0.000 C 
BRANCH  12  13
ATOM     13  C   UNL     1      12.094   5.036 -13.679  1.00  0.00    -0.000 C 
BRANCH  13  14
ATOM     14  C   UNL     1      12.339   5.503 -15.125  1.00  0.00    -0.000 C 
BRANCH  14  15
ATOM     15  C   UNL     1      11.249   6.454 -15.637  1.00  0.00    -0.000 C 
BRANCH  15  16
ATOM     16  C   UNL     1      11.776   7.891 -15.735  1.00  0.00    -0.003 C 
ATOM     17  C   UNL     1      13.240   7.913 -16.166  1.00  0.00     0.004 C 
ENDBRANCH  15  16
ENDBRANCH  14  15
ENDBRANCH  13  14
ENDBRANCH  12  13
ENDBRANCH  11  12
ENDBRANCH  10  11
ENDBRANCH   1  10
TORSDOF 13
ENDMDL
MODEL 2
REMARK VINA RESULT:    -5.166      2.654      4.426
REMARK INTER + INTRA:         -11.183
REMARK INTER:                  -9.518
REMARK INTRA:                  -1.666
REMARK UNBOUND:                -2.091
REMARK SMILES CCCCCCCCCCCCCCC(=O)[O-]
REMARK SMILES IDX 9 1 10 2 11 3 12 4 13 5 14 6 15 7 16 8 17 9 8 10 7 11 6 12
REMARK SMILES IDX 5 13 4 14 3 15 2 16 1 17
REMARK H PARENT
REMARK Flexibility Score: inf
ROOT
ATOM      1  C   UNL     1       8.247   8.452 -13.731  1.00  0.00     0.000 C 
ENDROOT
BRANCH   1   2
ATOM      2  C   UNL     1       9.049   7.904 -12.537  1.00  0.00     0.000 C 
BRANCH   2   3
ATOM      3  C   UNL     1       8.525   6.544 -12.048  1.00  0.00     0.000 C 
BRANCH   3   4
ATOM      4  C   UNL     1       9.577   5.755 -11.252  1.00  0.00     0.000 C 
BRANCH   4   5
ATOM      5  C   UNL     1      10.905   6.519 -11.189  1.00  0.00     0.006 C 
BRANCH   5   6
ATOM      6  C   UNL     1      11.472   6.519  -9.766  1.00  0.00     0.053 C 
BRANCH   6   7
ATOM      7  C   UNL     1      12.943   6.245  -9.787  1.00  0.00     0.041 C 
ATOM      8  O   UNL     1      13.472   5.558  -8.873  1.00  0.00    -0.550 OA
ATOM      9  O   UNL     1      13.724   6.716 -10.835  1.00  0.00    -0.550 OA
ENDBRANCH   6   7
ENDBRANCH   5   6
ENDBRANCH   4   5
ENDBRANCH   3   4
ENDBRANCH   2   3
ENDBRANCH   1   2
BRANCH   1  10
ATOM     10  C   UNL     1       7.968   7.381 -14.798  1.00  0.00     0.000 C 
BRANCH  10  11
ATOM     11  C   UNL     1       9.100   7.268 -15.833  1.00  0.00    -0.000 C 
BRANCH  11  12
ATOM     12  C   UNL     1       9.705   5.854 -15.904  1.00  0.00    -0.000 C 
BRANCH  12  13
ATOM     13  C   UNL     1      10.823   5.564 -14.880  1.00  0.00    -0.000 C 
BRANCH  13  14
ATOM     14  C   UNL     1      12.249   5.894 -15.358  1.00  0.00    -0.000 C 
BRANCH  14  15
ATOM     15  C   UNL     1      12.663   7.338 -15.044  1.00  0.00    -0.000 C 
BRANCH  15  16
ATOM     16  C   UNL     1      13.235   8.027 -16.289  1.00  0.00    -0.003 C 
ATOM     17  C   UNL     1      12.141   8.746 -17.073  1.00  0.00     0.004 C 
ENDBRANCH  15  16
ENDBRANCH  14  15
ENDBRANCH  13  14
ENDBRANCH  12  13
ENDBRANCH  11  12
ENDBRANCH  10  11
ENDBRANCH   1  10
TORSDOF 13
ENDMDL
MODEL 3
REMARK VINA RESULT:    -5.147      2.362      4.872
REMARK INTER + INTRA:         -11.148
REMARK INTER:                  -9.142
REMARK INTRA:                  -2.007
REMARK UNBOUND:                -2.091
REMARK SMILES CCCCCCCCCCCCCCC(=O)[O-]
REMARK SMILES IDX 9 1 10 2 11 3 12 4 13 5 14 6 15 7 16 8 17 9 8 10 7 11 6 12
REMARK SMILES IDX 5 13 4 14 3 15 2 16 1 17
REMARK H PARENT
REMARK Flexibility Score: inf
ROOT
ATOM      1  C   UNL     1      11.736   4.507 -13.403  1.00  0.00     0.000 C 
ENDROOT
BRANCH   1   2
ATOM      2  C   UNL     1      11.322   4.861 -14.843  1.00  0.00     0.000 C 
BRANCH   2   3
ATOM      3  C   UNL     1      12.103   6.061 -15.403  1.00  0.00     0.000 C 
BRANCH   3   4
ATOM      4  C   UNL     1      11.314   7.377 -15.310  1.00  0.00     0.000 C 
BRANCH   4   5
ATOM      5  C   UNL     1      12.148   8.470 -14.629  1.00  0.00     0.006 C 
BRANCH   5   6
ATOM      6  C   UNL     1      13.626   8.350 -15.012  1.00  0.00     0.053 C 
BRANCH   6   7
ATOM      7  C   UNL     1      14.498   8.839 -13.899  1.00  0.00     0.041 C 
ATOM      8  O   UNL     1      14.500  10.060 -13.584  1.00  0.00    -0.550 OA
ATOM      9  O   UNL     1      15.281   7.942 -13.182  1.00  0.00    -0.550 OA
ENDBRANCH   6   7
ENDBRANCH   5   6
ENDBRANCH   4   5
ENDBRANCH   3   4
ENDBRANCH   2   3
ENDBRANCH   1   2
BRANCH   1  10
ATOM     10  C   UNL     1      13.022   5.225 -12.964  1.00  0.00     0.000 C 
BRANCH  10  11
ATOM     11  C   UNL     1      12.924   5.795 -11.538  1.00  0.00    -0.000 C 
BRANCH  11  12
ATOM     12  C   UNL     1      11.683   6.685 -11.336  1.00  0.00    -0.000 C 
BRANCH  12  13
ATOM     13  C   UNL     1      10.540   6.045 -10.521  1.00  0.00    -0.000 C 
BRANCH  13  14
ATOM     14  C   UNL     1       9.176   5.995 -11.234  1.00  0.00    -0.000 C 
BRANCH  14  15
ATOM     15  C   UNL     1       9.094   6.953 -12.430  1.00  0.00    -0.000 C 
BRANCH  15  16
ATOM     16  C   UNL     1       7.702   7.588 -12.529  1.00  0.00    -0.003 C 
ATOM     17  C   UNL     1       7.798   9.087 -12.798  1.00  0.00     0.004 C 
ENDBRANCH  15  16
ENDBRANCH  14  15
ENDBRANCH  13  14
ENDBRANCH  12  13
ENDBRANCH  11  12
ENDBRANCH  10  11
ENDBRANCH   1  10
TORSDOF 13
ENDMDL
MODEL 4
REMARK VINA RESULT:    -5.111      2.239      5.063
REMARK INTER + INTRA:         -11.086
REMARK INTER:                  -9.120
REMARK INTRA:                  -1.966
REMARK UNBOUND:                -2.091
REMARK SMILES CCCCCCCCCCCCCCC(=O)[O-]
REMARK SMILES IDX 9 1 10 2 11 3 12 4 13 5 14 6 15 7 16 8 17 9 8 10 7 11 6 12
REMARK SMILES IDX 5 13 4 14 3 15 2 16 1 17
REMARK H PARENT
REMARK Flexibility Score: inf
ROOT
ATOM      1  C   UNL     1      11.670   8.061 -15.471  1.00  0.00     0.000 C 
ENDROOT
BRANCH   1   2
ATOM      2  C   UNL     1      12.882   8.269 -16.396  1.00  0.00     0.000 C 
BRANCH   2   3
ATOM      3  C   UNL     1      14.212   8.319 -15.625  1.00  0.00     0.000 C 
BRANCH   3   4
ATOM      4  C   UNL     1      14.012   8.385 -14.103  1.00  0.00     0.000 C 
BRANCH   4   5
ATOM      5  C   UNL     1      14.362   9.777 -13.563  1.00  0.00     0.006 C 
BRANCH   5   6
ATOM      6  C   UNL     1      14.022   9.890 -12.074  1.00  0.00     0.053 C 
BRANCH   6   7
ATOM      7  C   UNL     1      12.912  10.871 -11.862  1.00  0.00     0.041 C 
ATOM      8  O   UNL     1      11.808  10.716 -12.448  1.00  0.00    -0.550 OA
ATOM      9  O   UNL     1      13.083  11.937 -10.986  1.00  0.00    -0.550 OA
ENDBRANCH   6   7
ENDBRANCH   5   6
ENDBRANCH   4   5
ENDBRANCH   3   4
ENDBRANCH   2   3
ENDBRANCH   1   2
BRANCH   1  10
ATOM     10  C   UNL     1      10.966   6.715 -15.713  1.00  0.00     0.000 C 
BRANCH  10  11
ATOM     11  C   UNL     1      11.910   5.514 -15.534  1.00  0.00    -0.000 C 
BRANCH  11  12
ATOM     12  C   UNL     1      11.717   4.798 -14.184  1.00  0.00    -0.000 C 
BRANCH  12  13
ATOM     13  C   UNL     1      12.677   5.243 -13.060  1.00  0.00    -0.000 C 
BRANCH  13  14
ATOM     14  C   UNL     1      11.993   5.784 -11.792  1.00  0.00    -0.000 C 
BRANCH  14  15
ATOM     15  C   UNL     1      11.309   7.139 -12.017  1.00  0.00    -0.000 C 
BRANCH  15  16
ATOM     16  C   UNL     1       9.786   6.978 -12.098  1.00  0.00    -0.003 C 
ATOM     17  C   UNL     1       9.324   5.722 -11.363  1.00  0.00     0.004 C 
ENDBRANCH  15  16
ENDBRANCH  14  15
ENDBRANCH  13  14
ENDBRANCH  12  13
ENDBRANCH  11  12
ENDBRANCH  10  11
ENDBRANCH   1  10
TORSDOF 13
ENDMDL
MODEL 5
REMARK VINA RESULT:    -5.057      2.779      4.595
REMARK INTER + INTRA:         -10.991
REMARK INTER:                  -9.207
REMARK INTRA:                  -1.784
REMARK UNBOUND:                -2.091
REMARK SMILES CCCCCCCCCCCCCCC(=O)[O-]
REMARK SMILES IDX 9 1 10 2 11 3 12 4 13 5 14 6 15 7 16 8 17 9 8 10 7 11 6 12
REMARK SMILES IDX 5 13 4 14 3 15 2 16 1 17
REMARK H PARENT
REMARK Flexibility Score: inf
ROOT
ATOM      1  C   UNL     1       7.755   8.520 -12.482  1.00  0.00     0.000 C 
ENDROOT
BRANCH   1   2
ATOM      2  C   UNL     1       8.236   7.138 -12.956  1.00  0.00     0.000 C 
BRANCH   2   3
ATOM      3  C   UNL     1       8.681   6.236 -11.793  1.00  0.00     0.000 C 
BRANCH   3   4
ATOM      4  C   UNL     1      10.128   5.740 -11.947  1.00  0.00     0.000 C 
BRANCH   4   5
ATOM      5  C   UNL     1      11.062   6.456 -10.963  1.00  0.00     0.006 C 
BRANCH   5   6
ATOM      6  C   UNL     1      12.524   6.082 -11.223  1.00  0.00     0.053 C 
BRANCH   6   7
ATOM      7  C   UNL     1      13.361   6.363 -10.015  1.00  0.00     0.041 C 
ATOM      8  O   UNL     1      14.338   7.155 -10.091  1.00  0.00    -0.550 OA
ATOM      9  O   UNL     1      13.040   5.780  -8.794  1.00  0.00    -0.550 OA
ENDBRANCH   6   7
ENDBRANCH   5   6
ENDBRANCH   4   5
ENDBRANCH   3   4
ENDBRANCH   2   3
ENDBRANCH   1   2
BRANCH   1  10
ATOM     10  C   UNL     1       8.696   9.656 -12.917  1.00  0.00     0.000 C 
BRANCH  10  11
ATOM     11  C   UNL     1       9.710   9.207 -13.983  1.00  0.00    -0.000 C 
BRANCH  11  12
ATOM     12  C   UNL     1      11.167   9.277 -13.488  1.00  0.00    -0.000 C 
BRANCH  12  13
ATOM     13  C   UNL     1      12.140   8.289 -14.165  1.00  0.00    -0.000 C 
BRANCH  13  14
ATOM     14  C   UNL     1      11.627   7.658 -15.471  1.00  0.00    -0.000 C 
BRANCH  14  15
ATOM     15  C   UNL     1      12.197   8.336 -16.725  1.00  0.00    -0.000 C 
BRANCH  15  16
ATOM     16  C   UNL     1      11.097   9.076 -17.495  1.00  0.00    -0.003 C 
ATOM     17  C   UNL     1       9.775   8.317 -17.437  1.00  0.00     0.004 C 
ENDBRANCH  15  16
ENDBRANCH  14  15
ENDBRANCH  13  14
ENDBRANCH  12  13
ENDBRANCH  11  12
ENDBRANCH  10  11
ENDBRANCH   1  10
TORSDOF 13
ENDMDL
MODEL 6
REMARK VINA RESULT:    -5.046      1.266      4.477
REMARK INTER + INTRA:         -10.972
REMARK INTER:                  -9.095
REMARK INTRA:                  -1.877
REMARK UNBOUND:                -2.091
REMARK SMILES CCCCCCCCCCCCCCC(=O)[O-]
REMARK SMILES IDX 9 1 10 2 11 3 12 4 13 5 14 6 15 7 16 8 17 9 8 10 7 11 6 12
REMARK SMILES IDX 5 13 4 14 3 15 2 16 1 17
REMARK H PARENT
REMARK Flexibility Score: inf
ROOT
ATOM      1  C   UNL     1      12.472   6.356 -15.802  1.00  0.00     0.000 C 
ENDROOT
BRANCH   1   2
ATOM      2  C   UNL     1      11.654   7.530 -15.235  1.00  0.00     0.000 C 
BRANCH   2   3
ATOM      3  C   UNL     1      10.808   8.234 -16.309  1.00  0.00     0.000 C 
BRANCH   3   4
ATOM      4  C   UNL     1       9.466   7.529 -16.562  1.00  0.00     0.000 C 
BRANCH   4   5
ATOM      5  C   UNL     1       8.843   7.045 -15.247  1.00  0.00     0.006 C 
BRANCH   5   6
ATOM      6  C   UNL     1       7.811   8.049 -14.727  1.00  0.00     0.053 C 
BRANCH   6   7
ATOM      7  C   UNL     1       8.219   8.577 -13.388  1.00  0.00     0.041 C 
ATOM      8  O   UNL     1       7.581   8.245 -12.354  1.00  0.00    -0.550 OA
ATOM      9  O   UNL     1       9.330   9.407 -13.275  1.00  0.00    -0.550 OA
ENDBRANCH   6   7
ENDBRANCH   5   6
ENDBRANCH   4   5
ENDBRANCH   3   4
ENDBRANCH   2   3
ENDBRANCH   1   2
BRANCH   1  10
ATOM     10  C   UNL     1      12.100   5.010 -15.159  1.00  0.00     0.000 C 
BRANCH  10  11
ATOM     11  C   UNL     1      12.135   5.059 -13.623  1.00  0.00    -0.000 C 
BRANCH  11  12
ATOM     12  C   UNL     1      10.832   4.549 -12.979  1.00  0.00    -0.000 C 
BRANCH  12  13
ATOM     13  C   UNL     1      10.039   5.602 -12.176  1.00  0.00    -0.000 C 
BRANCH  13  14
ATOM     14  C   UNL     1      10.892   6.525 -11.287  1.00  0.00    -0.000 C 
BRANCH  14  15
ATOM     15  C   UNL     1      10.867   6.117  -9.808  1.00  0.00    -0.000 C 
BRANCH  15  16
ATOM     16  C   UNL     1      12.284   6.095  -9.222  1.00  0.00    -0.003 C 
ATOM     17  C   UNL     1      13.336   6.263 -10.314  1.00  0.00     0.004 C 
ENDBRANCH  15  16
ENDBRANCH  14  15
ENDBRANCH  13  14
ENDBRANCH  12  13
ENDBRANCH  11  12
ENDBRANCH  10  11
ENDBRANCH   1  10
TORSDOF 13
ENDMDL
MODEL 7
REMARK VINA RESULT:    -5.030      2.095      5.024
REMARK INTER + INTRA:         -10.944
REMARK INTER:                  -9.001
REMARK INTRA:                  -1.942
REMARK UNBOUND:                -2.091
REMARK SMILES CCCCCCCCCCCCCCC(=O)[O-]
REMARK SMILES IDX 9 1 10 2 11 3 12 4 13 5 14 6 15 7 16 8 17 9 8 10 7 11 6 12
REMARK SMILES IDX 5 13 4 14 3 15 2 16 1 17
REMARK H PARENT
REMARK Flexibility Score: inf
ROOT
ATOM      1  C   UNL     1      11.846   8.584 -17.004  1.00  0.00     0.000 C 
ENDROOT
BRANCH   1   2
ATOM      2  C   UNL     1      13.230   8.158 -16.483  1.00  0.00     0.000 C 
BRANCH   2   3
ATOM      3  C   UNL     1      13.308   8.156 -14.947  1.00  0.00     0.000 C 
BRANCH   3   4
ATOM      4  C   UNL     1      14.483   8.990 -14.412  1.00  0.00     0.000 C 
BRANCH   4   5
ATOM      5  C   UNL     1      14.079   9.757 -13.146  1.00  0.00     0.006 C 
BRANCH   5   6
ATOM      6  C   UNL     1      12.680   9.346 -12.679  1.00  0.00     0.053 C 
BRANCH   6   7
ATOM      7  C   UNL     1      11.865  10.553 -12.337  1.00  0.00     0.041 C 
ATOM      8  O   UNL     1      10.744  10.736 -12.883  1.00  0.00    -0.550 OA
ATOM      9  O   UNL     1      12.324  11.458 -11.386  1.00  0.00    -0.550 OA
ENDBRANCH   6   7
ENDBRANCH   5   6
ENDBRANCH   4   5
ENDBRANCH   3   4
ENDBRANCH   2   3
ENDBRANCH   1   2
BRANCH   1  10
ATOM     10  C   UNL     1      10.783   8.624 -15.893  1.00  0.00     0.000 C 
BRANCH  10  11
ATOM     11  C   UNL     1       9.738   7.504 -16.035  1.00  0.00    -0.000 C 
BRANCH  11  12
ATOM     12  C   UNL     1      10.101   6.243 -15.229  1.00  0.00    -0.000 C 
BRANCH  12  13
ATOM     13  C   UNL     1      10.207   6.445 -13.703  1.00  0.00    -0.000 C 
BRANCH  13  14
ATOM     14  C   UNL     1      10.878   5.291 -12.936  1.00  0.00    -0.000 C 
BRANCH  14  15
ATOM     15  C   UNL     1      12.307   5.007 -13.418  1.00  0.00    -0.000 C 
BRANCH  15  16
ATOM     16  C   UNL     1      13.339   5.524 -12.408  1.00  0.00    -0.003 C 
ATOM     17  C   UNL     1      12.672   5.942 -11.101  1.00  0.00     0.004 C 
ENDBRANCH  15  16
ENDBRANCH  14  15
ENDBRANCH  13  14
ENDBRANCH  12  13
ENDBRANCH  11  12
ENDBRANCH  10  11
ENDBRANCH   1  10
TORSDOF 13
ENDMDL
MODEL 8
REMARK VINA RESULT:    -5.009      2.333      4.156
REMARK INTER + INTRA:         -10.907
REMARK INTER:                  -8.665
REMARK INTRA:                  -2.241
REMARK UNBOUND:                -2.091
REMARK SMILES CCCCCCCCCCCCCCC(=O)[O-]
REMARK SMILES IDX 9 1 10 2 11 3 12 4 13 5 14 6 15 7 16 8 17 9 8 10 7 11 6 12
REMARK SMILES IDX 5 13 4 14 3 15 2 16 1 17
REMARK H PARENT
REMARK Flexibility Score: inf
ROOT
ATOM      1  C   UNL     1      10.532   5.798 -11.232  1.00  0.00     0.000 C 
ENDROOT
BRANCH   1   2
ATOM      2  C   UNL     1       9.702   6.799 -12.055  1.00  0.00     0.000 C 
BRANCH   2   3
ATOM      3  C   UNL     1      10.119   6.837 -13.534  1.00  0.00     0.000 C 
BRANCH   3   4
ATOM      4  C   UNL     1      11.230   5.828 -13.863  1.00  0.00     0.000 C 
BRANCH   4   5
ATOM      5  C   UNL     1      12.048   6.288 -15.076  1.00  0.00     0.006 C 
BRANCH   5   6
ATOM      6  C   UNL     1      11.356   7.449 -15.796  1.00  0.00     0.053 C 
BRANCH   6   7
ATOM      7  C   UNL     1      12.351   8.259 -16.565  1.00  0.00     0.041 C 
ATOM      8  O   UNL     1      11.968   9.015 -17.498  1.00  0.00    -0.550 OA
ATOM      9  O   UNL     1      13.699   8.210 -16.228  1.00  0.00    -0.550 OA
ENDBRANCH   6   7
ENDBRANCH   5   6
ENDBRANCH   4   5
ENDBRANCH   3   4
ENDBRANCH   2   3
ENDBRANCH   1   2
BRANCH   1  10
ATOM     10  C   UNL     1      10.879   6.328  -9.831  1.00  0.00     0.000 C 
BRANCH  10  11
ATOM     11  C   UNL     1      12.375   6.193  -9.501  1.00  0.00    -0.000 C 
BRANCH  11  12
ATOM     12  C   UNL     1      13.270   6.253 -10.753  1.00  0.00    -0.000 C 
BRANCH  12  13
ATOM     13  C   UNL     1      13.903   7.630 -11.045  1.00  0.00    -0.000 C 
BRANCH  13  14
ATOM     14  C   UNL     1      14.086   7.961 -12.537  1.00  0.00    -0.000 C 
BRANCH  14  15
ATOM     15  C   UNL     1      13.737   9.418 -12.871  1.00  0.00    -0.000 C 
BRANCH  15  16
ATOM     16  C   UNL     1      12.218   9.629 -12.884  1.00  0.00    -0.003 C 
ATOM     17  C   UNL     1      11.783  10.574 -11.768  1.00  0.00     0.004 C 
ENDBRANCH  15  16
ENDBRANCH  14  15
ENDBRANCH  13  14
ENDBRANCH  12  13
ENDBRANCH  11  12
ENDBRANCH  10  11
ENDBRANCH   1  10
TORSDOF 13
ENDMDL
MODEL 9
REMARK VINA RESULT:    -4.981      2.678      5.408
REMARK INTER + INTRA:         -10.857
REMARK INTER:                  -8.655
REMARK INTRA:                  -2.202
REMARK UNBOUND:                -2.091
REMARK SMILES CCCCCCCCCCCCCCC(=O)[O-]
REMARK SMILES IDX 9 1 10 2 11 3 12 4 13 5 14 6 15 7 16 8 17 9 8 10 7 11 6 12
REMARK SMILES IDX 5 13 4 14 3 15 2 16 1 17
REMARK H PARENT
REMARK Flexibility Score: inf
ROOT
ATOM      1  C   UNL     1       9.813   7.217 -16.108  1.00  0.00     0.000 C 
ENDROOT
BRANCH   1   2
ATOM      2  C   UNL     1      10.947   8.135 -15.620  1.00  0.00     0.000 C 
BRANCH   2   3
ATOM      3  C   UNL     1      12.104   8.233 -16.628  1.00  0.00     0.000 C 
BRANCH   3   4
ATOM      4  C   UNL     1      13.483   8.245 -15.950  1.00  0.00     0.000 C 
BRANCH   4   5
ATOM      5  C   UNL     1      13.345   8.401 -14.430  1.00  0.00     0.006 C 
BRANCH   5   6
ATOM      6  C   UNL     1      14.375   9.395 -13.885  1.00  0.00     0.053 C 
BRANCH   6   7
ATOM      7  C   UNL     1      14.349   9.412 -12.389  1.00  0.00     0.041 C 
ATOM      8  O   UNL     1      14.180  10.496 -11.770  1.00  0.00    -0.550 OA
ATOM      9  O   UNL     1      14.473   8.224 -11.677  1.00  0.00    -0.550 OA
ENDBRANCH   6   7
ENDBRANCH   5   6
ENDBRANCH   4   5
ENDBRANCH   3   4
ENDBRANCH   2   3
ENDBRANCH   1   2
BRANCH   1  10
ATOM     10  C   UNL     1       8.664   7.105 -15.093  1.00  0.00     0.000 C 
BRANCH  10  11
ATOM     11  C   UNL     1       8.950   7.870 -13.789  1.00  0.00    -0.000 C 
BRANCH  11  12
ATOM     12  C   UNL     1       8.578   7.063 -12.530  1.00  0.00    -0.000 C 
BRANCH  12  13
ATOM     13  C   UNL     1       9.617   6.009 -12.094  1.00  0.00    -0.000 C 
BRANCH  13  14
ATOM     14  C   UNL     1      11.087   6.430 -12.265  1.00  0.00    -0.000 C 
BRANCH  14  15
ATOM     15  C   UNL     1      11.974   5.296 -12.799  1.00  0.00    -0.000 C 
BRANCH  15  16
ATOM     16  C   UNL     1      11.290   4.567 -13.962  1.00  0.00    -0.003 C 
ATOM     17  C   UNL     1      12.154   4.599 -15.219  1.00  0.00     0.004 C 
ENDBRANCH  15  16
ENDBRANCH  14  15
ENDBRANCH  13  14
ENDBRANCH  12  13
ENDBRANCH  11  12
ENDBRANCH  10  11
ENDBRANCH   1  10
TORSDOF 13
ENDMDL
