MODEL 1
REMARK VINA RESULT:    -6.617      0.000      0.000
REMARK INTER + INTRA:          -8.360
REMARK INTER:                  -7.970
REMARK INTRA:                  -0.390
REMARK UNBOUND:                -0.390
REMARK SMILES O=c1c(O)c(-c2ccc(O)cc2O)oc2cc(O)cc(O)c12
REMARK SMILES IDX 5 1 3 2 2 3 1 4 22 5 20 6 19 7 17 8 16 9 15 10 14 11 6 12
REMARK SMILES IDX 8 13 7 14 9 15 11 16 12 17 10 18 13 20 4 22 21 24 18 26
REMARK H PARENT 10 19 13 21 4 23 21 25 18 27
REMARK Flexibility Score: inf
ROOT
ATOM      1  C   UNL     1      87.043  73.190  19.099  1.00  0.00     0.184 A 
ATOM      2  C   UNL     1      87.059  72.095  18.220  1.00  0.00     0.208 A 
ATOM      3  C   UNL     1      87.716  72.224  16.986  1.00  0.00     0.238 A 
ATOM      4  O   UNL     1      87.680  71.258  16.180  1.00  0.00    -0.285 OA
ATOM      5  C   UNL     1      88.360  73.440  16.655  1.00  0.00     0.111 A 
ATOM      6  C   UNL     1      89.090  73.668  15.450  1.00  0.00     0.134 A 
ATOM      7  C   UNL     1      89.576  74.951  15.170  1.00  0.00     0.093 A 
ATOM      8  C   UNL     1      89.417  75.997  16.078  1.00  0.00     0.123 A 
ATOM      9  C   UNL     1      88.758  75.770  17.287  1.00  0.00     0.094 A 
ATOM     10  C   UNL     1      88.229  74.510  17.579  1.00  0.00     0.146 A 
ATOM     11  O   UNL     1      87.599  74.339  18.735  1.00  0.00    -0.451 OA
ENDROOT
BRANCH   1  12
ATOM     12  C   UNL     1      86.384  73.116  20.420  1.00  0.00     0.063 A 
ATOM     13  C   UNL     1      84.329  72.962  21.710  1.00  0.00     0.047 A 
ATOM     14  C   UNL     1      84.984  73.027  20.478  1.00  0.00     0.020 A 
ATOM     15  C   UNL     1      85.066  72.999  22.901  1.00  0.00     0.119 A 
ATOM     16  C   UNL     1      86.458  73.111  22.853  1.00  0.00     0.093 A 
ATOM     17  C   UNL     1      87.123  73.184  21.620  1.00  0.00     0.130 A 
BRANCH  15  18
ATOM     18  O   UNL     1      84.424  72.931  24.135  1.00  0.00    -0.508 OA
ATOM     19  H   UNL     1      84.673  72.229  24.824  1.00  0.00     0.293 HD
ENDBRANCH  15  18
BRANCH  17  20
ATOM     20  O   UNL     1      88.508  73.344  21.586  1.00  0.00    -0.507 OA
ATOM     21  H   UNL     1      89.133  72.550  21.517  1.00  0.00     0.293 HD
ENDBRANCH  17  20
ENDBRANCH   1  12
BRANCH   2  22
ATOM     22  O   UNL     1      86.399  70.913  18.565  1.00  0.00    -0.502 OA
ATOM     23  H   UNL     1      85.630  70.542  18.021  1.00  0.00     0.293 HD
ENDBRANCH   2  22
BRANCH   6  24
ATOM     24  O   UNL     1      89.385  72.672  14.515  1.00  0.00    -0.507 OA
ATOM     25  H   UNL     1      90.306  72.483  14.149  1.00  0.00     0.293 HD
ENDBRANCH   6  24
BRANCH   8  26
ATOM     26  O   UNL     1      89.929  77.256  15.773  1.00  0.00    -0.508 OA
ATOM     27  H   UNL     1      89.385  77.939  15.258  1.00  0.00     0.293 HD
ENDBRANCH   8  26
TORSDOF 6
ENDMDL
MODEL 2
REMARK VINA RESULT:    -6.524      0.700      1.456
REMARK INTER + INTRA:          -8.249
REMARK INTER:                  -7.911
REMARK INTRA:                  -0.338
REMARK UNBOUND:                -0.390
REMARK SMILES O=c1c(O)c(-c2ccc(O)cc2O)oc2cc(O)cc(O)c12
REMARK SMILES IDX 5 1 3 2 2 3 1 4 22 5 20 6 19 7 17 8 16 9 15 10 14 11 6 12
REMARK SMILES IDX 8 13 7 14 9 15 11 16 12 17 10 18 13 20 4 22 21 24 18 26
REMARK H PARENT 10 19 13 21 4 23 21 25 18 27
REMARK Flexibility Score: inf
ROOT
ATOM      1  C   UNL     1      87.108  73.253  19.142  1.00  0.00     0.184 A 
ATOM      2  C   UNL     1      87.138  72.143  18.283  1.00  0.00     0.208 A 
ATOM      3  C   UNL     1      87.774  72.264  17.037  1.00  0.00     0.238 A 
ATOM      4  O   UNL     1      87.750  71.282  16.250  1.00  0.00    -0.285 OA
ATOM      5  C   UNL     1      88.385  73.488  16.675  1.00  0.00     0.111 A 
ATOM      6  C   UNL     1      89.092  73.710  15.455  1.00  0.00     0.134 A 
ATOM      7  C   UNL     1      89.544  74.999  15.144  1.00  0.00     0.093 A 
ATOM      8  C   UNL     1      89.374  76.057  16.035  1.00  0.00     0.123 A 
ATOM      9  C   UNL     1      88.736  75.838  17.258  1.00  0.00     0.094 A 
ATOM     10  C   UNL     1      88.242  74.572  17.581  1.00  0.00     0.146 A 
ATOM     11  O   UNL     1      87.632  74.408  18.748  1.00  0.00    -0.451 OA
ENDROOT
BRANCH   1  12
ATOM     12  C   UNL     1      86.470  73.189  20.474  1.00  0.00     0.063 A 
ATOM     13  C   UNL     1      86.712  73.081  22.890  1.00  0.00     0.047 A 
ATOM     14  C   UNL     1      87.283  73.148  21.617  1.00  0.00     0.020 A 
ATOM     15  C   UNL     1      85.320  73.041  23.035  1.00  0.00     0.119 A 
ATOM     16  C   UNL     1      84.503  73.059  21.901  1.00  0.00     0.093 A 
ATOM     17  C   UNL     1      85.068  73.119  20.619  1.00  0.00     0.130 A 
BRANCH  15  18
ATOM     18  O   UNL     1      84.739  72.979  24.300  1.00  0.00    -0.508 OA
ATOM     19  H   UNL     1      83.755  73.177  24.442  1.00  0.00     0.293 HD
ENDBRANCH  15  18
BRANCH  17  20
ATOM     20  O   UNL     1      84.244  73.087  19.494  1.00  0.00    -0.507 OA
ATOM     21  H   UNL     1      84.616  73.211  18.559  1.00  0.00     0.293 HD
ENDBRANCH  17  20
ENDBRANCH   1  12
BRANCH   2  22
ATOM     22  O   UNL     1      86.511  70.953  18.660  1.00  0.00    -0.502 OA
ATOM     23  H   UNL     1      87.031  70.112  18.883  1.00  0.00     0.293 HD
ENDBRANCH   2  22
BRANCH   6  24
ATOM     24  O   UNL     1      89.397  72.704  14.535  1.00  0.00    -0.507 OA
ATOM     25  H   UNL     1      89.934  72.840  13.691  1.00  0.00     0.293 HD
ENDBRANCH   6  24
BRANCH   8  26
ATOM     26  O   UNL     1      89.851  77.322  15.700  1.00  0.00    -0.508 OA
ATOM     27  H   UNL     1      90.541  77.452  14.970  1.00  0.00     0.293 HD
ENDBRANCH   8  26
TORSDOF 6
ENDMDL
MODEL 3
REMARK VINA RESULT:    -6.256      1.670      6.593
REMARK INTER + INTRA:          -7.926
REMARK INTER:                  -7.618
REMARK INTRA:                  -0.308
REMARK UNBOUND:                -0.390
REMARK SMILES O=c1c(O)c(-c2ccc(O)cc2O)oc2cc(O)cc(O)c12
REMARK SMILES IDX 5 1 3 2 2 3 1 4 22 5 20 6 19 7 17 8 16 9 15 10 14 11 6 12
REMARK SMILES IDX 8 13 7 14 9 15 11 16 12 17 10 18 13 20 4 22 21 24 18 26
REMARK H PARENT 10 19 13 21 4 23 21 25 18 27
REMARK Flexibility Score: inf
ROOT
ATOM      1  C   UNL     1      87.046  73.809  18.530  1.00  0.00     0.184 A 
ATOM      2  C   UNL     1      85.957  72.948  18.320  1.00  0.00     0.208 A 
ATOM      3  C   UNL     1      85.310  72.386  19.432  1.00  0.00     0.238 A 
ATOM      4  O   UNL     1      84.370  71.573  19.236  1.00  0.00    -0.285 OA
ATOM      5  C   UNL     1      85.752  72.705  20.739  1.00  0.00     0.111 A 
ATOM      6  C   UNL     1      85.145  72.226  21.938  1.00  0.00     0.134 A 
ATOM      7  C   UNL     1      85.745  72.503  23.173  1.00  0.00     0.093 A 
ATOM      8  C   UNL     1      86.889  73.294  23.258  1.00  0.00     0.123 A 
ATOM      9  C   UNL     1      87.456  73.818  22.095  1.00  0.00     0.094 A 
ATOM     10  C   UNL     1      86.903  73.530  20.846  1.00  0.00     0.146 A 
ATOM     11  O   UNL     1      87.479  74.039  19.763  1.00  0.00    -0.451 OA
ENDROOT
BRANCH   1  12
ATOM     12  C   UNL     1      87.761  74.447  17.404  1.00  0.00     0.063 A 
ATOM     13  C   UNL     1      89.799  74.672  16.098  1.00  0.00     0.047 A 
ATOM     14  C   UNL     1      89.093  74.084  17.151  1.00  0.00     0.020 A 
ATOM     15  C   UNL     1      89.185  75.641  15.295  1.00  0.00     0.119 A 
ATOM     16  C   UNL     1      87.867  76.024  15.554  1.00  0.00     0.093 A 
ATOM     17  C   UNL     1      87.153  75.444  16.612  1.00  0.00     0.130 A 
BRANCH  15  18
ATOM     18  O   UNL     1      89.879  76.231  14.240  1.00  0.00    -0.508 OA
ATOM     19  H   UNL     1      90.748  76.730  14.390  1.00  0.00     0.293 HD
ENDBRANCH  15  18
BRANCH  17  20
ATOM     20  O   UNL     1      85.854  75.871  16.891  1.00  0.00    -0.507 OA
ATOM     21  H   UNL     1      85.674  76.669  17.488  1.00  0.00     0.293 HD
ENDBRANCH  17  20
ENDBRANCH   1  12
BRANCH   2  22
ATOM     22  O   UNL     1      85.554  72.636  17.019  1.00  0.00    -0.502 OA
ATOM     23  H   UNL     1      86.111  72.055  16.403  1.00  0.00     0.293 HD
ENDBRANCH   2  22
BRANCH   6  24
ATOM     24  O   UNL     1      83.950  71.503  21.974  1.00  0.00    -0.507 OA
ATOM     25  H   UNL     1      83.380  71.375  22.797  1.00  0.00     0.293 HD
ENDBRANCH   6  24
BRANCH   8  26
ATOM     26  O   UNL     1      87.449  73.562  24.505  1.00  0.00    -0.508 OA
ATOM     27  H   UNL     1      88.222  74.210  24.611  1.00  0.00     0.293 HD
ENDBRANCH   8  26
TORSDOF 6
ENDMDL
MODEL 4
REMARK VINA RESULT:    -6.069      1.890      6.528
REMARK INTER + INTRA:          -7.701
REMARK INTER:                  -7.276
REMARK INTRA:                  -0.425
REMARK UNBOUND:                -0.390
REMARK SMILES O=c1c(O)c(-c2ccc(O)cc2O)oc2cc(O)cc(O)c12
REMARK SMILES IDX 5 1 3 2 2 3 1 4 22 5 20 6 19 7 17 8 16 9 15 10 14 11 6 12
REMARK SMILES IDX 8 13 7 14 9 15 11 16 12 17 10 18 13 20 4 22 21 24 18 26
REMARK H PARENT 10 19 13 21 4 23 21 25 18 27
REMARK Flexibility Score: inf
ROOT
ATOM      1  C   UNL     1      87.155  74.099  17.068  1.00  0.00     0.184 A 
ATOM      2  C   UNL     1      87.745  72.841  17.265  1.00  0.00     0.208 A 
ATOM      3  C   UNL     1      87.416  72.109  18.417  1.00  0.00     0.238 A 
ATOM      4  O   UNL     1      87.989  71.006  18.614  1.00  0.00    -0.285 OA
ATOM      5  C   UNL     1      86.491  72.638  19.347  1.00  0.00     0.111 A 
ATOM      6  C   UNL     1      86.054  71.966  20.528  1.00  0.00     0.134 A 
ATOM      7  C   UNL     1      85.234  72.639  21.442  1.00  0.00     0.093 A 
ATOM      8  C   UNL     1      84.783  73.933  21.190  1.00  0.00     0.123 A 
ATOM      9  C   UNL     1      85.155  74.578  20.009  1.00  0.00     0.094 A 
ATOM     10  C   UNL     1      86.001  73.947  19.094  1.00  0.00     0.146 A 
ATOM     11  O   UNL     1      86.341  74.600  17.989  1.00  0.00    -0.451 OA
ENDROOT
BRANCH   1  12
ATOM     12  C   UNL     1      87.445  74.915  15.869  1.00  0.00     0.063 A 
ATOM     13  C   UNL     1      87.086  75.325  13.500  1.00  0.00     0.047 A 
ATOM     14  C   UNL     1      86.830  74.579  14.653  1.00  0.00     0.020 A 
ATOM     15  C   UNL     1      87.973  76.408  13.547  1.00  0.00     0.119 A 
ATOM     16  C   UNL     1      88.607  76.736  14.748  1.00  0.00     0.093 A 
ATOM     17  C   UNL     1      88.360  75.987  15.909  1.00  0.00     0.130 A 
BRANCH  15  18
ATOM     18  O   UNL     1      88.233  77.162  12.404  1.00  0.00    -0.508 OA
ATOM     19  H   UNL     1      88.415  78.158  12.456  1.00  0.00     0.293 HD
ENDBRANCH  15  18
BRANCH  17  20
ATOM     20  O   UNL     1      89.037  76.294  17.090  1.00  0.00    -0.507 OA
ATOM     21  H   UNL     1      89.772  75.697  17.451  1.00  0.00     0.293 HD
ENDBRANCH  17  20
ENDBRANCH   1  12
BRANCH   2  22
ATOM     22  O   UNL     1      88.669  72.350  16.338  1.00  0.00    -0.502 OA
ATOM     23  H   UNL     1      88.656  72.622  15.363  1.00  0.00     0.293 HD
ENDBRANCH   2  22
BRANCH   6  24
ATOM     24  O   UNL     1      86.371  70.640  20.833  1.00  0.00    -0.507 OA
ATOM     25  H   UNL     1      85.893  69.833  20.460  1.00  0.00     0.293 HD
ENDBRANCH   6  24
BRANCH   8  26
ATOM     26  O   UNL     1      83.955  74.566  22.114  1.00  0.00    -0.508 OA
ATOM     27  H   UNL     1      83.656  75.526  21.988  1.00  0.00     0.293 HD
ENDBRANCH   8  26
TORSDOF 6
ENDMDL
MODEL 5
REMARK VINA RESULT:    -5.907      1.924      2.243
REMARK INTER + INTRA:          -7.505
REMARK INTER:                  -7.086
REMARK INTRA:                  -0.419
REMARK UNBOUND:                -0.390
REMARK SMILES O=c1c(O)c(-c2ccc(O)cc2O)oc2cc(O)cc(O)c12
REMARK SMILES IDX 5 1 3 2 2 3 1 4 22 5 20 6 19 7 17 8 16 9 15 10 14 11 6 12
REMARK SMILES IDX 8 13 7 14 9 15 11 16 12 17 10 18 13 20 4 22 21 24 18 26
REMARK H PARENT 10 19 13 21 4 23 21 25 18 27
REMARK Flexibility Score: inf
ROOT
ATOM      1  C   UNL     1      86.778  73.543  17.935  1.00  0.00     0.184 A 
ATOM      2  C   UNL     1      86.099  73.246  16.743  1.00  0.00     0.208 A 
ATOM      3  C   UNL     1      86.481  73.902  15.562  1.00  0.00     0.238 A 
ATOM      4  O   UNL     1      85.833  73.670  14.508  1.00  0.00    -0.285 OA
ATOM      5  C   UNL     1      87.545  74.835  15.587  1.00  0.00     0.111 A 
ATOM      6  C   UNL     1      88.041  75.528  14.442  1.00  0.00     0.134 A 
ATOM      7  C   UNL     1      89.012  76.525  14.606  1.00  0.00     0.093 A 
ATOM      8  C   UNL     1      89.550  76.808  15.860  1.00  0.00     0.123 A 
ATOM      9  C   UNL     1      89.115  76.093  16.978  1.00  0.00     0.094 A 
ATOM     10  C   UNL     1      88.122  75.119  16.853  1.00  0.00     0.146 A 
ATOM     11  O   UNL     1      87.728  74.471  17.942  1.00  0.00    -0.451 OA
ENDROOT
BRANCH   1  12
ATOM     12  C   UNL     1      86.438  72.877  19.210  1.00  0.00     0.063 A 
ATOM     13  C   UNL     1      86.465  70.864  20.573  1.00  0.00     0.047 A 
ATOM     14  C   UNL     1      86.777  71.526  19.383  1.00  0.00     0.020 A 
ATOM     15  C   UNL     1      85.798  71.543  21.601  1.00  0.00     0.119 A 
ATOM     16  C   UNL     1      85.436  72.882  21.428  1.00  0.00     0.093 A 
ATOM     17  C   UNL     1      85.739  73.552  20.234  1.00  0.00     0.130 A 
BRANCH  15  18
ATOM     18  O   UNL     1      85.485  70.894  22.794  1.00  0.00    -0.508 OA
ATOM     19  H   UNL     1      84.766  70.181  22.837  1.00  0.00     0.293 HD
ENDBRANCH  15  18
BRANCH  17  20
ATOM     20  O   UNL     1      85.330  74.873  20.055  1.00  0.00    -0.507 OA
ATOM     21  H   UNL     1      85.133  75.479  20.843  1.00  0.00     0.293 HD
ENDBRANCH  17  20
ENDBRANCH   1  12
BRANCH   2  22
ATOM     22  O   UNL     1      85.041  72.333  16.751  1.00  0.00    -0.502 OA
ATOM     23  H   UNL     1      84.880  71.696  17.521  1.00  0.00     0.293 HD
ENDBRANCH   2  22
BRANCH   6  24
ATOM     24  O   UNL     1      87.638  75.260  13.131  1.00  0.00    -0.507 OA
ATOM     25  H   UNL     1      87.704  75.914  12.365  1.00  0.00     0.293 HD
ENDBRANCH   6  24
BRANCH   8  26
ATOM     26  O   UNL     1      90.526  77.794  15.983  1.00  0.00    -0.508 OA
ATOM     27  H   UNL     1      91.481  77.636  15.684  1.00  0.00     0.293 HD
ENDBRANCH   8  26
TORSDOF 6
ENDMDL
MODEL 6
REMARK VINA RESULT:    -5.827      2.981      5.878
REMARK INTER + INTRA:          -7.409
REMARK INTER:                  -7.004
REMARK INTRA:                  -0.405
REMARK UNBOUND:                -0.390
REMARK SMILES O=c1c(O)c(-c2ccc(O)cc2O)oc2cc(O)cc(O)c12
REMARK SMILES IDX 5 1 3 2 2 3 1 4 22 5 20 6 19 7 17 8 16 9 15 10 14 11 6 12
REMARK SMILES IDX 8 13 7 14 9 15 11 16 12 17 10 18 13 20 4 22 21 24 18 26
REMARK H PARENT 10 19 13 21 4 23 21 25 18 27
REMARK Flexibility Score: inf
ROOT
ATOM      1  C   UNL     1      87.401  70.798  16.323  1.00  0.00     0.184 A 
ATOM      2  C   UNL     1      87.007  71.166  17.619  1.00  0.00     0.208 A 
ATOM      3  C   UNL     1      87.325  72.451  18.087  1.00  0.00     0.238 A 
ATOM      4  O   UNL     1      87.016  72.756  19.269  1.00  0.00    -0.285 OA
ATOM      5  C   UNL     1      88.019  73.354  17.247  1.00  0.00     0.111 A 
ATOM      6  C   UNL     1      88.357  74.695  17.603  1.00  0.00     0.134 A 
ATOM      7  C   UNL     1      89.158  75.456  16.742  1.00  0.00     0.093 A 
ATOM      8  C   UNL     1      89.577  74.951  15.513  1.00  0.00     0.123 A 
ATOM      9  C   UNL     1      89.201  73.663  15.128  1.00  0.00     0.094 A 
ATOM     10  C   UNL     1      88.434  72.866  15.980  1.00  0.00     0.146 A 
ATOM     11  O   UNL     1      88.108  71.642  15.582  1.00  0.00    -0.451 OA
ENDROOT
BRANCH   1  12
ATOM     12  C   UNL     1      87.084  69.467  15.763  1.00  0.00     0.063 A 
ATOM     13  C   UNL     1      87.798  67.194  15.278  1.00  0.00     0.047 A 
ATOM     14  C   UNL     1      88.063  68.461  15.803  1.00  0.00     0.020 A 
ATOM     15  C   UNL     1      86.555  66.922  14.692  1.00  0.00     0.119 A 
ATOM     16  C   UNL     1      85.583  67.924  14.627  1.00  0.00     0.093 A 
ATOM     17  C   UNL     1      85.843  69.201  15.147  1.00  0.00     0.130 A 
BRANCH  15  18
ATOM     18  O   UNL     1      86.279  65.661  14.169  1.00  0.00    -0.508 OA
ATOM     19  H   UNL     1      85.339  65.280  14.171  1.00  0.00     0.293 HD
ENDBRANCH  15  18
BRANCH  17  20
ATOM     20  O   UNL     1      84.883  70.206  15.032  1.00  0.00    -0.507 OA
ATOM     21  H   UNL     1      83.982  70.134  15.490  1.00  0.00     0.293 HD
ENDBRANCH  17  20
ENDBRANCH   1  12
BRANCH   2  22
ATOM     22  O   UNL     1      86.339  70.248  18.433  1.00  0.00    -0.502 OA
ATOM     23  H   UNL     1      86.646  69.288  18.534  1.00  0.00     0.293 HD
ENDBRANCH   2  22
BRANCH   6  24
ATOM     24  O   UNL     1      87.914  75.329  18.767  1.00  0.00    -0.507 OA
ATOM     25  H   UNL     1      88.030  76.312  18.965  1.00  0.00     0.293 HD
ENDBRANCH   6  24
BRANCH   8  26
ATOM     26  O   UNL     1      90.359  75.743  14.675  1.00  0.00    -0.508 OA
ATOM     27  H   UNL     1      90.241  76.749  14.633  1.00  0.00     0.293 HD
ENDBRANCH   8  26
TORSDOF 6
ENDMDL
MODEL 7
REMARK VINA RESULT:    -5.736      3.155      7.319
REMARK INTER + INTRA:          -7.300
REMARK INTER:                  -6.998
REMARK INTRA:                  -0.302
REMARK UNBOUND:                -0.390
REMARK SMILES O=c1c(O)c(-c2ccc(O)cc2O)oc2cc(O)cc(O)c12
REMARK SMILES IDX 5 1 3 2 2 3 1 4 22 5 20 6 19 7 17 8 16 9 15 10 14 11 6 12
REMARK SMILES IDX 8 13 7 14 9 15 11 16 12 17 10 18 13 20 4 22 21 24 18 26
REMARK H PARENT 10 19 13 21 4 23 21 25 18 27
REMARK Flexibility Score: inf
ROOT
ATOM      1  C   UNL     1      87.002  75.251  15.330  1.00  0.00     0.184 A 
ATOM      2  C   UNL     1      87.796  75.593  16.436  1.00  0.00     0.208 A 
ATOM      3  C   UNL     1      87.995  74.643  17.450  1.00  0.00     0.238 A 
ATOM      4  O   UNL     1      88.663  74.974  18.464  1.00  0.00    -0.285 OA
ATOM      5  C   UNL     1      87.410  73.359  17.336  1.00  0.00     0.111 A 
ATOM      6  C   UNL     1      87.579  72.305  18.284  1.00  0.00     0.134 A 
ATOM      7  C   UNL     1      86.848  71.119  18.135  1.00  0.00     0.093 A 
ATOM      8  C   UNL     1      86.007  70.923  17.041  1.00  0.00     0.123 A 
ATOM      9  C   UNL     1      85.881  71.924  16.076  1.00  0.00     0.094 A 
ATOM     10  C   UNL     1      86.568  73.132  16.215  1.00  0.00     0.146 A 
ATOM     11  O   UNL     1      86.412  74.062  15.281  1.00  0.00    -0.451 OA
ENDROOT
BRANCH   1  12
ATOM     12  C   UNL     1      86.765  76.198  14.220  1.00  0.00     0.063 A 
ATOM     13  C   UNL     1      87.149  76.818  11.901  1.00  0.00     0.047 A 
ATOM     14  C   UNL     1      87.348  75.940  12.970  1.00  0.00     0.020 A 
ATOM     15  C   UNL     1      86.376  77.973  12.074  1.00  0.00     0.119 A 
ATOM     16  C   UNL     1      85.811  78.249  13.322  1.00  0.00     0.093 A 
ATOM     17  C   UNL     1      86.011  77.376  14.402  1.00  0.00     0.130 A 
BRANCH  15  18
ATOM     18  O   UNL     1      86.168  78.853  11.015  1.00  0.00    -0.508 OA
ATOM     19  H   UNL     1      86.734  79.686  10.899  1.00  0.00     0.293 HD
ENDBRANCH  15  18
BRANCH  17  20
ATOM     20  O   UNL     1      85.482  77.688  15.655  1.00  0.00    -0.507 OA
ATOM     21  H   UNL     1      85.867  77.298  16.506  1.00  0.00     0.293 HD
ENDBRANCH  17  20
ENDBRANCH   1  12
BRANCH   2  22
ATOM     22  O   UNL     1      88.346  76.874  16.531  1.00  0.00    -0.502 OA
ATOM     23  H   UNL     1      88.286  77.547  15.776  1.00  0.00     0.293 HD
ENDBRANCH   2  22
BRANCH   6  24
ATOM     24  O   UNL     1      88.463  72.361  19.365  1.00  0.00    -0.507 OA
ATOM     25  H   UNL     1      88.203  72.614  20.307  1.00  0.00     0.293 HD
ENDBRANCH   6  24
BRANCH   8  26
ATOM     26  O   UNL     1      85.309  69.724  16.916  1.00  0.00    -0.508 OA
ATOM     27  H   UNL     1      84.516  69.509  17.509  1.00  0.00     0.293 HD
ENDBRANCH   8  26
TORSDOF 6
ENDMDL
MODEL 8
REMARK VINA RESULT:    -5.711      3.054      6.288
REMARK INTER + INTRA:          -7.270
REMARK INTER:                  -6.847
REMARK INTRA:                  -0.423
REMARK UNBOUND:                -0.390
REMARK SMILES O=c1c(O)c(-c2ccc(O)cc2O)oc2cc(O)cc(O)c12
REMARK SMILES IDX 5 1 3 2 2 3 1 4 22 5 20 6 19 7 17 8 16 9 15 10 14 11 6 12
REMARK SMILES IDX 8 13 7 14 9 15 11 16 12 17 10 18 13 20 4 22 21 24 18 26
REMARK H PARENT 10 19 13 21 4 23 21 25 18 27
REMARK Flexibility Score: inf
ROOT
ATOM      1  C   UNL     1      87.222  70.654  16.866  1.00  0.00     0.184 A 
ATOM      2  C   UNL     1      87.515  71.775  16.075  1.00  0.00     0.208 A 
ATOM      3  C   UNL     1      87.785  73.000  16.705  1.00  0.00     0.238 A 
ATOM      4  O   UNL     1      87.994  74.014  15.989  1.00  0.00    -0.285 OA
ATOM      5  C   UNL     1      87.773  73.082  18.118  1.00  0.00     0.111 A 
ATOM      6  C   UNL     1      88.072  74.262  18.863  1.00  0.00     0.134 A 
ATOM      7  C   UNL     1      87.903  74.262  20.254  1.00  0.00     0.093 A 
ATOM      8  C   UNL     1      87.510  73.109  20.932  1.00  0.00     0.123 A 
ATOM      9  C   UNL     1      87.274  71.932  20.219  1.00  0.00     0.094 A 
ATOM     10  C   UNL     1      87.398  71.911  18.828  1.00  0.00     0.146 A 
ATOM     11  O   UNL     1      87.153  70.775  18.186  1.00  0.00    -0.451 OA
ENDROOT
BRANCH   1  12
ATOM     12  C   UNL     1      86.944  69.330  16.267  1.00  0.00     0.063 A 
ATOM     13  C   UNL     1      87.786  67.322  15.188  1.00  0.00     0.047 A 
ATOM     14  C   UNL     1      88.014  68.573  15.765  1.00  0.00     0.020 A 
ATOM     15  C   UNL     1      86.482  66.818  15.093  1.00  0.00     0.119 A 
ATOM     16  C   UNL     1      85.409  67.576  15.569  1.00  0.00     0.093 A 
ATOM     17  C   UNL     1      85.628  68.836  16.144  1.00  0.00     0.130 A 
BRANCH  15  18
ATOM     18  O   UNL     1      86.243  65.570  14.522  1.00  0.00    -0.508 OA
ATOM     19  H   UNL     1      86.418  64.712  15.033  1.00  0.00     0.293 HD
ENDBRANCH  15  18
BRANCH  17  20
ATOM     20  O   UNL     1      84.544  69.603  16.571  1.00  0.00    -0.507 OA
ATOM     21  H   UNL     1      84.353  70.517  16.178  1.00  0.00     0.293 HD
ENDBRANCH  17  20
ENDBRANCH   1  12
BRANCH   2  22
ATOM     22  O   UNL     1      87.502  71.669  14.682  1.00  0.00    -0.502 OA
ATOM     23  H   UNL     1      87.178  70.837  14.203  1.00  0.00     0.293 HD
ENDBRANCH   2  22
BRANCH   6  24
ATOM     24  O   UNL     1      88.559  75.442  18.295  1.00  0.00    -0.507 OA
ATOM     25  H   UNL     1      87.984  76.158  17.877  1.00  0.00     0.293 HD
ENDBRANCH   6  24
BRANCH   8  26
ATOM     26  O   UNL     1      87.368  73.141  22.317  1.00  0.00    -0.508 OA
ATOM     27  H   UNL     1      87.487  72.308  22.882  1.00  0.00     0.293 HD
ENDBRANCH   8  26
TORSDOF 6
ENDMDL
