MODEL 1
REMARK VINA RESULT:    -5.171      0.000      0.000
REMARK INTER + INTRA:         -15.603
REMARK INTER:                 -13.031
REMARK INTRA:                  -2.573
REMARK UNBOUND:                -2.573
REMARK SMILES CCCCCCCCCCCCCCCCCCCCCCCCCCCC(=O)[O-]
REMARK SMILES IDX 15 1 16 2 17 3 18 4 19 5 20 6 21 7 22 8 23 9 24 10 25 11
REMARK SMILES IDX 26 12 27 13 28 14 29 15 30 16 14 17 13 18 12 19 11 20 10 21
REMARK SMILES IDX 9 22 8 23 7 24 6 25 5 26 4 27 3 28 2 29 1 30
REMARK H PARENT
REMARK Flexibility Score: inf
ROOT
ATOM      1  C   UNL     1      39.771  56.327  18.379  1.00  0.00     0.000 C 
ENDROOT
BRANCH   1   2
ATOM      2  C   UNL     1      38.558  57.192  17.994  1.00  0.00     0.000 C 
BRANCH   2   3
ATOM      3  C   UNL     1      37.835  56.677  16.740  1.00  0.00     0.000 C 
BRANCH   3   4
ATOM      4  C   UNL     1      36.439  57.301  16.558  1.00  0.00     0.000 C 
BRANCH   4   5
ATOM      5  C   UNL     1      36.293  58.029  15.211  1.00  0.00     0.000 C 
BRANCH   5   6
ATOM      6  C   UNL     1      35.036  57.589  14.439  1.00  0.00     0.000 C 
BRANCH   6   7
ATOM      7  C   UNL     1      34.906  56.060  14.342  1.00  0.00     0.000 C 
BRANCH   7   8
ATOM      8  C   UNL     1      33.483  55.565  14.653  1.00  0.00     0.000 C 
BRANCH   8   9
ATOM      9  C   UNL     1      33.153  55.619  16.161  1.00  0.00     0.000 C 
BRANCH   9  10
ATOM     10  C   UNL     1      32.261  56.809  16.557  1.00  0.00     0.000 C 
BRANCH  10  11
ATOM     11  C   UNL     1      30.945  56.418  17.255  1.00  0.00     0.000 C 
BRANCH  11  12
ATOM     12  C   UNL     1      31.027  55.084  18.033  1.00  0.00     0.006 C 
BRANCH  12  13
ATOM     13  C   UNL     1      29.939  54.086  17.616  1.00  0.00     0.053 C 
BRANCH  13  14
ATOM     14  C   UNL     1      30.354  53.338  16.391  1.00  0.00     0.041 C 
ATOM     15  O   UNL     1      31.022  52.275  16.493  1.00  0.00    -0.550 OA
ATOM     16  O   UNL     1      29.966  53.789  15.135  1.00  0.00    -0.550 OA
ENDBRANCH  13  14
ENDBRANCH  12  13
ENDBRANCH  11  12
ENDBRANCH  10  11
ENDBRANCH   9  10
ENDBRANCH   8   9
ENDBRANCH   7   8
ENDBRANCH   6   7
ENDBRANCH   5   6
ENDBRANCH   4   5
ENDBRANCH   3   4
ENDBRANCH   2   3
ENDBRANCH   1   2
BRANCH   1  17
ATOM     17  C   UNL     1      40.691  56.029  17.181  1.00  0.00     0.000 C 
BRANCH  17  18
ATOM     18  C   UNL     1      42.153  55.699  17.546  1.00  0.00     0.000 C 
BRANCH  18  19
ATOM     19  C   UNL     1      42.685  54.362  16.991  1.00  0.00     0.000 C 
BRANCH  19  20
ATOM     20  C   UNL     1      43.351  54.445  15.605  1.00  0.00     0.000 C 
BRANCH  20  21
ATOM     21  C   UNL     1      44.075  53.147  15.210  1.00  0.00     0.000 C 
BRANCH  21  22
ATOM     22  C   UNL     1      45.245  53.388  14.240  1.00  0.00    -0.000 C 
BRANCH  22  23
ATOM     23  C   UNL     1      46.210  52.189  14.120  1.00  0.00    -0.000 C 
BRANCH  23  24
ATOM     24  C   UNL     1      47.594  52.499  14.718  1.00  0.00    -0.000 C 
BRANCH  24  25
ATOM     25  C   UNL     1      47.810  53.998  14.973  1.00  0.00    -0.000 C 
BRANCH  25  26
ATOM     26  C   UNL     1      48.620  54.268  16.252  1.00  0.00    -0.000 C 
BRANCH  26  27
ATOM     27  C   UNL     1      48.017  55.390  17.117  1.00  0.00    -0.000 C 
BRANCH  27  28
ATOM     28  C   UNL     1      46.554  55.757  16.794  1.00  0.00    -0.000 C 
BRANCH  28  29
ATOM     29  C   UNL     1      46.344  57.184  16.256  1.00  0.00    -0.003 C 
ATOM     30  C   UNL     1      45.866  57.209  14.805  1.00  0.00     0.004 C 
ENDBRANCH  28  29
ENDBRANCH  27  28
ENDBRANCH  26  27
ENDBRANCH  25  26
ENDBRANCH  24  25
ENDBRANCH  23  24
ENDBRANCH  22  23
ENDBRANCH  21  22
ENDBRANCH  20  21
ENDBRANCH  19  20
ENDBRANCH  18  19
ENDBRANCH  17  18
ENDBRANCH   1  17
TORSDOF 26
ENDMDL
MODEL 2
REMARK VINA RESULT:    -5.158      1.140      3.306
REMARK INTER + INTRA:         -15.570
REMARK INTER:                 -12.699
REMARK INTRA:                  -2.871
REMARK UNBOUND:                -2.573
REMARK SMILES CCCCCCCCCCCCCCCCCCCCCCCCCCCC(=O)[O-]
REMARK SMILES IDX 15 1 16 2 17 3 18 4 19 5 20 6 21 7 22 8 23 9 24 10 25 11
REMARK SMILES IDX 26 12 27 13 28 14 29 15 30 16 14 17 13 18 12 19 11 20 10 21
REMARK SMILES IDX 9 22 8 23 7 24 6 25 5 26 4 27 3 28 2 29 1 30
REMARK H PARENT
REMARK Flexibility Score: inf
ROOT
ATOM      1  C   UNL     1      42.113  55.218  18.003  1.00  0.00     0.000 C 
ENDROOT
BRANCH   1   2
ATOM      2  C   UNL     1      41.082  56.027  17.197  1.00  0.00     0.000 C 
BRANCH   2   3
ATOM      3  C   UNL     1      39.842  56.402  18.024  1.00  0.00     0.000 C 
BRANCH   3   4
ATOM      4  C   UNL     1      38.552  56.430  17.184  1.00  0.00     0.000 C 
BRANCH   4   5
ATOM      5  C   UNL     1      37.593  57.551  17.620  1.00  0.00     0.000 C 
BRANCH   5   6
ATOM      6  C   UNL     1      36.183  57.382  17.026  1.00  0.00     0.000 C 
BRANCH   6   7
ATOM      7  C   UNL     1      36.053  57.998  15.624  1.00  0.00     0.000 C 
BRANCH   7   8
ATOM      8  C   UNL     1      35.609  56.975  14.565  1.00  0.00     0.000 C 
BRANCH   8   9
ATOM      9  C   UNL     1      34.107  57.090  14.221  1.00  0.00     0.000 C 
BRANCH   9  10
ATOM     10  C   UNL     1      33.232  56.025  14.908  1.00  0.00     0.000 C 
BRANCH  10  11
ATOM     11  C   UNL     1      32.859  56.348  16.367  1.00  0.00     0.000 C 
BRANCH  11  12
ATOM     12  C   UNL     1      31.357  56.651  16.571  1.00  0.00     0.006 C 
BRANCH  12  13
ATOM     13  C   UNL     1      30.767  55.935  17.793  1.00  0.00     0.053 C 
BRANCH  13  14
ATOM     14  C   UNL     1      30.131  54.644  17.388  1.00  0.00     0.041 C 
ATOM     15  O   UNL     1      29.525  53.941  18.239  1.00  0.00    -0.550 OA
ATOM     16  O   UNL     1      30.167  54.237  16.059  1.00  0.00    -0.550 OA
ENDBRANCH  13  14
ENDBRANCH  12  13
ENDBRANCH  11  12
ENDBRANCH  10  11
ENDBRANCH   9  10
ENDBRANCH   8   9
ENDBRANCH   7   8
ENDBRANCH   6   7
ENDBRANCH   5   6
ENDBRANCH   4   5
ENDBRANCH   3   4
ENDBRANCH   2   3
ENDBRANCH   1   2
BRANCH   1  17
ATOM     17  C   UNL     1      43.029  54.365  17.105  1.00  0.00     0.000 C 
BRANCH  17  18
ATOM     18  C   UNL     1      44.489  54.854  17.010  1.00  0.00     0.000 C 
BRANCH  18  19
ATOM     19  C   UNL     1      44.788  55.810  15.838  1.00  0.00     0.000 C 
BRANCH  19  20
ATOM     20  C   UNL     1      45.146  57.252  16.242  1.00  0.00     0.000 C 
BRANCH  20  21
ATOM     21  C   UNL     1      46.026  57.965  15.202  1.00  0.00     0.000 C 
BRANCH  21  22
ATOM     22  C   UNL     1      47.380  58.419  15.775  1.00  0.00    -0.000 C 
BRANCH  22  23
ATOM     23  C   UNL     1      47.576  58.061  17.263  1.00  0.00    -0.000 C 
BRANCH  23  24
ATOM     24  C   UNL     1      48.623  56.950  17.457  1.00  0.00    -0.000 C 
BRANCH  24  25
ATOM     25  C   UNL     1      47.990  55.582  17.755  1.00  0.00    -0.000 C 
BRANCH  25  26
ATOM     26  C   UNL     1      48.445  54.494  16.767  1.00  0.00    -0.000 C 
BRANCH  26  27
ATOM     27  C   UNL     1      48.544  55.005  15.318  1.00  0.00    -0.000 C 
BRANCH  27  28
ATOM     28  C   UNL     1      47.701  54.227  14.287  1.00  0.00    -0.000 C 
BRANCH  28  29
ATOM     29  C   UNL     1      47.224  52.839  14.751  1.00  0.00    -0.003 C 
ATOM     30  C   UNL     1      45.781  52.540  14.347  1.00  0.00     0.004 C 
ENDBRANCH  28  29
ENDBRANCH  27  28
ENDBRANCH  26  27
ENDBRANCH  25  26
ENDBRANCH  24  25
ENDBRANCH  23  24
ENDBRANCH  22  23
ENDBRANCH  21  22
ENDBRANCH  20  21
ENDBRANCH  19  20
ENDBRANCH  18  19
ENDBRANCH  17  18
ENDBRANCH   1  17
TORSDOF 26
ENDMDL
MODEL 3
REMARK VINA RESULT:    -5.070      4.337     13.224
REMARK INTER + INTRA:         -15.349
REMARK INTER:                 -13.262
REMARK INTRA:                  -2.087
REMARK UNBOUND:                -2.573
REMARK SMILES CCCCCCCCCCCCCCCCCCCCCCCCCCCC(=O)[O-]
REMARK SMILES IDX 15 1 16 2 17 3 18 4 19 5 20 6 21 7 22 8 23 9 24 10 25 11
REMARK SMILES IDX 26 12 27 13 28 14 29 15 30 16 14 17 13 18 12 19 11 20 10 21
REMARK SMILES IDX 9 22 8 23 7 24 6 25 5 26 4 27 3 28 2 29 1 30
REMARK H PARENT
REMARK Flexibility Score: inf
ROOT
ATOM      1  C   UNL     1      40.091  56.757  18.221  1.00  0.00     0.000 C 
ENDROOT
BRANCH   1   2
ATOM      2  C   UNL     1      41.077  55.576  18.252  1.00  0.00     0.000 C 
BRANCH   2   3
ATOM      3  C   UNL     1      42.234  55.741  17.255  1.00  0.00     0.000 C 
BRANCH   3   4
ATOM      4  C   UNL     1      42.066  54.870  15.996  1.00  0.00     0.000 C 
BRANCH   4   5
ATOM      5  C   UNL     1      43.073  53.709  15.948  1.00  0.00     0.000 C 
BRANCH   5   6
ATOM      6  C   UNL     1      44.478  54.167  15.517  1.00  0.00     0.000 C 
BRANCH   6   7
ATOM      7  C   UNL     1      45.213  53.112  14.675  1.00  0.00     0.000 C 
BRANCH   7   8
ATOM      8  C   UNL     1      46.607  53.580  14.222  1.00  0.00     0.000 C 
BRANCH   8   9
ATOM      9  C   UNL     1      47.746  52.753  14.860  1.00  0.00     0.000 C 
BRANCH   9  10
ATOM     10  C   UNL     1      48.606  53.550  15.857  1.00  0.00     0.000 C 
BRANCH  10  11
ATOM     11  C   UNL     1      48.325  55.064  15.878  1.00  0.00     0.000 C 
BRANCH  11  12
ATOM     12  C   UNL     1      47.787  55.577  17.233  1.00  0.00     0.006 C 
BRANCH  12  13
ATOM     13  C   UNL     1      47.861  57.104  17.362  1.00  0.00     0.053 C 
BRANCH  13  14
ATOM     14  C   UNL     1      46.911  57.758  16.410  1.00  0.00     0.041 C 
ATOM     15  O   UNL     1      47.326  58.620  15.592  1.00  0.00    -0.550 OA
ATOM     16  O   UNL     1      45.573  57.382  16.394  1.00  0.00    -0.550 OA
ENDBRANCH  13  14
ENDBRANCH  12  13
ENDBRANCH  11  12
ENDBRANCH  10  11
ENDBRANCH   9  10
ENDBRANCH   8   9
ENDBRANCH   7   8
ENDBRANCH   6   7
ENDBRANCH   5   6
ENDBRANCH   4   5
ENDBRANCH   3   4
ENDBRANCH   2   3
ENDBRANCH   1   2
BRANCH   1  17
ATOM     17  C   UNL     1      38.801  56.432  17.446  1.00  0.00     0.000 C 
BRANCH  17  18
ATOM     18  C   UNL     1      37.681  57.486  17.571  1.00  0.00     0.000 C 
BRANCH  18  19
ATOM     19  C   UNL     1      36.363  57.135  16.852  1.00  0.00     0.000 C 
BRANCH  19  20
ATOM     20  C   UNL     1      35.975  58.073  15.695  1.00  0.00     0.000 C 
BRANCH  20  21
ATOM     21  C   UNL     1      35.650  57.318  14.395  1.00  0.00     0.000 C 
BRANCH  21  22
ATOM     22  C   UNL     1      34.160  56.956  14.271  1.00  0.00    -0.000 C 
BRANCH  22  23
ATOM     23  C   UNL     1      33.818  55.542  14.787  1.00  0.00    -0.000 C 
BRANCH  23  24
ATOM     24  C   UNL     1      33.103  55.582  16.150  1.00  0.00    -0.000 C 
BRANCH  24  25
ATOM     25  C   UNL     1      32.188  56.806  16.306  1.00  0.00    -0.000 C 
BRANCH  25  26
ATOM     26  C   UNL     1      30.957  56.515  17.179  1.00  0.00    -0.000 C 
BRANCH  26  27
ATOM     27  C   UNL     1      31.089  55.210  17.985  1.00  0.00    -0.000 C 
BRANCH  27  28
ATOM     28  C   UNL     1      29.789  54.396  18.140  1.00  0.00    -0.000 C 
BRANCH  28  29
ATOM     29  C   UNL     1      29.572  53.306  17.075  1.00  0.00    -0.003 C 
ATOM     30  C   UNL     1      30.882  52.736  16.531  1.00  0.00     0.004 C 
ENDBRANCH  28  29
ENDBRANCH  27  28
ENDBRANCH  26  27
ENDBRANCH  25  26
ENDBRANCH  24  25
ENDBRANCH  23  24
ENDBRANCH  22  23
ENDBRANCH  21  22
ENDBRANCH  20  21
ENDBRANCH  19  20
ENDBRANCH  18  19
ENDBRANCH  17  18
ENDBRANCH   1  17
TORSDOF 26
ENDMDL
MODEL 4
REMARK VINA RESULT:    -5.044      1.163      2.557
REMARK INTER + INTRA:         -15.284
REMARK INTER:                 -12.709
REMARK INTRA:                  -2.575
REMARK UNBOUND:                -2.573
REMARK SMILES CCCCCCCCCCCCCCCCCCCCCCCCCCCC(=O)[O-]
REMARK SMILES IDX 15 1 16 2 17 3 18 4 19 5 20 6 21 7 22 8 23 9 24 10 25 11
REMARK SMILES IDX 26 12 27 13 28 14 29 15 30 16 14 17 13 18 12 19 11 20 10 21
REMARK SMILES IDX 9 22 8 23 7 24 6 25 5 26 4 27 3 28 2 29 1 30
REMARK H PARENT
REMARK Flexibility Score: inf
ROOT
ATOM      1  C   UNL     1      42.970  55.988  17.290  1.00  0.00     0.000 C 
ENDROOT
BRANCH   1   2
ATOM      2  C   UNL     1      41.474  55.657  17.160  1.00  0.00     0.000 C 
BRANCH   2   3
ATOM      3  C   UNL     1      40.679  55.983  18.434  1.00  0.00     0.000 C 
BRANCH   3   4
ATOM      4  C   UNL     1      39.412  56.809  18.151  1.00  0.00     0.000 C 
BRANCH   4   5
ATOM      5  C   UNL     1      38.707  56.377  16.854  1.00  0.00     0.000 C 
BRANCH   5   6
ATOM      6  C   UNL     1      37.254  56.882  16.778  1.00  0.00     0.000 C 
BRANCH   6   7
ATOM      7  C   UNL     1      36.731  56.963  15.335  1.00  0.00     0.000 C 
BRANCH   7   8
ATOM      8  C   UNL     1      35.412  57.747  15.226  1.00  0.00     0.000 C 
BRANCH   8   9
ATOM      9  C   UNL     1      34.470  57.176  14.142  1.00  0.00     0.000 C 
BRANCH   9  10
ATOM     10  C   UNL     1      33.247  56.435  14.714  1.00  0.00     0.000 C 
BRANCH  10  11
ATOM     11  C   UNL     1      33.240  56.300  16.247  1.00  0.00     0.000 C 
BRANCH  11  12
ATOM     12  C   UNL     1      31.877  56.639  16.894  1.00  0.00     0.006 C 
BRANCH  12  13
ATOM     13  C   UNL     1      30.728  55.788  16.338  1.00  0.00     0.053 C 
BRANCH  13  14
ATOM     14  C   UNL     1      30.518  54.574  17.185  1.00  0.00     0.041 C 
ATOM     15  O   UNL     1      31.134  53.506  16.927  1.00  0.00    -0.550 OA
ATOM     16  O   UNL     1      29.674  54.632  18.288  1.00  0.00    -0.550 OA
ENDBRANCH  13  14
ENDBRANCH  12  13
ENDBRANCH  11  12
ENDBRANCH  10  11
ENDBRANCH   9  10
ENDBRANCH   8   9
ENDBRANCH   7   8
ENDBRANCH   6   7
ENDBRANCH   5   6
ENDBRANCH   4   5
ENDBRANCH   3   4
ENDBRANCH   2   3
ENDBRANCH   1   2
BRANCH   1  17
ATOM     17  C   UNL     1      43.875  54.796  16.926  1.00  0.00     0.000 C 
BRANCH  17  18
ATOM     18  C   UNL     1      43.673  54.233  15.504  1.00  0.00     0.000 C 
BRANCH  18  19
ATOM     19  C   UNL     1      44.487  54.934  14.397  1.00  0.00     0.000 C 
BRANCH  19  20
ATOM     20  C   UNL     1      45.708  54.149  13.884  1.00  0.00     0.000 C 
BRANCH  20  21
ATOM     21  C   UNL     1      45.551  52.627  14.039  1.00  0.00     0.000 C 
BRANCH  21  22
ATOM     22  C   UNL     1      46.820  51.949  14.583  1.00  0.00    -0.000 C 
BRANCH  22  23
ATOM     23  C   UNL     1      48.112  52.758  14.341  1.00  0.00    -0.000 C 
BRANCH  23  24
ATOM     24  C   UNL     1      48.714  53.293  15.652  1.00  0.00    -0.000 C 
BRANCH  24  25
ATOM     25  C   UNL     1      48.716  54.828  15.724  1.00  0.00    -0.000 C 
BRANCH  25  26
ATOM     26  C   UNL     1      47.860  55.366  16.882  1.00  0.00    -0.000 C 
BRANCH  26  27
ATOM     27  C   UNL     1      47.801  56.904  16.919  1.00  0.00    -0.000 C 
BRANCH  27  28
ATOM     28  C   UNL     1      46.399  57.514  16.716  1.00  0.00    -0.000 C 
BRANCH  28  29
ATOM     29  C   UNL     1      46.134  58.085  15.311  1.00  0.00    -0.003 C 
ATOM     30  C   UNL     1      47.365  58.750  14.697  1.00  0.00     0.004 C 
ENDBRANCH  28  29
ENDBRANCH  27  28
ENDBRANCH  26  27
ENDBRANCH  25  26
ENDBRANCH  24  25
ENDBRANCH  23  24
ENDBRANCH  22  23
ENDBRANCH  21  22
ENDBRANCH  20  21
ENDBRANCH  19  20
ENDBRANCH  18  19
ENDBRANCH  17  18
ENDBRANCH   1  17
TORSDOF 26
ENDMDL
MODEL 5
REMARK VINA RESULT:    -4.896      4.856     12.872
REMARK INTER + INTRA:         -14.911
REMARK INTER:                 -11.811
REMARK INTRA:                  -3.100
REMARK UNBOUND:                -2.573
REMARK SMILES CCCCCCCCCCCCCCCCCCCCCCCCCCCC(=O)[O-]
REMARK SMILES IDX 15 1 16 2 17 3 18 4 19 5 20 6 21 7 22 8 23 9 24 10 25 11
REMARK SMILES IDX 26 12 27 13 28 14 29 15 30 16 14 17 13 18 12 19 11 20 10 21
REMARK SMILES IDX 9 22 8 23 7 24 6 25 5 26 4 27 3 28 2 29 1 30
REMARK H PARENT
REMARK Flexibility Score: inf
ROOT
ATOM      1  C   UNL     1      36.067  58.081  16.039  1.00  0.00     0.000 C 
ENDROOT
BRANCH   1   2
ATOM      2  C   UNL     1      36.619  57.169  17.148  1.00  0.00     0.000 C 
BRANCH   2   3
ATOM      3  C   UNL     1      38.062  56.713  16.880  1.00  0.00     0.000 C 
BRANCH   3   4
ATOM      4  C   UNL     1      39.026  57.083  18.022  1.00  0.00     0.000 C 
BRANCH   4   5
ATOM      5  C   UNL     1      40.093  56.002  18.263  1.00  0.00     0.000 C 
BRANCH   5   6
ATOM      6  C   UNL     1      40.999  55.787  17.037  1.00  0.00     0.000 C 
BRANCH   6   7
ATOM      7  C   UNL     1      42.475  55.592  17.419  1.00  0.00     0.000 C 
BRANCH   7   8
ATOM      8  C   UNL     1      42.952  54.143  17.222  1.00  0.00     0.000 C 
BRANCH   8   9
ATOM      9  C   UNL     1      42.680  53.618  15.794  1.00  0.00     0.000 C 
BRANCH   9  10
ATOM     10  C   UNL     1      43.578  54.257  14.718  1.00  0.00     0.000 C 
BRANCH  10  11
ATOM     11  C   UNL     1      45.086  54.188  15.020  1.00  0.00     0.000 C 
BRANCH  11  12
ATOM     12  C   UNL     1      45.743  55.573  15.223  1.00  0.00     0.006 C 
BRANCH  12  13
ATOM     13  C   UNL     1      46.498  55.683  16.553  1.00  0.00     0.053 C 
BRANCH  13  14
ATOM     14  C   UNL     1      47.971  55.552  16.333  1.00  0.00     0.041 C 
ATOM     15  O   UNL     1      48.629  56.511  15.850  1.00  0.00    -0.550 OA
ATOM     16  O   UNL     1      48.629  54.384  16.701  1.00  0.00    -0.550 OA
ENDBRANCH  13  14
ENDBRANCH  12  13
ENDBRANCH  11  12
ENDBRANCH  10  11
ENDBRANCH   9  10
ENDBRANCH   8   9
ENDBRANCH   7   8
ENDBRANCH   6   7
ENDBRANCH   5   6
ENDBRANCH   4   5
ENDBRANCH   3   4
ENDBRANCH   2   3
ENDBRANCH   1   2
BRANCH   1  17
ATOM     17  C   UNL     1      36.018  57.383  14.667  1.00  0.00     0.000 C 
BRANCH  17  18
ATOM     18  C   UNL     1      34.678  57.515  13.914  1.00  0.00     0.000 C 
BRANCH  18  19
ATOM     19  C   UNL     1      33.781  56.260  13.941  1.00  0.00     0.000 C 
BRANCH  19  20
ATOM     20  C   UNL     1      32.866  56.133  15.173  1.00  0.00     0.000 C 
BRANCH  20  21
ATOM     21  C   UNL     1      33.526  55.368  16.332  1.00  0.00     0.000 C 
BRANCH  21  22
ATOM     22  C   UNL     1      32.524  54.959  17.425  1.00  0.00    -0.000 C 
BRANCH  22  23
ATOM     23  C   UNL     1      31.206  55.761  17.393  1.00  0.00    -0.000 C 
BRANCH  23  24
ATOM     24  C   UNL     1      29.980  54.871  17.663  1.00  0.00    -0.000 C 
BRANCH  24  25
ATOM     25  C   UNL     1      30.106  53.476  17.030  1.00  0.00    -0.000 C 
BRANCH  25  26
ATOM     26  C   UNL     1      29.827  53.487  15.518  1.00  0.00    -0.000 C 
BRANCH  26  27
ATOM     27  C   UNL     1      30.927  52.784  14.702  1.00  0.00    -0.000 C 
BRANCH  27  28
ATOM     28  C   UNL     1      31.760  51.744  15.478  1.00  0.00    -0.000 C 
BRANCH  28  29
ATOM     29  C   UNL     1      33.286  51.906  15.351  1.00  0.00    -0.003 C 
ATOM     30  C   UNL     1      33.715  52.467  13.996  1.00  0.00     0.004 C 
ENDBRANCH  28  29
ENDBRANCH  27  28
ENDBRANCH  26  27
ENDBRANCH  25  26
ENDBRANCH  24  25
ENDBRANCH  23  24
ENDBRANCH  22  23
ENDBRANCH  21  22
ENDBRANCH  20  21
ENDBRANCH  19  20
ENDBRANCH  18  19
ENDBRANCH  17  18
ENDBRANCH   1  17
TORSDOF 26
ENDMDL
MODEL 6
REMARK VINA RESULT:    -4.877      1.829      2.439
REMARK INTER + INTRA:         -14.864
REMARK INTER:                 -13.073
REMARK INTRA:                  -1.791
REMARK UNBOUND:                -2.573
REMARK SMILES CCCCCCCCCCCCCCCCCCCCCCCCCCCC(=O)[O-]
REMARK SMILES IDX 15 1 16 2 17 3 18 4 19 5 20 6 21 7 22 8 23 9 24 10 25 11
REMARK SMILES IDX 26 12 27 13 28 14 29 15 30 16 14 17 13 18 12 19 11 20 10 21
REMARK SMILES IDX 9 22 8 23 7 24 6 25 5 26 4 27 3 28 2 29 1 30
REMARK H PARENT
REMARK Flexibility Score: inf
ROOT
ATOM      1  C   UNL     1      39.011  57.053  18.122  1.00  0.00     0.000 C 
ENDROOT
BRANCH   1   2
ATOM      2  C   UNL     1      38.087  56.705  16.942  1.00  0.00     0.000 C 
BRANCH   2   3
ATOM      3  C   UNL     1      36.637  57.160  17.167  1.00  0.00     0.000 C 
BRANCH   3   4
ATOM      4  C   UNL     1      36.050  57.904  15.954  1.00  0.00     0.000 C 
BRANCH   4   5
ATOM      5  C   UNL     1      35.920  56.998  14.717  1.00  0.00     0.000 C 
BRANCH   5   6
ATOM      6  C   UNL     1      34.452  56.727  14.338  1.00  0.00     0.000 C 
BRANCH   6   7
ATOM      7  C   UNL     1      33.760  55.756  15.308  1.00  0.00     0.000 C 
BRANCH   7   8
ATOM      8  C   UNL     1      32.567  56.397  16.038  1.00  0.00     0.000 C 
BRANCH   8   9
ATOM      9  C   UNL     1      31.529  55.352  16.507  1.00  0.00     0.000 C 
BRANCH   9  10
ATOM     10  C   UNL     1      32.134  53.969  16.807  1.00  0.00     0.000 C 
BRANCH  10  11
ATOM     11  C   UNL     1      31.188  52.784  16.540  1.00  0.00     0.000 C 
BRANCH  11  12
ATOM     12  C   UNL     1      31.923  51.447  16.291  1.00  0.00     0.006 C 
BRANCH  12  13
ATOM     13  C   UNL     1      33.445  51.569  16.443  1.00  0.00     0.053 C 
BRANCH  13  14
ATOM     14  C   UNL     1      34.135  51.120  15.195  1.00  0.00     0.041 C 
ATOM     15  O   UNL     1      33.680  51.445  14.067  1.00  0.00    -0.550 OA
ATOM     16  O   UNL     1      35.308  50.380  15.276  1.00  0.00    -0.550 OA
ENDBRANCH  13  14
ENDBRANCH  12  13
ENDBRANCH  11  12
ENDBRANCH  10  11
ENDBRANCH   9  10
ENDBRANCH   8   9
ENDBRANCH   7   8
ENDBRANCH   6   7
ENDBRANCH   5   6
ENDBRANCH   4   5
ENDBRANCH   3   4
ENDBRANCH   2   3
ENDBRANCH   1   2
BRANCH   1  17
ATOM     17  C   UNL     1      40.123  56.008  18.332  1.00  0.00     0.000 C 
BRANCH  17  18
ATOM     18  C   UNL     1      41.145  55.902  17.181  1.00  0.00     0.000 C 
BRANCH  18  19
ATOM     19  C   UNL     1      42.513  55.306  17.569  1.00  0.00     0.000 C 
BRANCH  19  20
ATOM     20  C   UNL     1      42.965  54.096  16.730  1.00  0.00     0.000 C 
BRANCH  20  21
ATOM     21  C   UNL     1      44.179  54.406  15.839  1.00  0.00     0.000 C 
BRANCH  21  22
ATOM     22  C   UNL     1      44.261  53.493  14.603  1.00  0.00    -0.000 C 
BRANCH  22  23
ATOM     23  C   UNL     1      45.477  52.543  14.610  1.00  0.00    -0.000 C 
BRANCH  23  24
ATOM     24  C   UNL     1      46.765  53.250  14.154  1.00  0.00    -0.000 C 
BRANCH  24  25
ATOM     25  C   UNL     1      48.017  52.733  14.879  1.00  0.00    -0.000 C 
BRANCH  25  26
ATOM     26  C   UNL     1      48.726  53.830  15.689  1.00  0.00    -0.000 C 
BRANCH  26  27
ATOM     27  C   UNL     1      47.897  55.123  15.800  1.00  0.00    -0.000 C 
BRANCH  27  28
ATOM     28  C   UNL     1      47.665  55.636  17.235  1.00  0.00    -0.000 C 
BRANCH  28  29
ATOM     29  C   UNL     1      48.144  57.075  17.498  1.00  0.00    -0.003 C 
ATOM     30  C   UNL     1      47.840  58.024  16.339  1.00  0.00     0.004 C 
ENDBRANCH  28  29
ENDBRANCH  27  28
ENDBRANCH  26  27
ENDBRANCH  25  26
ENDBRANCH  24  25
ENDBRANCH  23  24
ENDBRANCH  22  23
ENDBRANCH  21  22
ENDBRANCH  20  21
ENDBRANCH  19  20
ENDBRANCH  18  19
ENDBRANCH  17  18
ENDBRANCH   1  17
TORSDOF 26
ENDMDL
MODEL 7
REMARK VINA RESULT:    -4.792      4.839     13.183
REMARK INTER + INTRA:         -14.647
REMARK INTER:                 -12.463
REMARK INTRA:                  -2.184
REMARK UNBOUND:                -2.573
REMARK SMILES CCCCCCCCCCCCCCCCCCCCCCCCCCCC(=O)[O-]
REMARK SMILES IDX 15 1 16 2 17 3 18 4 19 5 20 6 21 7 22 8 23 9 24 10 25 11
REMARK SMILES IDX 26 12 27 13 28 14 29 15 30 16 14 17 13 18 12 19 11 20 10 21
REMARK SMILES IDX 9 22 8 23 7 24 6 25 5 26 4 27 3 28 2 29 1 30
REMARK H PARENT
REMARK Flexibility Score: inf
ROOT
ATOM      1  C   UNL     1      40.060  55.951  18.322  1.00  0.00     0.000 C 
ENDROOT
BRANCH   1   2
ATOM      2  C   UNL     1      41.434  56.200  17.676  1.00  0.00     0.000 C 
BRANCH   2   3
ATOM      3  C   UNL     1      41.747  55.210  16.544  1.00  0.00     0.000 C 
BRANCH   3   4
ATOM      4  C   UNL     1      42.943  54.295  16.867  1.00  0.00     0.000 C 
BRANCH   4   5
ATOM      5  C   UNL     1      44.294  54.999  16.653  1.00  0.00     0.000 C 
BRANCH   5   6
ATOM      6  C   UNL     1      44.792  54.886  15.200  1.00  0.00     0.000 C 
BRANCH   6   7
ATOM      7  C   UNL     1      44.308  53.603  14.507  1.00  0.00     0.000 C 
BRANCH   7   8
ATOM      8  C   UNL     1      45.326  52.454  14.608  1.00  0.00     0.000 C 
BRANCH   8   9
ATOM      9  C   UNL     1      46.722  52.850  14.076  1.00  0.00     0.000 C 
BRANCH   9  10
ATOM     10  C   UNL     1      47.883  52.358  14.959  1.00  0.00     0.000 C 
BRANCH  10  11
ATOM     11  C   UNL     1      48.947  53.427  15.272  1.00  0.00     0.000 C 
BRANCH  11  12
ATOM     12  C   UNL     1      48.459  54.519  16.252  1.00  0.00     0.006 C 
BRANCH  12  13
ATOM     13  C   UNL     1      48.329  55.897  15.589  1.00  0.00     0.053 C 
BRANCH  13  14
ATOM     14  C   UNL     1      48.276  56.974  16.625  1.00  0.00     0.041 C 
ATOM     15  O   UNL     1      47.971  56.696  17.814  1.00  0.00    -0.550 OA
ATOM     16  O   UNL     1      48.607  58.281  16.287  1.00  0.00    -0.550 OA
ENDBRANCH  13  14
ENDBRANCH  12  13
ENDBRANCH  11  12
ENDBRANCH  10  11
ENDBRANCH   9  10
ENDBRANCH   8   9
ENDBRANCH   7   8
ENDBRANCH   6   7
ENDBRANCH   5   6
ENDBRANCH   4   5
ENDBRANCH   3   4
ENDBRANCH   2   3
ENDBRANCH   1   2
BRANCH   1  17
ATOM     17  C   UNL     1      39.038  57.052  17.985  1.00  0.00     0.000 C 
BRANCH  17  18
ATOM     18  C   UNL     1      37.969  56.656  16.946  1.00  0.00     0.000 C 
BRANCH  18  19
ATOM     19  C   UNL     1      36.621  57.395  17.073  1.00  0.00     0.000 C 
BRANCH  19  20
ATOM     20  C   UNL     1      36.018  57.895  15.748  1.00  0.00     0.000 C 
BRANCH  20  21
ATOM     21  C   UNL     1      35.575  56.750  14.822  1.00  0.00     0.000 C 
BRANCH  21  22
ATOM     22  C   UNL     1      34.229  57.029  14.129  1.00  0.00    -0.000 C 
BRANCH  22  23
ATOM     23  C   UNL     1      33.051  56.218  14.709  1.00  0.00    -0.000 C 
BRANCH  23  24
ATOM     24  C   UNL     1      32.954  56.352  16.239  1.00  0.00    -0.000 C 
BRANCH  24  25
ATOM     25  C   UNL     1      32.975  54.996  16.959  1.00  0.00    -0.000 C 
BRANCH  25  26
ATOM     26  C   UNL     1      31.580  54.560  17.437  1.00  0.00    -0.000 C 
BRANCH  26  27
ATOM     27  C   UNL     1      30.830  53.708  16.397  1.00  0.00    -0.000 C 
BRANCH  27  28
ATOM     28  C   UNL     1      31.700  52.699  15.621  1.00  0.00    -0.000 C 
BRANCH  28  29
ATOM     29  C   UNL     1      32.101  51.441  16.414  1.00  0.00    -0.003 C 
ATOM     30  C   UNL     1      33.606  51.178  16.392  1.00  0.00     0.004 C 
ENDBRANCH  28  29
ENDBRANCH  27  28
ENDBRANCH  26  27
ENDBRANCH  25  26
ENDBRANCH  24  25
ENDBRANCH  23  24
ENDBRANCH  22  23
ENDBRANCH  21  22
ENDBRANCH  20  21
ENDBRANCH  19  20
ENDBRANCH  18  19
ENDBRANCH  17  18
ENDBRANCH   1  17
TORSDOF 26
ENDMDL
MODEL 8
REMARK VINA RESULT:    -4.688      4.196     13.030
REMARK INTER + INTRA:         -14.386
REMARK INTER:                 -12.022
REMARK INTRA:                  -2.364
REMARK UNBOUND:                -2.573
REMARK SMILES CCCCCCCCCCCCCCCCCCCCCCCCCCCC(=O)[O-]
REMARK SMILES IDX 15 1 16 2 17 3 18 4 19 5 20 6 21 7 22 8 23 9 24 10 25 11
REMARK SMILES IDX 26 12 27 13 28 14 29 15 30 16 14 17 13 18 12 19 11 20 10 21
REMARK SMILES IDX 9 22 8 23 7 24 6 25 5 26 4 27 3 28 2 29 1 30
REMARK H PARENT
REMARK Flexibility Score: inf
ROOT
ATOM      1  C   UNL     1      42.004  55.287  17.911  1.00  0.00     0.000 C 
ENDROOT
BRANCH   1   2
ATOM      2  C   UNL     1      42.830  54.464  16.908  1.00  0.00     0.000 C 
BRANCH   2   3
ATOM      3  C   UNL     1      44.307  54.887  16.866  1.00  0.00     0.000 C 
BRANCH   3   4
ATOM      4  C   UNL     1      44.489  56.387  16.570  1.00  0.00     0.000 C 
BRANCH   4   5
ATOM      5  C   UNL     1      45.446  56.641  15.393  1.00  0.00     0.000 C 
BRANCH   5   6
ATOM      6  C   UNL     1      45.927  58.102  15.332  1.00  0.00     0.000 C 
BRANCH   6   7
ATOM      7  C   UNL     1      47.382  58.266  15.801  1.00  0.00     0.000 C 
BRANCH   7   8
ATOM      8  C   UNL     1      47.558  57.966  17.300  1.00  0.00     0.000 C 
BRANCH   8   9
ATOM      9  C   UNL     1      48.574  56.830  17.562  1.00  0.00     0.000 C 
BRANCH   9  10
ATOM     10  C   UNL     1      47.922  55.449  17.754  1.00  0.00     0.000 C 
BRANCH  10  11
ATOM     11  C   UNL     1      48.470  54.348  16.828  1.00  0.00     0.000 C 
BRANCH  11  12
ATOM     12  C   UNL     1      48.565  54.775  15.345  1.00  0.00     0.006 C 
BRANCH  12  13
ATOM     13  C   UNL     1      48.531  53.582  14.380  1.00  0.00     0.053 C 
BRANCH  13  14
ATOM     14  C   UNL     1      47.215  52.878  14.463  1.00  0.00     0.041 C 
ATOM     15  O   UNL     1      46.148  53.492  14.196  1.00  0.00    -0.550 OA
ATOM     16  O   UNL     1      47.167  51.529  14.793  1.00  0.00    -0.550 OA
ENDBRANCH  13  14
ENDBRANCH  12  13
ENDBRANCH  11  12
ENDBRANCH  10  11
ENDBRANCH   9  10
ENDBRANCH   8   9
ENDBRANCH   7   8
ENDBRANCH   6   7
ENDBRANCH   5   6
ENDBRANCH   4   5
ENDBRANCH   3   4
ENDBRANCH   2   3
ENDBRANCH   1   2
BRANCH   1  17
ATOM     17  C   UNL     1      40.815  56.007  17.249  1.00  0.00     0.000 C 
BRANCH  17  18
ATOM     18  C   UNL     1      39.571  56.175  18.146  1.00  0.00     0.000 C 
BRANCH  18  19
ATOM     19  C   UNL     1      38.822  57.514  17.990  1.00  0.00     0.000 C 
BRANCH  19  20
ATOM     20  C   UNL     1      37.319  57.393  17.675  1.00  0.00     0.000 C 
BRANCH  20  21
ATOM     21  C   UNL     1      37.045  56.756  16.302  1.00  0.00     0.000 C 
BRANCH  21  22
ATOM     22  C   UNL     1      36.169  57.641  15.398  1.00  0.00    -0.000 C 
BRANCH  22  23
ATOM     23  C   UNL     1      35.510  56.876  14.230  1.00  0.00    -0.000 C 
BRANCH  23  24
ATOM     24  C   UNL     1      33.982  57.056  14.210  1.00  0.00    -0.000 C 
BRANCH  24  25
ATOM     25  C   UNL     1      33.252  56.044  15.106  1.00  0.00    -0.000 C 
BRANCH  25  26
ATOM     26  C   UNL     1      32.869  56.635  16.473  1.00  0.00    -0.000 C 
BRANCH  26  27
ATOM     27  C   UNL     1      31.376  56.459  16.804  1.00  0.00    -0.000 C 
BRANCH  27  28
ATOM     28  C   UNL     1      31.058  55.379  17.857  1.00  0.00    -0.000 C 
BRANCH  28  29
ATOM     29  C   UNL     1      30.407  54.099  17.301  1.00  0.00    -0.003 C 
ATOM     30  C   UNL     1      31.399  53.194  16.574  1.00  0.00     0.004 C 
ENDBRANCH  28  29
ENDBRANCH  27  28
ENDBRANCH  26  27
ENDBRANCH  25  26
ENDBRANCH  24  25
ENDBRANCH  23  24
ENDBRANCH  22  23
ENDBRANCH  21  22
ENDBRANCH  20  21
ENDBRANCH  19  20
ENDBRANCH  18  19
ENDBRANCH  17  18
ENDBRANCH   1  17
TORSDOF 26
ENDMDL
MODEL 9
REMARK VINA RESULT:    -4.551      1.359      4.454
REMARK INTER + INTRA:         -14.040
REMARK INTER:                 -11.896
REMARK INTRA:                  -2.144
REMARK UNBOUND:                -2.573
REMARK SMILES CCCCCCCCCCCCCCCCCCCCCCCCCCCC(=O)[O-]
REMARK SMILES IDX 15 1 16 2 17 3 18 4 19 5 20 6 21 7 22 8 23 9 24 10 25 11
REMARK SMILES IDX 26 12 27 13 28 14 29 15 30 16 14 17 13 18 12 19 11 20 10 21
REMARK SMILES IDX 9 22 8 23 7 24 6 25 5 26 4 27 3 28 2 29 1 30
REMARK H PARENT
REMARK Flexibility Score: inf
ROOT
ATOM      1  C   UNL     1      43.446  54.020  15.965  1.00  0.00     0.000 C 
ENDROOT
BRANCH   1   2
ATOM      2  C   UNL     1      42.991  54.953  17.100  1.00  0.00     0.000 C 
BRANCH   2   3
ATOM      3  C   UNL     1      41.631  55.611  16.821  1.00  0.00     0.000 C 
BRANCH   3   4
ATOM      4  C   UNL     1      41.080  56.379  18.036  1.00  0.00     0.000 C 
BRANCH   4   5
ATOM      5  C   UNL     1      39.613  56.028  18.336  1.00  0.00     0.000 C 
BRANCH   5   6
ATOM      6  C   UNL     1      38.643  57.148  17.917  1.00  0.00     0.000 C 
BRANCH   6   7
ATOM      7  C   UNL     1      37.817  56.782  16.674  1.00  0.00     0.000 C 
BRANCH   7   8
ATOM      8  C   UNL     1      36.318  57.082  16.848  1.00  0.00     0.000 C 
BRANCH   8   9
ATOM      9  C   UNL     1      35.715  57.817  15.630  1.00  0.00     0.000 C 
BRANCH   9  10
ATOM     10  C   UNL     1      35.246  56.873  14.508  1.00  0.00     0.000 C 
BRANCH  10  11
ATOM     11  C   UNL     1      33.774  56.433  14.614  1.00  0.00     0.000 C 
BRANCH  11  12
ATOM     12  C   UNL     1      33.375  55.938  16.024  1.00  0.00     0.006 C 
BRANCH  12  13
ATOM     13  C   UNL     1      32.247  56.768  16.648  1.00  0.00     0.053 C 
BRANCH  13  14
ATOM     14  C   UNL     1      30.947  56.033  16.566  1.00  0.00     0.041 C 
ATOM     15  O   UNL     1      30.383  55.864  15.453  1.00  0.00    -0.550 OA
ATOM     16  O   UNL     1      30.379  55.494  17.714  1.00  0.00    -0.550 OA
ENDBRANCH  13  14
ENDBRANCH  12  13
ENDBRANCH  11  12
ENDBRANCH  10  11
ENDBRANCH   9  10
ENDBRANCH   8   9
ENDBRANCH   7   8
ENDBRANCH   6   7
ENDBRANCH   5   6
ENDBRANCH   4   5
ENDBRANCH   3   4
ENDBRANCH   2   3
ENDBRANCH   1   2
BRANCH   1  17
ATOM     17  C   UNL     1      44.911  54.258  15.553  1.00  0.00     0.000 C 
BRANCH  17  18
ATOM     18  C   UNL     1      45.113  55.285  14.420  1.00  0.00     0.000 C 
BRANCH  18  19
ATOM     19  C   UNL     1      45.256  56.750  14.877  1.00  0.00     0.000 C 
BRANCH  19  20
ATOM     20  C   UNL     1      46.396  57.539  14.206  1.00  0.00     0.000 C 
BRANCH  20  21
ATOM     21  C   UNL     1      46.925  58.688  15.081  1.00  0.00     0.000 C 
BRANCH  21  22
ATOM     22  C   UNL     1      48.434  58.583  15.358  1.00  0.00    -0.000 C 
BRANCH  22  23
ATOM     23  C   UNL     1      48.773  58.114  16.789  1.00  0.00    -0.000 C 
BRANCH  23  24
ATOM     24  C   UNL     1      47.653  57.251  17.395  1.00  0.00    -0.000 C 
BRANCH  24  25
ATOM     25  C   UNL     1      48.022  55.761  17.467  1.00  0.00    -0.000 C 
BRANCH  25  26
ATOM     26  C   UNL     1      48.446  55.192  16.104  1.00  0.00    -0.000 C 
BRANCH  26  27
ATOM     27  C   UNL     1      48.716  53.677  16.146  1.00  0.00    -0.000 C 
BRANCH  27  28
ATOM     28  C   UNL     1      49.123  53.043  14.800  1.00  0.00    -0.000 C 
BRANCH  28  29
ATOM     29  C   UNL     1      47.949  52.641  13.888  1.00  0.00    -0.003 C 
ATOM     30  C   UNL     1      47.030  51.600  14.525  1.00  0.00     0.004 C 
ENDBRANCH  28  29
ENDBRANCH  27  28
ENDBRANCH  26  27
ENDBRANCH  25  26
ENDBRANCH  24  25
ENDBRANCH  23  24
ENDBRANCH  22  23
ENDBRANCH  21  22
ENDBRANCH  20  21
ENDBRANCH  19  20
ENDBRANCH  18  19
ENDBRANCH  17  18
ENDBRANCH   1  17
TORSDOF 26
ENDMDL
