MODEL 1
REMARK VINA RESULT:    -2.533      0.000      0.000
REMARK INTER + INTRA:          -3.508
REMARK INTER:                  -3.125
REMARK INTRA:                  -0.383
REMARK UNBOUND:                -0.383
REMARK SMILES Oc1cc(O)c2cc(O)c(-c3cc(O)c(O)c(O)c3)[o+]c2c1.[Cl-]
REMARK SMILES IDX 10 1 20 2 21 3 22 4 2 5 3 6 4 7 6 8 7 9 8 10 11 11 12 12
REMARK SMILES IDX 13 13 19 14 15 15 17 16 14 17 16 19 18 21 9 23 1 25 5 27
REMARK H PARENT 14 18 16 20 18 22 9 24 1 26 5 28
REMARK Flexibility Score: inf
ROOT
ATOM      1  C   UNL     1     -17.365 -25.501  30.743  1.00  0.00     0.402 A 
ATOM      2  O   UNL     1     -18.482 -24.779  30.775  1.00  0.00    -0.202 OA
ATOM      3  C   UNL     1     -18.509 -23.490  31.097  1.00  0.00     0.368 A 
ATOM      4  C   UNL     1     -19.735 -22.817  31.104  1.00  0.00     0.162 A 
ATOM      5  C   UNL     1     -19.794 -21.465  31.442  1.00  0.00     0.128 A 
ATOM      6  C   UNL     1     -18.621 -20.778  31.776  1.00  0.00     0.093 A 
ATOM      7  C   UNL     1     -17.382 -21.429  31.776  1.00  0.00     0.136 A 
ATOM      8  C   UNL     1     -17.317 -22.805  31.431  1.00  0.00     0.125 A 
ATOM      9  C   UNL     1     -16.118 -23.535  31.392  1.00  0.00     0.078 A 
ATOM     10  C   UNL     1     -16.133 -24.888  31.037  1.00  0.00     0.223 A 
ENDROOT
BRANCH   1  11
ATOM     11  C   UNL     1     -17.465 -26.932  30.379  1.00  0.00     0.091 A 
ATOM     12  C   UNL     1     -17.500 -27.297  29.025  1.00  0.00     0.068 A 
ATOM     13  C   UNL     1     -17.613 -28.642  28.653  1.00  0.00     0.162 A 
ATOM     14  C   UNL     1     -17.583 -27.932  31.358  1.00  0.00     0.068 A 
ATOM     15  C   UNL     1     -17.709 -29.642  29.633  1.00  0.00     0.200 A 
ATOM     16  C   UNL     1     -17.700 -29.280  31.000  1.00  0.00     0.162 A 
BRANCH  13  17
ATOM     17  O   UNL     1     -17.632 -28.997  27.305  1.00  0.00    -0.504 OA
ATOM     18  H   UNL     1     -18.258 -28.547  26.646  1.00  0.00     0.293 HD
ENDBRANCH  13  17
BRANCH  15  19
ATOM     19  O   UNL     1     -17.811 -30.969  29.208  1.00  0.00    -0.502 OA
ATOM     20  H   UNL     1     -17.235 -31.377  28.486  1.00  0.00     0.293 HD
ENDBRANCH  15  19
BRANCH  16  21
ATOM     21  O   UNL     1     -17.812 -30.217  32.030  1.00  0.00    -0.504 OA
ATOM     22  H   UNL     1     -18.557 -30.895  32.098  1.00  0.00     0.293 HD
ENDBRANCH  16  21
ENDBRANCH   1  11
BRANCH  10  23
ATOM     23  O   UNL     1     -14.938 -25.601  30.950  1.00  0.00    -0.500 OA
ATOM     24  H   UNL     1     -14.303 -25.676  31.737  1.00  0.00     0.294 HD
ENDBRANCH  10  23
BRANCH   5  25
ATOM     25  O   UNL     1     -21.024 -20.811  31.443  1.00  0.00    -0.507 OA
ATOM     26  H   UNL     1     -21.565 -20.702  32.293  1.00  0.00     0.293 HD
ENDBRANCH   5  25
BRANCH   7  27
ATOM     27  O   UNL     1     -16.258 -20.675  32.125  1.00  0.00    -0.507 OA
ATOM     28  H   UNL     1     -16.290 -19.812  32.650  1.00  0.00     0.293 HD
ENDBRANCH   7  27
TORSDOF 7
ENDMDL
MODEL 2
REMARK VINA RESULT:    -2.449      1.457      2.326
REMARK INTER + INTRA:          -3.405
REMARK INTER:                  -3.027
REMARK INTRA:                  -0.378
REMARK UNBOUND:                -0.383
REMARK SMILES Oc1cc(O)c2cc(O)c(-c3cc(O)c(O)c(O)c3)[o+]c2c1.[Cl-]
REMARK SMILES IDX 10 1 20 2 21 3 22 4 2 5 3 6 4 7 6 8 7 9 8 10 11 11 12 12
REMARK SMILES IDX 13 13 19 14 15 15 17 16 14 17 16 19 18 21 9 23 1 25 5 27
REMARK H PARENT 14 18 16 20 18 22 9 24 1 26 5 28
REMARK Flexibility Score: inf
ROOT
ATOM      1  C   UNL     1     -18.440 -25.084  30.801  1.00  0.00     0.402 A 
ATOM      2  O   UNL     1     -19.332 -24.119  31.005  1.00  0.00    -0.202 OA
ATOM      3  C   UNL     1     -19.000 -22.880  31.356  1.00  0.00     0.368 A 
ATOM      4  C   UNL     1     -20.011 -21.935  31.551  1.00  0.00     0.162 A 
ATOM      5  C   UNL     1     -19.692 -20.629  31.923  1.00  0.00     0.128 A 
ATOM      6  C   UNL     1     -18.352 -20.262  32.103  1.00  0.00     0.093 A 
ATOM      7  C   UNL     1     -17.322 -21.191  31.914  1.00  0.00     0.136 A 
ATOM      8  C   UNL     1     -17.642 -22.521  31.533  1.00  0.00     0.125 A 
ATOM      9  C   UNL     1     -16.675 -23.513  31.309  1.00  0.00     0.078 A 
ATOM     10  C   UNL     1     -17.068 -24.801  30.931  1.00  0.00     0.223 A 
ENDROOT
BRANCH   1  11
ATOM     11  C   UNL     1     -18.935 -26.427  30.423  1.00  0.00     0.091 A 
ATOM     12  C   UNL     1     -19.229 -27.360  31.427  1.00  0.00     0.068 A 
ATOM     13  C   UNL     1     -19.680 -28.644  31.097  1.00  0.00     0.162 A 
ATOM     14  C   UNL     1     -19.062 -26.810  29.078  1.00  0.00     0.068 A 
ATOM     15  C   UNL     1     -19.828 -29.018  29.753  1.00  0.00     0.200 A 
ATOM     16  C   UNL     1     -19.508 -28.090  28.733  1.00  0.00     0.162 A 
BRANCH  13  17
ATOM     17  O   UNL     1     -19.985 -29.560  32.102  1.00  0.00    -0.504 OA
ATOM     18  H   UNL     1     -19.401 -30.370  32.277  1.00  0.00     0.293 HD
ENDBRANCH  13  17
BRANCH  15  19
ATOM     19  O   UNL     1     -20.290 -30.308  29.477  1.00  0.00    -0.502 OA
ATOM     20  H   UNL     1     -19.903 -30.905  28.762  1.00  0.00     0.293 HD
ENDBRANCH  15  19
BRANCH  16  21
ATOM     21  O   UNL     1     -19.611 -28.398  27.374  1.00  0.00    -0.504 OA
ATOM     22  H   UNL     1     -20.482 -28.601  26.905  1.00  0.00     0.293 HD
ENDBRANCH  16  21
ENDBRANCH   1  11
BRANCH  10  23
ATOM     23  O   UNL     1     -16.106 -25.774  30.660  1.00  0.00    -0.500 OA
ATOM     24  H   UNL     1     -16.177 -26.713  31.034  1.00  0.00     0.294 HD
ENDBRANCH  10  23
BRANCH   5  25
ATOM     25  O   UNL     1     -20.713 -19.700  32.113  1.00  0.00    -0.507 OA
ATOM     26  H   UNL     1     -21.184 -19.605  33.004  1.00  0.00     0.293 HD
ENDBRANCH   5  25
BRANCH   7  27
ATOM     27  O   UNL     1     -16.012 -20.748  32.116  1.00  0.00    -0.507 OA
ATOM     28  H   UNL     1     -15.190 -21.215  31.758  1.00  0.00     0.293 HD
ENDBRANCH   7  27
TORSDOF 7
ENDMDL
MODEL 3
REMARK VINA RESULT:    -2.436      5.455      8.267
REMARK INTER + INTRA:          -3.388
REMARK INTER:                  -3.016
REMARK INTRA:                  -0.372
REMARK UNBOUND:                -0.383
REMARK SMILES Oc1cc(O)c2cc(O)c(-c3cc(O)c(O)c(O)c3)[o+]c2c1.[Cl-]
REMARK SMILES IDX 10 1 20 2 21 3 22 4 2 5 3 6 4 7 6 8 7 9 8 10 11 11 12 12
REMARK SMILES IDX 13 13 19 14 15 15 17 16 14 17 16 19 18 21 9 23 1 25 5 27
REMARK H PARENT 14 18 16 20 18 22 9 24 1 26 5 28
REMARK Flexibility Score: inf
ROOT
ATOM      1  C   UNL     1     -20.844 -32.771  30.844  1.00  0.00     0.402 A 
ATOM      2  O   UNL     1     -21.098 -31.482  31.043  1.00  0.00    -0.202 OA
ATOM      3  C   UNL     1     -20.166 -30.598  31.384  1.00  0.00     0.368 A 
ATOM      4  C   UNL     1     -20.532 -29.263  31.575  1.00  0.00     0.162 A 
ATOM      5  C   UNL     1     -19.575 -28.314  31.937  1.00  0.00     0.128 A 
ATOM      6  C   UNL     1     -18.241 -28.701  32.111  1.00  0.00     0.093 A 
ATOM      7  C   UNL     1     -17.849 -30.032  31.926  1.00  0.00     0.136 A 
ATOM      8  C   UNL     1     -18.819 -31.000  31.556  1.00  0.00     0.125 A 
ATOM      9  C   UNL     1     -18.515 -32.353  31.336  1.00  0.00     0.078 A 
ATOM     10  C   UNL     1     -19.525 -33.248  30.968  1.00  0.00     0.223 A 
ENDROOT
BRANCH   1  11
ATOM     11  C   UNL     1     -21.970 -33.660  30.476  1.00  0.00     0.091 A 
ATOM     12  C   UNL     1     -22.453 -33.651  29.160  1.00  0.00     0.068 A 
ATOM     13  C   UNL     1     -23.529 -34.468  28.791  1.00  0.00     0.162 A 
ATOM     14  C   UNL     1     -22.605 -34.471  31.431  1.00  0.00     0.068 A 
ATOM     15  C   UNL     1     -24.149 -35.294  29.740  1.00  0.00     0.200 A 
ATOM     16  C   UNL     1     -23.684 -35.289  31.077  1.00  0.00     0.162 A 
BRANCH  13  17
ATOM     17  O   UNL     1     -23.993 -34.464  27.476  1.00  0.00    -0.504 OA
ATOM     18  H   UNL     1     -23.398 -34.185  26.704  1.00  0.00     0.293 HD
ENDBRANCH  13  17
BRANCH  15  19
ATOM     19  O   UNL     1     -25.213 -36.095  29.318  1.00  0.00    -0.502 OA
ATOM     20  H   UNL     1     -25.551 -36.899  29.825  1.00  0.00     0.293 HD
ENDBRANCH  15  19
BRANCH  16  21
ATOM     21  O   UNL     1     -24.264 -36.069  32.080  1.00  0.00    -0.504 OA
ATOM     22  H   UNL     1     -23.776 -36.795  32.584  1.00  0.00     0.293 HD
ENDBRANCH  16  21
ENDBRANCH   1  11
BRANCH  10  23
ATOM     23  O   UNL     1     -19.215 -34.581  30.702  1.00  0.00    -0.500 OA
ATOM     24  H   UNL     1     -19.844 -35.335  30.955  1.00  0.00     0.294 HD
ENDBRANCH  10  23
BRANCH   5  25
ATOM     25  O   UNL     1     -19.959 -26.988  32.123  1.00  0.00    -0.507 OA
ATOM     26  H   UNL     1     -20.680 -26.733  32.786  1.00  0.00     0.293 HD
ENDBRANCH   5  25
BRANCH   7  27
ATOM     27  O   UNL     1     -16.500 -30.339  32.122  1.00  0.00    -0.507 OA
ATOM     28  H   UNL     1     -15.852 -30.567  31.381  1.00  0.00     0.293 HD
ENDBRANCH   7  27
TORSDOF 7
ENDMDL
MODEL 4
REMARK VINA RESULT:    -2.416      1.326      2.199
REMARK INTER + INTRA:          -3.363
REMARK INTER:                  -3.177
REMARK INTRA:                  -0.187
REMARK UNBOUND:                -0.383
REMARK SMILES Oc1cc(O)c2cc(O)c(-c3cc(O)c(O)c(O)c3)[o+]c2c1.[Cl-]
REMARK SMILES IDX 10 1 20 2 21 3 22 4 2 5 3 6 4 7 6 8 7 9 8 10 11 11 12 12
REMARK SMILES IDX 13 13 19 14 15 15 17 16 14 17 16 19 18 21 9 23 1 25 5 27
REMARK H PARENT 14 18 16 20 18 22 9 24 1 26 5 28
REMARK Flexibility Score: inf
ROOT
ATOM      1  C   UNL     1     -17.236 -24.519  30.919  1.00  0.00     0.402 A 
ATOM      2  O   UNL     1     -18.503 -24.148  31.069  1.00  0.00    -0.202 OA
ATOM      3  C   UNL     1     -18.869 -22.909  31.381  1.00  0.00     0.368 A 
ATOM      4  C   UNL     1     -20.229 -22.616  31.520  1.00  0.00     0.162 A 
ATOM      5  C   UNL     1     -20.642 -21.325  31.850  1.00  0.00     0.128 A 
ATOM      6  C   UNL     1     -19.690 -20.317  32.044  1.00  0.00     0.093 A 
ATOM      7  C   UNL     1     -18.322 -20.585  31.911  1.00  0.00     0.136 A 
ATOM      8  C   UNL     1     -17.898 -21.897  31.573  1.00  0.00     0.125 A 
ATOM      9  C   UNL     1     -16.550 -22.253  31.406  1.00  0.00     0.078 A 
ATOM     10  C   UNL     1     -16.210 -23.567  31.067  1.00  0.00     0.223 A 
ENDROOT
BRANCH   1  11
ATOM     11  C   UNL     1     -16.954 -25.933  30.581  1.00  0.00     0.091 A 
ATOM     12  C   UNL     1     -16.170 -26.705  31.449  1.00  0.00     0.068 A 
ATOM     13  C   UNL     1     -15.872 -28.040  31.143  1.00  0.00     0.162 A 
ATOM     14  C   UNL     1     -17.407 -26.503  29.380  1.00  0.00     0.068 A 
ATOM     15  C   UNL     1     -16.344 -28.615  29.954  1.00  0.00     0.200 A 
ATOM     16  C   UNL     1     -17.114 -27.834  29.060  1.00  0.00     0.162 A 
BRANCH  13  17
ATOM     17  O   UNL     1     -15.104 -28.805  32.020  1.00  0.00    -0.504 OA
ATOM     18  H   UNL     1     -14.174 -28.516  32.301  1.00  0.00     0.293 HD
ENDBRANCH  13  17
BRANCH  15  19
ATOM     19  O   UNL     1     -16.026 -29.952  29.701  1.00  0.00    -0.502 OA
ATOM     20  H   UNL     1     -15.992 -30.669  30.411  1.00  0.00     0.293 HD
ENDBRANCH  15  19
BRANCH  16  21
ATOM     21  O   UNL     1     -17.600 -28.332  27.849  1.00  0.00    -0.504 OA
ATOM     22  H   UNL     1     -17.036 -28.833  27.177  1.00  0.00     0.293 HD
ENDBRANCH  16  21
ENDBRANCH   1  11
BRANCH  10  23
ATOM     23  O   UNL     1     -14.875 -23.910  30.853  1.00  0.00    -0.500 OA
ATOM     24  H   UNL     1     -14.316 -24.351  31.574  1.00  0.00     0.294 HD
ENDBRANCH  10  23
BRANCH   5  25
ATOM     25  O   UNL     1     -22.001 -21.052  31.984  1.00  0.00    -0.507 OA
ATOM     26  H   UNL     1     -22.477 -21.152  32.872  1.00  0.00     0.293 HD
ENDBRANCH   5  25
BRANCH   7  27
ATOM     27  O   UNL     1     -17.435 -19.526  32.125  1.00  0.00    -0.507 OA
ATOM     28  H   UNL     1     -16.566 -19.603  32.634  1.00  0.00     0.293 HD
ENDBRANCH   7  27
TORSDOF 7
ENDMDL
MODEL 5
REMARK VINA RESULT:    -2.380      3.456      8.885
REMARK INTER + INTRA:          -3.319
REMARK INTER:                  -2.958
REMARK INTRA:                  -0.361
REMARK UNBOUND:                -0.383
REMARK SMILES Oc1cc(O)c2cc(O)c(-c3cc(O)c(O)c(O)c3)[o+]c2c1.[Cl-]
REMARK SMILES IDX 10 1 20 2 21 3 22 4 2 5 3 6 4 7 6 8 7 9 8 10 11 11 12 12
REMARK SMILES IDX 13 13 19 14 15 15 17 16 14 17 16 19 18 21 9 23 1 25 5 27
REMARK H PARENT 14 18 16 20 18 22 9 24 1 26 5 28
REMARK Flexibility Score: inf
ROOT
ATOM      1  C   UNL     1     -21.212 -20.742  30.629  1.00  0.00     0.402 A 
ATOM      2  O   UNL     1     -19.883 -20.730  30.629  1.00  0.00    -0.202 OA
ATOM      3  C   UNL     1     -19.143 -21.806  30.877  1.00  0.00     0.368 A 
ATOM      4  C   UNL     1     -17.750 -21.693  30.857  1.00  0.00     0.162 A 
ATOM      5  C   UNL     1     -16.948 -22.805  31.116  1.00  0.00     0.128 A 
ATOM      6  C   UNL     1     -17.542 -24.041  31.400  1.00  0.00     0.093 A 
ATOM      7  C   UNL     1     -18.934 -24.180  31.426  1.00  0.00     0.136 A 
ATOM      8  C   UNL     1     -19.754 -23.052  31.160  1.00  0.00     0.125 A 
ATOM      9  C   UNL     1     -21.157 -23.101  31.152  1.00  0.00     0.078 A 
ATOM     10  C   UNL     1     -21.897 -21.947  30.876  1.00  0.00     0.223 A 
ENDROOT
BRANCH   1  11
ATOM     11  C   UNL     1     -21.925 -19.475  30.348  1.00  0.00     0.091 A 
ATOM     12  C   UNL     1     -22.354 -19.202  29.042  1.00  0.00     0.068 A 
ATOM     13  C   UNL     1     -23.013 -18.002  28.745  1.00  0.00     0.162 A 
ATOM     14  C   UNL     1     -22.131 -18.513  31.350  1.00  0.00     0.068 A 
ATOM     15  C   UNL     1     -23.238 -17.051  29.751  1.00  0.00     0.200 A 
ATOM     16  C   UNL     1     -22.786 -17.308  31.067  1.00  0.00     0.162 A 
BRANCH  13  17
ATOM     17  O   UNL     1     -23.450 -17.745  27.446  1.00  0.00    -0.504 OA
ATOM     18  H   UNL     1     -23.565 -16.799  27.102  1.00  0.00     0.293 HD
ENDBRANCH  13  17
BRANCH  15  19
ATOM     19  O   UNL     1     -23.909 -15.875  29.404  1.00  0.00    -0.502 OA
ATOM     20  H   UNL     1     -23.576 -15.218  28.714  1.00  0.00     0.293 HD
ENDBRANCH  15  19
BRANCH  16  21
ATOM     21  O   UNL     1     -22.956 -16.401  32.114  1.00  0.00    -0.504 OA
ATOM     22  H   UNL     1     -23.855 -16.122  32.480  1.00  0.00     0.293 HD
ENDBRANCH  16  21
ENDBRANCH   1  11
BRANCH  10  23
ATOM     23  O   UNL     1     -23.289 -22.006  30.819  1.00  0.00    -0.500 OA
ATOM     24  H   UNL     1     -23.848 -21.194  30.581  1.00  0.00     0.294 HD
ENDBRANCH  10  23
BRANCH   5  25
ATOM     25  O   UNL     1     -15.562 -22.673  31.092  1.00  0.00    -0.507 OA
ATOM     26  H   UNL     1     -14.976 -23.331  30.592  1.00  0.00     0.293 HD
ENDBRANCH   5  25
BRANCH   7  27
ATOM     27  O   UNL     1     -19.449 -25.446  31.721  1.00  0.00    -0.507 OA
ATOM     28  H   UNL     1     -18.886 -26.248  31.966  1.00  0.00     0.293 HD
ENDBRANCH   7  27
TORSDOF 7
ENDMDL
MODEL 6
REMARK VINA RESULT:    -2.340      3.755      5.560
REMARK INTER + INTRA:          -3.270
REMARK INTER:                  -2.888
REMARK INTRA:                  -0.382
REMARK UNBOUND:                -0.383
REMARK SMILES Oc1cc(O)c2cc(O)c(-c3cc(O)c(O)c(O)c3)[o+]c2c1.[Cl-]
REMARK SMILES IDX 10 1 20 2 21 3 22 4 2 5 3 6 4 7 6 8 7 9 8 10 11 11 12 12
REMARK SMILES IDX 13 13 19 14 15 15 17 16 14 17 16 19 18 21 9 23 1 25 5 27
REMARK H PARENT 14 18 16 20 18 22 9 24 1 26 5 28
REMARK Flexibility Score: inf
ROOT
ATOM      1  C   UNL     1     -20.647 -23.287  30.174  1.00  0.00     0.402 A 
ATOM      2  O   UNL     1     -19.468 -23.819  30.481  1.00  0.00    -0.202 OA
ATOM      3  C   UNL     1     -18.468 -23.121  31.008  1.00  0.00     0.368 A 
ATOM      4  C   UNL     1     -17.263 -23.770  31.294  1.00  0.00     0.162 A 
ATOM      5  C   UNL     1     -16.195 -23.062  31.845  1.00  0.00     0.128 A 
ATOM      6  C   UNL     1     -16.329 -21.694  32.111  1.00  0.00     0.093 A 
ATOM      7  C   UNL     1     -17.525 -21.022  31.834  1.00  0.00     0.136 A 
ATOM      8  C   UNL     1     -18.615 -21.739  31.275  1.00  0.00     0.125 A 
ATOM      9  C   UNL     1     -19.854 -21.151  30.977  1.00  0.00     0.078 A 
ATOM     10  C   UNL     1     -20.884 -21.924  30.432  1.00  0.00     0.223 A 
ENDROOT
BRANCH   1  11
ATOM     11  C   UNL     1     -21.681 -24.167  29.581  1.00  0.00     0.091 A 
ATOM     12  C   UNL     1     -22.453 -24.983  30.419  1.00  0.00     0.068 A 
ATOM     13  C   UNL     1     -23.424 -25.839  29.883  1.00  0.00     0.162 A 
ATOM     14  C   UNL     1     -21.867 -24.246  28.191  1.00  0.00     0.068 A 
ATOM     15  C   UNL     1     -23.624 -25.900  28.496  1.00  0.00     0.200 A 
ATOM     16  C   UNL     1     -22.831 -25.098  27.641  1.00  0.00     0.162 A 
BRANCH  13  17
ATOM     17  O   UNL     1     -24.198 -26.636  30.725  1.00  0.00    -0.504 OA
ATOM     18  H   UNL     1     -25.210 -26.634  30.675  1.00  0.00     0.293 HD
ENDBRANCH  13  17
BRANCH  15  19
ATOM     19  O   UNL     1     -24.612 -26.763  28.014  1.00  0.00    -0.502 OA
ATOM     20  H   UNL     1     -25.588 -26.519  27.939  1.00  0.00     0.293 HD
ENDBRANCH  15  19
BRANCH  16  21
ATOM     21  O   UNL     1     -22.960 -25.121  26.251  1.00  0.00    -0.504 OA
ATOM     22  H   UNL     1     -23.238 -24.325  25.696  1.00  0.00     0.293 HD
ENDBRANCH  16  21
ENDBRANCH   1  11
BRANCH  10  23
ATOM     23  O   UNL     1     -22.131 -21.352  30.182  1.00  0.00    -0.500 OA
ATOM     24  H   UNL     1     -22.861 -21.858  29.693  1.00  0.00     0.294 HD
ENDBRANCH  10  23
BRANCH   5  25
ATOM     25  O   UNL     1     -15.002 -23.725  32.124  1.00  0.00    -0.507 OA
ATOM     26  H   UNL     1     -14.594 -23.715  33.051  1.00  0.00     0.293 HD
ENDBRANCH   5  25
BRANCH   7  27
ATOM     27  O   UNL     1     -17.578 -19.655  32.125  1.00  0.00    -0.507 OA
ATOM     28  H   UNL     1     -16.879 -18.984  31.840  1.00  0.00     0.293 HD
ENDBRANCH   7  27
TORSDOF 7
ENDMDL
MODEL 7
REMARK VINA RESULT:    -1.214      3.752      5.164
REMARK INTER + INTRA:          -1.881
REMARK INTER:                  -1.503
REMARK INTRA:                  -0.379
REMARK UNBOUND:                -0.383
REMARK SMILES Oc1cc(O)c2cc(O)c(-c3cc(O)c(O)c(O)c3)[o+]c2c1.[Cl-]
REMARK SMILES IDX 10 1 20 2 21 3 22 4 2 5 3 6 4 7 6 8 7 9 8 10 11 11 12 12
REMARK SMILES IDX 13 13 19 14 15 15 17 16 14 17 16 19 18 21 9 23 1 25 5 27
REMARK H PARENT 14 18 16 20 18 22 9 24 1 26 5 28
REMARK Flexibility Score: inf
ROOT
ATOM      1  C   UNL     1     -20.728 -23.518  30.240  1.00  0.00     0.402 A 
ATOM      2  O   UNL     1     -19.507 -23.957  30.531  1.00  0.00    -0.202 OA
ATOM      3  C   UNL     1     -18.554 -23.182  31.039  1.00  0.00     0.368 A 
ATOM      4  C   UNL     1     -17.299 -23.735  31.309  1.00  0.00     0.162 A 
ATOM      5  C   UNL     1     -16.279 -22.944  31.838  1.00  0.00     0.128 A 
ATOM      6  C   UNL     1     -16.513 -21.589  32.101  1.00  0.00     0.093 A 
ATOM      7  C   UNL     1     -17.761 -21.012  31.839  1.00  0.00     0.136 A 
ATOM      8  C   UNL     1     -18.802 -21.813  31.302  1.00  0.00     0.125 A 
ATOM      9  C   UNL     1     -20.087 -21.322  31.021  1.00  0.00     0.078 A 
ATOM     10  C   UNL     1     -21.064 -22.175  30.497  1.00  0.00     0.223 A 
ENDROOT
BRANCH   1  11
ATOM     11  C   UNL     1     -21.700 -24.477  29.669  1.00  0.00     0.091 A 
ATOM     12  C   UNL     1     -21.792 -24.618  28.277  1.00  0.00     0.068 A 
ATOM     13  C   UNL     1     -22.716 -25.504  27.710  1.00  0.00     0.162 A 
ATOM     14  C   UNL     1     -22.576 -25.209  30.487  1.00  0.00     0.068 A 
ATOM     15  C   UNL     1     -23.575 -26.250  28.530  1.00  0.00     0.200 A 
ATOM     16  C   UNL     1     -23.507 -26.095  29.934  1.00  0.00     0.162 A 
BRANCH  13  17
ATOM     17  O   UNL     1     -22.789 -25.649  26.325  1.00  0.00    -0.504 OA
ATOM     18  H   UNL     1     -22.605 -24.873  25.700  1.00  0.00     0.293 HD
ENDBRANCH  13  17
BRANCH  15  19
ATOM     19  O   UNL     1     -24.473 -27.126  27.913  1.00  0.00    -0.502 OA
ATOM     20  H   UNL     1     -24.748 -28.017  28.299  1.00  0.00     0.293 HD
ENDBRANCH  15  19
BRANCH  16  21
ATOM     21  O   UNL     1     -24.343 -26.789  30.812  1.00  0.00    -0.504 OA
ATOM     22  H   UNL     1     -25.038 -27.460  30.518  1.00  0.00     0.293 HD
ENDBRANCH  16  21
ENDBRANCH   1  11
BRANCH  10  23
ATOM     23  O   UNL     1     -22.354 -21.701  30.264  1.00  0.00    -0.500 OA
ATOM     24  H   UNL     1     -23.067 -22.282  29.837  1.00  0.00     0.294 HD
ENDBRANCH  10  23
BRANCH   5  25
ATOM     25  O   UNL     1     -15.035 -23.514  32.101  1.00  0.00    -0.507 OA
ATOM     26  H   UNL     1     -14.892 -24.516  32.064  1.00  0.00     0.293 HD
ENDBRANCH   5  25
BRANCH   7  27
ATOM     27  O   UNL     1     -17.913 -19.652  32.125  1.00  0.00    -0.507 OA
ATOM     28  H   UNL     1     -17.697 -18.905  31.479  1.00  0.00     0.293 HD
ENDBRANCH   7  27
TORSDOF 7
ENDMDL
