MODEL 1
REMARK VINA RESULT:     2.330      0.000      0.000
REMARK INTER + INTRA:           3.140
REMARK INTER:                   2.807
REMARK INTRA:                   0.334
REMARK UNBOUND:                 0.334
REMARK SMILES O=c1c(O)c(-c2ccc(O)c(O)c2)oc2cc(O)cc(O)c12
REMARK SMILES IDX 5 1 3 2 2 3 1 4 22 5 20 6 19 7 17 8 16 9 15 10 14 11 6 12
REMARK SMILES IDX 7 13 8 14 9 15 13 16 11 17 10 18 12 20 4 22 21 24 18 26
REMARK H PARENT 10 19 12 21 4 23 21 25 18 27
REMARK Flexibility Score: inf
ROOT
ATOM      1  C   UNL     1      -3.205  13.089   7.982  1.00  0.00     0.180 A 
ATOM      2  C   UNL     1      -3.585  13.711   9.188  1.00  0.00     0.208 A 
ATOM      3  C   UNL     1      -3.774  12.917  10.330  1.00  0.00     0.238 A 
ATOM      4  O   UNL     1      -4.125  13.462  11.412  1.00  0.00    -0.285 OA
ATOM      5  C   UNL     1      -3.562  11.526  10.255  1.00  0.00     0.111 A 
ATOM      6  C   UNL     1      -3.726  10.656  11.360  1.00  0.00     0.134 A 
ATOM      7  C   UNL     1      -3.487   9.283  11.206  1.00  0.00     0.093 A 
ATOM      8  C   UNL     1      -3.085   8.763   9.971  1.00  0.00     0.123 A 
ATOM      9  C   UNL     1      -2.922   9.617   8.878  1.00  0.00     0.094 A 
ATOM     10  C   UNL     1      -3.158  10.989   9.010  1.00  0.00     0.146 A 
ATOM     11  O   UNL     1      -3.000  11.776   7.952  1.00  0.00    -0.452 OA
ENDROOT
BRANCH   1  12
ATOM     12  C   UNL     1      -3.005  13.856   6.731  1.00  0.00     0.025 A 
ATOM     13  C   UNL     1      -3.709  15.055   6.536  1.00  0.00     0.016 A 
ATOM     14  C   UNL     1      -3.520  15.804   5.373  1.00  0.00     0.051 A 
ATOM     15  C   UNL     1      -2.614  15.376   4.394  1.00  0.00     0.157 A 
ATOM     16  C   UNL     1      -2.081  13.439   5.756  1.00  0.00     0.062 A 
ATOM     17  C   UNL     1      -1.888  14.189   4.590  1.00  0.00     0.158 A 
BRANCH  15  18
ATOM     18  O   UNL     1      -2.429  16.125   3.234  1.00  0.00    -0.504 OA
ATOM     19  H   UNL     1      -3.211  16.397   2.648  1.00  0.00     0.293 HD
ENDBRANCH  15  18
BRANCH  17  20
ATOM     20  O   UNL     1      -0.968  13.743   3.643  1.00  0.00    -0.504 OA
ATOM     21  H   UNL     1       0.016  13.978   3.695  1.00  0.00     0.293 HD
ENDBRANCH  17  20
ENDBRANCH   1  12
BRANCH   2  22
ATOM     22  O   UNL     1      -3.741  15.098   9.248  1.00  0.00    -0.502 OA
ATOM     23  H   UNL     1      -4.602  15.535   9.555  1.00  0.00     0.293 HD
ENDBRANCH   2  22
BRANCH   6  24
ATOM     24  O   UNL     1      -4.125  11.145  12.605  1.00  0.00    -0.507 OA
ATOM     25  H   UNL     1      -4.164  10.549  13.423  1.00  0.00     0.293 HD
ENDBRANCH   6  24
BRANCH   8  26
ATOM     26  O   UNL     1      -2.846   7.399   9.818  1.00  0.00    -0.508 OA
ATOM     27  H   UNL     1      -3.561   6.710  10.022  1.00  0.00     0.293 HD
ENDBRANCH   8  26
TORSDOF 6
ENDMDL
MODEL 2
REMARK VINA RESULT:     3.555      1.330      6.554
REMARK INTER + INTRA:           4.617
REMARK INTER:                   4.805
REMARK INTRA:                  -0.188
REMARK UNBOUND:                 0.334
REMARK SMILES O=c1c(O)c(-c2ccc(O)c(O)c2)oc2cc(O)cc(O)c12
REMARK SMILES IDX 5 1 3 2 2 3 1 4 22 5 20 6 19 7 17 8 16 9 15 10 14 11 6 12
REMARK SMILES IDX 7 13 8 14 9 15 13 16 11 17 10 18 12 20 4 22 21 24 18 26
REMARK H PARENT 10 19 12 21 4 23 21 25 18 27
REMARK Flexibility Score: inf
ROOT
ATOM      1  C   UNL     1      -2.924  11.155   9.035  1.00  0.00     0.180 A 
ATOM      2  C   UNL     1      -3.489  12.111   9.902  1.00  0.00     0.208 A 
ATOM      3  C   UNL     1      -3.630  13.433   9.453  1.00  0.00     0.238 A 
ATOM      4  O   UNL     1      -4.125  14.299  10.225  1.00  0.00    -0.285 OA
ATOM      5  C   UNL     1      -3.225  13.774   8.147  1.00  0.00     0.111 A 
ATOM      6  C   UNL     1      -3.336  15.082   7.617  1.00  0.00     0.134 A 
ATOM      7  C   UNL     1      -2.918  15.339   6.304  1.00  0.00     0.093 A 
ATOM      8  C   UNL     1      -2.392  14.313   5.510  1.00  0.00     0.123 A 
ATOM      9  C   UNL     1      -2.280  13.022   6.028  1.00  0.00     0.094 A 
ATOM     10  C   UNL     1      -2.689  12.745   7.336  1.00  0.00     0.146 A 
ATOM     11  O   UNL     1      -2.566  11.509   7.804  1.00  0.00    -0.452 OA
ENDROOT
BRANCH   1  12
ATOM     12  C   UNL     1      -2.725   9.745   9.440  1.00  0.00     0.025 A 
ATOM     13  C   UNL     1      -3.843   8.918   9.635  1.00  0.00     0.016 A 
ATOM     14  C   UNL     1      -3.678   7.579   9.997  1.00  0.00     0.051 A 
ATOM     15  C   UNL     1      -2.393   7.042  10.155  1.00  0.00     0.157 A 
ATOM     16  C   UNL     1      -1.437   9.197   9.580  1.00  0.00     0.062 A 
ATOM     17  C   UNL     1      -1.268   7.855   9.941  1.00  0.00     0.158 A 
BRANCH  15  18
ATOM     18  O   UNL     1      -2.232   5.706  10.519  1.00  0.00    -0.504 OA
ATOM     19  H   UNL     1      -1.344   5.230  10.411  1.00  0.00     0.293 HD
ENDBRANCH  15  18
BRANCH  17  20
ATOM     20  O   UNL     1       0.023   7.348  10.076  1.00  0.00    -0.504 OA
ATOM     21  H   UNL     1       0.840   7.866   9.774  1.00  0.00     0.293 HD
ENDBRANCH  17  20
ENDBRANCH   1  12
BRANCH   2  22
ATOM     22  O   UNL     1      -3.928  11.736  11.174  1.00  0.00    -0.502 OA
ATOM     23  H   UNL     1      -4.871  11.407  11.347  1.00  0.00     0.293 HD
ENDBRANCH   2  22
BRANCH   6  24
ATOM     24  O   UNL     1      -3.857  16.125   8.385  1.00  0.00    -0.507 OA
ATOM     25  H   UNL     1      -4.152  15.985   9.344  1.00  0.00     0.293 HD
ENDBRANCH   6  24
BRANCH   8  26
ATOM     26  O   UNL     1      -1.978  14.568   4.204  1.00  0.00    -0.508 OA
ATOM     27  H   UNL     1      -2.587  14.398   3.412  1.00  0.00     0.293 HD
ENDBRANCH   8  26
TORSDOF 6
ENDMDL
MODEL 3
REMARK VINA RESULT:     4.591      1.326      6.662
REMARK INTER + INTRA:           5.864
REMARK INTER:                   6.062
REMARK INTRA:                  -0.198
REMARK UNBOUND:                 0.334
REMARK SMILES O=c1c(O)c(-c2ccc(O)c(O)c2)oc2cc(O)cc(O)c12
REMARK SMILES IDX 5 1 3 2 2 3 1 4 22 5 20 6 19 7 17 8 16 9 15 10 14 11 6 12
REMARK SMILES IDX 7 13 8 14 9 15 13 16 11 17 10 18 12 20 4 22 21 24 18 26
REMARK H PARENT 10 19 12 21 4 23 21 25 18 27
REMARK Flexibility Score: inf
ROOT
ATOM      1  C   UNL     1      -2.657  11.269   8.943  1.00  0.00     0.180 A 
ATOM      2  C   UNL     1      -3.297  12.184   9.804  1.00  0.00     0.208 A 
ATOM      3  C   UNL     1      -3.563  13.481   9.337  1.00  0.00     0.238 A 
ATOM      4  O   UNL     1      -4.125  14.311  10.102  1.00  0.00    -0.285 OA
ATOM      5  C   UNL     1      -3.206  13.836   8.020  1.00  0.00     0.111 A 
ATOM      6  C   UNL     1      -3.442  15.119   7.473  1.00  0.00     0.134 A 
ATOM      7  C   UNL     1      -3.065  15.392   6.150  1.00  0.00     0.093 A 
ATOM      8  C   UNL     1      -2.458  14.406   5.364  1.00  0.00     0.123 A 
ATOM      9  C   UNL     1      -2.222  13.138   5.900  1.00  0.00     0.094 A 
ATOM     10  C   UNL     1      -2.589  12.847   7.218  1.00  0.00     0.146 A 
ATOM     11  O   UNL     1      -2.348  11.635   7.703  1.00  0.00    -0.452 OA
ENDROOT
BRANCH   1  12
ATOM     12  C   UNL     1      -2.326   9.891   9.368  1.00  0.00     0.025 A 
ATOM     13  C   UNL     1      -0.984   9.536   9.577  1.00  0.00     0.016 A 
ATOM     14  C   UNL     1      -0.650   8.247   9.998  1.00  0.00     0.051 A 
ATOM     15  C   UNL     1      -1.653   7.297  10.232  1.00  0.00     0.157 A 
ATOM     16  C   UNL     1      -3.332   8.940   9.623  1.00  0.00     0.062 A 
ATOM     17  C   UNL     1      -3.000   7.649  10.047  1.00  0.00     0.158 A 
BRANCH  15  18
ATOM     18  O   UNL     1      -1.317   6.010  10.649  1.00  0.00    -0.504 OA
ATOM     19  H   UNL     1      -0.362   5.672  10.608  1.00  0.00     0.293 HD
ENDBRANCH  15  18
BRANCH  17  20
ATOM     20  O   UNL     1      -4.023   6.731  10.285  1.00  0.00    -0.504 OA
ATOM     21  H   UNL     1      -3.943   6.006  10.987  1.00  0.00     0.293 HD
ENDBRANCH  17  20
ENDBRANCH   1  12
BRANCH   2  22
ATOM     22  O   UNL     1      -3.685  11.792  11.087  1.00  0.00    -0.502 OA
ATOM     23  H   UNL     1      -3.940  10.837  11.308  1.00  0.00     0.293 HD
ENDBRANCH   2  22
BRANCH   6  24
ATOM     24  O   UNL     1      -4.046  16.123   8.231  1.00  0.00    -0.507 OA
ATOM     25  H   UNL     1      -4.874  15.945   8.788  1.00  0.00     0.293 HD
ENDBRANCH   6  24
BRANCH   8  26
ATOM     26  O   UNL     1      -2.084  14.675   4.050  1.00  0.00    -0.508 OA
ATOM     27  H   UNL     1      -1.670  15.562   3.788  1.00  0.00     0.293 HD
ENDBRANCH   8  26
TORSDOF 6
ENDMDL
