MODEL 1
REMARK VINA RESULT:    -4.233      0.000      0.000
REMARK INTER + INTRA:          -6.007
REMARK INTER:                  -5.842
REMARK INTRA:                  -0.166
REMARK UNBOUND:                -0.166
REMARK SMILES CCCCCCCCO
REMARK SMILES IDX 5 1 4 2 3 3 2 4 1 5 6 6 7 7 8 8 9 9
REMARK H PARENT 9 10
REMARK Flexibility Score: inf
ROOT
ATOM      1  C   UNL     1       7.333   5.690  -2.699  1.00  0.00     0.000 C 
ENDROOT
BRANCH   1   2
ATOM      2  C   UNL     1       7.400   6.045  -4.194  1.00  0.00    -0.000 C 
BRANCH   2   3
ATOM      3  C   UNL     1       8.412   7.161  -4.492  1.00  0.00    -0.000 C 
BRANCH   3   4
ATOM      4  C   UNL     1       9.538   6.701  -5.431  1.00  0.00    -0.003 C 
ATOM      5  C   UNL     1       8.980   5.909  -6.610  1.00  0.00     0.004 C 
ENDBRANCH   3   4
ENDBRANCH   2   3
ENDBRANCH   1   2
BRANCH   1   6
ATOM      6  C   UNL     1       6.593   4.369  -2.438  1.00  0.00     0.002 C 
BRANCH   6   7
ATOM      7  C   UNL     1       6.312   4.134  -0.946  1.00  0.00     0.028 C 
BRANCH   7   8
ATOM      8  C   UNL     1       6.754   5.323  -0.087  1.00  0.00     0.156 C 
BRANCH   8   9
ATOM      9  O   UNL     1       7.043   4.909   1.221  1.00  0.00    -0.396 OA
ATOM     10  H   UNL     1       7.656   5.587   1.609  1.00  0.00     0.210 HD
ENDBRANCH   8   9
ENDBRANCH   7   8
ENDBRANCH   6   7
ENDBRANCH   1   6
TORSDOF 7
ENDMDL
MODEL 2
REMARK VINA RESULT:    -4.084      2.225      5.177
REMARK INTER + INTRA:          -5.801
REMARK INTER:                  -5.597
REMARK INTRA:                  -0.204
REMARK UNBOUND:                -0.166
REMARK SMILES CCCCCCCCO
REMARK SMILES IDX 5 1 4 2 3 3 2 4 1 5 6 6 7 7 8 8 9 9
REMARK H PARENT 9 10
REMARK Flexibility Score: inf
ROOT
ATOM      1  C   UNL     1       6.642   4.748  -3.181  1.00  0.00     0.000 C 
ENDROOT
BRANCH   1   2
ATOM      2  C   UNL     1       6.631   4.177  -1.752  1.00  0.00    -0.000 C 
BRANCH   2   3
ATOM      3  C   UNL     1       6.573   5.274  -0.678  1.00  0.00    -0.000 C 
BRANCH   3   4
ATOM      4  C   UNL     1       6.879   4.738   0.728  1.00  0.00    -0.003 C 
ATOM      5  C   UNL     1       6.374   3.306   0.892  1.00  0.00     0.004 C 
ENDBRANCH   3   4
ENDBRANCH   2   3
ENDBRANCH   1   2
BRANCH   1   6
ATOM      6  C   UNL     1       7.345   6.112  -3.267  1.00  0.00     0.002 C 
BRANCH   6   7
ATOM      7  C   UNL     1       8.053   6.327  -4.613  1.00  0.00     0.028 C 
BRANCH   7   8
ATOM      8  C   UNL     1       9.321   7.175  -4.463  1.00  0.00     0.156 C 
BRANCH   8   9
ATOM      9  O   UNL     1       9.258   7.959  -3.302  1.00  0.00    -0.396 OA
ATOM     10  H   UNL     1      10.191   8.213  -3.076  1.00  0.00     0.210 HD
ENDBRANCH   8   9
ENDBRANCH   7   8
ENDBRANCH   6   7
ENDBRANCH   1   6
TORSDOF 7
ENDMDL
MODEL 3
REMARK VINA RESULT:    -3.933      2.921      5.536
REMARK INTER + INTRA:          -5.593
REMARK INTER:                  -5.377
REMARK INTRA:                  -0.216
REMARK UNBOUND:                -0.166
REMARK SMILES CCCCCCCCO
REMARK SMILES IDX 5 1 4 2 3 3 2 4 1 5 6 6 7 7 8 8 9 9
REMARK H PARENT 9 10
REMARK Flexibility Score: inf
ROOT
ATOM      1  C   UNL     1       6.989   5.086  -3.871  1.00  0.00     0.000 C 
ENDROOT
BRANCH   1   2
ATOM      2  C   UNL     1       6.452   4.160  -2.766  1.00  0.00    -0.000 C 
BRANCH   2   3
ATOM      3  C   UNL     1       6.648   4.744  -1.359  1.00  0.00    -0.000 C 
BRANCH   3   4
ATOM      4  C   UNL     1       6.230   3.765  -0.251  1.00  0.00    -0.003 C 
ATOM      5  C   UNL     1       6.762   4.214   1.107  1.00  0.00     0.004 C 
ENDBRANCH   3   4
ENDBRANCH   2   3
ENDBRANCH   1   2
BRANCH   1   6
ATOM      6  C   UNL     1       7.463   6.443  -3.326  1.00  0.00     0.002 C 
BRANCH   6   7
ATOM      7  C   UNL     1       8.449   7.147  -4.271  1.00  0.00     0.028 C 
BRANCH   7   8
ATOM      8  C   UNL     1       8.635   6.375  -5.582  1.00  0.00     0.156 C 
BRANCH   8   9
ATOM      9  O   UNL     1       8.378   7.202  -6.685  1.00  0.00    -0.396 OA
ATOM     10  H   UNL     1       7.552   6.858  -7.116  1.00  0.00     0.210 HD
ENDBRANCH   8   9
ENDBRANCH   7   8
ENDBRANCH   6   7
ENDBRANCH   1   6
TORSDOF 7
ENDMDL
MODEL 4
REMARK VINA RESULT:    -3.824      6.430      8.686
REMARK INTER + INTRA:          -5.442
REMARK INTER:                  -5.195
REMARK INTRA:                  -0.247
REMARK UNBOUND:                -0.166
REMARK SMILES CCCCCCCCO
REMARK SMILES IDX 5 1 4 2 3 3 2 4 1 5 6 6 7 7 8 8 9 9
REMARK H PARENT 9 10
REMARK Flexibility Score: inf
ROOT
ATOM      1  C   UNL     1       9.511   1.514 -10.253  1.00  0.00     0.000 C 
ENDROOT
BRANCH   1   2
ATOM      2  C   UNL     1       9.506   2.978 -10.727  1.00  0.00    -0.000 C 
BRANCH   2   3
ATOM      3  C   UNL     1       8.714   3.900  -9.789  1.00  0.00    -0.000 C 
BRANCH   3   4
ATOM      4  C   UNL     1       8.719   3.407  -8.334  1.00  0.00    -0.003 C 
ATOM      5  C   UNL     1       8.911   4.568  -7.361  1.00  0.00     0.004 C 
ENDBRANCH   3   4
ENDBRANCH   2   3
ENDBRANCH   1   2
BRANCH   1   6
ATOM      6  C   UNL     1      10.900   0.866 -10.352  1.00  0.00     0.002 C 
BRANCH   6   7
ATOM      7  C   UNL     1      10.937  -0.548  -9.751  1.00  0.00     0.028 C 
BRANCH   7   8
ATOM      8  C   UNL     1       9.532  -1.067  -9.426  1.00  0.00     0.156 C 
BRANCH   8   9
ATOM      9  O   UNL     1       9.434  -1.416  -8.071  1.00  0.00    -0.396 OA
ATOM     10  H   UNL     1       9.782  -2.342  -7.987  1.00  0.00     0.210 HD
ENDBRANCH   8   9
ENDBRANCH   7   8
ENDBRANCH   6   7
ENDBRANCH   1   6
TORSDOF 7
ENDMDL
MODEL 5
REMARK VINA RESULT:    -3.753      2.691      5.279
REMARK INTER + INTRA:          -5.345
REMARK INTER:                  -5.121
REMARK INTRA:                  -0.224
REMARK UNBOUND:                -0.166
REMARK SMILES CCCCCCCCO
REMARK SMILES IDX 5 1 4 2 3 3 2 4 1 5 6 6 7 7 8 8 9 9
REMARK H PARENT 9 10
REMARK Flexibility Score: inf
ROOT
ATOM      1  C   UNL     1       6.473   7.729  -1.352  1.00  0.00     0.000 C 
ENDROOT
BRANCH   1   2
ATOM      2  C   UNL     1       6.665   6.476  -0.479  1.00  0.00    -0.000 C 
BRANCH   2   3
ATOM      3  C   UNL     1       6.645   5.177  -1.299  1.00  0.00    -0.000 C 
BRANCH   3   4
ATOM      4  C   UNL     1       6.331   3.942  -0.440  1.00  0.00    -0.003 C 
ATOM      5  C   UNL     1       6.775   4.152   1.006  1.00  0.00     0.004 C 
ENDBRANCH   3   4
ENDBRANCH   2   3
ENDBRANCH   1   2
BRANCH   1   6
ATOM      6  C   UNL     1       7.148   7.600  -2.726  1.00  0.00     0.002 C 
BRANCH   6   7
ATOM      7  C   UNL     1       8.212   8.682  -2.965  1.00  0.00     0.028 C 
BRANCH   7   8
ATOM      8  C   UNL     1       9.303   8.207  -3.931  1.00  0.00     0.156 C 
BRANCH   8   9
ATOM      9  O   UNL     1       9.572   6.843  -3.744  1.00  0.00    -0.396 OA
ATOM     10  H   UNL     1       9.961   6.749  -2.835  1.00  0.00     0.210 HD
ENDBRANCH   8   9
ENDBRANCH   7   8
ENDBRANCH   6   7
ENDBRANCH   1   6
TORSDOF 7
ENDMDL
MODEL 6
REMARK VINA RESULT:    -3.723      1.976      2.737
REMARK INTER + INTRA:          -5.304
REMARK INTER:                  -5.052
REMARK INTRA:                  -0.252
REMARK UNBOUND:                -0.166
REMARK SMILES CCCCCCCCO
REMARK SMILES IDX 5 1 4 2 3 3 2 4 1 5 6 6 7 7 8 8 9 9
REMARK H PARENT 9 10
REMARK Flexibility Score: inf
ROOT
ATOM      1  C   UNL     1       8.614   6.797  -4.141  1.00  0.00     0.000 C 
ENDROOT
BRANCH   1   2
ATOM      2  C   UNL     1       8.791   7.245  -5.602  1.00  0.00    -0.000 C 
BRANCH   2   3
ATOM      3  C   UNL     1       9.776   6.356  -6.377  1.00  0.00    -0.000 C 
BRANCH   3   4
ATOM      4  C   UNL     1       9.138   5.711  -7.616  1.00  0.00    -0.003 C 
ATOM      5  C   UNL     1       8.826   4.237  -7.369  1.00  0.00     0.004 C 
ENDBRANCH   3   4
ENDBRANCH   2   3
ENDBRANCH   1   2
BRANCH   1   6
ATOM      6  C   UNL     1       7.339   5.966  -3.929  1.00  0.00     0.002 C 
BRANCH   6   7
ATOM      7  C   UNL     1       7.117   5.591  -2.455  1.00  0.00     0.028 C 
BRANCH   7   8
ATOM      8  C   UNL     1       6.507   4.194  -2.306  1.00  0.00     0.156 C 
BRANCH   8   9
ATOM      9  O   UNL     1       6.328   3.594  -3.561  1.00  0.00    -0.396 OA
ATOM     10  H   UNL     1       6.078   2.648  -3.395  1.00  0.00     0.210 HD
ENDBRANCH   8   9
ENDBRANCH   7   8
ENDBRANCH   6   7
ENDBRANCH   1   6
TORSDOF 7
ENDMDL
MODEL 7
REMARK VINA RESULT:    -3.719      5.239      7.137
REMARK INTER + INTRA:          -5.298
REMARK INTER:                  -5.040
REMARK INTRA:                  -0.258
REMARK UNBOUND:                -0.166
REMARK SMILES CCCCCCCCO
REMARK SMILES IDX 5 1 4 2 3 3 2 4 1 5 6 6 7 7 8 8 9 9
REMARK H PARENT 9 10
REMARK Flexibility Score: inf
ROOT
ATOM      1  C   UNL     1       8.833   4.109  -7.551  1.00  0.00     0.000 C 
ENDROOT
BRANCH   1   2
ATOM      2  C   UNL     1       9.189   5.408  -8.295  1.00  0.00    -0.000 C 
BRANCH   2   3
ATOM      3  C   UNL     1       9.213   6.633  -7.368  1.00  0.00    -0.000 C 
BRANCH   3   4
ATOM      4  C   UNL     1       8.761   6.298  -5.938  1.00  0.00    -0.003 C 
ATOM      5  C   UNL     1       9.706   6.908  -4.906  1.00  0.00     0.004 C 
ENDBRANCH   3   4
ENDBRANCH   2   3
ENDBRANCH   1   2
BRANCH   1   6
ATOM      6  C   UNL     1       8.536   2.944  -8.507  1.00  0.00     0.002 C 
BRANCH   6   7
ATOM      7  C   UNL     1       9.322   3.045  -9.823  1.00  0.00     0.028 C 
BRANCH   7   8
ATOM      8  C   UNL     1       9.907   1.693 -10.245  1.00  0.00     0.156 C 
BRANCH   8   9
ATOM      9  O   UNL     1      10.745   1.182  -9.244  1.00  0.00    -0.396 OA
ATOM     10  H   UNL     1      11.660   1.137  -9.629  1.00  0.00     0.210 HD
ENDBRANCH   8   9
ENDBRANCH   7   8
ENDBRANCH   6   7
ENDBRANCH   1   6
TORSDOF 7
ENDMDL
MODEL 8
REMARK VINA RESULT:    -3.713      3.842      5.999
REMARK INTER + INTRA:          -5.289
REMARK INTER:                  -5.005
REMARK INTRA:                  -0.284
REMARK UNBOUND:                -0.166
REMARK SMILES CCCCCCCCO
REMARK SMILES IDX 5 1 4 2 3 3 2 4 1 5 6 6 7 7 8 8 9 9
REMARK H PARENT 9 10
REMARK Flexibility Score: inf
ROOT
ATOM      1  C   UNL     1       8.890   6.615  -6.765  1.00  0.00     0.000 C 
ENDROOT
BRANCH   1   2
ATOM      2  C   UNL     1      10.007   6.753  -5.716  1.00  0.00    -0.000 C 
BRANCH   2   3
ATOM      3  C   UNL     1       9.466   7.073  -4.315  1.00  0.00    -0.000 C 
BRANCH   3   4
ATOM      4  C   UNL     1       7.930   7.116  -4.272  1.00  0.00    -0.003 C 
ATOM      5  C   UNL     1       7.375   6.001  -3.388  1.00  0.00     0.004 C 
ENDBRANCH   3   4
ENDBRANCH   2   3
ENDBRANCH   1   2
BRANCH   1   6
ATOM      6  C   UNL     1       9.248   5.624  -7.883  1.00  0.00     0.002 C 
BRANCH   6   7
ATOM      7  C   UNL     1       8.876   4.176  -7.529  1.00  0.00     0.028 C 
BRANCH   7   8
ATOM      8  C   UNL     1       8.906   3.261  -8.758  1.00  0.00     0.156 C 
BRANCH   8   9
ATOM      9  O   UNL     1       8.231   2.060  -8.499  1.00  0.00    -0.396 OA
ATOM     10  H   UNL     1       8.196   1.956  -7.512  1.00  0.00     0.210 HD
ENDBRANCH   8   9
ENDBRANCH   7   8
ENDBRANCH   6   7
ENDBRANCH   1   6
TORSDOF 7
ENDMDL
MODEL 9
REMARK VINA RESULT:    -3.695      5.470      7.690
REMARK INTER + INTRA:          -5.264
REMARK INTER:                  -5.048
REMARK INTRA:                  -0.217
REMARK UNBOUND:                -0.166
REMARK SMILES CCCCCCCCO
REMARK SMILES IDX 5 1 4 2 3 3 2 4 1 5 6 6 7 7 8 8 9 9
REMARK H PARENT 9 10
REMARK Flexibility Score: inf
ROOT
ATOM      1  C   UNL     1       8.438   2.613  -8.839  1.00  0.00     0.000 C 
ENDROOT
BRANCH   1   2
ATOM      2  C   UNL     1       8.802   3.793  -7.921  1.00  0.00    -0.000 C 
BRANCH   2   3
ATOM      3  C   UNL     1       9.105   5.079  -8.704  1.00  0.00    -0.000 C 
BRANCH   3   4
ATOM      4  C   UNL     1       9.345   6.286  -7.785  1.00  0.00    -0.003 C 
ATOM      5  C   UNL     1       8.901   5.985  -6.356  1.00  0.00     0.004 C 
ENDBRANCH   3   4
ENDBRANCH   2   3
ENDBRANCH   1   2
BRANCH   1   6
ATOM      6  C   UNL     1       9.460   2.407  -9.968  1.00  0.00     0.002 C 
BRANCH   6   7
ATOM      7  C   UNL     1      10.066   0.995  -9.965  1.00  0.00     0.028 C 
BRANCH   7   8
ATOM      8  C   UNL     1       8.998  -0.086  -9.767  1.00  0.00     0.156 C 
BRANCH   8   9
ATOM      9  O   UNL     1       9.198  -0.767  -8.558  1.00  0.00    -0.396 OA
ATOM     10  H   UNL     1       9.656  -1.619  -8.780  1.00  0.00     0.210 HD
ENDBRANCH   8   9
ENDBRANCH   7   8
ENDBRANCH   6   7
ENDBRANCH   1   6
TORSDOF 7
ENDMDL
