MODEL 1
REMARK VINA RESULT:    -3.407      0.000      0.000
REMARK INTER + INTRA:          -5.377
REMARK INTER:                  -5.001
REMARK INTRA:                  -0.377
REMARK UNBOUND:                -0.377
REMARK SMILES O=C([O-])CCCCCCCC(=O)[O-]
REMARK SMILES IDX 7 1 6 2 5 3 4 4 2 5 1 6 3 7 8 8 9 9 10 10 11 11 12 12 13 13
REMARK H PARENT
REMARK Flexibility Score: inf
ROOT
ATOM      1  C   UNL     1       2.698  69.330  21.095  1.00  0.00     0.000 C 
ENDROOT
BRANCH   1   2
ATOM      2  C   UNL     1       4.143  69.672  20.703  1.00  0.00     0.000 C 
BRANCH   2   3
ATOM      3  C   UNL     1       5.134  68.689  21.345  1.00  0.00     0.006 C 
BRANCH   3   4
ATOM      4  C   UNL     1       5.581  69.145  22.740  1.00  0.00     0.053 C 
BRANCH   4   5
ATOM      5  C   UNL     1       6.981  68.705  23.045  1.00  0.00     0.041 C 
ATOM      6  O   UNL     1       7.525  67.801  22.358  1.00  0.00    -0.550 OA
ATOM      7  O   UNL     1       7.671  69.272  24.109  1.00  0.00    -0.550 OA
ENDBRANCH   4   5
ENDBRANCH   3   4
ENDBRANCH   2   3
ENDBRANCH   1   2
BRANCH   1   8
ATOM      8  C   UNL     1       1.844  68.895  19.894  1.00  0.00     0.000 C 
BRANCH   8   9
ATOM      9  C   UNL     1       0.865  69.990  19.436  1.00  0.00     0.006 C 
BRANCH   9  10
ATOM     10  C   UNL     1       1.463  70.880  18.337  1.00  0.00     0.053 C 
BRANCH  10  11
ATOM     11  C   UNL     1       1.951  72.187  18.882  1.00  0.00     0.041 C 
ATOM     12  O   UNL     1       1.205  72.884  19.619  1.00  0.00    -0.550 OA
ATOM     13  O   UNL     1       3.240  72.622  18.600  1.00  0.00    -0.550 OA
ENDBRANCH  10  11
ENDBRANCH   9  10
ENDBRANCH   8   9
ENDBRANCH   1   8
TORSDOF 8
ENDMDL
MODEL 2
REMARK VINA RESULT:    -3.374     14.154     15.075
REMARK INTER + INTRA:          -5.328
REMARK INTER:                  -4.814
REMARK INTRA:                  -0.515
REMARK UNBOUND:                -0.377
REMARK SMILES O=C([O-])CCCCCCCC(=O)[O-]
REMARK SMILES IDX 7 1 6 2 5 3 4 4 2 5 1 6 3 7 8 8 9 9 10 10 11 11 12 12 13 13
REMARK H PARENT
REMARK Flexibility Score: inf
ROOT
ATOM      1  C   UNL     1       0.344  66.606   6.843  1.00  0.00     0.000 C 
ENDROOT
BRANCH   1   2
ATOM      2  C   UNL     1      -0.213  65.342   7.516  1.00  0.00     0.000 C 
BRANCH   2   3
ATOM      3  C   UNL     1       0.849  64.681   8.406  1.00  0.00     0.006 C 
BRANCH   3   4
ATOM      4  C   UNL     1       1.297  63.319   7.861  1.00  0.00     0.053 C 
BRANCH   4   5
ATOM      5  C   UNL     1       2.549  62.838   8.530  1.00  0.00     0.041 C 
ATOM      6  O   UNL     1       2.563  61.729   9.126  1.00  0.00    -0.550 OA
ATOM      7  O   UNL     1       3.690  63.630   8.522  1.00  0.00    -0.550 OA
ENDBRANCH   4   5
ENDBRANCH   3   4
ENDBRANCH   2   3
ENDBRANCH   1   2
BRANCH   1   8
ATOM      8  C   UNL     1       1.854  66.780   7.064  1.00  0.00     0.000 C 
BRANCH   8   9
ATOM      9  C   UNL     1       2.674  66.516   5.790  1.00  0.00     0.006 C 
BRANCH   9  10
ATOM     10  C   UNL     1       4.124  66.123   6.105  1.00  0.00     0.053 C 
BRANCH  10  11
ATOM     11  C   UNL     1       5.105  66.927   5.308  1.00  0.00     0.041 C 
ATOM     12  O   UNL     1       5.222  68.164   5.509  1.00  0.00    -0.550 OA
ATOM     13  O   UNL     1       5.913  66.304   4.365  1.00  0.00    -0.550 OA
ENDBRANCH  10  11
ENDBRANCH   9  10
ENDBRANCH   8   9
ENDBRANCH   1   8
TORSDOF 8
ENDMDL
MODEL 3
REMARK VINA RESULT:    -3.294      1.559      6.533
REMARK INTER + INTRA:          -5.212
REMARK INTER:                  -4.780
REMARK INTRA:                  -0.432
REMARK UNBOUND:                -0.377
REMARK SMILES O=C([O-])CCCCCCCC(=O)[O-]
REMARK SMILES IDX 7 1 6 2 5 3 4 4 2 5 1 6 3 7 8 8 9 9 10 10 11 11 12 12 13 13
REMARK H PARENT
REMARK Flexibility Score: inf
ROOT
ATOM      1  C   UNL     1       4.057  68.772  22.200  1.00  0.00     0.000 C 
ENDROOT
BRANCH   1   2
ATOM      2  C   UNL     1       4.307  69.231  20.756  1.00  0.00     0.000 C 
BRANCH   2   3
ATOM      3  C   UNL     1       3.155  70.116  20.255  1.00  0.00     0.006 C 
BRANCH   3   4
ATOM      4  C   UNL     1       3.633  71.179  19.257  1.00  0.00     0.053 C 
BRANCH   4   5
ATOM      5  C   UNL     1       2.546  72.156  18.925  1.00  0.00     0.041 C 
ATOM      6  O   UNL     1       2.817  73.217  18.303  1.00  0.00    -0.550 OA
ATOM      7  O   UNL     1       1.241  71.910  19.330  1.00  0.00    -0.550 OA
ENDBRANCH   4   5
ENDBRANCH   3   4
ENDBRANCH   2   3
ENDBRANCH   1   2
BRANCH   1   8
ATOM      8  C   UNL     1       4.917  69.531  23.222  1.00  0.00     0.000 C 
BRANCH   8   9
ATOM      9  C   UNL     1       6.425  69.341  22.984  1.00  0.00     0.006 C 
BRANCH   9  10
ATOM     10  C   UNL     1       6.880  67.903  23.265  1.00  0.00     0.053 C 
BRANCH  10  11
ATOM     11  C   UNL     1       7.544  67.285  22.072  1.00  0.00     0.041 C 
ATOM     12  O   UNL     1       6.850  66.817  21.132  1.00  0.00    -0.550 OA
ATOM     13  O   UNL     1       8.930  67.254  21.986  1.00  0.00    -0.550 OA
ENDBRANCH  10  11
ENDBRANCH   9  10
ENDBRANCH   8   9
ENDBRANCH   1   8
TORSDOF 8
ENDMDL
MODEL 4
REMARK VINA RESULT:    -3.294     13.684     15.542
REMARK INTER + INTRA:          -5.211
REMARK INTER:                  -4.844
REMARK INTRA:                  -0.367
REMARK UNBOUND:                -0.377
REMARK SMILES O=C([O-])CCCCCCCC(=O)[O-]
REMARK SMILES IDX 7 1 6 2 5 3 4 4 2 5 1 6 3 7 8 8 9 9 10 10 11 11 12 12 13 13
REMARK H PARENT
REMARK Flexibility Score: inf
ROOT
ATOM      1  C   UNL     1       4.180  66.113   5.963  1.00  0.00     0.000 C 
ENDROOT
BRANCH   1   2
ATOM      2  C   UNL     1       4.523  66.353   4.485  1.00  0.00     0.000 C 
BRANCH   2   3
ATOM      3  C   UNL     1       6.044  66.402   4.276  1.00  0.00     0.006 C 
BRANCH   3   4
ATOM      4  C   UNL     1       6.547  67.826   4.001  1.00  0.00     0.053 C 
BRANCH   4   5
ATOM      5  C   UNL     1       7.141  68.451   5.226  1.00  0.00     0.041 C 
ATOM      6  O   UNL     1       6.393  68.940   6.113  1.00  0.00    -0.550 OA
ATOM      7  O   UNL     1       8.520  68.521   5.372  1.00  0.00    -0.550 OA
ENDBRANCH   4   5
ENDBRANCH   3   4
ENDBRANCH   2   3
ENDBRANCH   1   2
BRANCH   1   8
ATOM      8  C   UNL     1       2.686  66.304   6.264  1.00  0.00     0.000 C 
BRANCH   8   9
ATOM      9  C   UNL     1       2.195  65.409   7.416  1.00  0.00     0.006 C 
BRANCH   9  10
ATOM     10  C   UNL     1       3.212  64.317   7.775  1.00  0.00     0.053 C 
BRANCH  10  11
ATOM     11  C   UNL     1       2.975  63.764   9.147  1.00  0.00     0.041 C 
ATOM     12  O   UNL     1       2.574  64.516  10.073  1.00  0.00    -0.550 OA
ATOM     13  O   UNL     1       3.169  62.411   9.396  1.00  0.00    -0.550 OA
ENDBRANCH  10  11
ENDBRANCH   9  10
ENDBRANCH   8   9
ENDBRANCH   1   8
TORSDOF 8
ENDMDL
MODEL 5
REMARK VINA RESULT:    -3.267      1.476      2.179
REMARK INTER + INTRA:          -5.171
REMARK INTER:                  -4.923
REMARK INTRA:                  -0.248
REMARK UNBOUND:                -0.377
REMARK SMILES O=C([O-])CCCCCCCC(=O)[O-]
REMARK SMILES IDX 7 1 6 2 5 3 4 4 2 5 1 6 3 7 8 8 9 9 10 10 11 11 12 12 13 13
REMARK H PARENT
REMARK Flexibility Score: inf
ROOT
ATOM      1  C   UNL     1       4.476  69.659  20.879  1.00  0.00     0.000 C 
ENDROOT
BRANCH   1   2
ATOM      2  C   UNL     1       4.984  69.222  22.261  1.00  0.00     0.000 C 
BRANCH   2   3
ATOM      3  C   UNL     1       5.491  67.772  22.225  1.00  0.00     0.006 C 
BRANCH   3   4
ATOM      4  C   UNL     1       6.922  67.645  22.763  1.00  0.00     0.053 C 
BRANCH   4   5
ATOM      5  C   UNL     1       7.760  66.745  21.907  1.00  0.00     0.041 C 
ATOM      6  O   UNL     1       8.861  67.150  21.450  1.00  0.00    -0.550 OA
ATOM      7  O   UNL     1       7.308  65.471  21.587  1.00  0.00    -0.550 OA
ENDBRANCH   4   5
ENDBRANCH   3   4
ENDBRANCH   2   3
ENDBRANCH   1   2
BRANCH   1   8
ATOM      8  C   UNL     1       3.003  69.292  20.643  1.00  0.00     0.000 C 
BRANCH   8   9
ATOM      9  C   UNL     1       2.272  70.315  19.755  1.00  0.00     0.006 C 
BRANCH   9  10
ATOM     10  C   UNL     1       3.234  71.339  19.139  1.00  0.00     0.053 C 
BRANCH  10  11
ATOM     11  C   UNL     1       2.541  72.624  18.804  1.00  0.00     0.041 C 
ATOM     12  O   UNL     1       3.040  73.412  17.959  1.00  0.00    -0.550 OA
ATOM     13  O   UNL     1       1.328  72.938  19.405  1.00  0.00    -0.550 OA
ENDBRANCH  10  11
ENDBRANCH   9  10
ENDBRANCH   8   9
ENDBRANCH   1   8
TORSDOF 8
ENDMDL
MODEL 6
REMARK VINA RESULT:    -3.242     13.878     15.592
REMARK INTER + INTRA:          -5.135
REMARK INTER:                  -4.834
REMARK INTRA:                  -0.301
REMARK UNBOUND:                -0.377
REMARK SMILES O=C([O-])CCCCCCCC(=O)[O-]
REMARK SMILES IDX 7 1 6 2 5 3 4 4 2 5 1 6 3 7 8 8 9 9 10 10 11 11 12 12 13 13
REMARK H PARENT
REMARK Flexibility Score: inf
ROOT
ATOM      1  C   UNL     1       4.033  66.656   5.970  1.00  0.00     0.000 C 
ENDROOT
BRANCH   1   2
ATOM      2  C   UNL     1       3.696  65.443   6.850  1.00  0.00     0.000 C 
BRANCH   2   3
ATOM      3  C   UNL     1       2.378  65.665   7.608  1.00  0.00     0.006 C 
BRANCH   3   4
ATOM      4  C   UNL     1       2.240  64.731   8.817  1.00  0.00     0.053 C 
BRANCH   4   5
ATOM      5  C   UNL     1       2.044  63.306   8.398  1.00  0.00     0.041 C 
ATOM      6  O   UNL     1       2.781  62.399   8.868  1.00  0.00    -0.550 OA
ATOM      7  O   UNL     1       1.069  62.984   7.462  1.00  0.00    -0.550 OA
ENDBRANCH   4   5
ENDBRANCH   3   4
ENDBRANCH   2   3
ENDBRANCH   1   2
BRANCH   1   8
ATOM      8  C   UNL     1       4.684  66.260   4.636  1.00  0.00     0.000 C 
BRANCH   8   9
ATOM      9  C   UNL     1       5.968  67.056   4.343  1.00  0.00     0.006 C 
BRANCH   9  10
ATOM     10  C   UNL     1       6.216  68.158   5.382  1.00  0.00     0.053 C 
BRANCH  10  11
ATOM     11  C   UNL     1       7.647  68.599   5.396  1.00  0.00     0.041 C 
ATOM     12  O   UNL     1       8.435  68.222   4.490  1.00  0.00    -0.550 OA
ATOM     13  O   UNL     1       8.104  69.451   6.394  1.00  0.00    -0.550 OA
ENDBRANCH  10  11
ENDBRANCH   9  10
ENDBRANCH   8   9
ENDBRANCH   1   8
TORSDOF 8
ENDMDL
MODEL 7
REMARK VINA RESULT:    -3.199      0.793      6.096
REMARK INTER + INTRA:          -5.072
REMARK INTER:                  -4.721
REMARK INTRA:                  -0.352
REMARK UNBOUND:                -0.377
REMARK SMILES O=C([O-])CCCCCCCC(=O)[O-]
REMARK SMILES IDX 7 1 6 2 5 3 4 4 2 5 1 6 3 7 8 8 9 9 10 10 11 11 12 12 13 13
REMARK H PARENT
REMARK Flexibility Score: inf
ROOT
ATOM      1  C   UNL     1       3.537  69.608  20.820  1.00  0.00     0.000 C 
ENDROOT
BRANCH   1   2
ATOM      2  C   UNL     1       3.043  69.053  19.475  1.00  0.00     0.000 C 
BRANCH   2   3
ATOM      3  C   UNL     1       1.707  69.697  19.074  1.00  0.00     0.006 C 
BRANCH   3   4
ATOM      4  C   UNL     1       1.891  70.825  18.049  1.00  0.00     0.053 C 
BRANCH   4   5
ATOM      5  C   UNL     1       2.238  72.124  18.711  1.00  0.00     0.041 C 
ATOM      6  O   UNL     1       3.404  72.590  18.619  1.00  0.00    -0.550 OA
ATOM      7  O   UNL     1       1.281  72.803  19.455  1.00  0.00    -0.550 OA
ENDBRANCH   4   5
ENDBRANCH   3   4
ENDBRANCH   2   3
ENDBRANCH   1   2
BRANCH   1   8
ATOM      8  C   UNL     1       3.059  68.774  22.018  1.00  0.00     0.000 C 
BRANCH   8   9
ATOM      9  C   UNL     1       4.204  68.403  22.976  1.00  0.00     0.006 C 
BRANCH   9  10
ATOM     10  C   UNL     1       5.306  69.470  23.002  1.00  0.00     0.053 C 
BRANCH  10  11
ATOM     11  C   UNL     1       6.674  68.859  22.994  1.00  0.00     0.041 C 
ATOM     12  O   UNL     1       7.532  69.213  23.844  1.00  0.00    -0.550 OA
ATOM     13  O   UNL     1       6.992  67.876  22.065  1.00  0.00    -0.550 OA
ENDBRANCH  10  11
ENDBRANCH   9  10
ENDBRANCH   8   9
ENDBRANCH   1   8
TORSDOF 8
ENDMDL
MODEL 8
REMARK VINA RESULT:    -3.177      5.024      7.318
REMARK INTER + INTRA:          -5.039
REMARK INTER:                  -4.726
REMARK INTRA:                  -0.313
REMARK UNBOUND:                -0.377
REMARK SMILES O=C([O-])CCCCCCCC(=O)[O-]
REMARK SMILES IDX 7 1 6 2 5 3 4 4 2 5 1 6 3 7 8 8 9 9 10 10 11 11 12 12 13 13
REMARK H PARENT
REMARK Flexibility Score: inf
ROOT
ATOM      1  C   UNL     1       1.816  69.920  14.260  1.00  0.00     0.000 C 
ENDROOT
BRANCH   1   2
ATOM      2  C   UNL     1       2.764  70.317  15.401  1.00  0.00     0.000 C 
BRANCH   2   3
ATOM      3  C   UNL     1       2.066  70.190  16.764  1.00  0.00     0.006 C 
BRANCH   3   4
ATOM      4  C   UNL     1       2.601  71.201  17.787  1.00  0.00     0.053 C 
BRANCH   4   5
ATOM      5  C   UNL     1       1.556  71.581  18.791  1.00  0.00     0.041 C 
ATOM      6  O   UNL     1       0.694  70.740  19.157  1.00  0.00    -0.550 OA
ATOM      7  O   UNL     1       1.515  72.875  19.296  1.00  0.00    -0.550 OA
ENDBRANCH   4   5
ENDBRANCH   3   4
ENDBRANCH   2   3
ENDBRANCH   1   2
BRANCH   1   8
ATOM      8  C   UNL     1       2.083  70.704  12.966  1.00  0.00     0.000 C 
BRANCH   8   9
ATOM      9  C   UNL     1       3.001  71.918  13.187  1.00  0.00     0.006 C 
BRANCH   9  10
ATOM     10  C   UNL     1       3.945  72.155  12.000  1.00  0.00     0.053 C 
BRANCH  10  11
ATOM     11  C   UNL     1       3.716  73.493  11.365  1.00  0.00     0.041 C 
ATOM     12  O   UNL     1       4.408  74.485  11.712  1.00  0.00    -0.550 OA
ATOM     13  O   UNL     1       2.761  73.635  10.367  1.00  0.00    -0.550 OA
ENDBRANCH  10  11
ENDBRANCH   9  10
ENDBRANCH   8   9
ENDBRANCH   1   8
TORSDOF 8
ENDMDL
MODEL 9
REMARK VINA RESULT:    -3.131      4.748      8.170
REMARK INTER + INTRA:          -4.972
REMARK INTER:                  -4.630
REMARK INTRA:                  -0.342
REMARK UNBOUND:                -0.377
REMARK SMILES O=C([O-])CCCCCCCC(=O)[O-]
REMARK SMILES IDX 7 1 6 2 5 3 4 4 2 5 1 6 3 7 8 8 9 9 10 10 11 11 12 12 13 13
REMARK H PARENT
REMARK Flexibility Score: inf
ROOT
ATOM      1  C   UNL     1       2.520  70.538  14.521  1.00  0.00     0.000 C 
ENDROOT
BRANCH   1   2
ATOM      2  C   UNL     1       1.793  70.079  13.248  1.00  0.00     0.000 C 
BRANCH   2   3
ATOM      3  C   UNL     1       2.105  71.015  12.071  1.00  0.00     0.006 C 
BRANCH   3   4
ATOM      4  C   UNL     1       2.619  72.383  12.538  1.00  0.00     0.053 C 
BRANCH   4   5
ATOM      5  C   UNL     1       3.805  72.832  11.739  1.00  0.00     0.041 C 
ATOM      6  O   UNL     1       4.623  71.987  11.289  1.00  0.00    -0.550 OA
ATOM      7  O   UNL     1       4.024  74.186  11.520  1.00  0.00    -0.550 OA
ENDBRANCH   4   5
ENDBRANCH   3   4
ENDBRANCH   2   3
ENDBRANCH   1   2
BRANCH   1   8
ATOM      8  C   UNL     1       1.883  69.981  15.803  1.00  0.00     0.000 C 
BRANCH   8   9
ATOM      9  C   UNL     1       2.754  70.217  17.049  1.00  0.00     0.006 C 
BRANCH   9  10
ATOM     10  C   UNL     1       1.931  70.715  18.245  1.00  0.00     0.053 C 
BRANCH  10  11
ATOM     11  C   UNL     1       2.267  72.131  18.603  1.00  0.00     0.041 C 
ATOM     12  O   UNL     1       3.350  72.642  18.215  1.00  0.00    -0.550 OA
ATOM     13  O   UNL     1       1.370  72.895  19.339  1.00  0.00    -0.550 OA
ENDBRANCH  10  11
ENDBRANCH   9  10
ENDBRANCH   8   9
ENDBRANCH   1   8
TORSDOF 8
ENDMDL
