MODEL 1
REMARK VINA RESULT:    -2.432      0.000      0.000
REMARK INTER + INTRA:          -3.254
REMARK INTER:                  -3.001
REMARK INTRA:                  -0.254
REMARK UNBOUND:                -0.254
REMARK SMILES CCCCC(=O)CC
REMARK SMILES IDX 4 1 3 2 2 3 1 4 5 5 6 6 7 7 8 8
REMARK H PARENT
REMARK Flexibility Score: inf
ROOT
ATOM      1  C   UNL     1     141.954 134.271 144.728  1.00  0.00     0.075 C 
ENDROOT
BRANCH   1   2
ATOM      2  C   UNL     1     142.987 133.285 145.291  1.00  0.00     0.008 C 
BRANCH   2   3
ATOM      3  C   UNL     1     143.519 132.322 144.221  1.00  0.00    -0.003 C 
ATOM      4  C   UNL     1     144.806 131.642 144.682  1.00  0.00     0.004 C 
ENDBRANCH   2   3
ENDBRANCH   1   2
BRANCH   1   5
ATOM      5  C   UNL     1     142.496 135.676 144.620  1.00  0.00     0.132 C 
ATOM      6  O   UNL     1     142.251 136.483 145.505  1.00  0.00    -0.300 OA
BRANCH   5   7
ATOM      7  C   UNL     1     143.286 136.118 143.416  1.00  0.00     0.072 C 
ATOM      8  C   UNL     1     144.778 136.186 143.726  1.00  0.00     0.012 C 
ENDBRANCH   5   7
ENDBRANCH   1   5
TORSDOF 4
ENDMDL
MODEL 2
REMARK VINA RESULT:    -2.428      8.129      9.654
REMARK INTER + INTRA:          -3.250
REMARK INTER:                  -2.985
REMARK INTRA:                  -0.265
REMARK UNBOUND:                -0.254
REMARK SMILES CCCCC(=O)CC
REMARK SMILES IDX 4 1 3 2 2 3 1 4 5 5 6 6 7 7 8 8
REMARK H PARENT
REMARK Flexibility Score: inf
ROOT
ATOM      1  C   UNL     1     134.383 138.641 143.619  1.00  0.00     0.075 C 
ENDROOT
BRANCH   1   2
ATOM      2  C   UNL     1     133.893 139.062 145.011  1.00  0.00     0.008 C 
BRANCH   2   3
ATOM      3  C   UNL     1     132.891 138.062 145.605  1.00  0.00    -0.003 C 
ATOM      4  C   UNL     1     132.039 137.422 144.512  1.00  0.00     0.004 C 
ENDBRANCH   2   3
ENDBRANCH   1   2
BRANCH   1   5
ATOM      5  C   UNL     1     135.767 138.040 143.652  1.00  0.00     0.132 C 
ATOM      6  O   UNL     1     136.742 138.779 143.652  1.00  0.00    -0.300 OA
BRANCH   5   7
ATOM      7  C   UNL     1     135.972 136.548 143.628  1.00  0.00     0.072 C 
ATOM      8  C   UNL     1     136.913 136.101 144.743  1.00  0.00     0.012 C 
ENDBRANCH   5   7
ENDBRANCH   1   5
TORSDOF 4
ENDMDL
MODEL 3
REMARK VINA RESULT:    -2.412     12.513     14.006
REMARK INTER + INTRA:          -3.230
REMARK INTER:                  -2.941
REMARK INTRA:                  -0.289
REMARK UNBOUND:                -0.254
REMARK SMILES CCCCC(=O)CC
REMARK SMILES IDX 4 1 3 2 2 3 1 4 5 5 6 6 7 7 8 8
REMARK H PARENT
REMARK Flexibility Score: inf
ROOT
ATOM      1  C   UNL     1     138.596 147.170 143.607  1.00  0.00     0.075 C 
ENDROOT
BRANCH   1   2
ATOM      2  C   UNL     1     139.070 147.682 144.975  1.00  0.00     0.008 C 
BRANCH   2   3
ATOM      3  C   UNL     1     138.088 148.686 145.594  1.00  0.00    -0.003 C 
ATOM      4  C   UNL     1     137.396 149.516 144.515  1.00  0.00     0.004 C 
ENDBRANCH   2   3
ENDBRANCH   1   2
BRANCH   1   5
ATOM      5  C   UNL     1     138.050 145.764 143.674  1.00  0.00     0.132 C 
ATOM      6  O   UNL     1     138.825 144.822 143.746  1.00  0.00    -0.300 OA
BRANCH   5   7
ATOM      7  C   UNL     1     136.569 145.498 143.599  1.00  0.00     0.072 C 
ATOM      8  C   UNL     1     136.041 144.933 144.913  1.00  0.00     0.012 C 
ENDBRANCH   5   7
ENDBRANCH   1   5
TORSDOF 4
ENDMDL
MODEL 4
REMARK VINA RESULT:    -2.411      8.265      9.776
REMARK INTER + INTRA:          -3.228
REMARK INTER:                  -2.851
REMARK INTRA:                  -0.378
REMARK UNBOUND:                -0.254
REMARK SMILES CCCCC(=O)CC
REMARK SMILES IDX 4 1 3 2 2 3 1 4 5 5 6 6 7 7 8 8
REMARK H PARENT
REMARK Flexibility Score: inf
ROOT
ATOM      1  C   UNL     1     135.137 136.307 144.737  1.00  0.00     0.075 C 
ENDROOT
BRANCH   1   2
ATOM      2  C   UNL     1     136.088 136.700 143.598  1.00  0.00     0.008 C 
BRANCH   2   3
ATOM      3  C   UNL     1     136.103 138.214 143.347  1.00  0.00    -0.003 C 
ATOM      4  C   UNL     1     136.281 138.987 144.651  1.00  0.00     0.004 C 
ENDBRANCH   2   3
ENDBRANCH   1   2
BRANCH   1   5
ATOM      5  C   UNL     1     133.723 136.084 144.258  1.00  0.00     0.132 C 
ATOM      6  O   UNL     1     133.513 135.279 143.361  1.00  0.00    -0.300 OA
BRANCH   5   7
ATOM      7  C   UNL     1     132.573 136.874 144.824  1.00  0.00     0.072 C 
ATOM      8  C   UNL     1     132.388 138.193 144.080  1.00  0.00     0.012 C 
ENDBRANCH   5   7
ENDBRANCH   1   5
TORSDOF 4
ENDMDL
MODEL 5
REMARK VINA RESULT:    -2.401      9.233     11.009
REMARK INTER + INTRA:          -3.217
REMARK INTER:                  -2.829
REMARK INTRA:                  -0.387
REMARK UNBOUND:                -0.254
REMARK SMILES CCCCC(=O)CC
REMARK SMILES IDX 4 1 3 2 2 3 1 4 5 5 6 6 7 7 8 8
REMARK H PARENT
REMARK Flexibility Score: inf
ROOT
ATOM      1  C   UNL     1     146.389 145.248 144.834  1.00  0.00     0.075 C 
ENDROOT
BRANCH   1   2
ATOM      2  C   UNL     1     145.423 144.889 143.696  1.00  0.00     0.008 C 
BRANCH   2   3
ATOM      3  C   UNL     1     145.419 143.386 143.386  1.00  0.00    -0.003 C 
ATOM      4  C   UNL     1     145.479 142.559 144.668  1.00  0.00     0.004 C 
ENDBRANCH   2   3
ENDBRANCH   1   2
BRANCH   1   5
ATOM      5  C   UNL     1     147.792 145.506 144.340  1.00  0.00     0.132 C 
ATOM      6  O   UNL     1     147.974 146.318 143.445  1.00  0.00    -0.300 OA
BRANCH   5   7
ATOM      7  C   UNL     1     148.967 144.741 144.892  1.00  0.00     0.072 C 
ATOM      8  C   UNL     1     149.215 143.460 144.102  1.00  0.00     0.012 C 
ENDBRANCH   5   7
ENDBRANCH   1   5
TORSDOF 4
ENDMDL
MODEL 6
REMARK VINA RESULT:    -2.401      1.227      3.377
REMARK INTER + INTRA:          -3.216
REMARK INTER:                  -2.860
REMARK INTRA:                  -0.357
REMARK UNBOUND:                -0.254
REMARK SMILES CCCCC(=O)CC
REMARK SMILES IDX 4 1 3 2 2 3 1 4 5 5 6 6 7 7 8 8
REMARK H PARENT
REMARK Flexibility Score: inf
ROOT
ATOM      1  C   UNL     1     141.832 134.539 144.834  1.00  0.00     0.075 C 
ENDROOT
BRANCH   1   2
ATOM      2  C   UNL     1     142.523 135.908 144.785  1.00  0.00     0.008 C 
BRANCH   2   3
ATOM      3  C   UNL     1     143.259 136.144 143.459  1.00  0.00    -0.003 C 
ATOM      4  C   UNL     1     144.771 136.163 143.663  1.00  0.00     0.004 C 
ENDBRANCH   2   3
ENDBRANCH   1   2
BRANCH   1   5
ATOM      5  C   UNL     1     142.770 133.433 145.253  1.00  0.00     0.132 C 
ATOM      6  O   UNL     1     143.168 133.389 146.408  1.00  0.00    -0.300 OA
BRANCH   5   7
ATOM      7  C   UNL     1     143.269 132.415 144.261  1.00  0.00     0.072 C 
ATOM      8  C   UNL     1     144.783 132.248 144.353  1.00  0.00     0.012 C 
ENDBRANCH   5   7
ENDBRANCH   1   5
TORSDOF 4
ENDMDL
MODEL 7
REMARK VINA RESULT:    -2.401      2.174      4.197
REMARK INTER + INTRA:          -3.216
REMARK INTER:                  -2.832
REMARK INTRA:                  -0.385
REMARK UNBOUND:                -0.254
REMARK SMILES CCCCC(=O)CC
REMARK SMILES IDX 4 1 3 2 2 3 1 4 5 5 6 6 7 7 8 8
REMARK H PARENT
REMARK Flexibility Score: inf
ROOT
ATOM      1  C   UNL     1     145.188 135.074 144.824  1.00  0.00     0.075 C 
ENDROOT
BRANCH   1   2
ATOM      2  C   UNL     1     144.864 136.070 143.703  1.00  0.00     0.008 C 
BRANCH   2   3
ATOM      3  C   UNL     1     143.360 136.140 143.402  1.00  0.00    -0.003 C 
ATOM      4  C   UNL     1     142.536 136.030 144.682  1.00  0.00     0.004 C 
ENDBRANCH   2   3
ENDBRANCH   1   2
BRANCH   1   5
ATOM      5  C   UNL     1     145.474 133.688 144.301  1.00  0.00     0.132 C 
ATOM      6  O   UNL     1     146.307 133.539 143.419  1.00  0.00    -0.300 OA
BRANCH   5   7
ATOM      7  C   UNL     1     144.713 132.490 144.806  1.00  0.00     0.072 C 
ATOM      8  C   UNL     1     143.358 132.363 144.115  1.00  0.00     0.012 C 
ENDBRANCH   5   7
ENDBRANCH   1   5
TORSDOF 4
ENDMDL
MODEL 8
REMARK VINA RESULT:    -2.384     12.734     14.168
REMARK INTER + INTRA:          -3.195
REMARK INTER:                  -2.803
REMARK INTRA:                  -0.392
REMARK UNBOUND:                -0.254
REMARK SMILES CCCCC(=O)CC
REMARK SMILES IDX 4 1 3 2 2 3 1 4 5 5 6 6 7 7 8 8
REMARK H PARENT
REMARK Flexibility Score: inf
ROOT
ATOM      1  C   UNL     1     136.237 146.480 144.767  1.00  0.00     0.075 C 
ENDROOT
BRANCH   1   2
ATOM      2  C   UNL     1     136.596 145.490 143.650  1.00  0.00     0.008 C 
BRANCH   2   3
ATOM      3  C   UNL     1     138.095 145.498 143.322  1.00  0.00    -0.003 C 
ATOM      4  C   UNL     1     138.937 145.474 144.595  1.00  0.00     0.004 C 
ENDBRANCH   2   3
ENDBRANCH   1   2
BRANCH   1   5
ATOM      5  C   UNL     1     136.026 147.882 144.250  1.00  0.00     0.132 C 
ATOM      6  O   UNL     1     135.199 148.079 143.371  1.00  0.00    -0.300 OA
BRANCH   5   7
ATOM      7  C   UNL     1     136.853 149.034 144.758  1.00  0.00     0.072 C 
ATOM      8  C   UNL     1     138.162 149.159 143.985  1.00  0.00     0.012 C 
ENDBRANCH   5   7
ENDBRANCH   1   5
TORSDOF 4
ENDMDL
MODEL 9
REMARK VINA RESULT:    -2.335      9.291     10.618
REMARK INTER + INTRA:          -3.135
REMARK INTER:                  -2.765
REMARK INTRA:                  -0.370
REMARK UNBOUND:                -0.254
REMARK SMILES CCCCC(=O)CC
REMARK SMILES IDX 4 1 3 2 2 3 1 4 5 5 6 6 7 7 8 8
REMARK H PARENT
REMARK Flexibility Score: inf
ROOT
ATOM      1  C   UNL     1     147.652 142.157 144.723  1.00  0.00     0.075 C 
ENDROOT
BRANCH   1   2
ATOM      2  C   UNL     1     146.250 142.760 144.887  1.00  0.00     0.008 C 
BRANCH   2   3
ATOM      3  C   UNL     1     145.696 143.315 143.568  1.00  0.00    -0.003 C 
ATOM      4  C   UNL     1     145.455 144.820 143.662  1.00  0.00     0.004 C 
ENDBRANCH   2   3
ENDBRANCH   1   2
BRANCH   1   5
ATOM      5  C   UNL     1     148.745 143.189 144.859  1.00  0.00     0.132 C 
ATOM      6  O   UNL     1     149.596 143.281 143.986  1.00  0.00    -0.300 OA
BRANCH   5   7
ATOM      7  C   UNL     1     148.839 144.071 146.077  1.00  0.00     0.072 C 
ATOM      8  C   UNL     1     148.649 145.540 145.713  1.00  0.00     0.012 C 
ENDBRANCH   5   7
ENDBRANCH   1   5
TORSDOF 4
ENDMDL
