MODEL 1
REMARK VINA RESULT:    -5.343      0.000      0.000
REMARK INTER + INTRA:          -8.201
REMARK INTER:                  -7.217
REMARK INTRA:                  -0.984
REMARK UNBOUND:                -0.984
REMARK SMILES CC(=O)CCC=C(C)CCC=C(C)C
REMARK SMILES IDX 7 1 6 2 8 3 9 4 10 5 11 6 13 7 12 8 14 9 5 10 4 11 2 12 3 13
REMARK SMILES IDX 1 14
REMARK H PARENT
REMARK Flexibility Score: inf
ROOT
ATOM      1  C   UNL     1      83.713   3.389  27.596  1.00  0.00    -0.077 C 
ATOM      2  C   UNL     1      82.564   2.861  28.078  1.00  0.00    -0.028 C 
ATOM      3  C   UNL     1      84.995   3.377  28.396  1.00  0.00     0.039 C 
ENDROOT
BRANCH   1   4
ATOM      4  C   UNL     1      83.718   3.993  26.208  1.00  0.00     0.034 C 
BRANCH   4   5
ATOM      5  C   UNL     1      83.642   5.522  26.280  1.00  0.00     0.032 C 
BRANCH   5   6
ATOM      6  C   UNL     1      82.222   5.996  26.100  1.00  0.00    -0.028 C 
ATOM      7  C   UNL     1      79.993   6.775  26.784  1.00  0.00     0.039 C 
ATOM      8  C   UNL     1      81.405   6.360  27.113  1.00  0.00    -0.080 C 
ATOM      9  C   UNL     1      81.870   6.378  28.551  1.00  0.00     0.039 C 
ENDBRANCH   5   6
ENDBRANCH   4   5
ENDBRANCH   1   4
BRANCH   2  10
ATOM     10  C   UNL     1      82.409   2.264  29.454  1.00  0.00     0.035 C 
BRANCH  10  11
ATOM     11  C   UNL     1      81.502   3.143  30.327  1.00  0.00     0.079 C 
BRANCH  11  12
ATOM     12  C   UNL     1      80.661   2.402  31.347  1.00  0.00     0.130 C 
ATOM     13  O   UNL     1      79.995   3.068  32.125  1.00  0.00    -0.300 OA
ATOM     14  C   UNL     1      80.586   0.902  31.469  1.00  0.00     0.087 C 
ENDBRANCH  11  12
ENDBRANCH  10  11
ENDBRANCH   2  10
TORSDOF 6
ENDMDL
MODEL 2
REMARK VINA RESULT:    -5.336      1.806      4.645
REMARK INTER + INTRA:          -8.192
REMARK INTER:                  -7.187
REMARK INTRA:                  -1.006
REMARK UNBOUND:                -0.984
REMARK SMILES CC(=O)CCC=C(C)CCC=C(C)C
REMARK SMILES IDX 7 1 6 2 8 3 9 4 10 5 11 6 13 7 12 8 14 9 5 10 4 11 2 12 3 13
REMARK SMILES IDX 1 14
REMARK H PARENT
REMARK Flexibility Score: inf
ROOT
ATOM      1  C   UNL     1      84.643   4.904  27.135  1.00  0.00    -0.077 C 
ATOM      2  C   UNL     1      83.864   4.496  26.106  1.00  0.00    -0.028 C 
ATOM      3  C   UNL     1      84.481   6.265  27.770  1.00  0.00     0.039 C 
ENDROOT
BRANCH   1   4
ATOM      4  C   UNL     1      85.697   3.962  27.676  1.00  0.00     0.034 C 
BRANCH   4   5
ATOM      5  C   UNL     1      85.064   2.648  28.145  1.00  0.00     0.032 C 
BRANCH   5   6
ATOM      6  C   UNL     1      83.941   2.911  29.116  1.00  0.00    -0.028 C 
ATOM      7  C   UNL     1      81.645   2.850  29.990  1.00  0.00     0.039 C 
ATOM      8  C   UNL     1      82.673   2.473  28.954  1.00  0.00    -0.080 C 
ATOM      9  C   UNL     1      82.268   1.609  27.782  1.00  0.00     0.039 C 
ENDBRANCH   5   6
ENDBRANCH   4   5
ENDBRANCH   1   4
BRANCH   2  10
ATOM     10  C   UNL     1      82.805   5.344  25.448  1.00  0.00     0.035 C 
BRANCH  10  11
ATOM     11  C   UNL     1      81.436   5.104  26.101  1.00  0.00     0.079 C 
BRANCH  11  12
ATOM     12  C   UNL     1      81.012   6.138  27.124  1.00  0.00     0.130 C 
ATOM     13  O   UNL     1      81.327   5.946  28.289  1.00  0.00    -0.300 OA
ATOM     14  C   UNL     1      80.230   7.387  26.808  1.00  0.00     0.087 C 
ENDBRANCH  11  12
ENDBRANCH  10  11
ENDBRANCH   2  10
TORSDOF 6
ENDMDL
MODEL 3
REMARK VINA RESULT:    -4.754      1.397      3.697
REMARK INTER + INTRA:          -7.406
REMARK INTER:                  -7.007
REMARK INTRA:                  -0.399
REMARK UNBOUND:                -0.984
REMARK SMILES CC(=O)CCC=C(C)CCC=C(C)C
REMARK SMILES IDX 7 1 6 2 8 3 9 4 10 5 11 6 13 7 12 8 14 9 5 10 4 11 2 12 3 13
REMARK SMILES IDX 1 14
REMARK H PARENT
REMARK Flexibility Score: inf
ROOT
ATOM      1  C   UNL     1      82.108   5.838  27.393  1.00  0.00    -0.077 C 
ATOM      2  C   UNL     1      82.588   5.503  28.613  1.00  0.00    -0.028 C 
ATOM      3  C   UNL     1      80.722   6.411  27.210  1.00  0.00     0.039 C 
ENDROOT
BRANCH   1   4
ATOM      4  C   UNL     1      82.992   5.651  26.179  1.00  0.00     0.034 C 
BRANCH   4   5
ATOM      5  C   UNL     1      83.645   4.264  26.190  1.00  0.00     0.032 C 
BRANCH   5   6
ATOM      6  C   UNL     1      85.025   4.327  26.794  1.00  0.00    -0.028 C 
ATOM      7  C   UNL     1      86.817   3.824  28.399  1.00  0.00     0.039 C 
ATOM      8  C   UNL     1      85.414   3.629  27.883  1.00  0.00    -0.080 C 
ATOM      9  C   UNL     1      84.494   2.653  28.579  1.00  0.00     0.039 C 
ENDBRANCH   5   6
ENDBRANCH   4   5
ENDBRANCH   1   4
BRANCH   2  10
ATOM     10  C   UNL     1      81.804   5.602  29.898  1.00  0.00     0.035 C 
BRANCH  10  11
ATOM     11  C   UNL     1      82.208   4.482  30.866  1.00  0.00     0.079 C 
BRANCH  11  12
ATOM     12  C   UNL     1      81.354   3.232  30.809  1.00  0.00     0.130 C 
ATOM     13  O   UNL     1      81.586   2.426  29.921  1.00  0.00    -0.300 OA
ATOM     14  C   UNL     1      80.238   2.910  31.769  1.00  0.00     0.087 C 
ENDBRANCH  11  12
ENDBRANCH  10  11
ENDBRANCH   2  10
TORSDOF 6
ENDMDL
MODEL 4
REMARK VINA RESULT:    -4.750      2.075      4.983
REMARK INTER + INTRA:          -7.401
REMARK INTER:                  -7.171
REMARK INTRA:                  -0.230
REMARK UNBOUND:                -0.984
REMARK SMILES CC(=O)CCC=C(C)CCC=C(C)C
REMARK SMILES IDX 7 1 6 2 8 3 9 4 10 5 11 6 13 7 12 8 14 9 5 10 4 11 2 12 3 13
REMARK SMILES IDX 1 14
REMARK H PARENT
REMARK Flexibility Score: inf
ROOT
ATOM      1  C   UNL     1      83.717   3.914  27.790  1.00  0.00    -0.077 C 
ATOM      2  C   UNL     1      82.687   3.977  26.915  1.00  0.00    -0.028 C 
ATOM      3  C   UNL     1      84.859   4.903  27.753  1.00  0.00     0.039 C 
ENDROOT
BRANCH   1   4
ATOM      4  C   UNL     1      83.718   2.831  28.848  1.00  0.00     0.034 C 
BRANCH   4   5
ATOM      5  C   UNL     1      82.311   2.252  29.034  1.00  0.00     0.032 C 
BRANCH   5   6
ATOM      6  C   UNL     1      81.586   2.957  30.153  1.00  0.00    -0.028 C 
ATOM      7  C   UNL     1      80.136   3.174  32.125  1.00  0.00     0.039 C 
ATOM      8  C   UNL     1      80.837   2.334  31.089  1.00  0.00    -0.080 C 
ATOM      9  C   UNL     1      80.700   0.829  31.134  1.00  0.00     0.039 C 
ENDBRANCH   5   6
ENDBRANCH   4   5
ENDBRANCH   1   4
BRANCH   2  10
ATOM     10  C   UNL     1      82.579   4.977  25.791  1.00  0.00     0.035 C 
BRANCH  10  11
ATOM     11  C   UNL     1      81.209   5.670  25.812  1.00  0.00     0.079 C 
BRANCH  11  12
ATOM     12  C   UNL     1      80.973   6.611  26.976  1.00  0.00     0.130 C 
ATOM     13  O   UNL     1      80.251   7.578  26.786  1.00  0.00    -0.300 OA
ATOM     14  C   UNL     1      81.563   6.440  28.352  1.00  0.00     0.087 C 
ENDBRANCH  11  12
ENDBRANCH  10  11
ENDBRANCH   2  10
TORSDOF 6
ENDMDL
MODEL 5
REMARK VINA RESULT:    -4.458      2.309      5.125
REMARK INTER + INTRA:          -7.005
REMARK INTER:                  -6.731
REMARK INTRA:                  -0.274
REMARK UNBOUND:                -0.984
REMARK SMILES CC(=O)CCC=C(C)CCC=C(C)C
REMARK SMILES IDX 7 1 6 2 8 3 9 4 10 5 11 6 13 7 12 8 14 9 5 10 4 11 2 12 3 13
REMARK SMILES IDX 1 14
REMARK H PARENT
REMARK Flexibility Score: inf
ROOT
ATOM      1  C   UNL     1      82.139   4.005  29.713  1.00  0.00    -0.077 C 
ATOM      2  C   UNL     1      82.223   4.881  28.686  1.00  0.00    -0.028 C 
ATOM      3  C   UNL     1      81.922   4.461  31.138  1.00  0.00     0.039 C 
ENDROOT
BRANCH   1   4
ATOM      4  C   UNL     1      82.247   2.523  29.425  1.00  0.00     0.034 C 
BRANCH   4   5
ATOM      5  C   UNL     1      83.221   2.263  28.271  1.00  0.00     0.032 C 
BRANCH   5   6
ATOM      6  C   UNL     1      84.637   2.579  28.683  1.00  0.00    -0.028 C 
ATOM      7  C   UNL     1      86.850   3.637  28.543  1.00  0.00     0.039 C 
ATOM      8  C   UNL     1      85.442   3.452  28.039  1.00  0.00    -0.080 C 
ATOM      9  C   UNL     1      84.966   4.253  26.849  1.00  0.00     0.039 C 
ENDBRANCH   5   6
ENDBRANCH   4   5
ENDBRANCH   1   4
BRANCH   2  10
ATOM     10  C   UNL     1      82.169   6.381  28.835  1.00  0.00     0.035 C 
BRANCH  10  11
ATOM     11  C   UNL     1      80.973   6.959  28.065  1.00  0.00     0.079 C 
BRANCH  11  12
ATOM     12  C   UNL     1      80.796   6.439  26.652  1.00  0.00     0.130 C 
ATOM     13  O   UNL     1      79.676   6.489  26.166  1.00  0.00    -0.300 OA
ATOM     14  C   UNL     1      81.901   5.867  25.804  1.00  0.00     0.087 C 
ENDBRANCH  11  12
ENDBRANCH  10  11
ENDBRANCH   2  10
TORSDOF 6
ENDMDL
MODEL 6
REMARK VINA RESULT:    -4.442     15.949     17.008
REMARK INTER + INTRA:          -6.984
REMARK INTER:                  -6.532
REMARK INTRA:                  -0.452
REMARK UNBOUND:                -0.984
REMARK SMILES CC(=O)CCC=C(C)CCC=C(C)C
REMARK SMILES IDX 7 1 6 2 8 3 9 4 10 5 11 6 13 7 12 8 14 9 5 10 4 11 2 12 3 13
REMARK SMILES IDX 1 14
REMARK H PARENT
REMARK Flexibility Score: inf
ROOT
ATOM      1  C   UNL     1      79.077  -9.251  18.240  1.00  0.00    -0.077 C 
ATOM      2  C   UNL     1      80.301  -8.976  18.749  1.00  0.00    -0.028 C 
ATOM      3  C   UNL     1      77.902  -9.592  19.126  1.00  0.00     0.039 C 
ENDROOT
BRANCH   1   4
ATOM      4  C   UNL     1      78.876  -9.197  16.741  1.00  0.00     0.034 C 
BRANCH   4   5
ATOM      5  C   UNL     1      79.687  -8.053  16.123  1.00  0.00     0.032 C 
BRANCH   5   6
ATOM      6  C   UNL     1      78.859  -7.290  15.120  1.00  0.00    -0.028 C 
ATOM      7  C   UNL     1      78.393  -6.025  13.066  1.00  0.00     0.039 C 
ATOM      8  C   UNL     1      79.331  -6.805  13.951  1.00  0.00    -0.080 C 
ATOM      9  C   UNL     1      80.757  -7.037  13.505  1.00  0.00     0.039 C 
ENDBRANCH   5   6
ENDBRANCH   4   5
ENDBRANCH   1   4
BRANCH   2  10
ATOM     10  C   UNL     1      80.649  -9.030  20.215  1.00  0.00     0.035 C 
BRANCH  10  11
ATOM     11  C   UNL     1      81.789 -10.027  20.465  1.00  0.00     0.079 C 
BRANCH  11  12
ATOM     12  C   UNL     1      83.053  -9.436  21.057  1.00  0.00     0.130 C 
ATOM     13  O   UNL     1      84.055  -9.423  20.358  1.00  0.00    -0.300 OA
ATOM     14  C   UNL     1      83.163  -8.861  22.445  1.00  0.00     0.087 C 
ENDBRANCH  11  12
ENDBRANCH  10  11
ENDBRANCH   2  10
TORSDOF 6
ENDMDL
MODEL 7
REMARK VINA RESULT:    -4.233      2.572      5.452
REMARK INTER + INTRA:          -6.702
REMARK INTER:                  -6.027
REMARK INTRA:                  -0.675
REMARK UNBOUND:                -0.984
REMARK SMILES CC(=O)CCC=C(C)CCC=C(C)C
REMARK SMILES IDX 7 1 6 2 8 3 9 4 10 5 11 6 13 7 12 8 14 9 5 10 4 11 2 12 3 13
REMARK SMILES IDX 1 14
REMARK H PARENT
REMARK Flexibility Score: inf
ROOT
ATOM      1  C   UNL     1      82.433   5.871  28.617  1.00  0.00    -0.077 C 
ATOM      2  C   UNL     1      81.531   5.912  27.609  1.00  0.00    -0.028 C 
ATOM      3  C   UNL     1      83.900   6.153  28.388  1.00  0.00     0.039 C 
ENDROOT
BRANCH   1   4
ATOM      4  C   UNL     1      81.956   5.551  30.017  1.00  0.00     0.034 C 
BRANCH   4   5
ATOM      5  C   UNL     1      82.384   4.138  30.428  1.00  0.00     0.032 C 
BRANCH   5   6
ATOM      6  C   UNL     1      82.002   3.133  29.371  1.00  0.00    -0.028 C 
ATOM      7  C   UNL     1      82.350   1.544  27.529  1.00  0.00     0.039 C 
ATOM      8  C   UNL     1      82.883   2.494  28.571  1.00  0.00    -0.080 C 
ATOM      9  C   UNL     1      84.376   2.692  28.705  1.00  0.00     0.039 C 
ENDBRANCH   5   6
ENDBRANCH   4   5
ENDBRANCH   1   4
BRANCH   2  10
ATOM     10  C   UNL     1      81.874   6.181  26.165  1.00  0.00     0.035 C 
BRANCH  10  11
ATOM     11  C   UNL     1      82.169   4.868  25.426  1.00  0.00     0.079 C 
BRANCH  11  12
ATOM     12  C   UNL     1      83.617   4.652  25.034  1.00  0.00     0.130 C 
ATOM     13  O   UNL     1      84.434   4.521  25.932  1.00  0.00    -0.300 OA
ATOM     14  C   UNL     1      84.121   4.587  23.616  1.00  0.00     0.087 C 
ENDBRANCH  11  12
ENDBRANCH  10  11
ENDBRANCH   2  10
TORSDOF 6
ENDMDL
MODEL 8
REMARK VINA RESULT:    -4.032     16.100     17.755
REMARK INTER + INTRA:          -6.430
REMARK INTER:                  -5.983
REMARK INTRA:                  -0.447
REMARK UNBOUND:                -0.984
REMARK SMILES CC(=O)CCC=C(C)CCC=C(C)C
REMARK SMILES IDX 7 1 6 2 8 3 9 4 10 5 11 6 13 7 12 8 14 9 5 10 4 11 2 12 3 13
REMARK SMILES IDX 1 14
REMARK H PARENT
REMARK Flexibility Score: inf
ROOT
ATOM      1  C   UNL     1      79.559  -8.991  17.898  1.00  0.00    -0.077 C 
ATOM      2  C   UNL     1      79.737  -8.317  16.738  1.00  0.00    -0.028 C 
ATOM      3  C   UNL     1      78.558 -10.116  18.022  1.00  0.00     0.039 C 
ENDROOT
BRANCH   1   4
ATOM      4  C   UNL     1      80.398  -8.618  19.101  1.00  0.00     0.034 C 
BRANCH   4   5
ATOM      5  C   UNL     1      80.923  -9.872  19.809  1.00  0.00     0.032 C 
BRANCH   5   6
ATOM      6  C   UNL     1      81.422  -9.536  21.191  1.00  0.00    -0.028 C 
ATOM      7  C   UNL     1      83.074  -9.017  22.935  1.00  0.00     0.039 C 
ATOM      8  C   UNL     1      82.716  -9.301  21.499  1.00  0.00    -0.080 C 
ATOM      9  C   UNL     1      83.802  -9.298  20.447  1.00  0.00     0.039 C 
ENDBRANCH   5   6
ENDBRANCH   4   5
ENDBRANCH   1   4
BRANCH   2  10
ATOM     10  C   UNL     1      78.945  -8.560  15.477  1.00  0.00     0.035 C 
BRANCH  10  11
ATOM     11  C   UNL     1      78.455  -7.232  14.883  1.00  0.00     0.079 C 
BRANCH  11  12
ATOM     12  C   UNL     1      79.257  -6.708  13.709  1.00  0.00     0.130 C 
ATOM     13  O   UNL     1      78.696  -5.952  12.930  1.00  0.00    -0.300 OA
ATOM     14  C   UNL     1      80.698  -7.050  13.434  1.00  0.00     0.087 C 
ENDBRANCH  11  12
ENDBRANCH  10  11
ENDBRANCH   2  10
TORSDOF 6
ENDMDL
MODEL 9
REMARK VINA RESULT:    -4.019     16.758     18.401
REMARK INTER + INTRA:          -6.412
REMARK INTER:                  -5.776
REMARK INTRA:                  -0.637
REMARK UNBOUND:                -0.984
REMARK SMILES CC(=O)CCC=C(C)CCC=C(C)C
REMARK SMILES IDX 7 1 6 2 8 3 9 4 10 5 11 6 13 7 12 8 14 9 5 10 4 11 2 12 3 13
REMARK SMILES IDX 1 14
REMARK H PARENT
REMARK Flexibility Score: inf
ROOT
ATOM      1  C   UNL     1      79.103  -9.090  16.164  1.00  0.00    -0.077 C 
ATOM      2  C   UNL     1      80.215  -8.416  15.789  1.00  0.00    -0.028 C 
ATOM      3  C   UNL     1      78.102  -9.606  15.157  1.00  0.00     0.039 C 
ENDROOT
BRANCH   1   4
ATOM      4  C   UNL     1      78.864  -9.351  17.636  1.00  0.00     0.034 C 
BRANCH   4   5
ATOM      5  C   UNL     1      80.080  -8.929  18.468  1.00  0.00     0.032 C 
BRANCH   5   6
ATOM      6  C   UNL     1      79.909  -9.336  19.910  1.00  0.00    -0.028 C 
ATOM      7  C   UNL     1      80.595 -10.125  22.134  1.00  0.00     0.039 C 
ATOM      8  C   UNL     1      80.922  -9.703  20.724  1.00  0.00    -0.080 C 
ATOM      9  C   UNL     1      82.363  -9.687  20.268  1.00  0.00     0.039 C 
ENDBRANCH   5   6
ENDBRANCH   4   5
ENDBRANCH   1   4
BRANCH   2  10
ATOM     10  C   UNL     1      80.556  -8.056  14.364  1.00  0.00     0.035 C 
BRANCH  10  11
ATOM     11  C   UNL     1      80.141  -6.610  14.057  1.00  0.00     0.079 C 
BRANCH  11  12
ATOM     12  C   UNL     1      78.911  -6.456  13.186  1.00  0.00     0.130 C 
ATOM     13  O   UNL     1      78.093  -5.607  13.505  1.00  0.00    -0.300 OA
ATOM     14  C   UNL     1      78.626  -7.273  11.952  1.00  0.00     0.087 C 
ENDBRANCH  11  12
ENDBRANCH  10  11
ENDBRANCH   2  10
TORSDOF 6
ENDMDL
