MODEL 1
REMARK VINA RESULT:    -9.228      0.000      0.000
REMARK INTER + INTRA:         -12.700
REMARK INTER:                 -11.656
REMARK INTRA:                  -1.044
REMARK UNBOUND:                -1.044
REMARK SMILES CC(C)[C@@H](C)C=C[C@H](C)[C@H]1CC[C@H]2C3=CC=C4C[C@H](O)CC[C@@]4(C)[C@H]3CC[C@]12C
REMARK SMILES IDX 8 1 9 2 7 3 6 4 4 5 5 6 2 7 1 8 3 9 10 10 11 11 28 12 12 13
REMARK SMILES IDX 13 14 27 15 29 16 14 17 26 18 25 19 15 20 23 21 16 22 17 23
REMARK SMILES IDX 22 24 24 25 18 26 21 27 19 28 20 29
REMARK H PARENT 20 30
REMARK Flexibility Score: inf
ROOT
ATOM      1  C   UNL     1     135.722 121.855 140.403  1.00  0.00     0.012 C 
ATOM      2  C   UNL     1     135.071 121.067 141.549  1.00  0.00     0.012 C 
ENDROOT
BRANCH   1   3
ATOM      3  C   UNL     1     136.630 120.920 139.640  1.00  0.00    -0.028 C 
ATOM      4  C   UNL     1     136.196 120.259 138.554  1.00  0.00    -0.028 C 
BRANCH   4   5
ATOM      5  C   UNL     1     137.046 119.294 137.754  1.00  0.00     0.011 C 
ATOM      6  C   UNL     1     136.500 119.140 136.324  1.00  0.00     0.012 C 
BRANCH   5   7
ATOM      7  C   UNL     1     137.337 117.943 138.499  1.00  0.00    -0.011 C 
ATOM      8  C   UNL     1     136.124 117.348 139.245  1.00  0.00     0.008 C 
ATOM      9  C   UNL     1     137.893 116.890 137.526  1.00  0.00     0.008 C 
ENDBRANCH   5   7
ENDBRANCH   4   5
ENDBRANCH   1   3
BRANCH   1  10
ATOM     10  C   UNL     1     134.642 122.487 139.471  1.00  0.00     0.002 C 
ATOM     11  C   UNL     1     133.199 122.253 139.998  1.00  0.00     0.005 C 
ATOM     12  C   UNL     1     134.712 124.026 139.235  1.00  0.00    -0.023 C 
ATOM     13  C   UNL     1     132.374 123.506 139.654  1.00  0.00     0.009 C 
ATOM     14  C   UNL     1     133.290 124.284 138.721  1.00  0.00     0.021 C 
ATOM     15  C   UNL     1     135.703 124.495 138.129  1.00  0.00     0.008 C 
ATOM     16  C   UNL     1     135.015 124.780 140.567  1.00  0.00     0.012 C 
ATOM     17  C   UNL     1     133.091 125.750 138.435  1.00  0.00    -0.063 C 
ATOM     18  C   UNL     1     135.469 125.974 137.705  1.00  0.00     0.009 C 
ATOM     19  C   UNL     1     133.989 126.271 137.322  1.00  0.00     0.025 C 
ATOM     20  C   UNL     1     132.501 126.586 139.300  1.00  0.00    -0.000 C 
ATOM     21  C   UNL     1     133.641 127.760 136.913  1.00  0.00    -0.005 C 
ATOM     22  C   UNL     1     132.652 128.041 139.178  1.00  0.00    -0.000 C 
ATOM     23  C   UNL     1     133.274 128.608 138.135  1.00  0.00    -0.061 C 
ATOM     24  C   UNL     1     134.821 128.427 136.135  1.00  0.00     0.014 C 
ATOM     25  C   UNL     1     132.394 127.712 135.989  1.00  0.00     0.017 C 
ATOM     26  C   UNL     1     133.252 130.120 138.023  1.00  0.00     0.063 C 
ATOM     27  C   UNL     1     134.623 129.929 135.896  1.00  0.00     0.033 C 
ATOM     28  C   UNL     1     134.458 130.657 137.239  1.00  0.00     0.118 C 
BRANCH  28  29
ATOM     29  O   UNL     1     134.342 132.044 137.043  1.00  0.00    -0.393 OA
ATOM     30  H   UNL     1     133.719 132.191 136.284  1.00  0.00     0.210 HD
ENDBRANCH  28  29
ENDBRANCH   1  10
TORSDOF 5
ENDMDL
MODEL 2
REMARK VINA RESULT:    -8.945      3.063      9.296
REMARK INTER + INTRA:         -12.342
REMARK INTER:                 -11.735
REMARK INTRA:                  -0.607
REMARK UNBOUND:                -1.044
REMARK SMILES CC(C)[C@@H](C)C=C[C@H](C)[C@H]1CC[C@H]2C3=CC=C4C[C@H](O)CC[C@@]4(C)[C@H]3CC[C@]12C
REMARK SMILES IDX 8 1 9 2 7 3 6 4 4 5 5 6 2 7 1 8 3 9 10 10 11 11 28 12 12 13
REMARK SMILES IDX 13 14 27 15 29 16 14 17 26 18 25 19 15 20 23 21 16 22 17 23
REMARK SMILES IDX 22 24 24 25 18 26 21 27 19 28 20 29
REMARK H PARENT 20 30
REMARK Flexibility Score: inf
ROOT
ATOM      1  C   UNL     1     133.977 128.585 136.966  1.00  0.00     0.012 C 
ATOM      2  C   UNL     1     132.472 128.882 136.928  1.00  0.00     0.012 C 
ENDROOT
BRANCH   1   3
ATOM      3  C   UNL     1     134.723 129.887 136.798  1.00  0.00    -0.028 C 
ATOM      4  C   UNL     1     134.145 130.951 136.214  1.00  0.00    -0.028 C 
BRANCH   4   5
ATOM      5  C   UNL     1     134.839 132.278 135.997  1.00  0.00     0.011 C 
ATOM      6  C   UNL     1     136.246 132.268 136.618  1.00  0.00     0.012 C 
BRANCH   5   7
ATOM      7  C   UNL     1     133.958 133.521 136.379  1.00  0.00    -0.011 C 
ATOM      8  C   UNL     1     132.501 133.452 135.875  1.00  0.00     0.008 C 
ATOM      9  C   UNL     1     133.953 133.742 137.900  1.00  0.00     0.008 C 
ENDBRANCH   5   7
ENDBRANCH   4   5
ENDBRANCH   1   3
BRANCH   1  10
ATOM     10  C   UNL     1     134.376 127.868 138.294  1.00  0.00     0.002 C 
ATOM     11  C   UNL     1     133.432 128.242 139.471  1.00  0.00     0.005 C 
ATOM     12  C   UNL     1     134.377 126.310 138.294  1.00  0.00    -0.023 C 
ATOM     13  C   UNL     1     133.275 126.990 140.351  1.00  0.00     0.009 C 
ATOM     14  C   UNL     1     134.330 126.040 139.804  1.00  0.00     0.021 C 
ATOM     15  C   UNL     1     135.667 125.637 137.738  1.00  0.00     0.008 C 
ATOM     16  C   UNL     1     133.128 125.752 137.545  1.00  0.00     0.012 C 
ATOM     17  C   UNL     1     134.299 124.559 140.074  1.00  0.00    -0.063 C 
ATOM     18  C   UNL     1     135.749 124.122 138.088  1.00  0.00     0.009 C 
ATOM     19  C   UNL     1     135.554 123.837 139.607  1.00  0.00     0.025 C 
ATOM     20  C   UNL     1     133.165 123.889 140.323  1.00  0.00    -0.000 C 
ATOM     21  C   UNL     1     135.583 122.320 140.059  1.00  0.00    -0.005 C 
ATOM     22  C   UNL     1     133.102 122.426 140.208  1.00  0.00    -0.000 C 
ATOM     23  C   UNL     1     134.193 121.683 139.976  1.00  0.00    -0.061 C 
ATOM     24  C   UNL     1     136.602 121.493 139.211  1.00  0.00     0.014 C 
ATOM     25  C   UNL     1     136.023 122.284 141.547  1.00  0.00     0.017 C 
ATOM     26  C   UNL     1     134.052 120.173 140.020  1.00  0.00     0.063 C 
ATOM     27  C   UNL     1     136.522 119.982 139.463  1.00  0.00     0.033 C 
ATOM     28  C   UNL     1     135.106 119.472 139.151  1.00  0.00     0.118 C 
BRANCH  28  29
ATOM     29  O   UNL     1     135.032 118.078 139.313  1.00  0.00    -0.393 OA
ATOM     30  H   UNL     1     135.737 117.811 139.959  1.00  0.00     0.210 HD
ENDBRANCH  28  29
ENDBRANCH   1  10
TORSDOF 5
ENDMDL
MODEL 3
REMARK VINA RESULT:    -8.830      1.727      2.441
REMARK INTER + INTRA:         -12.197
REMARK INTER:                 -11.311
REMARK INTRA:                  -0.886
REMARK UNBOUND:                -1.044
REMARK SMILES CC(C)[C@@H](C)C=C[C@H](C)[C@H]1CC[C@H]2C3=CC=C4C[C@H](O)CC[C@@]4(C)[C@H]3CC[C@]12C
REMARK SMILES IDX 8 1 9 2 7 3 6 4 4 5 5 6 2 7 1 8 3 9 10 10 11 11 28 12 12 13
REMARK SMILES IDX 13 14 27 15 29 16 14 17 26 18 25 19 15 20 23 21 16 22 17 23
REMARK SMILES IDX 22 24 24 25 18 26 21 27 19 28 20 29
REMARK H PARENT 20 30
REMARK Flexibility Score: inf
ROOT
ATOM      1  C   UNL     1     136.641 120.741 139.520  1.00  0.00     0.012 C 
ATOM      2  C   UNL     1     136.662 119.779 140.717  1.00  0.00     0.012 C 
ENDROOT
BRANCH   1   3
ATOM      3  C   UNL     1     137.145 119.998 138.306  1.00  0.00    -0.028 C 
ATOM      4  C   UNL     1     136.503 118.915 137.835  1.00  0.00    -0.028 C 
BRANCH   4   5
ATOM      5  C   UNL     1     136.962 118.114 136.635  1.00  0.00     0.011 C 
ATOM      6  C   UNL     1     135.761 117.508 135.891  1.00  0.00     0.012 C 
BRANCH   5   7
ATOM      7  C   UNL     1     138.119 117.103 136.957  1.00  0.00    -0.011 C 
ATOM      8  C   UNL     1     138.015 116.429 138.342  1.00  0.00     0.008 C 
ATOM      9  C   UNL     1     138.212 116.015 135.875  1.00  0.00     0.008 C 
ENDBRANCH   5   7
ENDBRANCH   4   5
ENDBRANCH   1   3
BRANCH   1  10
ATOM     10  C   UNL     1     135.209 121.315 139.285  1.00  0.00     0.002 C 
ATOM     11  C   UNL     1     134.134 120.581 140.134  1.00  0.00     0.005 C 
ATOM     12  C   UNL     1     134.979 122.821 139.606  1.00  0.00    -0.023 C 
ATOM     13  C   UNL     1     133.085 121.626 140.551  1.00  0.00     0.009 C 
ATOM     14  C   UNL     1     133.449 122.843 139.714  1.00  0.00     0.021 C 
ATOM     15  C   UNL     1     135.384 123.820 138.482  1.00  0.00     0.008 C 
ATOM     16  C   UNL     1     135.681 123.219 140.941  1.00  0.00     0.012 C 
ATOM     17  C   UNL     1     132.965 124.229 140.053  1.00  0.00    -0.063 C 
ATOM     18  C   UNL     1     134.812 125.249 138.717  1.00  0.00     0.009 C 
ATOM     19  C   UNL     1     133.275 125.254 138.972  1.00  0.00     0.025 C 
ATOM     20  C   UNL     1     132.659 124.607 141.301  1.00  0.00    -0.000 C 
ATOM     21  C   UNL     1     132.604 126.659 139.261  1.00  0.00    -0.005 C 
ATOM     22  C   UNL     1     132.559 126.026 141.666  1.00  0.00    -0.000 C 
ATOM     23  C   UNL     1     132.640 127.004 140.752  1.00  0.00    -0.061 C 
ATOM     24  C   UNL     1     133.284 127.796 138.433  1.00  0.00     0.014 C 
ATOM     25  C   UNL     1     131.112 126.558 138.843  1.00  0.00     0.017 C 
ATOM     26  C   UNL     1     132.380 128.428 141.203  1.00  0.00     0.063 C 
ATOM     27  C   UNL     1     132.815 129.202 138.825  1.00  0.00     0.033 C 
ATOM     28  C   UNL     1     133.098 129.454 140.315  1.00  0.00     0.118 C 
BRANCH  28  29
ATOM     29  O   UNL     1     132.734 130.762 140.676  1.00  0.00    -0.393 OA
ATOM     30  H   UNL     1     131.823 130.725 141.069  1.00  0.00     0.210 HD
ENDBRANCH  28  29
ENDBRANCH   1  10
TORSDOF 5
ENDMDL
MODEL 4
REMARK VINA RESULT:    -8.653      2.876      6.119
REMARK INTER + INTRA:         -11.974
REMARK INTER:                 -11.113
REMARK INTRA:                  -0.861
REMARK UNBOUND:                -1.044
REMARK SMILES CC(C)[C@@H](C)C=C[C@H](C)[C@H]1CC[C@H]2C3=CC=C4C[C@H](O)CC[C@@]4(C)[C@H]3CC[C@]12C
REMARK SMILES IDX 8 1 9 2 7 3 6 4 4 5 5 6 2 7 1 8 3 9 10 10 11 11 28 12 12 13
REMARK SMILES IDX 13 14 27 15 29 16 14 17 26 18 25 19 15 20 23 21 16 22 17 23
REMARK SMILES IDX 22 24 24 25 18 26 21 27 19 28 20 29
REMARK H PARENT 20 30
REMARK Flexibility Score: inf
ROOT
ATOM      1  C   UNL     1     133.870 126.039 136.853  1.00  0.00     0.012 C 
ATOM      2  C   UNL     1     134.985 125.640 135.875  1.00  0.00     0.012 C 
ENDROOT
BRANCH   1   3
ATOM      3  C   UNL     1     133.716 124.935 137.872  1.00  0.00    -0.028 C 
ATOM      4  C   UNL     1     134.634 124.742 138.835  1.00  0.00    -0.028 C 
BRANCH   4   5
ATOM      5  C   UNL     1     134.551 123.646 139.875  1.00  0.00     0.011 C 
ATOM      6  C   UNL     1     135.881 122.879 139.969  1.00  0.00     0.012 C 
BRANCH   5   7
ATOM      7  C   UNL     1     133.275 122.741 139.739  1.00  0.00    -0.011 C 
ATOM      8  C   UNL     1     133.442 121.310 140.291  1.00  0.00     0.008 C 
ATOM      9  C   UNL     1     132.061 123.400 140.414  1.00  0.00     0.008 C 
ENDBRANCH   5   7
ENDBRANCH   4   5
ENDBRANCH   1   3
BRANCH   1  10
ATOM     10  C   UNL     1     134.184 127.406 137.536  1.00  0.00     0.002 C 
ATOM     11  C   UNL     1     135.502 128.038 137.010  1.00  0.00     0.005 C 
ATOM     12  C   UNL     1     133.132 128.544 137.379  1.00  0.00    -0.023 C 
ATOM     13  C   UNL     1     135.302 129.564 136.982  1.00  0.00     0.009 C 
ATOM     14  C   UNL     1     133.995 129.761 137.735  1.00  0.00     0.021 C 
ATOM     15  C   UNL     1     131.940 128.505 138.381  1.00  0.00     0.008 C 
ATOM     16  C   UNL     1     132.588 128.601 135.917  1.00  0.00     0.012 C 
ATOM     17  C   UNL     1     133.188 131.028 137.631  1.00  0.00    -0.063 C 
ATOM     18  C   UNL     1     131.134 129.836 138.405  1.00  0.00     0.009 C 
ATOM     19  C   UNL     1     132.035 131.089 138.621  1.00  0.00     0.025 C 
ATOM     20  C   UNL     1     133.219 131.824 136.553  1.00  0.00    -0.000 C 
ATOM     21  C   UNL     1     131.311 132.497 138.622  1.00  0.00    -0.005 C 
ATOM     22  C   UNL     1     132.170 132.822 136.310  1.00  0.00    -0.000 C 
ATOM     23  C   UNL     1     131.208 133.077 137.208  1.00  0.00    -0.061 C 
ATOM     24  C   UNL     1     129.891 132.408 139.268  1.00  0.00     0.014 C 
ATOM     25  C   UNL     1     132.183 133.470 139.461  1.00  0.00     0.017 C 
ATOM     26  C   UNL     1     130.258 134.226 136.932  1.00  0.00     0.063 C 
ATOM     27  C   UNL     1     129.066 133.691 139.108  1.00  0.00     0.033 C 
ATOM     28  C   UNL     1     128.898 134.026 137.618  1.00  0.00     0.118 C 
BRANCH  28  29
ATOM     29  O   UNL     1     128.089 135.162 137.451  1.00  0.00    -0.393 OA
ATOM     30  H   UNL     1     127.303 135.064 138.050  1.00  0.00     0.210 HD
ENDBRANCH  28  29
ENDBRANCH   1  10
TORSDOF 5
ENDMDL
MODEL 5
REMARK VINA RESULT:    -8.624      1.860      2.400
REMARK INTER + INTRA:         -11.937
REMARK INTER:                 -11.167
REMARK INTRA:                  -0.770
REMARK UNBOUND:                -1.044
REMARK SMILES CC(C)[C@@H](C)C=C[C@H](C)[C@H]1CC[C@H]2C3=CC=C4C[C@H](O)CC[C@@]4(C)[C@H]3CC[C@]12C
REMARK SMILES IDX 8 1 9 2 7 3 6 4 4 5 5 6 2 7 1 8 3 9 10 10 11 11 28 12 12 13
REMARK SMILES IDX 13 14 27 15 29 16 14 17 26 18 25 19 15 20 23 21 16 22 17 23
REMARK SMILES IDX 22 24 24 25 18 26 21 27 19 28 20 29
REMARK H PARENT 20 30
REMARK Flexibility Score: inf
ROOT
ATOM      1  C   UNL     1     135.581 122.471 139.589  1.00  0.00     0.012 C 
ATOM      2  C   UNL     1     135.766 121.857 140.984  1.00  0.00     0.012 C 
ENDROOT
BRANCH   1   3
ATOM      3  C   UNL     1     136.080 121.480 138.565  1.00  0.00    -0.028 C 
ATOM      4  C   UNL     1     135.984 120.155 138.772  1.00  0.00    -0.028 C 
BRANCH   4   5
ATOM      5  C   UNL     1     136.479 119.108 137.796  1.00  0.00     0.011 C 
ATOM      6  C   UNL     1     135.443 117.983 137.629  1.00  0.00     0.012 C 
BRANCH   5   7
ATOM      7  C   UNL     1     137.943 118.621 138.084  1.00  0.00    -0.011 C 
ATOM      8  C   UNL     1     138.483 119.001 139.479  1.00  0.00     0.008 C 
ATOM      9  C   UNL     1     138.060 117.099 137.899  1.00  0.00     0.008 C 
ENDBRANCH   5   7
ENDBRANCH   4   5
ENDBRANCH   1   3
BRANCH   1  10
ATOM     10  C   UNL     1     134.089 122.850 139.336  1.00  0.00     0.002 C 
ATOM     11  C   UNL     1     133.125 122.149 140.334  1.00  0.00     0.005 C 
ATOM     12  C   UNL     1     133.705 124.356 139.438  1.00  0.00    -0.023 C 
ATOM     13  C   UNL     1     131.981 123.133 140.637  1.00  0.00     0.009 C 
ATOM     14  C   UNL     1     132.186 124.237 139.611  1.00  0.00     0.021 C 
ATOM     15  C   UNL     1     133.966 125.207 138.159  1.00  0.00     0.008 C 
ATOM     16  C   UNL     1     134.399 125.026 140.665  1.00  0.00     0.012 C 
ATOM     17  C   UNL     1     131.564 125.601 139.760  1.00  0.00    -0.063 C 
ATOM     18  C   UNL     1     133.249 126.587 138.203  1.00  0.00     0.009 C 
ATOM     19  C   UNL     1     131.729 126.474 138.525  1.00  0.00     0.025 C 
ATOM     20  C   UNL     1     131.255 126.134 140.950  1.00  0.00    -0.000 C 
ATOM     21  C   UNL     1     130.917 127.829 138.629  1.00  0.00    -0.005 C 
ATOM     22  C   UNL     1     131.012 127.574 141.102  1.00  0.00    -0.000 C 
ATOM     23  C   UNL     1     130.959 128.402 140.049  1.00  0.00    -0.061 C 
ATOM     24  C   UNL     1     131.445 128.889 137.610  1.00  0.00     0.014 C 
ATOM     25  C   UNL     1     129.433 127.512 138.300  1.00  0.00     0.017 C 
ATOM     26  C   UNL     1     130.559 129.844 140.292  1.00  0.00     0.063 C 
ATOM     27  C   UNL     1     130.837 130.283 137.808  1.00  0.00     0.033 C 
ATOM     28  C   UNL     1     131.135 130.789 139.228  1.00  0.00     0.118 C 
BRANCH  28  29
ATOM     29  O   UNL     1     130.641 132.093 139.406  1.00  0.00    -0.393 OA
ATOM     30  H   UNL     1     130.916 132.400 140.309  1.00  0.00     0.210 HD
ENDBRANCH  28  29
ENDBRANCH   1  10
TORSDOF 5
ENDMDL
MODEL 6
REMARK VINA RESULT:    -8.409      3.459      6.254
REMARK INTER + INTRA:         -11.665
REMARK INTER:                 -10.478
REMARK INTRA:                  -1.187
REMARK UNBOUND:                -1.044
REMARK SMILES CC(C)[C@@H](C)C=C[C@H](C)[C@H]1CC[C@H]2C3=CC=C4C[C@H](O)CC[C@@]4(C)[C@H]3CC[C@]12C
REMARK SMILES IDX 8 1 9 2 7 3 6 4 4 5 5 6 2 7 1 8 3 9 10 10 11 11 28 12 12 13
REMARK SMILES IDX 13 14 27 15 29 16 14 17 26 18 25 19 15 20 23 21 16 22 17 23
REMARK SMILES IDX 22 24 24 25 18 26 21 27 19 28 20 29
REMARK H PARENT 20 30
REMARK Flexibility Score: inf
ROOT
ATOM      1  C   UNL     1     129.793 125.901 141.586  1.00  0.00     0.012 C 
ATOM      2  C   UNL     1     128.793 125.045 142.377  1.00  0.00     0.012 C 
ENDROOT
BRANCH   1   3
ATOM      3  C   UNL     1     130.411 125.039 140.512  1.00  0.00    -0.028 C 
ATOM      4  C   UNL     1     131.734 124.802 140.483  1.00  0.00    -0.028 C 
BRANCH   4   5
ATOM      5  C   UNL     1     132.421 123.963 139.427  1.00  0.00     0.011 C 
ATOM      6  C   UNL     1     132.845 122.601 140.001  1.00  0.00     0.012 C 
BRANCH   5   7
ATOM      7  C   UNL     1     133.546 124.730 138.646  1.00  0.00    -0.011 C 
ATOM      8  C   UNL     1     133.640 126.237 138.971  1.00  0.00     0.008 C 
ATOM      9  C   UNL     1     134.919 124.080 138.884  1.00  0.00     0.008 C 
ENDBRANCH   5   7
ENDBRANCH   4   5
ENDBRANCH   1   3
BRANCH   1  10
ATOM     10  C   UNL     1     129.097 127.158 140.977  1.00  0.00     0.002 C 
ATOM     11  C   UNL     1     128.255 127.933 142.029  1.00  0.00     0.005 C 
ATOM     12  C   UNL     1     130.013 128.251 140.351  1.00  0.00    -0.023 C 
ATOM     13  C   UNL     1     128.371 129.431 141.700  1.00  0.00     0.009 C 
ATOM     14  C   UNL     1     129.043 129.440 140.335  1.00  0.00     0.021 C 
ATOM     15  C   UNL     1     130.463 127.994 138.882  1.00  0.00     0.008 C 
ATOM     16  C   UNL     1     131.264 128.509 141.247  1.00  0.00     0.012 C 
ATOM     17  C   UNL     1     129.721 130.665 139.778  1.00  0.00    -0.063 C 
ATOM     18  C   UNL     1     131.067 129.262 138.211  1.00  0.00     0.009 C 
ATOM     19  C   UNL     1     130.141 130.510 138.324  1.00  0.00     0.025 C 
ATOM     20  C   UNL     1     130.249 131.620 140.555  1.00  0.00    -0.000 C 
ATOM     21  C   UNL     1     130.684 131.861 137.704  1.00  0.00    -0.005 C 
ATOM     22  C   UNL     1     131.215 132.590 140.023  1.00  0.00    -0.000 C 
ATOM     23  C   UNL     1     131.518 132.650 138.718  1.00  0.00    -0.061 C 
ATOM     24  C   UNL     1     131.523 131.599 136.412  1.00  0.00     0.014 C 
ATOM     25  C   UNL     1     129.454 132.734 137.335  1.00  0.00     0.017 C 
ATOM     26  C   UNL     1     132.413 133.778 138.243  1.00  0.00     0.063 C 
ATOM     27  C   UNL     1     132.244 132.847 135.888  1.00  0.00     0.033 C 
ATOM     28  C   UNL     1     133.184 133.403 136.969  1.00  0.00     0.118 C 
BRANCH  28  29
ATOM     29  O   UNL     1     133.903 134.509 136.483  1.00  0.00    -0.393 OA
ATOM     30  H   UNL     1     133.886 135.212 137.183  1.00  0.00     0.210 HD
ENDBRANCH  28  29
ENDBRANCH   1  10
TORSDOF 5
ENDMDL
MODEL 7
REMARK VINA RESULT:    -8.239      6.083     11.136
REMARK INTER + INTRA:         -11.451
REMARK INTER:                 -10.341
REMARK INTRA:                  -1.110
REMARK UNBOUND:                -1.044
REMARK SMILES CC(C)[C@@H](C)C=C[C@H](C)[C@H]1CC[C@H]2C3=CC=C4C[C@H](O)CC[C@@]4(C)[C@H]3CC[C@]12C
REMARK SMILES IDX 8 1 9 2 7 3 6 4 4 5 5 6 2 7 1 8 3 9 10 10 11 11 28 12 12 13
REMARK SMILES IDX 13 14 27 15 29 16 14 17 26 18 25 19 15 20 23 21 16 22 17 23
REMARK SMILES IDX 22 24 24 25 18 26 21 27 19 28 20 29
REMARK H PARENT 20 30
REMARK Flexibility Score: inf
ROOT
ATOM      1  C   UNL     1     129.047 133.957 139.264  1.00  0.00     0.012 C 
ATOM      2  C   UNL     1     128.867 135.436 139.635  1.00  0.00     0.012 C 
ENDROOT
BRANCH   1   3
ATOM      3  C   UNL     1     129.762 133.885 137.936  1.00  0.00    -0.028 C 
ATOM      4  C   UNL     1     131.094 134.039 137.852  1.00  0.00    -0.028 C 
BRANCH   4   5
ATOM      5  C   UNL     1     131.871 133.996 136.553  1.00  0.00     0.011 C 
ATOM      6  C   UNL     1     131.781 132.603 135.908  1.00  0.00     0.012 C 
BRANCH   5   7
ATOM      7  C   UNL     1     133.325 134.577 136.668  1.00  0.00    -0.011 C 
ATOM      8  C   UNL     1     133.672 135.167 138.052  1.00  0.00     0.008 C 
ATOM      9  C   UNL     1     134.372 133.514 136.299  1.00  0.00     0.008 C 
ENDBRANCH   5   7
ENDBRANCH   4   5
ENDBRANCH   1   3
BRANCH   1  10
ATOM     10  C   UNL     1     129.830 133.191 140.375  1.00  0.00     0.002 C 
ATOM     11  C   UNL     1     129.501 133.720 141.799  1.00  0.00     0.005 C 
ATOM     12  C   UNL     1     129.600 131.654 140.483  1.00  0.00    -0.023 C 
ATOM     13  C   UNL     1     129.523 132.515 142.755  1.00  0.00     0.009 C 
ATOM     14  C   UNL     1     130.118 131.402 141.905  1.00  0.00     0.021 C 
ATOM     15  C   UNL     1     130.445 130.775 139.513  1.00  0.00     0.008 C 
ATOM     16  C   UNL     1     128.087 131.305 140.325  1.00  0.00     0.012 C 
ATOM     17  C   UNL     1     129.977 129.947 142.267  1.00  0.00    -0.063 C 
ATOM     18  C   UNL     1     130.433 129.270 139.907  1.00  0.00     0.009 C 
ATOM     19  C   UNL     1     130.820 129.027 141.397  1.00  0.00     0.025 C 
ATOM     20  C   UNL     1     128.951 129.474 142.987  1.00  0.00    -0.000 C 
ATOM     21  C   UNL     1     130.800 127.528 141.905  1.00  0.00    -0.005 C 
ATOM     22  C   UNL     1     128.630 128.041 143.008  1.00  0.00    -0.000 C 
ATOM     23  C   UNL     1     129.414 127.127 142.420  1.00  0.00    -0.061 C 
ATOM     24  C   UNL     1     131.261 126.541 140.785  1.00  0.00     0.014 C 
ATOM     25  C   UNL     1     131.786 127.427 143.100  1.00  0.00     0.017 C 
ATOM     26  C   UNL     1     129.080 125.661 142.619  1.00  0.00     0.063 C 
ATOM     27  C   UNL     1     131.064 125.064 141.153  1.00  0.00     0.033 C 
ATOM     28  C   UNL     1     129.582 124.792 141.457  1.00  0.00     0.118 C 
BRANCH  28  29
ATOM     29  O   UNL     1     129.373 123.430 141.732  1.00  0.00    -0.393 OA
ATOM     30  H   UNL     1     128.622 123.364 142.379  1.00  0.00     0.210 HD
ENDBRANCH  28  29
ENDBRANCH   1  10
TORSDOF 5
ENDMDL
MODEL 8
REMARK VINA RESULT:    -8.213      6.568     10.388
REMARK INTER + INTRA:         -11.417
REMARK INTER:                 -10.333
REMARK INTRA:                  -1.084
REMARK UNBOUND:                -1.044
REMARK SMILES CC(C)[C@@H](C)C=C[C@H](C)[C@H]1CC[C@H]2C3=CC=C4C[C@H](O)CC[C@@]4(C)[C@H]3CC[C@]12C
REMARK SMILES IDX 8 1 9 2 7 3 6 4 4 5 5 6 2 7 1 8 3 9 10 10 11 11 28 12 12 13
REMARK SMILES IDX 13 14 27 15 29 16 14 17 26 18 25 19 15 20 23 21 16 22 17 23
REMARK SMILES IDX 22 24 24 25 18 26 21 27 19 28 20 29
REMARK H PARENT 20 30
REMARK Flexibility Score: inf
ROOT
ATOM      1  C   UNL     1     130.534 128.465 139.487  1.00  0.00     0.012 C 
ATOM      2  C   UNL     1     129.693 127.524 138.613  1.00  0.00     0.012 C 
ENDROOT
BRANCH   1   3
ATOM      3  C   UNL     1     130.136 129.888 139.174  1.00  0.00    -0.028 C 
ATOM      4  C   UNL     1     129.585 130.679 140.109  1.00  0.00    -0.028 C 
BRANCH   4   5
ATOM      5  C   UNL     1     129.146 132.106 139.859  1.00  0.00     0.011 C 
ATOM      6  C   UNL     1     127.712 132.335 140.367  1.00  0.00     0.012 C 
BRANCH   5   7
ATOM      7  C   UNL     1     129.414 132.601 138.393  1.00  0.00    -0.011 C 
ATOM      8  C   UNL     1     128.310 133.508 137.810  1.00  0.00     0.008 C 
ATOM      9  C   UNL     1     130.764 133.332 138.300  1.00  0.00     0.008 C 
ENDBRANCH   5   7
ENDBRANCH   4   5
ENDBRANCH   1   3
BRANCH   1  10
ATOM     10  C   UNL     1     130.348 128.142 141.002  1.00  0.00     0.002 C 
ATOM     11  C   UNL     1     129.683 126.755 141.230  1.00  0.00     0.005 C 
ATOM     12  C   UNL     1     131.628 128.096 141.888  1.00  0.00    -0.023 C 
ATOM     13  C   UNL     1     130.306 126.149 142.501  1.00  0.00     0.009 C 
ATOM     14  C   UNL     1     131.095 127.308 143.092  1.00  0.00     0.021 C 
ATOM     15  C   UNL     1     132.133 129.472 142.415  1.00  0.00     0.008 C 
ATOM     16  C   UNL     1     132.788 127.356 141.153  1.00  0.00     0.012 C 
ATOM     17  C   UNL     1     132.184 127.105 144.113  1.00  0.00    -0.063 C 
ATOM     18  C   UNL     1     133.180 129.327 143.558  1.00  0.00     0.009 C 
ATOM     19  C   UNL     1     132.693 128.406 144.716  1.00  0.00     0.025 C 
ATOM     20  C   UNL     1     132.899 125.974 144.197  1.00  0.00    -0.000 C 
ATOM     21  C   UNL     1     133.703 128.164 145.910  1.00  0.00    -0.005 C 
ATOM     22  C   UNL     1     134.176 125.931 144.920  1.00  0.00    -0.000 C 
ATOM     23  C   UNL     1     134.626 126.973 145.634  1.00  0.00    -0.061 C 
ATOM     24  C   UNL     1     134.553 129.441 146.204  1.00  0.00     0.014 C 
ATOM     25  C   UNL     1     132.864 127.819 147.170  1.00  0.00     0.017 C 
ATOM     26  C   UNL     1     135.881 126.784 146.464  1.00  0.00     0.063 C 
ATOM     27  C   UNL     1     135.688 129.202 147.208  1.00  0.00     0.033 C 
ATOM     28  C   UNL     1     136.629 128.106 146.686  1.00  0.00     0.118 C 
BRANCH  28  29
ATOM     29  O   UNL     1     137.712 127.920 147.562  1.00  0.00    -0.393 OA
ATOM     30  H   UNL     1     138.548 128.004 147.033  1.00  0.00     0.210 HD
ENDBRANCH  28  29
ENDBRANCH   1  10
TORSDOF 5
ENDMDL
MODEL 9
REMARK VINA RESULT:    -8.111      3.620     10.203
REMARK INTER + INTRA:         -11.288
REMARK INTER:                 -10.196
REMARK INTRA:                  -1.092
REMARK UNBOUND:                -1.044
REMARK SMILES CC(C)[C@@H](C)C=C[C@H](C)[C@H]1CC[C@H]2C3=CC=C4C[C@H](O)CC[C@@]4(C)[C@H]3CC[C@]12C
REMARK SMILES IDX 8 1 9 2 7 3 6 4 4 5 5 6 2 7 1 8 3 9 10 10 11 11 28 12 12 13
REMARK SMILES IDX 13 14 27 15 29 16 14 17 26 18 25 19 15 20 23 21 16 22 17 23
REMARK SMILES IDX 22 24 24 25 18 26 21 27 19 28 20 29
REMARK H PARENT 20 30
REMARK Flexibility Score: inf
ROOT
ATOM      1  C   UNL     1     132.394 132.136 137.326  1.00  0.00     0.012 C 
ATOM      2  C   UNL     1     132.273 132.722 135.912  1.00  0.00     0.012 C 
ENDROOT
BRANCH   1   3
ATOM      3  C   UNL     1     131.580 132.993 138.266  1.00  0.00    -0.028 C 
ATOM      4  C   UNL     1     130.346 132.627 138.651  1.00  0.00    -0.028 C 
BRANCH   4   5
ATOM      5  C   UNL     1     129.470 133.446 139.576  1.00  0.00     0.011 C 
ATOM      6  C   UNL     1     128.939 132.584 140.732  1.00  0.00     0.012 C 
BRANCH   5   7
ATOM      7  C   UNL     1     128.380 134.291 138.826  1.00  0.00    -0.011 C 
ATOM      8  C   UNL     1     128.649 135.811 138.805  1.00  0.00     0.008 C 
ATOM      9  C   UNL     1     128.197 133.795 137.383  1.00  0.00     0.008 C 
ENDBRANCH   5   7
ENDBRANCH   4   5
ENDBRANCH   1   3
BRANCH   1  10
ATOM     10  C   UNL     1     131.923 130.648 137.360  1.00  0.00     0.002 C 
ATOM     11  C   UNL     1     131.521 130.126 135.953  1.00  0.00     0.005 C 
ATOM     12  C   UNL     1     132.939 129.587 137.879  1.00  0.00    -0.023 C 
ATOM     13  C   UNL     1     131.935 128.646 135.875  1.00  0.00     0.009 C 
ATOM     14  C   UNL     1     132.308 128.309 137.311  1.00  0.00     0.021 C 
ATOM     15  C   UNL     1     133.015 129.426 139.426  1.00  0.00     0.008 C 
ATOM     16  C   UNL     1     134.366 129.857 137.307  1.00  0.00     0.012 C 
ATOM     17  C   UNL     1     133.143 127.107 137.666  1.00  0.00    -0.063 C 
ATOM     18  C   UNL     1     133.769 128.133 139.855  1.00  0.00     0.009 C 
ATOM     19  C   UNL     1     133.219 126.850 139.164  1.00  0.00     0.025 C 
ATOM     20  C   UNL     1     134.032 126.564 136.823  1.00  0.00    -0.000 C 
ATOM     21  C   UNL     1     133.946 125.486 139.507  1.00  0.00    -0.005 C 
ATOM     22  C   UNL     1     135.083 125.658 137.302  1.00  0.00    -0.000 C 
ATOM     23  C   UNL     1     135.130 125.228 138.571  1.00  0.00    -0.061 C 
ATOM     24  C   UNL     1     134.424 125.454 140.994  1.00  0.00     0.014 C 
ATOM     25  C   UNL     1     132.920 124.341 139.285  1.00  0.00     0.017 C 
ATOM     26  C   UNL     1     136.164 124.181 138.935  1.00  0.00     0.063 C 
ATOM     27  C   UNL     1     135.313 124.249 141.325  1.00  0.00     0.033 C 
ATOM     28  C   UNL     1     136.554 124.248 140.418  1.00  0.00     0.118 C 
BRANCH  28  29
ATOM     29  O   UNL     1     137.413 123.186 140.752  1.00  0.00    -0.393 OA
ATOM     30  H   UNL     1     137.783 123.369 141.655  1.00  0.00     0.210 HD
ENDBRANCH  28  29
ENDBRANCH   1  10
TORSDOF 5
ENDMDL
