MODEL 1
REMARK VINA RESULT:    -7.717      0.000      0.000
REMARK INTER + INTRA:          -9.970
REMARK INTER:                  -9.522
REMARK INTRA:                  -0.448
REMARK UNBOUND:                -0.448
REMARK SMILES CC(C)=CCC[C@H](C)c1ccc(C)cc1
REMARK SMILES IDX 6 1 7 2 8 3 9 4 13 5 12 6 11 7 14 8 10 9 15 10 5 11 4 12
REMARK SMILES IDX 2 13 1 14 3 15
REMARK H PARENT
REMARK Flexibility Score: inf
ROOT
ATOM      1  C   UNL     1     -13.819 -14.700 -35.084  1.00  0.00     0.012 C 
ENDROOT
BRANCH   1   2
ATOM      2  C   UNL     1     -13.801 -13.692 -36.255  1.00  0.00     0.016 C 
ATOM      3  C   UNL     1     -15.211 -13.399 -36.795  1.00  0.00     0.013 C 
BRANCH   2   4
ATOM      4  C   UNL     1     -12.902 -14.191 -37.370  1.00  0.00    -0.045 A 
ATOM      5  C   UNL     1     -10.327 -15.581 -40.549  1.00  0.00     0.044 C 
ATOM      6  C   UNL     1     -11.205 -15.116 -39.425  1.00  0.00    -0.051 A 
ATOM      7  C   UNL     1     -10.888 -13.947 -38.717  1.00  0.00     0.004 A 
ATOM      8  C   UNL     1     -12.387 -15.807 -39.119  1.00  0.00     0.004 A 
ATOM      9  C   UNL     1     -11.725 -13.492 -37.694  1.00  0.00     0.004 A 
ATOM     10  C   UNL     1     -13.224 -15.354 -38.096  1.00  0.00     0.004 A 
ENDBRANCH   2   4
ENDBRANCH   1   2
BRANCH   1  11
ATOM     11  C   UNL     1     -15.242 -15.097 -34.666  1.00  0.00     0.028 C 
BRANCH  11  12
ATOM     12  C   UNL     1     -15.673 -14.328 -33.442  1.00  0.00    -0.028 C 
ATOM     13  C   UNL     1     -16.545 -14.788 -32.518  1.00  0.00    -0.080 C 
ATOM     14  C   UNL     1     -16.913 -13.889 -31.366  1.00  0.00     0.039 C 
ATOM     15  C   UNL     1     -17.140 -16.175 -32.600  1.00  0.00     0.039 C 
ENDBRANCH  11  12
ENDBRANCH   1  11
TORSDOF 4
ENDMDL
MODEL 2
REMARK VINA RESULT:    -7.678      0.101      1.255
REMARK INTER + INTRA:          -9.922
REMARK INTER:                  -9.444
REMARK INTRA:                  -0.478
REMARK UNBOUND:                -0.448
REMARK SMILES CC(C)=CCC[C@H](C)c1ccc(C)cc1
REMARK SMILES IDX 6 1 7 2 8 3 9 4 13 5 12 6 11 7 14 8 10 9 15 10 5 11 4 12
REMARK SMILES IDX 2 13 1 14 3 15
REMARK H PARENT
REMARK Flexibility Score: inf
ROOT
ATOM      1  C   UNL     1     -13.861 -14.656 -35.103  1.00  0.00     0.012 C 
ENDROOT
BRANCH   1   2
ATOM      2  C   UNL     1     -13.825 -13.666 -36.289  1.00  0.00     0.016 C 
ATOM      3  C   UNL     1     -15.229 -13.348 -36.827  1.00  0.00     0.013 C 
BRANCH   2   4
ATOM      4  C   UNL     1     -12.942 -14.202 -37.400  1.00  0.00    -0.045 A 
ATOM      5  C   UNL     1     -10.443 -15.760 -40.561  1.00  0.00     0.044 C 
ATOM      6  C   UNL     1     -11.326 -15.202 -39.484  1.00  0.00    -0.051 A 
ATOM      7  C   UNL     1     -12.512 -15.861 -39.130  1.00  0.00     0.004 A 
ATOM      8  C   UNL     1     -10.937 -14.055 -38.776  1.00  0.00     0.004 A 
ATOM      9  C   UNL     1     -13.317 -15.362 -38.102  1.00  0.00     0.004 A 
ATOM     10  C   UNL     1     -11.741 -13.555 -37.749  1.00  0.00     0.004 A 
ENDBRANCH   2   4
ENDBRANCH   1   2
BRANCH   1  11
ATOM     11  C   UNL     1     -15.292 -15.033 -34.691  1.00  0.00     0.028 C 
BRANCH  11  12
ATOM     12  C   UNL     1     -15.690 -14.312 -33.427  1.00  0.00    -0.028 C 
ATOM     13  C   UNL     1     -16.554 -14.799 -32.509  1.00  0.00    -0.080 C 
ATOM     14  C   UNL     1     -16.889 -13.946 -31.314  1.00  0.00     0.039 C 
ATOM     15  C   UNL     1     -17.171 -16.173 -32.641  1.00  0.00     0.039 C 
ENDBRANCH  11  12
ENDBRANCH   1  11
TORSDOF 4
ENDMDL
MODEL 3
REMARK VINA RESULT:    -7.263      1.210      7.313
REMARK INTER + INTRA:          -9.410
REMARK INTER:                  -8.878
REMARK INTRA:                  -0.532
REMARK UNBOUND:                -0.448
REMARK SMILES CC(C)=CCC[C@H](C)c1ccc(C)cc1
REMARK SMILES IDX 6 1 7 2 8 3 9 4 13 5 12 6 11 7 14 8 10 9 15 10 5 11 4 12
REMARK SMILES IDX 2 13 1 14 3 15
REMARK H PARENT
REMARK Flexibility Score: inf
ROOT
ATOM      1  C   UNL     1     -14.674 -15.215 -35.391  1.00  0.00     0.012 C 
ENDROOT
BRANCH   1   2
ATOM      2  C   UNL     1     -15.235 -14.239 -34.333  1.00  0.00     0.016 C 
ATOM      3  C   UNL     1     -14.122 -13.513 -33.560  1.00  0.00     0.013 C 
BRANCH   2   4
ATOM      4  C   UNL     1     -16.155 -14.971 -33.372  1.00  0.00    -0.045 A 
ATOM      5  C   UNL     1     -18.777 -17.076 -30.661  1.00  0.00     0.044 C 
ATOM      6  C   UNL     1     -17.842 -16.352 -31.584  1.00  0.00    -0.051 A 
ATOM      7  C   UNL     1     -17.250 -17.025 -32.663  1.00  0.00     0.004 A 
ATOM      8  C   UNL     1     -17.608 -14.979 -31.417  1.00  0.00     0.004 A 
ATOM      9  C   UNL     1     -16.408 -16.343 -33.545  1.00  0.00     0.004 A 
ATOM     10  C   UNL     1     -16.766 -14.296 -32.298  1.00  0.00     0.004 A 
ENDBRANCH   2   4
ENDBRANCH   1   2
BRANCH   1  11
ATOM     11  C   UNL     1     -14.654 -14.610 -36.803  1.00  0.00     0.028 C 
BRANCH  11  12
ATOM     12  C   UNL     1     -13.354 -13.887 -37.054  1.00  0.00    -0.028 C 
ATOM     13  C   UNL     1     -12.440 -14.259 -37.977  1.00  0.00    -0.080 C 
ATOM     14  C   UNL     1     -11.166 -13.462 -38.088  1.00  0.00     0.039 C 
ATOM     15  C   UNL     1     -12.668 -15.431 -38.903  1.00  0.00     0.039 C 
ENDBRANCH  11  12
ENDBRANCH   1  11
TORSDOF 4
ENDMDL
MODEL 4
REMARK VINA RESULT:    -7.225      1.216      7.246
REMARK INTER + INTRA:          -9.362
REMARK INTER:                  -8.832
REMARK INTRA:                  -0.530
REMARK UNBOUND:                -0.448
REMARK SMILES CC(C)=CCC[C@H](C)c1ccc(C)cc1
REMARK SMILES IDX 6 1 7 2 8 3 9 4 13 5 12 6 11 7 14 8 10 9 15 10 5 11 4 12
REMARK SMILES IDX 2 13 1 14 3 15
REMARK H PARENT
REMARK Flexibility Score: inf
ROOT
ATOM      1  C   UNL     1     -14.669 -15.236 -35.416  1.00  0.00     0.012 C 
ENDROOT
BRANCH   1   2
ATOM      2  C   UNL     1     -15.279 -14.274 -34.372  1.00  0.00     0.016 C 
ATOM      3  C   UNL     1     -14.204 -13.487 -33.606  1.00  0.00     0.013 C 
BRANCH   2   4
ATOM      4  C   UNL     1     -16.166 -15.036 -33.404  1.00  0.00    -0.045 A 
ATOM      5  C   UNL     1     -18.684 -17.181 -30.625  1.00  0.00     0.044 C 
ATOM      6  C   UNL     1     -17.834 -16.430 -31.607  1.00  0.00    -0.051 A 
ATOM      7  C   UNL     1     -17.562 -15.068 -31.410  1.00  0.00     0.004 A 
ATOM      8  C   UNL     1     -17.250 -17.098 -32.693  1.00  0.00     0.004 A 
ATOM      9  C   UNL     1     -16.741 -14.376 -32.304  1.00  0.00     0.004 A 
ATOM     10  C   UNL     1     -16.429 -16.407 -33.587  1.00  0.00     0.004 A 
ENDBRANCH   2   4
ENDBRANCH   1   2
BRANCH   1  11
ATOM     11  C   UNL     1     -14.624 -14.628 -36.825  1.00  0.00     0.028 C 
BRANCH  11  12
ATOM     12  C   UNL     1     -13.293 -13.964 -37.077  1.00  0.00    -0.028 C 
ATOM     13  C   UNL     1     -12.407 -14.362 -38.016  1.00  0.00    -0.080 C 
ATOM     14  C   UNL     1     -11.097 -13.625 -38.125  1.00  0.00     0.039 C 
ATOM     15  C   UNL     1     -12.701 -15.503 -38.962  1.00  0.00     0.039 C 
ENDBRANCH  11  12
ENDBRANCH   1  11
TORSDOF 4
ENDMDL
MODEL 5
REMARK VINA RESULT:    -7.116      1.868      6.806
REMARK INTER + INTRA:          -9.229
REMARK INTER:                  -8.586
REMARK INTRA:                  -0.642
REMARK UNBOUND:                -0.448
REMARK SMILES CC(C)=CCC[C@H](C)c1ccc(C)cc1
REMARK SMILES IDX 6 1 7 2 8 3 9 4 13 5 12 6 11 7 14 8 10 9 15 10 5 11 4 12
REMARK SMILES IDX 2 13 1 14 3 15
REMARK H PARENT
REMARK Flexibility Score: inf
ROOT
ATOM      1  C   UNL     1     -12.308 -15.148 -39.466  1.00  0.00     0.012 C 
ENDROOT
BRANCH   1   2
ATOM      2  C   UNL     1     -11.938 -14.235 -38.276  1.00  0.00     0.016 C 
ATOM      3  C   UNL     1     -10.514 -14.496 -37.760  1.00  0.00     0.013 C 
BRANCH   2   4
ATOM      4  C   UNL     1     -12.945 -14.396 -37.152  1.00  0.00    -0.045 A 
ATOM      5  C   UNL     1     -15.804 -14.888 -33.950  1.00  0.00     0.044 C 
ATOM      6  C   UNL     1     -14.793 -14.700 -35.043  1.00  0.00    -0.051 A 
ATOM      7  C   UNL     1     -13.748 -15.620 -35.206  1.00  0.00     0.004 A 
ATOM      8  C   UNL     1     -14.927 -13.640 -35.953  1.00  0.00     0.004 A 
ATOM      9  C   UNL     1     -12.828 -15.466 -36.247  1.00  0.00     0.004 A 
ATOM     10  C   UNL     1     -14.007 -13.485 -36.994  1.00  0.00     0.004 A 
ENDBRANCH   2   4
ENDBRANCH   1   2
BRANCH   1  11
ATOM     11  C   UNL     1     -11.188 -16.135 -39.825  1.00  0.00     0.028 C 
BRANCH  11  12
ATOM     12  C   UNL     1     -11.641 -17.557 -39.604  1.00  0.00    -0.028 C 
ATOM     13  C   UNL     1     -10.998 -18.646 -40.082  1.00  0.00    -0.080 C 
ATOM     14  C   UNL     1     -11.592 -20.005 -39.816  1.00  0.00     0.039 C 
ATOM     15  C   UNL     1      -9.703 -18.537 -40.853  1.00  0.00     0.039 C 
ENDBRANCH  11  12
ENDBRANCH   1  11
TORSDOF 4
ENDMDL
MODEL 6
REMARK VINA RESULT:    -7.029      2.541      7.071
REMARK INTER + INTRA:          -9.121
REMARK INTER:                  -8.616
REMARK INTRA:                  -0.505
REMARK UNBOUND:                -0.448
REMARK SMILES CC(C)=CCC[C@H](C)c1ccc(C)cc1
REMARK SMILES IDX 6 1 7 2 8 3 9 4 13 5 12 6 11 7 14 8 10 9 15 10 5 11 4 12
REMARK SMILES IDX 2 13 1 14 3 15
REMARK H PARENT
REMARK Flexibility Score: inf
ROOT
ATOM      1  C   UNL     1     -10.724 -16.557 -39.318  1.00  0.00     0.012 C 
ENDROOT
BRANCH   1   2
ATOM      2  C   UNL     1     -11.212 -15.116 -39.588  1.00  0.00     0.016 C 
ATOM      3  C   UNL     1     -10.066 -14.093 -39.549  1.00  0.00     0.013 C 
BRANCH   2   4
ATOM      4  C   UNL     1     -12.298 -14.730 -38.601  1.00  0.00    -0.045 A 
ATOM      5  C   UNL     1     -15.411 -13.650 -35.807  1.00  0.00     0.044 C 
ATOM      6  C   UNL     1     -14.317 -14.042 -36.755  1.00  0.00    -0.051 A 
ATOM      7  C   UNL     1     -14.470 -15.159 -37.589  1.00  0.00     0.004 A 
ATOM      8  C   UNL     1     -13.161 -13.255 -36.864  1.00  0.00     0.004 A 
ATOM      9  C   UNL     1     -13.467 -15.504 -38.499  1.00  0.00     0.004 A 
ATOM     10  C   UNL     1     -12.157 -13.600 -37.773  1.00  0.00     0.004 A 
ENDBRANCH   2   4
ENDBRANCH   1   2
BRANCH   1  11
ATOM     11  C   UNL     1     -11.190 -17.551 -40.391  1.00  0.00     0.028 C 
BRANCH  11  12
ATOM     12  C   UNL     1     -10.261 -18.738 -40.457  1.00  0.00    -0.028 C 
ATOM     13  C   UNL     1     -10.617 -20.005 -40.148  1.00  0.00    -0.080 C 
ATOM     14  C   UNL     1      -9.569 -21.084 -40.221  1.00  0.00     0.039 C 
ATOM     15  C   UNL     1     -12.031 -20.364 -39.753  1.00  0.00     0.039 C 
ENDBRANCH  11  12
ENDBRANCH   1  11
TORSDOF 4
ENDMDL
MODEL 7
REMARK VINA RESULT:    -6.591      1.047      6.892
REMARK INTER + INTRA:          -8.581
REMARK INTER:                  -8.383
REMARK INTRA:                  -0.198
REMARK UNBOUND:                -0.448
REMARK SMILES CC(C)=CCC[C@H](C)c1ccc(C)cc1
REMARK SMILES IDX 6 1 7 2 8 3 9 4 13 5 12 6 11 7 14 8 10 9 15 10 5 11 4 12
REMARK SMILES IDX 2 13 1 14 3 15
REMARK H PARENT
REMARK Flexibility Score: inf
ROOT
ATOM      1  C   UNL     1     -14.483 -14.831 -37.186  1.00  0.00     0.012 C 
ENDROOT
BRANCH   1   2
ATOM      2  C   UNL     1     -13.703 -14.691 -35.860  1.00  0.00     0.016 C 
ATOM      3  C   UNL     1     -12.675 -15.816 -35.665  1.00  0.00     0.013 C 
BRANCH   2   4
ATOM      4  C   UNL     1     -14.661 -14.641 -34.684  1.00  0.00    -0.045 A 
ATOM      5  C   UNL     1     -17.366 -14.484 -31.319  1.00  0.00     0.044 C 
ATOM      6  C   UNL     1     -16.446 -14.520 -32.503  1.00  0.00    -0.051 A 
ATOM      7  C   UNL     1     -15.384 -13.608 -32.602  1.00  0.00     0.004 A 
ATOM      8  C   UNL     1     -16.597 -15.508 -33.487  1.00  0.00     0.004 A 
ATOM      9  C   UNL     1     -14.504 -13.664 -33.685  1.00  0.00     0.004 A 
ATOM     10  C   UNL     1     -15.718 -15.565 -34.571  1.00  0.00     0.004 A 
ENDBRANCH   2   4
ENDBRANCH   1   2
BRANCH   1  11
ATOM     11  C   UNL     1     -13.590 -15.276 -38.354  1.00  0.00     0.028 C 
BRANCH  11  12
ATOM     12  C   UNL     1     -12.322 -14.460 -38.396  1.00  0.00    -0.028 C 
ATOM     13  C   UNL     1     -11.232 -14.780 -39.128  1.00  0.00    -0.080 C 
ATOM     14  C   UNL     1     -10.020 -13.889 -39.039  1.00  0.00     0.039 C 
ATOM     15  C   UNL     1     -11.205 -15.986 -40.038  1.00  0.00     0.039 C 
ENDBRANCH  11  12
ENDBRANCH   1  11
TORSDOF 4
ENDMDL
MODEL 8
REMARK VINA RESULT:    -6.409      1.319      1.991
REMARK INTER + INTRA:          -8.356
REMARK INTER:                  -7.776
REMARK INTRA:                  -0.580
REMARK UNBOUND:                -0.448
REMARK SMILES CC(C)=CCC[C@H](C)c1ccc(C)cc1
REMARK SMILES IDX 6 1 7 2 8 3 9 4 13 5 12 6 11 7 14 8 10 9 15 10 5 11 4 12
REMARK SMILES IDX 2 13 1 14 3 15
REMARK H PARENT
REMARK Flexibility Score: inf
ROOT
ATOM      1  C   UNL     1     -15.444 -15.544 -34.675  1.00  0.00     0.012 C 
ENDROOT
BRANCH   1   2
ATOM      2  C   UNL     1     -13.989 -15.024 -34.692  1.00  0.00     0.016 C 
ATOM      3  C   UNL     1     -13.890 -13.551 -34.264  1.00  0.00     0.013 C 
BRANCH   2   4
ATOM      4  C   UNL     1     -13.372 -15.217 -36.065  1.00  0.00    -0.045 A 
ATOM      5  C   UNL     1     -11.589 -15.757 -39.962  1.00  0.00     0.044 C 
ATOM      6  C   UNL     1     -12.211 -15.600 -38.606  1.00  0.00    -0.051 A 
ATOM      7  C   UNL     1     -11.405 -15.548 -37.460  1.00  0.00     0.004 A 
ATOM      8  C   UNL     1     -13.599 -15.435 -38.481  1.00  0.00     0.004 A 
ATOM      9  C   UNL     1     -11.981 -15.366 -36.200  1.00  0.00     0.004 A 
ATOM     10  C   UNL     1     -14.175 -15.253 -37.221  1.00  0.00     0.004 A 
ENDBRANCH   2   4
ENDBRANCH   1   2
BRANCH   1  11
ATOM     11  C   UNL     1     -16.406 -14.589 -33.953  1.00  0.00     0.028 C 
BRANCH  11  12
ATOM     12  C   UNL     1     -17.383 -15.359 -33.101  1.00  0.00    -0.028 C 
ATOM     13  C   UNL     1     -17.645 -15.087 -31.803  1.00  0.00    -0.080 C 
ATOM     14  C   UNL     1     -18.617 -15.971 -31.066  1.00  0.00     0.039 C 
ATOM     15  C   UNL     1     -17.008 -13.919 -31.086  1.00  0.00     0.039 C 
ENDBRANCH  11  12
ENDBRANCH   1  11
TORSDOF 4
ENDMDL
MODEL 9
REMARK VINA RESULT:    -6.337     12.220     13.440
REMARK INTER + INTRA:          -8.266
REMARK INTER:                  -7.459
REMARK INTRA:                  -0.807
REMARK UNBOUND:                -0.448
REMARK SMILES CC(C)=CCC[C@H](C)c1ccc(C)cc1
REMARK SMILES IDX 6 1 7 2 8 3 9 4 13 5 12 6 11 7 14 8 10 9 15 10 5 11 4 12
REMARK SMILES IDX 2 13 1 14 3 15
REMARK H PARENT
REMARK Flexibility Score: inf
ROOT
ATOM      1  C   UNL     1     -13.187  -5.498 -28.728  1.00  0.00     0.012 C 
ENDROOT
BRANCH   1   2
ATOM      2  C   UNL     1     -12.513  -4.120 -28.913  1.00  0.00     0.016 C 
ATOM      3  C   UNL     1     -12.854  -3.481 -30.269  1.00  0.00     0.013 C 
BRANCH   2   4
ATOM      4  C   UNL     1     -11.009  -4.238 -28.748  1.00  0.00    -0.045 A 
ATOM      5  C   UNL     1      -6.728  -4.546 -28.264  1.00  0.00     0.044 C 
ATOM      6  C   UNL     1      -8.218  -4.463 -28.412  1.00  0.00    -0.051 A 
ATOM      7  C   UNL     1      -8.963  -3.602 -27.593  1.00  0.00     0.004 A 
ATOM      8  C   UNL     1      -8.870  -5.193 -29.417  1.00  0.00     0.004 A 
ATOM      9  C   UNL     1     -10.347  -3.496 -27.755  1.00  0.00     0.004 A 
ATOM     10  C   UNL     1     -10.254  -5.088 -29.579  1.00  0.00     0.004 A 
ENDBRANCH   2   4
ENDBRANCH   1   2
BRANCH   1  11
ATOM     11  C   UNL     1     -14.523  -5.408 -27.976  1.00  0.00     0.028 C 
BRANCH  11  12
ATOM     12  C   UNL     1     -14.389  -5.968 -26.582  1.00  0.00    -0.028 C 
ATOM     13  C   UNL     1     -14.099  -5.232 -25.487  1.00  0.00    -0.080 C 
ATOM     14  C   UNL     1     -13.956  -5.937 -24.163  1.00  0.00     0.039 C 
ATOM     15  C   UNL     1     -13.935  -3.731 -25.553  1.00  0.00     0.039 C 
ENDBRANCH  11  12
ENDBRANCH   1  11
TORSDOF 4
ENDMDL
