MODEL 1
REMARK VINA RESULT:    -2.775      0.000      0.000
REMARK INTER + INTRA:          -4.915
REMARK INTER:                  -4.235
REMARK INTRA:                  -0.680
REMARK UNBOUND:                -0.680
REMARK SMILES CCCCCCCCCCC(=O)[O-]
REMARK SMILES IDX 7 1 8 2 9 3 10 4 11 5 12 6 13 7 6 8 5 9 4 10 3 11 2 12 1 13
REMARK H PARENT
REMARK Flexibility Score: inf
ROOT
ATOM      1  C   UNL     1      -3.687  -8.785   2.586  1.00  0.00     0.000 C 
ENDROOT
BRANCH   1   2
ATOM      2  C   UNL     1      -5.194  -8.777   2.288  1.00  0.00     0.000 C 
BRANCH   2   3
ATOM      3  C   UNL     1      -5.880  -7.579   2.955  1.00  0.00     0.006 C 
BRANCH   3   4
ATOM      4  C   UNL     1      -4.848  -6.568   3.462  1.00  0.00     0.053 C 
BRANCH   4   5
ATOM      5  C   UNL     1      -5.488  -5.234   3.689  1.00  0.00     0.041 C 
ATOM      6  O   UNL     1      -4.926  -4.185   3.280  1.00  0.00    -0.550 OA
ATOM      7  O   UNL     1      -6.679  -5.146   4.397  1.00  0.00    -0.550 OA
ENDBRANCH   4   5
ENDBRANCH   3   4
ENDBRANCH   2   3
ENDBRANCH   1   2
BRANCH   1   8
ATOM      8  C   UNL     1      -3.139 -10.194   2.876  1.00  0.00     0.000 C 
BRANCH   8   9
ATOM      9  C   UNL     1      -1.677 -10.242   3.357  1.00  0.00    -0.000 C 
BRANCH   9  10
ATOM     10  C   UNL     1      -0.915  -8.932   3.090  1.00  0.00    -0.000 C 
BRANCH  10  11
ATOM     11  C   UNL     1      -0.383  -8.287   4.380  1.00  0.00    -0.000 C 
BRANCH  11  12
ATOM     12  C   UNL     1      -1.283  -7.152   4.890  1.00  0.00    -0.003 C 
ATOM     13  C   UNL     1      -0.534  -5.823   4.909  1.00  0.00     0.004 C 
ENDBRANCH  11  12
ENDBRANCH  10  11
ENDBRANCH   9  10
ENDBRANCH   8   9
ENDBRANCH   1   8
TORSDOF 9
ENDMDL
MODEL 2
REMARK VINA RESULT:    -2.531      3.000      3.534
REMARK INTER + INTRA:          -4.543
REMARK INTER:                  -4.034
REMARK INTRA:                  -0.509
REMARK UNBOUND:                -0.680
REMARK SMILES CCCCCCCCCCC(=O)[O-]
REMARK SMILES IDX 7 1 8 2 9 3 10 4 11 5 12 6 13 7 6 8 5 9 4 10 3 11 2 12 1 13
REMARK H PARENT
REMARK Flexibility Score: inf
ROOT
ATOM      1  C   UNL     1      -3.780  -8.515   2.420  1.00  0.00     0.000 C 
ENDROOT
BRANCH   1   2
ATOM      2  C   UNL     1      -5.107  -7.780   2.665  1.00  0.00     0.000 C 
BRANCH   2   3
ATOM      3  C   UNL     1      -6.272  -8.507   1.982  1.00  0.00     0.006 C 
BRANCH   3   4
ATOM      4  C   UNL     1      -5.791  -9.784   1.287  1.00  0.00     0.053 C 
BRANCH   4   5
ATOM      5  C   UNL     1      -6.107  -9.736  -0.174  1.00  0.00     0.041 C 
ATOM      6  O   UNL     1      -6.601  -8.695  -0.682  1.00  0.00    -0.550 OA
ATOM      7  O   UNL     1      -5.904 -10.858  -0.967  1.00  0.00    -0.550 OA
ENDBRANCH   4   5
ENDBRANCH   3   4
ENDBRANCH   2   3
ENDBRANCH   1   2
BRANCH   1   8
ATOM      8  C   UNL     1      -3.129  -9.028   3.717  1.00  0.00     0.000 C 
BRANCH   8   9
ATOM      9  C   UNL     1      -1.794  -9.773   3.528  1.00  0.00    -0.000 C 
BRANCH   9  10
ATOM     10  C   UNL     1      -0.582  -8.969   4.031  1.00  0.00    -0.000 C 
BRANCH  10  11
ATOM     11  C   UNL     1      -0.994  -7.709   4.811  1.00  0.00    -0.000 C 
BRANCH  11  12
ATOM     12  C   UNL     1       0.038  -6.577   4.696  1.00  0.00    -0.003 C 
ATOM     13  C   UNL     1      -0.639  -5.211   4.754  1.00  0.00     0.004 C 
ENDBRANCH  11  12
ENDBRANCH  10  11
ENDBRANCH   9  10
ENDBRANCH   8   9
ENDBRANCH   1   8
TORSDOF 9
ENDMDL
MODEL 3
REMARK VINA RESULT:    -2.529      2.364      4.736
REMARK INTER + INTRA:          -4.540
REMARK INTER:                  -3.738
REMARK INTRA:                  -0.802
REMARK UNBOUND:                -0.680
REMARK SMILES CCCCCCCCCCC(=O)[O-]
REMARK SMILES IDX 7 1 8 2 9 3 10 4 11 5 12 6 13 7 6 8 5 9 4 10 3 11 2 12 1 13
REMARK H PARENT
REMARK Flexibility Score: inf
ROOT
ATOM      1  C   UNL     1      -2.705  -9.170   2.977  1.00  0.00     0.000 C 
ENDROOT
BRANCH   1   2
ATOM      2  C   UNL     1      -1.519  -9.866   3.662  1.00  0.00     0.000 C 
BRANCH   2   3
ATOM      3  C   UNL     1      -1.026  -9.054   4.866  1.00  0.00     0.006 C 
BRANCH   3   4
ATOM      4  C   UNL     1      -1.564  -7.622   4.821  1.00  0.00     0.053 C 
BRANCH   4   5
ATOM      5  C   UNL     1      -0.437  -6.638   4.792  1.00  0.00     0.041 C 
ATOM      6  O   UNL     1       0.755  -7.041   4.806  1.00  0.00    -0.550 OA
ATOM      7  O   UNL     1      -0.704  -5.275   4.800  1.00  0.00    -0.550 OA
ENDBRANCH   4   5
ENDBRANCH   3   4
ENDBRANCH   2   3
ENDBRANCH   1   2
BRANCH   1   8
ATOM      8  C   UNL     1      -3.958 -10.060   2.894  1.00  0.00     0.000 C 
BRANCH   8   9
ATOM      9  C   UNL     1      -4.878  -9.786   1.690  1.00  0.00    -0.000 C 
BRANCH   9  10
ATOM     10  C   UNL     1      -5.636  -8.452   1.805  1.00  0.00    -0.000 C 
BRANCH  10  11
ATOM     11  C   UNL     1      -6.363  -8.303   3.152  1.00  0.00    -0.000 C 
BRANCH  11  12
ATOM     12  C   UNL     1      -6.297  -6.871   3.705  1.00  0.00    -0.003 C 
ATOM     13  C   UNL     1      -4.909  -6.270   3.508  1.00  0.00     0.004 C 
ENDBRANCH  11  12
ENDBRANCH  10  11
ENDBRANCH   9  10
ENDBRANCH   8   9
ENDBRANCH   1   8
TORSDOF 9
ENDMDL
MODEL 4
REMARK VINA RESULT:    -2.525      2.593      5.163
REMARK INTER + INTRA:          -4.533
REMARK INTER:                  -3.776
REMARK INTRA:                  -0.757
REMARK UNBOUND:                -0.680
REMARK SMILES CCCCCCCCCCC(=O)[O-]
REMARK SMILES IDX 7 1 8 2 9 3 10 4 11 5 12 6 13 7 6 8 5 9 4 10 3 11 2 12 1 13
REMARK H PARENT
REMARK Flexibility Score: inf
ROOT
ATOM      1  C   UNL     1      -1.816 -10.858   3.242  1.00  0.00     0.000 C 
ENDROOT
BRANCH   1   2
ATOM      2  C   UNL     1      -1.133  -9.482   3.268  1.00  0.00     0.000 C 
BRANCH   2   3
ATOM      3  C   UNL     1      -0.965  -8.979   4.707  1.00  0.00     0.006 C 
BRANCH   3   4
ATOM      4  C   UNL     1      -1.458  -7.536   4.846  1.00  0.00     0.053 C 
BRANCH   4   5
ATOM      5  C   UNL     1      -0.302  -6.586   4.866  1.00  0.00     0.041 C 
ATOM      6  O   UNL     1       0.879  -7.025   4.848  1.00  0.00    -0.550 OA
ATOM      7  O   UNL     1      -0.527  -5.219   4.956  1.00  0.00    -0.550 OA
ENDBRANCH   4   5
ENDBRANCH   3   4
ENDBRANCH   2   3
ENDBRANCH   1   2
BRANCH   1   8
ATOM      8  C   UNL     1      -3.227 -10.817   2.628  1.00  0.00     0.000 C 
BRANCH   8   9
ATOM      9  C   UNL     1      -4.311 -10.180   3.518  1.00  0.00    -0.000 C 
BRANCH   9  10
ATOM     10  C   UNL     1      -4.673  -8.748   3.089  1.00  0.00    -0.000 C 
BRANCH  10  11
ATOM     11  C   UNL     1      -4.851  -8.616   1.568  1.00  0.00    -0.000 C 
BRANCH  11  12
ATOM     12  C   UNL     1      -6.300  -8.856   1.117  1.00  0.00    -0.003 C 
ATOM     13  C   UNL     1      -6.388  -8.982  -0.401  1.00  0.00     0.004 C 
ENDBRANCH  11  12
ENDBRANCH  10  11
ENDBRANCH   9  10
ENDBRANCH   8   9
ENDBRANCH   1   8
TORSDOF 9
ENDMDL
MODEL 5
REMARK VINA RESULT:    -2.519      2.021      4.143
REMARK INTER + INTRA:          -4.525
REMARK INTER:                  -3.435
REMARK INTRA:                  -1.091
REMARK UNBOUND:                -0.680
REMARK SMILES CCCCCCCCCCC(=O)[O-]
REMARK SMILES IDX 7 1 8 2 9 3 10 4 11 5 12 6 13 7 6 8 5 9 4 10 3 11 2 12 1 13
REMARK H PARENT
REMARK Flexibility Score: inf
ROOT
ATOM      1  C   UNL     1      -3.354  -9.197   3.488  1.00  0.00     0.000 C 
ENDROOT
BRANCH   1   2
ATOM      2  C   UNL     1      -3.845  -7.845   4.029  1.00  0.00     0.000 C 
BRANCH   2   3
ATOM      3  C   UNL     1      -4.835  -7.192   3.057  1.00  0.00     0.006 C 
BRANCH   3   4
ATOM      4  C   UNL     1      -6.122  -6.780   3.777  1.00  0.00     0.053 C 
BRANCH   4   5
ATOM      5  C   UNL     1      -6.138  -5.304   4.018  1.00  0.00     0.041 C 
ATOM      6  O   UNL     1      -5.278  -4.563   3.474  1.00  0.00    -0.550 OA
ATOM      7  O   UNL     1      -7.073  -4.751   4.884  1.00  0.00    -0.550 OA
ENDBRANCH   4   5
ENDBRANCH   3   4
ENDBRANCH   2   3
ENDBRANCH   1   2
BRANCH   1   8
ATOM      8  C   UNL     1      -4.491 -10.219   3.301  1.00  0.00     0.000 C 
BRANCH   8   9
ATOM      9  C   UNL     1      -4.376 -11.103   2.046  1.00  0.00    -0.000 C 
BRANCH   9  10
ATOM     10  C   UNL     1      -5.403 -10.739   0.959  1.00  0.00    -0.000 C 
BRANCH  10  11
ATOM     11  C   UNL     1      -6.690 -10.134   1.545  1.00  0.00    -0.000 C 
BRANCH  11  12
ATOM     12  C   UNL     1      -7.125  -8.852   0.821  1.00  0.00    -0.003 C 
ATOM     13  C   UNL     1      -6.209  -8.552  -0.363  1.00  0.00     0.004 C 
ENDBRANCH  11  12
ENDBRANCH  10  11
ENDBRANCH   9  10
ENDBRANCH   8   9
ENDBRANCH   1   8
TORSDOF 9
ENDMDL
MODEL 6
REMARK VINA RESULT:    -2.509      2.419      3.024
REMARK INTER + INTRA:          -4.509
REMARK INTER:                  -3.827
REMARK INTRA:                  -0.682
REMARK UNBOUND:                -0.680
REMARK SMILES CCCCCCCCCCC(=O)[O-]
REMARK SMILES IDX 7 1 8 2 9 3 10 4 11 5 12 6 13 7 6 8 5 9 4 10 3 11 2 12 1 13
REMARK H PARENT
REMARK Flexibility Score: inf
ROOT
ATOM      1  C   UNL     1      -2.532 -10.953   2.993  1.00  0.00     0.000 C 
ENDROOT
BRANCH   1   2
ATOM      2  C   UNL     1      -3.882 -10.219   2.988  1.00  0.00     0.000 C 
BRANCH   2   3
ATOM      3  C   UNL     1      -3.717  -8.769   2.515  1.00  0.00     0.006 C 
BRANCH   3   4
ATOM      4  C   UNL     1      -5.077  -8.084   2.363  1.00  0.00     0.053 C 
BRANCH   4   5
ATOM      5  C   UNL     1      -5.819  -8.643   1.190  1.00  0.00     0.041 C 
ATOM      6  O   UNL     1      -6.911  -9.246   1.359  1.00  0.00    -0.550 OA
ATOM      7  O   UNL     1      -5.279  -8.543  -0.086  1.00  0.00    -0.550 OA
ENDBRANCH   4   5
ENDBRANCH   3   4
ENDBRANCH   2   3
ENDBRANCH   1   2
BRANCH   1   8
ATOM      8  C   UNL     1      -1.328  -9.997   2.919  1.00  0.00     0.000 C 
BRANCH   8   9
ATOM      9  C   UNL     1      -0.091 -10.438   3.725  1.00  0.00    -0.000 C 
BRANCH   9  10
ATOM     10  C   UNL     1       0.217  -9.505   4.909  1.00  0.00    -0.000 C 
BRANCH  10  11
ATOM     11  C   UNL     1      -0.600  -8.204   4.862  1.00  0.00    -0.000 C 
BRANCH  11  12
ATOM     12  C   UNL     1       0.285  -6.949   4.833  1.00  0.00    -0.003 C 
ATOM     13  C   UNL     1      -0.562  -5.680   4.808  1.00  0.00     0.004 C 
ENDBRANCH  11  12
ENDBRANCH  10  11
ENDBRANCH   9  10
ENDBRANCH   8   9
ENDBRANCH   1   8
TORSDOF 9
ENDMDL
MODEL 7
REMARK VINA RESULT:    -2.483      2.555      5.305
REMARK INTER + INTRA:          -4.470
REMARK INTER:                  -3.571
REMARK INTRA:                  -0.899
REMARK UNBOUND:                -0.680
REMARK SMILES CCCCCCCCCCC(=O)[O-]
REMARK SMILES IDX 7 1 8 2 9 3 10 4 11 5 12 6 13 7 6 8 5 9 4 10 3 11 2 12 1 13
REMARK H PARENT
REMARK Flexibility Score: inf
ROOT
ATOM      1  C   UNL     1      -2.661  -8.937   4.862  1.00  0.00     0.000 C 
ENDROOT
BRANCH   1   2
ATOM      2  C   UNL     1      -2.086  -9.226   3.467  1.00  0.00     0.000 C 
BRANCH   2   3
ATOM      3  C   UNL     1      -0.623  -8.775   3.371  1.00  0.00     0.006 C 
BRANCH   3   4
ATOM      4  C   UNL     1      -0.176  -8.085   4.663  1.00  0.00     0.053 C 
BRANCH   4   5
ATOM      5  C   UNL     1       0.122  -6.641   4.410  1.00  0.00     0.041 C 
ATOM      6  O   UNL     1      -0.416  -5.750   5.118  1.00  0.00    -0.550 OA
ATOM      7  O   UNL     1       0.955  -6.276   3.360  1.00  0.00    -0.550 OA
ENDBRANCH   4   5
ENDBRANCH   3   4
ENDBRANCH   2   3
ENDBRANCH   1   2
BRANCH   1   8
ATOM      8  C   UNL     1      -4.064  -8.304   4.814  1.00  0.00     0.000 C 
BRANCH   8   9
ATOM      9  C   UNL     1      -4.334  -7.403   3.595  1.00  0.00    -0.000 C 
BRANCH   9  10
ATOM     10  C   UNL     1      -5.830  -7.281   3.259  1.00  0.00    -0.000 C 
BRANCH  10  11
ATOM     11  C   UNL     1      -6.297  -8.349   2.256  1.00  0.00    -0.000 C 
BRANCH  11  12
ATOM     12  C   UNL     1      -5.153  -8.881   1.381  1.00  0.00    -0.003 C 
ATOM     13  C   UNL     1      -5.032 -10.398   1.498  1.00  0.00     0.004 C 
ENDBRANCH  11  12
ENDBRANCH  10  11
ENDBRANCH   9  10
ENDBRANCH   8   9
ENDBRANCH   1   8
TORSDOF 9
ENDMDL
MODEL 8
REMARK VINA RESULT:    -2.390     13.947     16.085
REMARK INTER + INTRA:          -4.328
REMARK INTER:                  -3.790
REMARK INTRA:                  -0.538
REMARK UNBOUND:                -0.680
REMARK SMILES CCCCCCCCCCC(=O)[O-]
REMARK SMILES IDX 7 1 8 2 9 3 10 4 11 5 12 6 13 7 6 8 5 9 4 10 3 11 2 12 1 13
REMARK H PARENT
REMARK Flexibility Score: inf
ROOT
ATOM      1  C   UNL     1      13.038  -7.620   1.387  1.00  0.00     0.000 C 
ENDROOT
BRANCH   1   2
ATOM      2  C   UNL     1      12.460  -6.331   0.782  1.00  0.00     0.000 C 
BRANCH   2   3
ATOM      3  C   UNL     1      13.125  -5.091   1.392  1.00  0.00     0.006 C 
BRANCH   3   4
ATOM      4  C   UNL     1      13.125  -5.164   2.921  1.00  0.00     0.053 C 
BRANCH   4   5
ATOM      5  C   UNL     1      12.625  -3.881   3.508  1.00  0.00     0.041 C 
ATOM      6  O   UNL     1      12.693  -3.684   4.750  1.00  0.00    -0.550 OA
ATOM      7  O   UNL     1      12.038  -2.925   2.690  1.00  0.00    -0.550 OA
ENDBRANCH   4   5
ENDBRANCH   3   4
ENDBRANCH   2   3
ENDBRANCH   1   2
BRANCH   1   8
ATOM      8  C   UNL     1      12.033  -8.786   1.389  1.00  0.00     0.000 C 
BRANCH   8   9
ATOM      9  C   UNL     1      12.661 -10.191   1.337  1.00  0.00    -0.000 C 
BRANCH   9  10
ATOM     10  C   UNL     1      12.239 -11.080   2.520  1.00  0.00    -0.000 C 
BRANCH  10  11
ATOM     11  C   UNL     1      12.041 -10.279   3.817  1.00  0.00    -0.000 C 
BRANCH  11  12
ATOM     12  C   UNL     1      10.846 -10.777   4.645  1.00  0.00    -0.003 C 
ATOM     13  C   UNL     1       9.529 -10.504   3.925  1.00  0.00     0.004 C 
ENDBRANCH  11  12
ENDBRANCH  10  11
ENDBRANCH   9  10
ENDBRANCH   8   9
ENDBRANCH   1   8
TORSDOF 9
ENDMDL
MODEL 9
REMARK VINA RESULT:    -2.323      3.734      6.176
REMARK INTER + INTRA:          -4.225
REMARK INTER:                  -3.353
REMARK INTRA:                  -0.873
REMARK UNBOUND:                -0.680
REMARK SMILES CCCCCCCCCCC(=O)[O-]
REMARK SMILES IDX 7 1 8 2 9 3 10 4 11 5 12 6 13 7 6 8 5 9 4 10 3 11 2 12 1 13
REMARK H PARENT
REMARK Flexibility Score: inf
ROOT
ATOM      1  C   UNL     1      -4.149  -8.145   2.515  1.00  0.00     0.000 C 
ENDROOT
BRANCH   1   2
ATOM      2  C   UNL     1      -3.226  -9.279   2.987  1.00  0.00     0.000 C 
BRANCH   2   3
ATOM      3  C   UNL     1      -2.070  -8.730   3.832  1.00  0.00     0.006 C 
BRANCH   3   4
ATOM      4  C   UNL     1      -0.733  -8.890   3.104  1.00  0.00     0.053 C 
BRANCH   4   5
ATOM      5  C   UNL     1      -0.353 -10.334   3.017  1.00  0.00     0.041 C 
ATOM      6  O   UNL     1      -0.078 -10.851   1.902  1.00  0.00    -0.550 OA
ATOM      7  O   UNL     1      -0.351 -11.123   4.160  1.00  0.00    -0.550 OA
ENDBRANCH   4   5
ENDBRANCH   3   4
ENDBRANCH   2   3
ENDBRANCH   1   2
BRANCH   1   8
ATOM      8  C   UNL     1      -5.536  -8.181   3.183  1.00  0.00     0.000 C 
BRANCH   8   9
ATOM      9  C   UNL     1      -6.201  -9.569   3.235  1.00  0.00    -0.000 C 
BRANCH   9  10
ATOM     10  C   UNL     1      -6.962  -9.918   1.944  1.00  0.00    -0.000 C 
BRANCH  10  11
ATOM     11  C   UNL     1      -6.152 -10.836   1.013  1.00  0.00    -0.000 C 
BRANCH  11  12
ATOM     12  C   UNL     1      -5.915 -10.215  -0.372  1.00  0.00    -0.003 C 
ATOM     13  C   UNL     1      -6.525  -8.819  -0.459  1.00  0.00     0.004 C 
ENDBRANCH  11  12
ENDBRANCH  10  11
ENDBRANCH   9  10
ENDBRANCH   8   9
ENDBRANCH   1   8
TORSDOF 9
ENDMDL
