MODEL 1
REMARK VINA RESULT:    -3.577      0.000      0.000
REMARK INTER + INTRA:          -7.307
REMARK INTER:                  -6.086
REMARK INTRA:                  -1.220
REMARK UNBOUND:                -1.220
REMARK SMILES CCCCCCCCCCCCCC(=O)[O-]
REMARK SMILES IDX 8 1 9 2 10 3 11 4 12 5 13 6 14 7 15 8 16 9 7 10 6 11 5 12
REMARK SMILES IDX 4 13 3 14 2 15 1 16
REMARK H PARENT
REMARK Flexibility Score: inf
ROOT
ATOM      1  C   UNL     1      26.919 -10.379  30.258  1.00  0.00     0.000 C 
ENDROOT
BRANCH   1   2
ATOM      2  C   UNL     1      28.057  -9.712  31.047  1.00  0.00     0.000 C 
BRANCH   2   3
ATOM      3  C   UNL     1      29.447 -10.068  30.492  1.00  0.00     0.000 C 
BRANCH   3   4
ATOM      4  C   UNL     1      30.499 -10.275  31.597  1.00  0.00     0.000 C 
BRANCH   4   5
ATOM      5  C   UNL     1      31.833  -9.532  31.381  1.00  0.00     0.006 C 
BRANCH   5   6
ATOM      6  C   UNL     1      31.758  -8.012  31.593  1.00  0.00     0.053 C 
BRANCH   6   7
ATOM      7  C   UNL     1      31.052  -7.656  32.865  1.00  0.00     0.041 C 
ATOM      8  O   UNL     1      30.000  -6.968  32.833  1.00  0.00    -0.550 OA
ATOM      9  O   UNL     1      31.578  -8.055  34.088  1.00  0.00    -0.550 OA
ENDBRANCH   6   7
ENDBRANCH   5   6
ENDBRANCH   4   5
ENDBRANCH   3   4
ENDBRANCH   2   3
ENDBRANCH   1   2
BRANCH   1  10
ATOM     10  C   UNL     1      26.568  -9.614  28.969  1.00  0.00     0.000 C 
BRANCH  10  11
ATOM     11  C   UNL     1      25.068  -9.670  28.636  1.00  0.00    -0.000 C 
BRANCH  11  12
ATOM     12  C   UNL     1      24.365  -8.317  28.841  1.00  0.00    -0.000 C 
BRANCH  12  13
ATOM     13  C   UNL     1      24.165  -7.976  30.328  1.00  0.00    -0.000 C 
BRANCH  13  14
ATOM     14  C   UNL     1      23.200  -8.944  31.033  1.00  0.00    -0.000 C 
BRANCH  14  15
ATOM     15  C   UNL     1      23.882  -9.740  32.157  1.00  0.00    -0.003 C 
ATOM     16  C   UNL     1      24.749  -8.865  33.062  1.00  0.00     0.004 C 
ENDBRANCH  14  15
ENDBRANCH  13  14
ENDBRANCH  12  13
ENDBRANCH  11  12
ENDBRANCH  10  11
ENDBRANCH   1  10
TORSDOF 12
ENDMDL
MODEL 2
REMARK VINA RESULT:    -3.569      3.131      6.679
REMARK INTER + INTRA:          -7.292
REMARK INTER:                  -6.262
REMARK INTRA:                  -1.030
REMARK UNBOUND:                -1.220
REMARK SMILES CCCCCCCCCCCCCC(=O)[O-]
REMARK SMILES IDX 8 1 9 2 10 3 11 4 12 5 13 6 14 7 15 8 16 9 7 10 6 11 5 12
REMARK SMILES IDX 4 13 3 14 2 15 1 16
REMARK H PARENT
REMARK Flexibility Score: inf
ROOT
ATOM      1  C   UNL     1      30.920 -11.824  30.238  1.00  0.00     0.000 C 
ENDROOT
BRANCH   1   2
ATOM      2  C   UNL     1      29.436 -11.778  29.835  1.00  0.00     0.000 C 
BRANCH   2   3
ATOM      3  C   UNL     1      28.700 -10.568  30.436  1.00  0.00     0.000 C 
BRANCH   3   4
ATOM      4  C   UNL     1      27.997  -9.705  29.371  1.00  0.00     0.000 C 
BRANCH   4   5
ATOM      5  C   UNL     1      26.475  -9.923  29.251  1.00  0.00     0.006 C 
BRANCH   5   6
ATOM      6  C   UNL     1      25.623  -8.948  30.076  1.00  0.00     0.053 C 
BRANCH   6   7
ATOM      7  C   UNL     1      24.579  -8.270  29.243  1.00  0.00     0.041 C 
ATOM      8  O   UNL     1      24.060  -7.192  29.633  1.00  0.00    -0.550 OA
ATOM      9  O   UNL     1      24.154  -8.849  28.054  1.00  0.00    -0.550 OA
ENDBRANCH   6   7
ENDBRANCH   5   6
ENDBRANCH   4   5
ENDBRANCH   3   4
ENDBRANCH   2   3
ENDBRANCH   1   2
BRANCH   1  10
ATOM     10  C   UNL     1      31.326 -10.636  31.127  1.00  0.00     0.000 C 
BRANCH  10  11
ATOM     11  C   UNL     1      32.488  -9.822  30.534  1.00  0.00    -0.000 C 
BRANCH  11  12
ATOM     12  C   UNL     1      32.473  -8.352  30.989  1.00  0.00    -0.000 C 
BRANCH  12  13
ATOM     13  C   UNL     1      31.068  -7.873  31.393  1.00  0.00    -0.000 C 
BRANCH  13  14
ATOM     14  C   UNL     1      31.042  -7.231  32.791  1.00  0.00    -0.000 C 
BRANCH  14  15
ATOM     15  C   UNL     1      31.644  -8.147  33.869  1.00  0.00    -0.003 C 
ATOM     16  C   UNL     1      32.772  -7.477  34.654  1.00  0.00     0.004 C 
ENDBRANCH  14  15
ENDBRANCH  13  14
ENDBRANCH  12  13
ENDBRANCH  11  12
ENDBRANCH  10  11
ENDBRANCH   1  10
TORSDOF 12
ENDMDL
MODEL 3
REMARK VINA RESULT:    -3.568     15.593     17.921
REMARK INTER + INTRA:          -7.291
REMARK INTER:                  -6.416
REMARK INTRA:                  -0.874
REMARK UNBOUND:                -1.220
REMARK SMILES CCCCCCCCCCCCCC(=O)[O-]
REMARK SMILES IDX 8 1 9 2 10 3 11 4 12 5 13 6 14 7 15 8 16 9 7 10 6 11 5 12
REMARK SMILES IDX 4 13 3 14 2 15 1 16
REMARK H PARENT
REMARK Flexibility Score: inf
ROOT
ATOM      1  C   UNL     1      22.168   1.487  41.929  1.00  0.00     0.000 C 
ENDROOT
BRANCH   1   2
ATOM      2  C   UNL     1      22.286   0.715  40.604  1.00  0.00     0.000 C 
BRANCH   2   3
ATOM      3  C   UNL     1      21.764  -0.728  40.714  1.00  0.00     0.000 C 
BRANCH   3   4
ATOM      4  C   UNL     1      22.280  -1.456  41.969  1.00  0.00     0.000 C 
BRANCH   4   5
ATOM      5  C   UNL     1      21.193  -2.138  42.825  1.00  0.00     0.006 C 
BRANCH   5   6
ATOM      6  C   UNL     1      20.871  -1.417  44.143  1.00  0.00     0.053 C 
BRANCH   6   7
ATOM      7  C   UNL     1      21.489  -2.102  45.323  1.00  0.00     0.041 C 
ATOM      8  O   UNL     1      20.853  -2.196  46.404  1.00  0.00    -0.550 OA
ATOM      9  O   UNL     1      22.782  -2.604  45.238  1.00  0.00    -0.550 OA
ENDBRANCH   6   7
ENDBRANCH   5   6
ENDBRANCH   4   5
ENDBRANCH   3   4
ENDBRANCH   2   3
ENDBRANCH   1   2
BRANCH   1  10
ATOM     10  C   UNL     1      22.907   2.837  41.891  1.00  0.00     0.000 C 
BRANCH  10  11
ATOM     11  C   UNL     1      22.345   3.848  42.904  1.00  0.00    -0.000 C 
BRANCH  11  12
ATOM     12  C   UNL     1      21.104   3.317  43.644  1.00  0.00    -0.000 C 
BRANCH  12  13
ATOM     13  C   UNL     1      20.990   3.868  45.076  1.00  0.00    -0.000 C 
BRANCH  13  14
ATOM     14  C   UNL     1      22.258   4.615  45.525  1.00  0.00    -0.000 C 
BRANCH  14  15
ATOM     15  C   UNL     1      22.371   4.714  47.054  1.00  0.00    -0.003 C 
ATOM     16  C   UNL     1      21.237   3.992  47.782  1.00  0.00     0.004 C 
ENDBRANCH  14  15
ENDBRANCH  13  14
ENDBRANCH  12  13
ENDBRANCH  11  12
ENDBRANCH  10  11
ENDBRANCH   1  10
TORSDOF 12
ENDMDL
MODEL 4
REMARK VINA RESULT:    -3.556     14.675     17.270
REMARK INTER + INTRA:          -7.271
REMARK INTER:                  -6.141
REMARK INTRA:                  -1.131
REMARK UNBOUND:                -1.220
REMARK SMILES CCCCCCCCCCCCCC(=O)[O-]
REMARK SMILES IDX 8 1 9 2 10 3 11 4 12 5 13 6 14 7 15 8 16 9 7 10 6 11 5 12
REMARK SMILES IDX 4 13 3 14 2 15 1 16
REMARK H PARENT
REMARK Flexibility Score: inf
ROOT
ATOM      1  C   UNL     1      19.875   1.638  44.403  1.00  0.00     0.000 C 
ENDROOT
BRANCH   1   2
ATOM      2  C   UNL     1      19.894   0.113  44.602  1.00  0.00     0.000 C 
BRANCH   2   3
ATOM      3  C   UNL     1      20.399  -0.637  43.358  1.00  0.00     0.000 C 
BRANCH   3   4
ATOM      4  C   UNL     1      21.156  -1.933  43.706  1.00  0.00     0.000 C 
BRANCH   4   5
ATOM      5  C   UNL     1      22.521  -2.101  43.010  1.00  0.00     0.006 C 
BRANCH   5   6
ATOM      6  C   UNL     1      22.591  -1.517  41.591  1.00  0.00     0.053 C 
BRANCH   6   7
ATOM      7  C   UNL     1      23.307  -2.428  40.643  1.00  0.00     0.041 C 
ATOM      8  O   UNL     1      24.212  -3.195  41.063  1.00  0.00    -0.550 OA
ATOM      9  O   UNL     1      22.999  -2.405  39.288  1.00  0.00    -0.550 OA
ENDBRANCH   6   7
ENDBRANCH   5   6
ENDBRANCH   4   5
ENDBRANCH   3   4
ENDBRANCH   2   3
ENDBRANCH   1   2
BRANCH   1  10
ATOM     10  C   UNL     1      20.172   2.406  45.703  1.00  0.00     0.000 C 
BRANCH  10  11
ATOM     11  C   UNL     1      20.689   3.831  45.444  1.00  0.00    -0.000 C 
BRANCH  11  12
ATOM     12  C   UNL     1      20.197   4.405  44.104  1.00  0.00    -0.000 C 
BRANCH  12  13
ATOM     13  C   UNL     1      21.354   4.749  43.150  1.00  0.00    -0.000 C 
BRANCH  13  14
ATOM     14  C   UNL     1      22.643   3.978  43.481  1.00  0.00    -0.000 C 
BRANCH  14  15
ATOM     15  C   UNL     1      23.284   3.342  42.238  1.00  0.00    -0.003 C 
ATOM     16  C   UNL     1      22.551   2.084  41.770  1.00  0.00     0.004 C 
ENDBRANCH  14  15
ENDBRANCH  13  14
ENDBRANCH  12  13
ENDBRANCH  11  12
ENDBRANCH  10  11
ENDBRANCH   1  10
TORSDOF 12
ENDMDL
MODEL 5
REMARK VINA RESULT:    -3.531      3.151      6.699
REMARK INTER + INTRA:          -7.228
REMARK INTER:                  -6.224
REMARK INTRA:                  -1.004
REMARK UNBOUND:                -1.220
REMARK SMILES CCCCCCCCCCCCCC(=O)[O-]
REMARK SMILES IDX 8 1 9 2 10 3 11 4 12 5 13 6 14 7 15 8 16 9 7 10 6 11 5 12
REMARK SMILES IDX 4 13 3 14 2 15 1 16
REMARK H PARENT
REMARK Flexibility Score: inf
ROOT
ATOM      1  C   UNL     1      28.886 -10.871  31.277  1.00  0.00     0.000 C 
ENDROOT
BRANCH   1   2
ATOM      2  C   UNL     1      27.953  -9.832  30.632  1.00  0.00     0.000 C 
BRANCH   2   3
ATOM      3  C   UNL     1      27.972  -9.898  29.095  1.00  0.00     0.000 C 
BRANCH   3   4
ATOM      4  C   UNL     1      26.567  -9.788  28.473  1.00  0.00     0.000 C 
BRANCH   4   5
ATOM      5  C   UNL     1      25.472  -9.249  29.417  1.00  0.00     0.006 C 
BRANCH   5   6
ATOM      6  C   UNL     1      24.368  -8.443  28.718  1.00  0.00     0.053 C 
BRANCH   6   7
ATOM      7  C   UNL     1      23.708  -7.471  29.648  1.00  0.00     0.041 C 
ATOM      8  O   UNL     1      24.116  -6.282  29.713  1.00  0.00    -0.550 OA
ATOM      9  O   UNL     1      22.668  -7.889  30.468  1.00  0.00    -0.550 OA
ENDBRANCH   6   7
ENDBRANCH   5   6
ENDBRANCH   4   5
ENDBRANCH   3   4
ENDBRANCH   2   3
ENDBRANCH   1   2
BRANCH   1  10
ATOM     10  C   UNL     1      30.272 -10.913  30.610  1.00  0.00     0.000 C 
BRANCH  10  11
ATOM     11  C   UNL     1      31.387 -10.387  31.527  1.00  0.00    -0.000 C 
BRANCH  11  12
ATOM     12  C   UNL     1      32.232  -9.286  30.862  1.00  0.00    -0.000 C 
BRANCH  12  13
ATOM     13  C   UNL     1      31.595  -7.893  30.993  1.00  0.00    -0.000 C 
BRANCH  13  14
ATOM     14  C   UNL     1      30.719  -7.759  32.251  1.00  0.00    -0.000 C 
BRANCH  14  15
ATOM     15  C   UNL     1      31.383  -6.904  33.342  1.00  0.00    -0.003 C 
ATOM     16  C   UNL     1      32.276  -7.721  34.276  1.00  0.00     0.004 C 
ENDBRANCH  14  15
ENDBRANCH  13  14
ENDBRANCH  12  13
ENDBRANCH  11  12
ENDBRANCH  10  11
ENDBRANCH   1  10
TORSDOF 12
ENDMDL
MODEL 6
REMARK VINA RESULT:    -3.472      1.384      1.973
REMARK INTER + INTRA:          -7.127
REMARK INTER:                  -6.091
REMARK INTRA:                  -1.036
REMARK UNBOUND:                -1.220
REMARK SMILES CCCCCCCCCCCCCC(=O)[O-]
REMARK SMILES IDX 8 1 9 2 10 3 11 4 12 5 13 6 14 7 15 8 16 9 7 10 6 11 5 12
REMARK SMILES IDX 4 13 3 14 2 15 1 16
REMARK H PARENT
REMARK Flexibility Score: inf
ROOT
ATOM      1  C   UNL     1      28.073  -9.908  31.073  1.00  0.00     0.000 C 
ENDROOT
BRANCH   1   2
ATOM      2  C   UNL     1      28.763 -11.170  30.527  1.00  0.00     0.000 C 
BRANCH   2   3
ATOM      3  C   UNL     1      30.291 -11.015  30.443  1.00  0.00     0.000 C 
BRANCH   3   4
ATOM      4  C   UNL     1      30.880 -10.230  31.630  1.00  0.00     0.000 C 
BRANCH   4   5
ATOM      5  C   UNL     1      31.967  -9.200  31.260  1.00  0.00     0.006 C 
BRANCH   5   6
ATOM      6  C   UNL     1      31.503  -7.737  31.306  1.00  0.00     0.053 C 
BRANCH   6   7
ATOM      7  C   UNL     1      30.986  -7.354  32.658  1.00  0.00     0.041 C 
ATOM      8  O   UNL     1      29.993  -6.587  32.762  1.00  0.00    -0.550 OA
ATOM      9  O   UNL     1      31.622  -7.815  33.803  1.00  0.00    -0.550 OA
ENDBRANCH   6   7
ENDBRANCH   5   6
ENDBRANCH   4   5
ENDBRANCH   3   4
ENDBRANCH   2   3
ENDBRANCH   1   2
BRANCH   1  10
ATOM     10  C   UNL     1      27.048  -9.324  30.084  1.00  0.00     0.000 C 
BRANCH  10  11
ATOM     11  C   UNL     1      27.210  -9.884  28.662  1.00  0.00    -0.000 C 
BRANCH  11  12
ATOM     12  C   UNL     1      25.888  -9.894  27.875  1.00  0.00    -0.000 C 
BRANCH  12  13
ATOM     13  C   UNL     1      24.654  -9.912  28.794  1.00  0.00    -0.000 C 
BRANCH  13  14
ATOM     14  C   UNL     1      23.481  -9.096  28.223  1.00  0.00    -0.000 C 
BRANCH  14  15
ATOM     15  C   UNL     1      23.531  -7.619  28.647  1.00  0.00    -0.003 C 
ATOM     16  C   UNL     1      23.874  -7.437  30.126  1.00  0.00     0.004 C 
ENDBRANCH  14  15
ENDBRANCH  13  14
ENDBRANCH  12  13
ENDBRANCH  11  12
ENDBRANCH  10  11
ENDBRANCH   1  10
TORSDOF 12
ENDMDL
MODEL 7
REMARK VINA RESULT:    -3.468      2.518      6.407
REMARK INTER + INTRA:          -7.121
REMARK INTER:                  -6.063
REMARK INTRA:                  -1.058
REMARK UNBOUND:                -1.220
REMARK SMILES CCCCCCCCCCCCCC(=O)[O-]
REMARK SMILES IDX 8 1 9 2 10 3 11 4 12 5 13 6 14 7 15 8 16 9 7 10 6 11 5 12
REMARK SMILES IDX 4 13 3 14 2 15 1 16
REMARK H PARENT
REMARK Flexibility Score: inf
ROOT
ATOM      1  C   UNL     1      28.710  -9.969  30.949  1.00  0.00     0.000 C 
ENDROOT
BRANCH   1   2
ATOM      2  C   UNL     1      28.393 -10.420  29.513  1.00  0.00     0.000 C 
BRANCH   2   3
ATOM      3  C   UNL     1      26.953 -10.080  29.093  1.00  0.00     0.000 C 
BRANCH   3   4
ATOM      4  C   UNL     1      26.246  -9.138  30.084  1.00  0.00     0.000 C 
BRANCH   4   5
ATOM      5  C   UNL     1      24.886  -9.639  30.609  1.00  0.00     0.006 C 
BRANCH   5   6
ATOM      6  C   UNL     1      24.979 -10.650  31.762  1.00  0.00     0.053 C 
BRANCH   6   7
ATOM      7  C   UNL     1      24.972  -9.978  33.100  1.00  0.00     0.041 C 
ATOM      8  O   UNL     1      25.123 -10.656  34.150  1.00  0.00    -0.550 OA
ATOM      9  O   UNL     1      24.763  -8.608  33.190  1.00  0.00    -0.550 OA
ENDBRANCH   6   7
ENDBRANCH   5   6
ENDBRANCH   4   5
ENDBRANCH   3   4
ENDBRANCH   2   3
ENDBRANCH   1   2
BRANCH   1  10
ATOM     10  C   UNL     1      29.880 -10.754  31.569  1.00  0.00     0.000 C 
BRANCH  10  11
ATOM     11  C   UNL     1      31.198 -10.552  30.804  1.00  0.00    -0.000 C 
BRANCH  11  12
ATOM     12  C   UNL     1      32.108  -9.499  31.461  1.00  0.00    -0.000 C 
BRANCH  12  13
ATOM     13  C   UNL     1      31.663  -8.059  31.152  1.00  0.00    -0.000 C 
BRANCH  13  14
ATOM     14  C   UNL     1      31.385  -7.241  32.424  1.00  0.00    -0.000 C 
BRANCH  14  15
ATOM     15  C   UNL     1      31.537  -8.077  33.705  1.00  0.00    -0.003 C 
ATOM     16  C   UNL     1      32.631  -7.549  34.633  1.00  0.00     0.004 C 
ENDBRANCH  14  15
ENDBRANCH  13  14
ENDBRANCH  12  13
ENDBRANCH  11  12
ENDBRANCH  10  11
ENDBRANCH   1  10
TORSDOF 12
ENDMDL
MODEL 8
REMARK VINA RESULT:    -3.388      0.990      2.278
REMARK INTER + INTRA:          -6.985
REMARK INTER:                  -5.969
REMARK INTRA:                  -1.016
REMARK UNBOUND:                -1.220
REMARK SMILES CCCCCCCCCCCCCC(=O)[O-]
REMARK SMILES IDX 8 1 9 2 10 3 11 4 12 5 13 6 14 7 15 8 16 9 7 10 6 11 5 12
REMARK SMILES IDX 4 13 3 14 2 15 1 16
REMARK H PARENT
REMARK Flexibility Score: inf
ROOT
ATOM      1  C   UNL     1      27.507  -9.666  31.094  1.00  0.00     0.000 C 
ENDROOT
BRANCH   1   2
ATOM      2  C   UNL     1      28.681  -9.923  30.135  1.00  0.00     0.000 C 
BRANCH   2   3
ATOM      3  C   UNL     1      29.804 -10.748  30.786  1.00  0.00     0.000 C 
BRANCH   3   4
ATOM      4  C   UNL     1      30.628  -9.938  31.805  1.00  0.00     0.000 C 
BRANCH   4   5
ATOM      5  C   UNL     1      31.835  -9.178  31.217  1.00  0.00     0.006 C 
BRANCH   5   6
ATOM      6  C   UNL     1      31.737  -7.649  31.319  1.00  0.00     0.053 C 
BRANCH   6   7
ATOM      7  C   UNL     1      31.261  -7.205  32.668  1.00  0.00     0.041 C 
ATOM      8  O   UNL     1      31.965  -7.416  33.689  1.00  0.00    -0.550 OA
ATOM      9  O   UNL     1      30.021  -6.591  32.801  1.00  0.00    -0.550 OA
ENDBRANCH   6   7
ENDBRANCH   5   6
ENDBRANCH   4   5
ENDBRANCH   3   4
ENDBRANCH   2   3
ENDBRANCH   1   2
BRANCH   1  10
ATOM     10  C   UNL     1      26.702 -10.943  31.397  1.00  0.00     0.000 C 
BRANCH  10  11
ATOM     11  C   UNL     1      25.553 -10.697  32.387  1.00  0.00    -0.000 C 
BRANCH  11  12
ATOM     12  C   UNL     1      25.051  -9.243  32.364  1.00  0.00    -0.000 C 
BRANCH  12  13
ATOM     13  C   UNL     1      23.710  -9.093  31.626  1.00  0.00    -0.000 C 
BRANCH  13  14
ATOM     14  C   UNL     1      23.805  -9.485  30.141  1.00  0.00    -0.000 C 
BRANCH  14  15
ATOM     15  C   UNL     1      24.466  -8.391  29.286  1.00  0.00    -0.003 C 
ATOM     16  C   UNL     1      23.967  -6.987  29.628  1.00  0.00     0.004 C 
ENDBRANCH  14  15
ENDBRANCH  13  14
ENDBRANCH  12  13
ENDBRANCH  11  12
ENDBRANCH  10  11
ENDBRANCH   1  10
TORSDOF 12
ENDMDL
MODEL 9
REMARK VINA RESULT:    -3.376      2.358      6.444
REMARK INTER + INTRA:          -6.965
REMARK INTER:                  -5.808
REMARK INTRA:                  -1.158
REMARK UNBOUND:                -1.220
REMARK SMILES CCCCCCCCCCCCCC(=O)[O-]
REMARK SMILES IDX 8 1 9 2 10 3 11 4 12 5 13 6 14 7 15 8 16 9 7 10 6 11 5 12
REMARK SMILES IDX 4 13 3 14 2 15 1 16
REMARK H PARENT
REMARK Flexibility Score: inf
ROOT
ATOM      1  C   UNL     1      28.621 -10.033  30.857  1.00  0.00     0.000 C 
ENDROOT
BRANCH   1   2
ATOM      2  C   UNL     1      27.786 -10.724  29.766  1.00  0.00     0.000 C 
BRANCH   2   3
ATOM      3  C   UNL     1      27.481  -9.794  28.580  1.00  0.00     0.000 C 
BRANCH   3   4
ATOM      4  C   UNL     1      25.976  -9.520  28.404  1.00  0.00     0.000 C 
BRANCH   4   5
ATOM      5  C   UNL     1      25.299  -8.796  29.585  1.00  0.00     0.006 C 
BRANCH   5   6
ATOM      6  C   UNL     1      24.301  -9.656  30.375  1.00  0.00     0.053 C 
BRANCH   6   7
ATOM      7  C   UNL     1      24.414  -9.434  31.852  1.00  0.00     0.041 C 
ATOM      8  O   UNL     1      23.377  -9.377  32.564  1.00  0.00    -0.550 OA
ATOM      9  O   UNL     1      25.661  -9.254  32.435  1.00  0.00    -0.550 OA
ENDBRANCH   6   7
ENDBRANCH   5   6
ENDBRANCH   4   5
ENDBRANCH   3   4
ENDBRANCH   2   3
ENDBRANCH   1   2
BRANCH   1  10
ATOM     10  C   UNL     1      29.693 -10.962  31.454  1.00  0.00     0.000 C 
BRANCH  10  11
ATOM     11  C   UNL     1      30.903 -11.145  30.524  1.00  0.00    -0.000 C 
BRANCH  11  12
ATOM     12  C   UNL     1      32.221 -10.678  31.166  1.00  0.00    -0.000 C 
BRANCH  12  13
ATOM     13  C   UNL     1      32.058  -9.373  31.964  1.00  0.00    -0.000 C 
BRANCH  13  14
ATOM     14  C   UNL     1      32.129  -8.122  31.073  1.00  0.00    -0.000 C 
BRANCH  14  15
ATOM     15  C   UNL     1      31.380  -6.925  31.679  1.00  0.00    -0.003 C 
ATOM     16  C   UNL     1      30.372  -7.336  32.752  1.00  0.00     0.004 C 
ENDBRANCH  14  15
ENDBRANCH  13  14
ENDBRANCH  12  13
ENDBRANCH  11  12
ENDBRANCH  10  11
ENDBRANCH   1  10
TORSDOF 12
ENDMDL
