MODEL 1
REMARK VINA RESULT:    -3.853      0.000      0.000
REMARK INTER + INTRA:          -6.017
REMARK INTER:                  -5.655
REMARK INTRA:                  -0.362
REMARK UNBOUND:                -0.362
REMARK SMILES C=C1C=C[C@H](C(C)C)CCC(C)=CCC1
REMARK SMILES IDX 3 1 4 2 5 3 9 4 10 5 11 6 12 7 13 8 6 10 7 11 8 12 2 13 1 14
REMARK SMILES IDX 15 15 14 16
REMARK H PARENT
REMARK Flexibility Score: 70.00
ROOT
ATOM      1  C   UNL     1      30.544  24.173  10.764  1.00  0.00    -0.001 C 
ATOM      2  C   UNL     1      29.300  24.668  10.836  1.00  0.00    -0.023 C 
ENDROOT
BRANCH   2   3
ATOM      3  C   UNL     1      28.725  25.359  12.059  1.00  0.00     0.014 C 
BRANCH   3   4
ATOM      4  C   UNL     1      28.303  26.806  11.671  1.00  0.00     0.012 C 
BRANCH   4   5
ATOM      5  C   UNL     1      29.212  27.446  10.592  1.00  0.00     0.031 C 
BRANCH   5   6
ATOM      6  C   UNL     1      30.257  28.379  11.186  1.00  0.00    -0.077 C 
ATOM      7  C   UNL     1      29.856  29.783  11.558  1.00  0.00     0.039 C 
ATOM      8  C   UNL     1      31.534  27.998  11.427  1.00  0.00    -0.028 CG0
ATOM      9  G   UNL     1      32.119  26.653  11.071  1.00  0.00     0.000 G0
ENDBRANCH   5   6
ENDBRANCH   4   5
ENDBRANCH   3   4
BRANCH   3  10
ATOM     10  C   UNL     1      27.541  24.522  12.641  1.00  0.00    -0.010 C 
ATOM     11  C   UNL     1      26.838  23.707  11.538  1.00  0.00     0.008 C 
ATOM     12  C   UNL     1      27.997  23.560  13.751  1.00  0.00     0.008 C 
ENDBRANCH   3  10
ENDBRANCH   2   3
BRANCH   1  13
ATOM     13  C   UNL     1      31.547  24.296  11.840  1.00  0.00    -0.055 C 
ATOM     14  C   UNL     1      32.104  23.194  12.344  1.00  0.00     0.012 C 
BRANCH  13  15
ATOM     15  C   UNL     1      32.040  25.661  12.254  1.00  0.00     0.039 C 
BRANCH  15  16
ATOM     16  C   UNL     1      32.125  26.640  11.067  1.00  0.00     0.032 CG0
ATOM     17  G   UNL     1      31.534  27.982  11.424  1.00  0.00     0.000 G0
ENDBRANCH  15  16
ENDBRANCH  13  15
ENDBRANCH   1  13
TORSDOF 1
ENDMDL
MODEL 2
REMARK VINA RESULT:    -2.483      1.882      4.193
REMARK INTER + INTRA:          -4.005
REMARK INTER:                  -5.166
REMARK INTRA:                   1.161
REMARK UNBOUND:                -0.362
REMARK SMILES C=C1C=C[C@H](C(C)C)CCC(C)=CCC1
REMARK SMILES IDX 3 1 4 2 5 3 9 4 10 5 11 6 12 7 13 8 6 10 7 11 8 12 2 13 1 14
REMARK SMILES IDX 15 15 14 16
REMARK H PARENT
REMARK Flexibility Score: 70.00
ROOT
ATOM      1  C   UNL     1      31.317  23.857  10.565  1.00  0.00    -0.001 C 
ATOM      2  C   UNL     1      31.091  22.755  11.294  1.00  0.00    -0.023 C 
ENDROOT
BRANCH   2   3
ATOM      3  C   UNL     1      31.013  22.736  12.810  1.00  0.00     0.014 C 
BRANCH   3   4
ATOM      4  C   UNL     1      29.540  22.470  13.238  1.00  0.00     0.012 C 
BRANCH   4   5
ATOM      5  C   UNL     1      28.762  23.758  13.602  1.00  0.00     0.031 C 
BRANCH   5   6
ATOM      6  C   UNL     1      27.996  24.333  12.419  1.00  0.00    -0.077 C 
ATOM      7  C   UNL     1      26.819  23.569  11.870  1.00  0.00     0.039 C 
ATOM      8  C   UNL     1      28.305  25.522  11.848  1.00  0.00    -0.028 CG0
ATOM      9  G   UNL     1      29.477  26.390  12.235  1.00  0.00     0.000 G0
ENDBRANCH   5   6
ENDBRANCH   4   5
ENDBRANCH   3   4
BRANCH   3  10
ATOM     10  C   UNL     1      32.008  21.676  13.385  1.00  0.00    -0.010 C 
ATOM     11  C   UNL     1      31.665  21.325  14.845  1.00  0.00     0.008 C 
ATOM     12  C   UNL     1      32.023  20.380  12.557  1.00  0.00     0.008 C 
ENDBRANCH   3  10
ENDBRANCH   2   3
BRANCH   1  13
ATOM     13  C   UNL     1      31.450  25.213  11.133  1.00  0.00    -0.055 C 
ATOM     14  C   UNL     1      32.062  26.163  10.423  1.00  0.00     0.012 C 
BRANCH  13  15
ATOM     15  C   UNL     1      30.766  25.551  12.435  1.00  0.00     0.039 C 
BRANCH  15  16
ATOM     16  C   UNL     1      29.493  26.393  12.230  1.00  0.00     0.032 CG0
ATOM     17  G   UNL     1      28.319  25.523  11.853  1.00  0.00     0.000 G0
ENDBRANCH  15  16
ENDBRANCH  13  15
ENDBRANCH   1  13
TORSDOF 1
ENDMDL
MODEL 3
REMARK VINA RESULT:    -2.472      1.926      4.381
REMARK INTER + INTRA:          -3.990
REMARK INTER:                  -4.011
REMARK INTRA:                   0.020
REMARK UNBOUND:                -0.362
REMARK SMILES C=C1C=C[C@H](C(C)C)CCC(C)=CCC1
REMARK SMILES IDX 3 1 4 2 5 3 9 4 10 5 11 6 12 7 13 8 6 10 7 11 8 12 2 13 1 14
REMARK SMILES IDX 15 15 14 16
REMARK H PARENT
REMARK Flexibility Score: 70.00
ROOT
ATOM      1  C   UNL     1      31.953  25.769  12.327  1.00  0.00    -0.001 C 
ATOM      2  C   UNL     1      31.145  26.828  12.167  1.00  0.00    -0.023 C 
ENDROOT
BRANCH   2   3
ATOM      3  C   UNL     1      30.079  26.933  11.092  1.00  0.00     0.014 C 
BRANCH   3   4
ATOM      4  C   UNL     1      28.678  26.764  11.750  1.00  0.00     0.012 C 
BRANCH   4   5
ATOM      5  C   UNL     1      28.635  25.659  12.835  1.00  0.00     0.031 C 
BRANCH   5   6
ATOM      6  C   UNL     1      28.311  24.288  12.260  1.00  0.00    -0.077 C 
ATOM      7  C   UNL     1      27.023  24.101  11.500  1.00  0.00     0.039 C 
ATOM      8  C   UNL     1      29.141  23.224  12.375  1.00  0.00    -0.028 CG0
ATOM      9  G   UNL     1      30.440  23.219  13.143  1.00  0.00     0.000 G0
ENDBRANCH   5   6
ENDBRANCH   4   5
ENDBRANCH   3   4
BRANCH   3  10
ATOM     10  C   UNL     1      30.223  28.286  10.324  1.00  0.00    -0.010 C 
ATOM     11  C   UNL     1      30.084  29.488  11.278  1.00  0.00     0.008 C 
ATOM     12  C   UNL     1      31.568  28.397   9.585  1.00  0.00     0.008 C 
ENDBRANCH   3  10
ENDBRANCH   2   3
BRANCH   1  13
ATOM     13  C   UNL     1      31.865  24.534  11.524  1.00  0.00    -0.055 C 
ATOM     14  C   UNL     1      32.102  24.588  10.212  1.00  0.00     0.012 C 
BRANCH  13  15
ATOM     15  C   UNL     1      31.661  23.205  12.210  1.00  0.00     0.039 C 
BRANCH  15  16
ATOM     16  C   UNL     1      30.437  23.209  13.146  1.00  0.00     0.032 CG0
ATOM     17  G   UNL     1      29.149  23.230  12.359  1.00  0.00     0.000 G0
ENDBRANCH  15  16
ENDBRANCH  13  15
ENDBRANCH   1  13
TORSDOF 1
ENDMDL
MODEL 4
REMARK VINA RESULT:    -2.341      1.778      4.152
REMARK INTER + INTRA:          -3.797
REMARK INTER:                  -5.042
REMARK INTRA:                   1.245
REMARK UNBOUND:                -0.362
REMARK SMILES C=C1C=C[C@H](C(C)C)CCC(C)=CCC1
REMARK SMILES IDX 3 1 4 2 5 3 9 4 10 5 11 6 12 7 13 8 6 10 7 11 8 12 2 13 1 14
REMARK SMILES IDX 15 15 14 16
REMARK H PARENT
REMARK Flexibility Score: 70.00
ROOT
ATOM      1  C   UNL     1      28.345  23.521  13.713  1.00  0.00    -0.001 C 
ATOM      2  C   UNL     1      29.552  23.003  13.983  1.00  0.00    -0.023 C 
ENDROOT
BRANCH   2   3
ATOM      3  C   UNL     1      30.784  23.214  13.122  1.00  0.00     0.014 C 
BRANCH   3   4
ATOM      4  C   UNL     1      31.487  24.533  13.559  1.00  0.00     0.012 C 
BRANCH   4   5
ATOM      5  C   UNL     1      31.779  25.496  12.382  1.00  0.00     0.031 C 
BRANCH   5   6
ATOM      6  C   UNL     1      31.225  24.988  11.059  1.00  0.00    -0.077 C 
ATOM      7  C   UNL     1      32.048  24.022  10.245  1.00  0.00     0.039 C 
ATOM      8  C   UNL     1      30.007  25.341  10.584  1.00  0.00    -0.028 CG0
ATOM      9  G   UNL     1      29.077  26.333  11.239  1.00  0.00     0.000 G0
ENDBRANCH   5   6
ENDBRANCH   4   5
ENDBRANCH   3   4
BRANCH   3  10
ATOM     10  C   UNL     1      31.725  21.970  13.217  1.00  0.00    -0.010 C 
ATOM     11  C   UNL     1      31.472  21.178  14.513  1.00  0.00     0.008 C 
ATOM     12  C   UNL     1      31.559  21.021  12.018  1.00  0.00     0.008 C 
ENDBRANCH   3  10
ENDBRANCH   2   3
BRANCH   1  13
ATOM     13  C   UNL     1      28.068  24.425  12.579  1.00  0.00    -0.055 C 
ATOM     14  C   UNL     1      27.260  24.015  11.599  1.00  0.00     0.012 C 
BRANCH  13  15
ATOM     15  C   UNL     1      28.572  25.846  12.612  1.00  0.00     0.039 C 
BRANCH  15  16
ATOM     16  C   UNL     1      29.063  26.328  11.233  1.00  0.00     0.032 CG0
ATOM     17  G   UNL     1      30.002  25.325  10.608  1.00  0.00     0.000 G0
ENDBRANCH  15  16
ENDBRANCH  13  15
ENDBRANCH   1  13
TORSDOF 1
ENDMDL
MODEL 5
REMARK VINA RESULT:    -1.746      2.615      5.120
REMARK INTER + INTRA:          -2.924
REMARK INTER:                  -4.135
REMARK INTRA:                   1.211
REMARK UNBOUND:                -0.362
REMARK SMILES C=C1C=C[C@H](C(C)C)CCC(C)=CCC1
REMARK SMILES IDX 3 1 4 2 5 3 9 4 10 5 11 6 12 7 13 8 6 10 7 11 8 12 2 13 1 14
REMARK SMILES IDX 15 15 14 16
REMARK H PARENT
REMARK Flexibility Score: 70.00
ROOT
ATOM      1  C   UNL     1      29.867  23.782  10.556  1.00  0.00    -0.001 C 
ATOM      2  C   UNL     1      29.287  24.413  11.587  1.00  0.00    -0.023 C 
ENDROOT
BRANCH   2   3
ATOM      3  C   UNL     1      30.049  25.119  12.694  1.00  0.00     0.014 C 
BRANCH   3   4
ATOM      4  C   UNL     1      31.009  24.101  13.377  1.00  0.00     0.012 C 
BRANCH   4   5
ATOM      5  C   UNL     1      30.310  22.790  13.812  1.00  0.00     0.031 C 
BRANCH   5   6
ATOM      6  C   UNL     1      31.247  21.591  13.788  1.00  0.00    -0.077 C 
ATOM      7  C   UNL     1      31.765  21.043  15.093  1.00  0.00     0.039 C 
ATOM      8  C   UNL     1      31.620  20.969  12.645  1.00  0.00    -0.028 CG0
ATOM      9  G   UNL     1      31.239  21.413  11.254  1.00  0.00     0.000 G0
ENDBRANCH   5   6
ENDBRANCH   4   5
ENDBRANCH   3   4
BRANCH   3  10
ATOM     10  C   UNL     1      30.799  26.363  12.121  1.00  0.00    -0.010 C 
ATOM     11  C   UNL     1      29.808  27.441  11.641  1.00  0.00     0.008 C 
ATOM     12  C   UNL     1      31.753  26.994  13.149  1.00  0.00     0.008 C 
ENDBRANCH   3  10
ENDBRANCH   2   3
BRANCH   1  13
ATOM     13  C   UNL     1      31.324  23.750  10.320  1.00  0.00    -0.055 C 
ATOM     14  C   UNL     1      31.938  24.845   9.868  1.00  0.00     0.012 C 
BRANCH  13  15
ATOM     15  C   UNL     1      32.125  22.539  10.731  1.00  0.00     0.039 C 
BRANCH  15  16
ATOM     16  C   UNL     1      31.235  21.394  11.251  1.00  0.00     0.032 CG0
ATOM     17  G   UNL     1      31.637  20.980  12.645  1.00  0.00     0.000 G0
ENDBRANCH  15  16
ENDBRANCH  13  15
ENDBRANCH   1  13
TORSDOF 1
ENDMDL
MODEL 6
REMARK VINA RESULT:    -1.688      1.644      2.903
REMARK INTER + INTRA:          -2.839
REMARK INTER:                  -4.694
REMARK INTRA:                   1.855
REMARK UNBOUND:                -0.362
REMARK SMILES C=C1C=C[C@H](C(C)C)CCC(C)=CCC1
REMARK SMILES IDX 3 1 4 2 5 3 9 4 10 5 11 6 12 7 13 8 6 10 7 11 8 12 2 13 1 14
REMARK SMILES IDX 15 15 14 16
REMARK H PARENT
REMARK Flexibility Score: 70.00
ROOT
ATOM      1  C   UNL     1      32.081  26.193   9.975  1.00  0.00    -0.001 C 
ATOM      2  C   UNL     1      31.459  25.040  10.261  1.00  0.00    -0.023 C 
ENDROOT
BRANCH   2   3
ATOM      3  C   UNL     1      30.433  24.875  11.367  1.00  0.00     0.014 C 
BRANCH   3   4
ATOM      4  C   UNL     1      29.068  25.443  10.880  1.00  0.00     0.012 C 
BRANCH   4   5
ATOM      5  C   UNL     1      28.285  26.198  11.982  1.00  0.00     0.031 C 
BRANCH   5   6
ATOM      6  C   UNL     1      28.559  27.695  11.973  1.00  0.00    -0.077 C 
ATOM      7  C   UNL     1      27.511  28.626  11.420  1.00  0.00     0.039 C 
ATOM      8  C   UNL     1      29.696  28.240  12.468  1.00  0.00    -0.028 CG0
ATOM      9  G   UNL     1      30.867  27.457  13.010  1.00  0.00     0.000 G0
ENDBRANCH   5   6
ENDBRANCH   4   5
ENDBRANCH   3   4
BRANCH   3  10
ATOM     10  C   UNL     1      30.342  23.375  11.795  1.00  0.00    -0.010 C 
ATOM     11  C   UNL     1      31.611  22.601  11.390  1.00  0.00     0.008 C 
ATOM     12  C   UNL     1      30.129  23.212  13.310  1.00  0.00     0.008 C 
ENDBRANCH   3  10
ENDBRANCH   2   3
BRANCH   1  13
ATOM     13  C   UNL     1      31.799  27.475  10.651  1.00  0.00    -0.055 C 
ATOM     14  C   UNL     1      31.138  28.429   9.993  1.00  0.00     0.012 C 
BRANCH  13  15
ATOM     15  C   UNL     1      32.123  27.638  12.116  1.00  0.00     0.039 C 
BRANCH  15  16
ATOM     16  C   UNL     1      30.883  27.472  13.014  1.00  0.00     0.032 CG0
ATOM     17  G   UNL     1      29.709  28.252  12.474  1.00  0.00     0.000 G0
ENDBRANCH  15  16
ENDBRANCH  13  15
ENDBRANCH   1  13
TORSDOF 1
ENDMDL
MODEL 7
REMARK VINA RESULT:    -1.040      1.335      2.124
REMARK INTER + INTRA:          -1.889
REMARK INTER:                  -4.052
REMARK INTRA:                   2.163
REMARK UNBOUND:                -0.362
REMARK SMILES C=C1C=C[C@H](C(C)C)CCC(C)=CCC1
REMARK SMILES IDX 3 1 4 2 5 3 9 4 10 5 11 6 12 7 13 8 6 10 7 11 8 12 2 13 1 14
REMARK SMILES IDX 15 15 14 16
REMARK H PARENT
REMARK Flexibility Score: 70.00
ROOT
ATOM      1  C   UNL     1      30.311  21.883  13.262  1.00  0.00    -0.001 C 
ATOM      2  C   UNL     1      29.125  22.491  13.409  1.00  0.00    -0.023 C 
ENDROOT
BRANCH   2   3
ATOM      3  C   UNL     1      28.802  23.876  12.876  1.00  0.00     0.014 C 
BRANCH   3   4
ATOM      4  C   UNL     1      29.334  23.993  11.418  1.00  0.00     0.012 C 
BRANCH   4   5
ATOM      5  C   UNL     1      29.279  25.434  10.854  1.00  0.00     0.031 C 
BRANCH   5   6
ATOM      6  C   UNL     1      30.167  26.399  11.628  1.00  0.00    -0.077 C 
ATOM      7  C   UNL     1      29.633  27.766  11.971  1.00  0.00     0.039 C 
ATOM      8  C   UNL     1      31.412  26.078  12.051  1.00  0.00    -0.028 CG0
ATOM      9  G   UNL     1      32.121  24.779  11.753  1.00  0.00     0.000 G0
ENDBRANCH   5   6
ENDBRANCH   4   5
ENDBRANCH   3   4
BRANCH   3  10
ATOM     10  C   UNL     1      27.268  24.147  12.981  1.00  0.00    -0.010 C 
ATOM     11  C   UNL     1      26.545  23.781  11.670  1.00  0.00     0.008 C 
ATOM     12  C   UNL     1      26.615  23.370  14.137  1.00  0.00     0.008 C 
ENDBRANCH   3  10
ENDBRANCH   2   3
BRANCH   1  13
ATOM     13  C   UNL     1      31.441  22.449  12.499  1.00  0.00    -0.055 C 
ATOM     14  C   UNL     1      31.836  21.849  11.374  1.00  0.00     0.012 C 
BRANCH  13  15
ATOM     15  C   UNL     1      32.037  23.773  12.910  1.00  0.00     0.039 C 
BRANCH  15  16
ATOM     16  C   UNL     1      32.119  24.770  11.739  1.00  0.00     0.032 CG0
ATOM     17  G   UNL     1      31.441  26.073  12.083  1.00  0.00     0.000 G0
ENDBRANCH  15  16
ENDBRANCH  13  15
ENDBRANCH   1  13
TORSDOF 1
ENDMDL
