MODEL 1
REMARK VINA RESULT:    -3.540      0.000      0.000
REMARK INTER + INTRA:          -4.410
REMARK INTER:                  -4.368
REMARK INTRA:                  -0.042
REMARK UNBOUND:                -0.042
REMARK SMILES CCCCCC=O
REMARK SMILES IDX 4 1 3 2 2 3 1 4 5 5 6 6 7 7
REMARK H PARENT
REMARK Flexibility Score: inf
ROOT
ATOM      1  C   UNL     1      24.336  55.841  -8.340  1.00  0.00     0.008 C 
ENDROOT
BRANCH   1   2
ATOM      2  C   UNL     1      25.635  56.620  -8.613  1.00  0.00     0.000 C 
BRANCH   2   3
ATOM      3  C   UNL     1      25.457  58.138  -8.454  1.00  0.00    -0.003 C 
ATOM      4  C   UNL     1      26.537  58.939  -9.181  1.00  0.00     0.004 C 
ENDBRANCH   2   3
ENDBRANCH   1   2
BRANCH   1   5
ATOM      5  C   UNL     1      24.126  55.580  -6.842  1.00  0.00     0.072 C 
BRANCH   5   6
ATOM      6  C   UNL     1      22.855  54.828  -6.573  1.00  0.00     0.224 C 
ATOM      7  O   UNL     1      22.556  54.504  -5.434  1.00  0.00    -0.303 OA
ENDBRANCH   5   6
ENDBRANCH   1   5
TORSDOF 4
ENDMDL
MODEL 2
REMARK VINA RESULT:    -3.524      2.820      4.660
REMARK INTER + INTRA:          -4.390
REMARK INTER:                  -4.321
REMARK INTRA:                  -0.069
REMARK UNBOUND:                -0.042
REMARK SMILES CCCCCC=O
REMARK SMILES IDX 4 1 3 2 2 3 1 4 5 5 6 6 7 7
REMARK H PARENT
REMARK Flexibility Score: inf
ROOT
ATOM      1  C   UNL     1      25.544  56.564  -8.666  1.00  0.00     0.008 C 
ENDROOT
BRANCH   1   2
ATOM      2  C   UNL     1      24.408  55.590  -8.308  1.00  0.00     0.000 C 
BRANCH   2   3
ATOM      3  C   UNL     1      24.073  55.602  -6.807  1.00  0.00    -0.003 C 
ATOM      4  C   UNL     1      22.785  54.845  -6.484  1.00  0.00     0.004 C 
ENDBRANCH   2   3
ENDBRANCH   1   2
BRANCH   1   5
ATOM      5  C   UNL     1      25.188  58.017  -8.318  1.00  0.00     0.072 C 
BRANCH   5   6
ATOM      6  C   UNL     1      26.232  58.984  -8.796  1.00  0.00     0.224 C 
ATOM      7  O   UNL     1      27.008  58.669  -9.684  1.00  0.00    -0.303 OA
ENDBRANCH   5   6
ENDBRANCH   1   5
TORSDOF 4
ENDMDL
MODEL 3
REMARK VINA RESULT:    -3.377      1.600      2.387
REMARK INTER + INTRA:          -4.208
REMARK INTER:                  -4.114
REMARK INTRA:                  -0.095
REMARK UNBOUND:                -0.042
REMARK SMILES CCCCCC=O
REMARK SMILES IDX 4 1 3 2 2 3 1 4 5 5 6 6 7 7
REMARK H PARENT
REMARK Flexibility Score: inf
ROOT
ATOM      1  C   UNL     1      25.032  58.016  -8.253  1.00  0.00     0.008 C 
ENDROOT
BRANCH   1   2
ATOM      2  C   UNL     1      25.984  59.121  -8.742  1.00  0.00     0.000 C 
BRANCH   2   3
ATOM      3  C   UNL     1      26.981  58.617  -9.797  1.00  0.00    -0.003 C 
ATOM      4  C   UNL     1      28.084  59.631 -10.100  1.00  0.00     0.004 C 
ENDBRANCH   2   3
ENDBRANCH   1   2
BRANCH   1   5
ATOM      5  C   UNL     1      25.497  56.620  -8.694  1.00  0.00     0.072 C 
BRANCH   5   6
ATOM      6  C   UNL     1      25.253  55.583  -7.636  1.00  0.00     0.224 C 
ATOM      7  O   UNL     1      24.135  55.419  -7.175  1.00  0.00    -0.303 OA
ENDBRANCH   5   6
ENDBRANCH   1   5
TORSDOF 4
ENDMDL
MODEL 4
REMARK VINA RESULT:    -3.366      3.469      5.242
REMARK INTER + INTRA:          -4.195
REMARK INTER:                  -4.161
REMARK INTRA:                  -0.033
REMARK UNBOUND:                -0.042
REMARK SMILES CCCCCC=O
REMARK SMILES IDX 4 1 3 2 2 3 1 4 5 5 6 6 7 7
REMARK H PARENT
REMARK Flexibility Score: inf
ROOT
ATOM      1  C   UNL     1      25.459  58.043  -8.391  1.00  0.00     0.008 C 
ENDROOT
BRANCH   1   2
ATOM      2  C   UNL     1      25.528  56.562  -7.983  1.00  0.00     0.000 C 
BRANCH   2   3
ATOM      3  C   UNL     1      24.243  55.794  -8.333  1.00  0.00    -0.003 C 
ATOM      4  C   UNL     1      23.520  55.257  -7.097  1.00  0.00     0.004 C 
ENDBRANCH   2   3
ENDBRANCH   1   2
BRANCH   1   5
ATOM      5  C   UNL     1      26.565  58.418  -9.388  1.00  0.00     0.072 C 
BRANCH   5   6
ATOM      6  C   UNL     1      27.024  59.837  -9.217  1.00  0.00     0.224 C 
ATOM      7  O   UNL     1      28.002  60.249  -9.819  1.00  0.00    -0.303 OA
ENDBRANCH   5   6
ENDBRANCH   1   5
TORSDOF 4
ENDMDL
MODEL 5
REMARK VINA RESULT:    -3.120     13.326     14.527
REMARK INTER + INTRA:          -3.892
REMARK INTER:                  -3.851
REMARK INTRA:                  -0.041
REMARK UNBOUND:                -0.042
REMARK SMILES CCCCCC=O
REMARK SMILES IDX 4 1 3 2 2 3 1 4 5 5 6 6 7 7
REMARK H PARENT
REMARK Flexibility Score: inf
ROOT
ATOM      1  C   UNL     1      29.558  44.816  -0.197  1.00  0.00     0.008 C 
ENDROOT
BRANCH   1   2
ATOM      2  C   UNL     1      30.300  45.317   1.054  1.00  0.00     0.000 C 
BRANCH   2   3
ATOM      3  C   UNL     1      31.791  45.578   0.789  1.00  0.00    -0.003 C 
ATOM      4  C   UNL     1      32.692  45.036   1.899  1.00  0.00     0.004 C 
ENDBRANCH   2   3
ENDBRANCH   1   2
BRANCH   1   5
ATOM      5  C   UNL     1      28.121  45.352  -0.268  1.00  0.00     0.072 C 
BRANCH   5   6
ATOM      6  C   UNL     1      28.042  46.663  -0.996  1.00  0.00     0.224 C 
ATOM      7  O   UNL     1      27.237  46.822  -1.900  1.00  0.00    -0.303 OA
ENDBRANCH   5   6
ENDBRANCH   1   5
TORSDOF 4
ENDMDL
MODEL 6
REMARK VINA RESULT:    -3.108     15.180     16.208
REMARK INTER + INTRA:          -3.876
REMARK INTER:                  -3.739
REMARK INTRA:                  -0.137
REMARK UNBOUND:                -0.042
REMARK SMILES CCCCCC=O
REMARK SMILES IDX 4 1 3 2 2 3 1 4 5 5 6 6 7 7
REMARK H PARENT
REMARK Flexibility Score: inf
ROOT
ATOM      1  C   UNL     1      19.454  45.005   0.325  1.00  0.00     0.008 C 
ENDROOT
BRANCH   1   2
ATOM      2  C   UNL     1      18.032  45.408  -0.100  1.00  0.00     0.000 C 
BRANCH   2   3
ATOM      3  C   UNL     1      16.975  44.376   0.327  1.00  0.00    -0.003 C 
ATOM      4  C   UNL     1      15.625  45.014   0.655  1.00  0.00     0.004 C 
ENDBRANCH   2   3
ENDBRANCH   1   2
BRANCH   1   5
ATOM      5  C   UNL     1      19.460  44.214   1.641  1.00  0.00     0.072 C 
BRANCH   5   6
ATOM      6  C   UNL     1      20.437  43.074   1.610  1.00  0.00     0.224 C 
ATOM      7  O   UNL     1      20.649  42.468   0.573  1.00  0.00    -0.303 OA
ENDBRANCH   5   6
ENDBRANCH   1   5
TORSDOF 4
ENDMDL
MODEL 7
REMARK VINA RESULT:    -3.033     15.343     16.876
REMARK INTER + INTRA:          -3.785
REMARK INTER:                  -3.600
REMARK INTRA:                  -0.185
REMARK UNBOUND:                -0.042
REMARK SMILES CCCCCC=O
REMARK SMILES IDX 4 1 3 2 2 3 1 4 5 5 6 6 7 7
REMARK H PARENT
REMARK Flexibility Score: inf
ROOT
ATOM      1  C   UNL     1      18.565  43.473   2.590  1.00  0.00     0.008 C 
ENDROOT
BRANCH   1   2
ATOM      2  C   UNL     1      17.382  43.122   1.672  1.00  0.00     0.000 C 
BRANCH   2   3
ATOM      3  C   UNL     1      16.138  43.978   1.961  1.00  0.00    -0.003 C 
ATOM      4  C   UNL     1      15.725  44.841   0.769  1.00  0.00     0.004 C 
ENDBRANCH   2   3
ENDBRANCH   1   2
BRANCH   1   5
ATOM      5  C   UNL     1      19.821  43.850   1.791  1.00  0.00     0.072 C 
BRANCH   5   6
ATOM      6  C   UNL     1      19.485  44.397   0.434  1.00  0.00     0.224 C 
ATOM      7  O   UNL     1      19.412  45.602   0.253  1.00  0.00    -0.303 OA
ENDBRANCH   5   6
ENDBRANCH   1   5
TORSDOF 4
ENDMDL
MODEL 8
REMARK VINA RESULT:    -3.016     14.976     16.035
REMARK INTER + INTRA:          -3.763
REMARK INTER:                  -3.691
REMARK INTRA:                  -0.072
REMARK UNBOUND:                -0.042
REMARK SMILES CCCCCC=O
REMARK SMILES IDX 4 1 3 2 2 3 1 4 5 5 6 6 7 7
REMARK H PARENT
REMARK Flexibility Score: inf
ROOT
ATOM      1  C   UNL     1      17.985  44.495   0.279  1.00  0.00     0.008 C 
ENDROOT
BRANCH   1   2
ATOM      2  C   UNL     1      19.447  44.743   0.688  1.00  0.00     0.000 C 
BRANCH   2   3
ATOM      3  C   UNL     1      19.930  43.766   1.773  1.00  0.00    -0.003 C 
ATOM      4  C   UNL     1      18.822  42.834   2.263  1.00  0.00     0.004 C 
ENDBRANCH   2   3
ENDBRANCH   1   2
BRANCH   1   5
ATOM      5  C   UNL     1      17.357  45.727  -0.388  1.00  0.00     0.072 C 
BRANCH   5   6
ATOM      6  C   UNL     1      15.872  45.582  -0.557  1.00  0.00     0.224 C 
ATOM      7  O   UNL     1      15.364  45.667  -1.664  1.00  0.00    -0.303 OA
ENDBRANCH   5   6
ENDBRANCH   1   5
TORSDOF 4
ENDMDL
MODEL 9
REMARK VINA RESULT:    -3.009     15.387     17.201
REMARK INTER + INTRA:          -3.754
REMARK INTER:                  -3.519
REMARK INTRA:                  -0.235
REMARK UNBOUND:                -0.042
REMARK SMILES CCCCCC=O
REMARK SMILES IDX 4 1 3 2 2 3 1 4 5 5 6 6 7 7
REMARK H PARENT
REMARK Flexibility Score: inf
ROOT
ATOM      1  C   UNL     1      17.560  43.443   2.105  1.00  0.00     0.008 C 
ENDROOT
BRANCH   1   2
ATOM      2  C   UNL     1      19.012  43.714   2.533  1.00  0.00     0.000 C 
BRANCH   2   3
ATOM      3  C   UNL     1      19.938  43.989   1.337  1.00  0.00    -0.003 C 
ATOM      4  C   UNL     1      19.319  44.946   0.318  1.00  0.00     0.004 C 
ENDBRANCH   2   3
ENDBRANCH   1   2
BRANCH   1   5
ATOM      5  C   UNL     1      17.341  41.977   1.707  1.00  0.00     0.072 C 
BRANCH   5   6
ATOM      6  C   UNL     1      17.134  41.817   0.229  1.00  0.00     0.224 C 
ATOM      7  O   UNL     1      18.082  41.604  -0.510  1.00  0.00    -0.303 OA
ENDBRANCH   5   6
ENDBRANCH   1   5
TORSDOF 4
ENDMDL
