MODEL 1
REMARK VINA RESULT:    -4.626      0.000      0.000
REMARK INTER + INTRA:          -4.963
REMARK INTER:                  -4.897
REMARK INTRA:                  -0.067
REMARK UNBOUND:                -0.067
REMARK SMILES CC(=O)c1cccc(C)c1
REMARK SMILES IDX 9 1 8 2 10 3 4 4 5 5 6 6 7 7 2 8 3 9 1 10
REMARK H PARENT
REMARK Flexibility Score: inf
ROOT
ATOM      1  C   UNL     1      14.446 -48.673   4.569  1.00  0.00     0.044 C 
ATOM      2  C   UNL     1      15.755 -49.016   5.219  1.00  0.00    -0.050 A 
ATOM      3  C   UNL     1      15.776 -49.740   6.423  1.00  0.00     0.015 A 
ATOM      4  C   UNL     1      17.000 -50.100   7.025  1.00  0.00     0.017 A 
ATOM      5  C   UNL     1      18.200 -49.730   6.390  1.00  0.00     0.012 A 
ATOM      6  C   UNL     1      18.178 -49.025   5.184  1.00  0.00     0.001 A 
ATOM      7  C   UNL     1      16.962 -48.674   4.596  1.00  0.00     0.003 A 
ENDROOT
BRANCH   4   8
ATOM      8  C   UNL     1      17.039 -50.859   8.304  1.00  0.00     0.159 C 
ATOM      9  O   UNL     1      16.874 -52.109   8.295  1.00  0.00    -0.295 OA
ATOM     10  C   UNL     1      17.271 -50.182   9.622  1.00  0.00     0.093 C 
ENDBRANCH   4   8
TORSDOF 1
ENDMDL
MODEL 2
REMARK VINA RESULT:    -4.502      2.147      3.110
REMARK INTER + INTRA:          -4.831
REMARK INTER:                  -4.765
REMARK INTRA:                  -0.067
REMARK UNBOUND:                -0.067
REMARK SMILES CC(=O)c1cccc(C)c1
REMARK SMILES IDX 9 1 8 2 10 3 4 4 5 5 6 6 7 7 2 8 3 9 1 10
REMARK H PARENT
REMARK Flexibility Score: inf
ROOT
ATOM      1  C   UNL     1      17.905 -48.992   5.064  1.00  0.00     0.044 C 
ATOM      2  C   UNL     1      17.600 -49.317   6.497  1.00  0.00    -0.050 A 
ATOM      3  C   UNL     1      16.269 -49.354   6.945  1.00  0.00     0.015 A 
ATOM      4  C   UNL     1      15.968 -49.693   8.280  1.00  0.00     0.017 A 
ATOM      5  C   UNL     1      17.027 -50.008   9.152  1.00  0.00     0.012 A 
ATOM      6  C   UNL     1      18.349 -49.989   8.702  1.00  0.00     0.001 A 
ATOM      7  C   UNL     1      18.637 -49.651   7.379  1.00  0.00     0.003 A 
ENDROOT
BRANCH   4   8
ATOM      8  C   UNL     1      14.565 -49.728   8.772  1.00  0.00     0.159 C 
ATOM      9  O   UNL     1      14.000 -48.657   9.126  1.00  0.00    -0.295 OA
ATOM     10  C   UNL     1      13.786 -51.006   8.863  1.00  0.00     0.093 C 
ENDBRANCH   4   8
TORSDOF 1
ENDMDL
MODEL 3
REMARK VINA RESULT:    -4.497      2.176      3.685
REMARK INTER + INTRA:          -4.826
REMARK INTER:                  -4.758
REMARK INTRA:                  -0.068
REMARK UNBOUND:                -0.067
REMARK SMILES CC(=O)c1cccc(C)c1
REMARK SMILES IDX 9 1 8 2 10 3 4 4 5 5 6 6 7 7 2 8 3 9 1 10
REMARK H PARENT
REMARK Flexibility Score: inf
ROOT
ATOM      1  C   UNL     1      13.500 -51.102   8.185  1.00  0.00     0.044 C 
ATOM      2  C   UNL     1      14.901 -51.535   7.865  1.00  0.00    -0.050 A 
ATOM      3  C   UNL     1      15.889 -50.576   7.584  1.00  0.00     0.015 A 
ATOM      4  C   UNL     1      17.217 -50.969   7.317  1.00  0.00     0.017 A 
ATOM      5  C   UNL     1      17.537 -52.339   7.352  1.00  0.00     0.012 A 
ATOM      6  C   UNL     1      16.558 -53.290   7.649  1.00  0.00     0.001 A 
ATOM      7  C   UNL     1      15.247 -52.892   7.911  1.00  0.00     0.003 A 
ENDROOT
BRANCH   4   8
ATOM      8  C   UNL     1      18.273 -49.967   7.009  1.00  0.00     0.159 C 
ATOM      9  O   UNL     1      19.226 -49.793   7.817  1.00  0.00    -0.295 OA
ATOM     10  C   UNL     1      18.245 -49.144   5.755  1.00  0.00     0.093 C 
ENDBRANCH   4   8
TORSDOF 1
ENDMDL
MODEL 4
REMARK VINA RESULT:    -4.460      2.815      3.964
REMARK INTER + INTRA:          -4.788
REMARK INTER:                  -4.710
REMARK INTRA:                  -0.078
REMARK UNBOUND:                -0.067
REMARK SMILES CC(=O)c1cccc(C)c1
REMARK SMILES IDX 9 1 8 2 10 3 4 4 5 5 6 6 7 7 2 8 3 9 1 10
REMARK H PARENT
REMARK Flexibility Score: inf
ROOT
ATOM      1  C   UNL     1      18.895 -49.765   7.637  1.00  0.00     0.044 C 
ATOM      2  C   UNL     1      17.849 -50.839   7.713  1.00  0.00    -0.050 A 
ATOM      3  C   UNL     1      16.561 -50.539   8.184  1.00  0.00     0.015 A 
ATOM      4  C   UNL     1      15.560 -51.532   8.226  1.00  0.00     0.017 A 
ATOM      5  C   UNL     1      15.873 -52.827   7.772  1.00  0.00     0.012 A 
ATOM      6  C   UNL     1      17.150 -53.121   7.287  1.00  0.00     0.001 A 
ATOM      7  C   UNL     1      18.133 -52.132   7.250  1.00  0.00     0.003 A 
ENDROOT
BRANCH   4   8
ATOM      8  C   UNL     1      14.193 -51.232   8.731  1.00  0.00     0.159 C 
ATOM      9  O   UNL     1      13.797 -50.036   8.791  1.00  0.00    -0.295 OA
ATOM     10  C   UNL     1      13.256 -52.315   9.178  1.00  0.00     0.093 C 
ENDBRANCH   4   8
TORSDOF 1
ENDMDL
MODEL 5
REMARK VINA RESULT:    -4.404      2.481      3.701
REMARK INTER + INTRA:          -4.728
REMARK INTER:                  -4.657
REMARK INTRA:                  -0.071
REMARK UNBOUND:                -0.067
REMARK SMILES CC(=O)c1cccc(C)c1
REMARK SMILES IDX 9 1 8 2 10 3 4 4 5 5 6 6 7 7 2 8 3 9 1 10
REMARK H PARENT
REMARK Flexibility Score: inf
ROOT
ATOM      1  C   UNL     1      15.723 -54.056   7.859  1.00  0.00     0.044 C 
ATOM      2  C   UNL     1      16.388 -52.741   7.575  1.00  0.00    -0.050 A 
ATOM      3  C   UNL     1      15.667 -51.542   7.707  1.00  0.00     0.015 A 
ATOM      4  C   UNL     1      16.291 -50.298   7.477  1.00  0.00     0.017 A 
ATOM      5  C   UNL     1      17.654 -50.280   7.125  1.00  0.00     0.012 A 
ATOM      6  C   UNL     1      18.374 -51.471   7.011  1.00  0.00     0.001 A 
ATOM      7  C   UNL     1      17.748 -52.697   7.240  1.00  0.00     0.003 A 
ENDROOT
BRANCH   4   8
ATOM      8  C   UNL     1      15.539 -49.021   7.604  1.00  0.00     0.159 C 
ATOM      9  O   UNL     1      15.681 -48.122   6.731  1.00  0.00    -0.295 OA
ATOM     10  C   UNL     1      14.606 -48.759   8.749  1.00  0.00     0.093 C 
ENDBRANCH   4   8
TORSDOF 1
ENDMDL
MODEL 6
REMARK VINA RESULT:    -4.388      1.674      2.236
REMARK INTER + INTRA:          -4.712
REMARK INTER:                  -4.637
REMARK INTRA:                  -0.074
REMARK UNBOUND:                -0.067
REMARK SMILES CC(=O)c1cccc(C)c1
REMARK SMILES IDX 9 1 8 2 10 3 4 4 5 5 6 6 7 7 2 8 3 9 1 10
REMARK H PARENT
REMARK Flexibility Score: inf
ROOT
ATOM      1  C   UNL     1      15.981 -48.034   5.354  1.00  0.00     0.044 C 
ATOM      2  C   UNL     1      16.592 -49.169   6.122  1.00  0.00    -0.050 A 
ATOM      3  C   UNL     1      15.781 -50.205   6.615  1.00  0.00     0.015 A 
ATOM      4  C   UNL     1      16.347 -51.296   7.307  1.00  0.00     0.017 A 
ATOM      5  C   UNL     1      17.743 -51.333   7.483  1.00  0.00     0.012 A 
ATOM      6  C   UNL     1      18.551 -50.311   6.978  1.00  0.00     0.001 A 
ATOM      7  C   UNL     1      17.981 -49.236   6.295  1.00  0.00     0.003 A 
ENDROOT
BRANCH   4   8
ATOM      8  C   UNL     1      15.501 -52.396   7.842  1.00  0.00     0.159 C 
ATOM      9  O   UNL     1      14.387 -52.128   8.369  1.00  0.00    -0.295 OA
ATOM     10  C   UNL     1      15.931 -53.832   7.778  1.00  0.00     0.093 C 
ENDBRANCH   4   8
TORSDOF 1
ENDMDL
MODEL 7
REMARK VINA RESULT:    -4.330      8.678      9.755
REMARK INTER + INTRA:          -4.650
REMARK INTER:                  -4.580
REMARK INTRA:                  -0.070
REMARK UNBOUND:                -0.067
REMARK SMILES CC(=O)c1cccc(C)c1
REMARK SMILES IDX 9 1 8 2 10 3 4 4 5 5 6 6 7 7 2 8 3 9 1 10
REMARK H PARENT
REMARK Flexibility Score: inf
ROOT
ATOM      1  C   UNL     1      14.729 -54.310  -5.073  1.00  0.00     0.044 C 
ATOM      2  C   UNL     1      15.649 -53.841  -3.984  1.00  0.00    -0.050 A 
ATOM      3  C   UNL     1      15.140 -53.115  -2.894  1.00  0.00     0.015 A 
ATOM      4  C   UNL     1      15.989 -52.700  -1.847  1.00  0.00     0.017 A 
ATOM      5  C   UNL     1      17.353 -53.039  -1.908  1.00  0.00     0.012 A 
ATOM      6  C   UNL     1      17.855 -53.777  -2.983  1.00  0.00     0.001 A 
ATOM      7  C   UNL     1      17.008 -54.182  -4.014  1.00  0.00     0.003 A 
ENDROOT
BRANCH   4   8
ATOM      8  C   UNL     1      15.467 -51.922  -0.691  1.00  0.00     0.159 C 
ATOM      9  O   UNL     1      14.538 -52.400   0.017  1.00  0.00    -0.295 OA
ATOM     10  C   UNL     1      16.012 -50.572  -0.331  1.00  0.00     0.093 C 
ENDBRANCH   4   8
TORSDOF 1
ENDMDL
MODEL 8
REMARK VINA RESULT:    -4.287     11.140     12.255
REMARK INTER + INTRA:          -4.604
REMARK INTER:                  -4.532
REMARK INTRA:                  -0.072
REMARK UNBOUND:                -0.067
REMARK SMILES CC(=O)c1cccc(C)c1
REMARK SMILES IDX 9 1 8 2 10 3 4 4 5 5 6 6 7 7 2 8 3 9 1 10
REMARK H PARENT
REMARK Flexibility Score: inf
ROOT
ATOM      1  C   UNL     1      18.105 -55.671  -6.979  1.00  0.00     0.044 C 
ATOM      2  C   UNL     1      17.222 -55.611  -5.767  1.00  0.00    -0.050 A 
ATOM      3  C   UNL     1      17.372 -54.572  -4.834  1.00  0.00     0.015 A 
ATOM      4  C   UNL     1      16.524 -54.484  -3.710  1.00  0.00     0.017 A 
ATOM      5  C   UNL     1      15.515 -55.452  -3.549  1.00  0.00     0.012 A 
ATOM      6  C   UNL     1      15.353 -56.475  -4.486  1.00  0.00     0.001 A 
ATOM      7  C   UNL     1      16.198 -56.553  -5.594  1.00  0.00     0.003 A 
ENDROOT
BRANCH   4   8
ATOM      8  C   UNL     1      16.677 -53.395  -2.709  1.00  0.00     0.159 C 
ATOM      9  O   UNL     1      17.813 -53.152  -2.218  1.00  0.00    -0.295 OA
ATOM     10  C   UNL     1      15.514 -52.565  -2.254  1.00  0.00     0.093 C 
ENDBRANCH   4   8
TORSDOF 1
ENDMDL
MODEL 9
REMARK VINA RESULT:    -4.249      9.828     11.113
REMARK INTER + INTRA:          -4.564
REMARK INTER:                  -4.486
REMARK INTRA:                  -0.078
REMARK UNBOUND:                -0.067
REMARK SMILES CC(=O)c1cccc(C)c1
REMARK SMILES IDX 9 1 8 2 10 3 4 4 5 5 6 6 7 7 2 8 3 9 1 10
REMARK H PARENT
REMARK Flexibility Score: inf
ROOT
ATOM      1  C   UNL     1      14.004 -51.634  -1.632  1.00  0.00     0.044 C 
ATOM      2  C   UNL     1      15.185 -52.426  -2.113  1.00  0.00    -0.050 A 
ATOM      3  C   UNL     1      15.113 -53.136  -3.324  1.00  0.00     0.015 A 
ATOM      4  C   UNL     1      16.228 -53.855  -3.804  1.00  0.00     0.017 A 
ATOM      5  C   UNL     1      17.418 -53.837  -3.053  1.00  0.00     0.012 A 
ATOM      6  C   UNL     1      17.494 -53.117  -1.859  1.00  0.00     0.001 A 
ATOM      7  C   UNL     1      16.386 -52.409  -1.392  1.00  0.00     0.003 A 
ENDROOT
BRANCH   4   8
ATOM      8  C   UNL     1      16.165 -54.618  -5.079  1.00  0.00     0.159 C 
ATOM      9  O   UNL     1      15.048 -54.991  -5.531  1.00  0.00    -0.295 OA
ATOM     10  C   UNL     1      17.398 -54.965  -5.859  1.00  0.00     0.093 C 
ENDBRANCH   4   8
TORSDOF 1
ENDMDL
