MODEL 1
REMARK VINA RESULT:    -1.464      0.000      0.000
REMARK INTER + INTRA:          -2.650
REMARK INTER:                  -2.149
REMARK INTRA:                  -0.501
REMARK UNBOUND:                -0.501
REMARK SMILES C=C1C=C[C@H](C(C)C)CCC(C)=CCC1
REMARK SMILES IDX 3 1 4 2 5 3 9 4 10 5 11 6 12 7 13 8 6 10 7 11 8 12 2 13 1 14
REMARK SMILES IDX 15 15 14 16
REMARK H PARENT
REMARK Flexibility Score: 70.00
ROOT
ATOM      1  C   UNL     1     168.622 173.216 140.652  1.00  0.00    -0.001 C 
ATOM      2  C   UNL     1     167.310 173.163 140.927  1.00  0.00    -0.023 C 
ENDROOT
BRANCH   2   3
ATOM      3  C   UNL     1     166.229 173.794 140.072  1.00  0.00     0.014 C 
BRANCH   3   4
ATOM      4  C   UNL     1     165.459 172.674 139.305  1.00  0.00     0.012 C 
BRANCH   4   5
ATOM      5  C   UNL     1     165.820 172.594 137.805  1.00  0.00     0.031 C 
BRANCH   5   6
ATOM      6  C   UNL     1     166.725 171.413 137.491  1.00  0.00    -0.077 C 
ATOM      7  C   UNL     1     166.139 170.024 137.546  1.00  0.00     0.039 C 
ATOM      8  C   UNL     1     168.037 171.531 137.176  1.00  0.00    -0.028 CG0
ATOM      9  G   UNL     1     168.813 172.825 137.126  1.00  0.00     0.000 G0
ENDBRANCH   5   6
ENDBRANCH   4   5
ENDBRANCH   3   4
BRANCH   3  10
ATOM     10  C   UNL     1     165.280 174.687 140.935  1.00  0.00    -0.010 C 
ATOM     11  C   UNL     1     166.044 175.855 141.587  1.00  0.00     0.008 C 
ATOM     12  C   UNL     1     164.120 175.268 140.107  1.00  0.00     0.008 C 
ENDBRANCH   3  10
ENDBRANCH   2   3
BRANCH   1  13
ATOM     13  C   UNL     1     169.221 173.883 139.474  1.00  0.00    -0.055 C 
ATOM     14  C   UNL     1     169.037 175.200 139.340  1.00  0.00     0.012 C 
BRANCH  13  15
ATOM     15  C   UNL     1     169.787 173.083 138.314  1.00  0.00     0.039 C 
BRANCH  15  16
ATOM     16  C   UNL     1     168.830 172.835 137.121  1.00  0.00     0.032 CG0
ATOM     17  G   UNL     1     168.059 171.539 137.190  1.00  0.00     0.000 G0
ENDBRANCH  15  16
ENDBRANCH  13  15
ENDBRANCH   1  13
TORSDOF 1
ENDMDL
MODEL 2
REMARK VINA RESULT:    -1.430      1.960      3.322
REMARK INTER + INTRA:          -2.600
REMARK INTER:                  -1.989
REMARK INTRA:                  -0.611
REMARK UNBOUND:                -0.501
REMARK SMILES C=C1C=C[C@H](C(C)C)CCC(C)=CCC1
REMARK SMILES IDX 3 1 4 2 5 3 9 4 10 5 11 6 12 7 13 8 6 10 7 11 8 12 2 13 1 14
REMARK SMILES IDX 15 15 14 16
REMARK H PARENT
REMARK Flexibility Score: 70.00
ROOT
ATOM      1  C   UNL     1     166.258 175.562 141.218  1.00  0.00    -0.001 C 
ATOM      2  C   UNL     1     166.378 174.361 141.801  1.00  0.00    -0.023 C 
ENDROOT
BRANCH   2   3
ATOM      3  C   UNL     1     166.281 173.038 141.068  1.00  0.00     0.014 C 
BRANCH   3   4
ATOM      4  C   UNL     1     167.684 172.356 141.047  1.00  0.00     0.012 C 
BRANCH   4   5
ATOM      5  C   UNL     1     168.199 172.052 139.622  1.00  0.00     0.031 C 
BRANCH   5   6
ATOM      6  C   UNL     1     169.264 173.039 139.171  1.00  0.00    -0.077 C 
ATOM      7  C   UNL     1     170.701 172.764 139.538  1.00  0.00     0.039 C 
ATOM      8  C   UNL     1     168.998 174.165 138.466  1.00  0.00    -0.028 CG0
ATOM      9  G   UNL     1     167.625 174.638 138.056  1.00  0.00     0.000 G0
ENDBRANCH   5   6
ENDBRANCH   4   5
ENDBRANCH   3   4
BRANCH   3  10
ATOM     10  C   UNL     1     165.183 172.124 141.703  1.00  0.00    -0.010 C 
ATOM     11  C   UNL     1     165.006 172.416 143.206  1.00  0.00     0.008 C 
ATOM     12  C   UNL     1     163.817 172.294 141.012  1.00  0.00     0.008 C 
ENDBRANCH   3  10
ENDBRANCH   2   3
BRANCH   1  13
ATOM     13  C   UNL     1     166.023 175.790 139.774  1.00  0.00    -0.055 C 
ATOM     14  C   UNL     1     164.783 175.615 139.306  1.00  0.00     0.012 C 
BRANCH  13  15
ATOM     15  C   UNL     1     167.177 175.945 138.799  1.00  0.00     0.039 C 
BRANCH  15  16
ATOM     16  C   UNL     1     167.636 174.658 138.070  1.00  0.00     0.032 CG0
ATOM     17  G   UNL     1     169.009 174.168 138.459  1.00  0.00     0.000 G0
ENDBRANCH  15  16
ENDBRANCH  13  15
ENDBRANCH   1  13
TORSDOF 1
ENDMDL
MODEL 3
REMARK VINA RESULT:    -1.381     13.516     15.398
REMARK INTER + INTRA:          -2.527
REMARK INTER:                  -2.031
REMARK INTRA:                  -0.496
REMARK UNBOUND:                -0.501
REMARK SMILES C=C1C=C[C@H](C(C)C)CCC(C)=CCC1
REMARK SMILES IDX 3 1 4 2 5 3 9 4 10 5 11 6 12 7 13 8 6 10 7 11 8 12 2 13 1 14
REMARK SMILES IDX 15 15 14 16
REMARK H PARENT
REMARK Flexibility Score: 70.00
ROOT
ATOM      1  C   UNL     1     165.237 156.930 141.176  1.00  0.00    -0.001 C 
ATOM      2  C   UNL     1     165.811 158.124 141.384  1.00  0.00    -0.023 C 
ENDROOT
BRANCH   2   3
ATOM      3  C   UNL     1     166.357 159.014 140.286  1.00  0.00     0.014 C 
BRANCH   3   4
ATOM      4  C   UNL     1     165.320 160.136 139.967  1.00  0.00     0.012 C 
BRANCH   4   5
ATOM      5  C   UNL     1     164.801 160.099 138.512  1.00  0.00     0.031 C 
BRANCH   5   6
ATOM      6  C   UNL     1     163.314 159.793 138.438  1.00  0.00    -0.077 C 
ATOM      7  C   UNL     1     162.336 160.912 138.695  1.00  0.00     0.039 C 
ATOM      8  C   UNL     1     162.809 158.565 138.167  1.00  0.00    -0.028 CG0
ATOM      9  G   UNL     1     163.623 157.315 137.940  1.00  0.00     0.000 G0
ENDBRANCH   5   6
ENDBRANCH   4   5
ENDBRANCH   3   4
BRANCH   3  10
ATOM     10  C   UNL     1     167.758 159.590 140.676  1.00  0.00    -0.010 C 
ATOM     11  C   UNL     1     167.779 160.079 142.137  1.00  0.00     0.008 C 
ATOM     12  C   UNL     1     168.881 158.553 140.494  1.00  0.00     0.008 C 
ENDBRANCH   3  10
ENDBRANCH   2   3
BRANCH   1  13
ATOM     13  C   UNL     1     165.036 156.298 139.853  1.00  0.00    -0.055 C 
ATOM     14  C   UNL     1     166.117 155.882 139.186  1.00  0.00     0.012 C 
BRANCH  13  15
ATOM     15  C   UNL     1     163.695 156.359 139.142  1.00  0.00     0.039 C 
BRANCH  15  16
ATOM     16  C   UNL     1     163.606 157.319 137.929  1.00  0.00     0.032 CG0
ATOM     17  G   UNL     1     162.793 158.567 138.171  1.00  0.00     0.000 G0
ENDBRANCH  15  16
ENDBRANCH  13  15
ENDBRANCH   1  13
TORSDOF 1
ENDMDL
MODEL 4
REMARK VINA RESULT:    -1.375     12.066     14.591
REMARK INTER + INTRA:          -2.519
REMARK INTER:                  -1.963
REMARK INTRA:                  -0.556
REMARK UNBOUND:                -0.501
REMARK SMILES C=C1C=C[C@H](C(C)C)CCC(C)=CCC1
REMARK SMILES IDX 3 1 4 2 5 3 9 4 10 5 11 6 12 7 13 8 6 10 7 11 8 12 2 13 1 14
REMARK SMILES IDX 15 15 14 16
REMARK H PARENT
REMARK Flexibility Score: 70.00
ROOT
ATOM      1  C   UNL     1     164.015 159.699 137.241  1.00  0.00    -0.001 C 
ATOM      2  C   UNL     1     163.507 158.588 137.795  1.00  0.00    -0.023 C 
ENDROOT
BRANCH   2   3
ATOM      3  C   UNL     1     163.107 158.462 139.251  1.00  0.00     0.014 C 
BRANCH   3   4
ATOM      4  C   UNL     1     161.561 158.634 139.377  1.00  0.00     0.012 C 
BRANCH   4   5
ATOM      5  C   UNL     1     161.144 159.741 140.371  1.00  0.00     0.031 C 
BRANCH   5   6
ATOM      6  C   UNL     1     160.397 160.876 139.688  1.00  0.00    -0.077 C 
ATOM      7  C   UNL     1     158.911 160.734 139.477  1.00  0.00     0.039 C 
ATOM      8  C   UNL     1     160.991 162.009 139.244  1.00  0.00    -0.028 CG0
ATOM      9  G   UNL     1     162.469 162.309 139.313  1.00  0.00     0.000 G0
ENDBRANCH   5   6
ENDBRANCH   4   5
ENDBRANCH   3   4
BRANCH   3  10
ATOM     10  C   UNL     1     163.609 157.111 139.857  1.00  0.00    -0.010 C 
ATOM     11  C   UNL     1     163.766 156.030 138.770  1.00  0.00     0.008 C 
ATOM     12  C   UNL     1     164.957 157.268 140.584  1.00  0.00     0.008 C 
ENDBRANCH   3  10
ENDBRANCH   2   3
BRANCH   1  13
ATOM     13  C   UNL     1     164.256 160.975 137.953  1.00  0.00    -0.055 C 
ATOM     14  C   UNL     1     165.294 161.037 138.792  1.00  0.00     0.012 C 
BRANCH  13  15
ATOM     15  C   UNL     1     163.221 162.086 137.956  1.00  0.00     0.039 C 
BRANCH  15  16
ATOM     16  C   UNL     1     162.474 162.323 139.292  1.00  0.00     0.032 CG0
ATOM     17  G   UNL     1     160.995 162.024 139.249  1.00  0.00     0.000 G0
ENDBRANCH  15  16
ENDBRANCH  13  15
ENDBRANCH   1  13
TORSDOF 1
ENDMDL
MODEL 5
REMARK VINA RESULT:    -1.312     12.475     14.912
REMARK INTER + INTRA:          -2.427
REMARK INTER:                  -1.893
REMARK INTRA:                  -0.534
REMARK UNBOUND:                -0.501
REMARK SMILES C=C1C=C[C@H](C(C)C)CCC(C)=CCC1
REMARK SMILES IDX 3 1 4 2 5 3 9 4 10 5 11 6 12 7 13 8 6 10 7 11 8 12 2 13 1 14
REMARK SMILES IDX 15 15 14 16
REMARK H PARENT
REMARK Flexibility Score: 70.00
ROOT
ATOM      1  C   UNL     1     165.012 157.719 141.921  1.00  0.00    -0.001 C 
ATOM      2  C   UNL     1     164.221 158.801 141.962  1.00  0.00    -0.023 C 
ENDROOT
BRANCH   2   3
ATOM      3  C   UNL     1     164.464 160.071 141.174  1.00  0.00     0.014 C 
BRANCH   3   4
ATOM      4  C   UNL     1     163.379 160.203 140.060  1.00  0.00     0.012 C 
BRANCH   4   5
ATOM      5  C   UNL     1     162.752 158.852 139.649  1.00  0.00     0.031 C 
BRANCH   5   6
ATOM      6  C   UNL     1     163.221 158.392 138.277  1.00  0.00    -0.077 C 
ATOM      7  C   UNL     1     162.625 159.048 137.057  1.00  0.00     0.039 C 
ATOM      8  C   UNL     1     164.138 157.415 138.082  1.00  0.00    -0.028 CG0
ATOM      9  G   UNL     1     164.802 156.607 139.171  1.00  0.00     0.000 G0
ENDBRANCH   5   6
ENDBRANCH   4   5
ENDBRANCH   3   4
BRANCH   3  10
ATOM     10  C   UNL     1     164.506 161.318 142.116  1.00  0.00    -0.010 C 
ATOM     11  C   UNL     1     164.147 160.941 143.566  1.00  0.00     0.008 C 
ATOM     12  C   UNL     1     165.888 161.996 142.119  1.00  0.00     0.008 C 
ENDBRANCH   3  10
ENDBRANCH   2   3
BRANCH   1  13
ATOM     13  C   UNL     1     166.235 157.587 141.097  1.00  0.00    -0.055 C 
ATOM     14  C   UNL     1     167.372 158.102 141.576  1.00  0.00     0.012 C 
BRANCH  13  15
ATOM     15  C   UNL     1     166.168 157.138 139.648  1.00  0.00     0.039 C 
BRANCH  15  16
ATOM     16  C   UNL     1     164.803 156.592 139.162  1.00  0.00     0.032 CG0
ATOM     17  G   UNL     1     164.131 157.428 138.100  1.00  0.00     0.000 G0
ENDBRANCH  15  16
ENDBRANCH  13  15
ENDBRANCH   1  13
TORSDOF 1
ENDMDL
MODEL 6
REMARK VINA RESULT:    -1.259     12.511     15.381
REMARK INTER + INTRA:          -2.349
REMARK INTER:                  -1.827
REMARK INTRA:                  -0.522
REMARK UNBOUND:                -0.501
REMARK SMILES C=C1C=C[C@H](C(C)C)CCC(C)=CCC1
REMARK SMILES IDX 3 1 4 2 5 3 9 4 10 5 11 6 12 7 13 8 6 10 7 11 8 12 2 13 1 14
REMARK SMILES IDX 15 15 14 16
REMARK H PARENT
REMARK Flexibility Score: 70.00
ROOT
ATOM      1  C   UNL     1     167.424 157.956 140.978  1.00  0.00    -0.001 C 
ATOM      2  C   UNL     1     167.197 159.166 140.446  1.00  0.00    -0.023 C 
ENDROOT
BRANCH   2   3
ATOM      3  C   UNL     1     166.871 159.413 138.987  1.00  0.00     0.014 C 
BRANCH   3   4
ATOM      4  C   UNL     1     165.449 160.045 138.877  1.00  0.00     0.012 C 
BRANCH   4   5
ATOM      5  C   UNL     1     164.476 159.225 138.001  1.00  0.00     0.031 C 
BRANCH   5   6
ATOM      6  C   UNL     1     163.593 158.303 138.828  1.00  0.00    -0.077 C 
ATOM      7  C   UNL     1     162.269 158.830 139.324  1.00  0.00     0.039 C 
ATOM      8  C   UNL     1     163.930 157.034 139.159  1.00  0.00    -0.028 CG0
ATOM      9  G   UNL     1     165.229 156.352 138.806  1.00  0.00     0.000 G0
ENDBRANCH   5   6
ENDBRANCH   4   5
ENDBRANCH   3   4
BRANCH   3  10
ATOM     10  C   UNL     1     167.969 160.293 138.307  1.00  0.00    -0.010 C 
ATOM     11  C   UNL     1     168.122 161.652 139.016  1.00  0.00     0.008 C 
ATOM     12  C   UNL     1     169.342 159.596 138.292  1.00  0.00     0.008 C 
ENDBRANCH   3  10
ENDBRANCH   2   3
BRANCH   1  13
ATOM     13  C   UNL     1     167.382 156.676 140.237  1.00  0.00    -0.055 C 
ATOM     14  C   UNL     1     168.464 156.322 139.536  1.00  0.00     0.012 C 
BRANCH  13  15
ATOM     15  C   UNL     1     166.082 155.917 140.041  1.00  0.00     0.039 C 
BRANCH  15  16
ATOM     16  C   UNL     1     165.227 156.327 138.816  1.00  0.00     0.032 CG0
ATOM     17  G   UNL     1     163.939 157.038 139.155  1.00  0.00     0.000 G0
ENDBRANCH  15  16
ENDBRANCH  13  15
ENDBRANCH   1  13
TORSDOF 1
ENDMDL
MODEL 7
REMARK VINA RESULT:    -1.219      2.295      4.964
REMARK INTER + INTRA:          -2.290
REMARK INTER:                  -1.715
REMARK INTRA:                  -0.574
REMARK UNBOUND:                -0.501
REMARK SMILES C=C1C=C[C@H](C(C)C)CCC(C)=CCC1
REMARK SMILES IDX 3 1 4 2 5 3 9 4 10 5 11 6 12 7 13 8 6 10 7 11 8 12 2 13 1 14
REMARK SMILES IDX 15 15 14 16
REMARK H PARENT
REMARK Flexibility Score: 70.00
ROOT
ATOM      1  C   UNL     1     169.722 172.000 141.378  1.00  0.00    -0.001 C 
ATOM      2  C   UNL     1     170.307 172.114 140.177  1.00  0.00    -0.023 C 
ENDROOT
BRANCH   2   3
ATOM      3  C   UNL     1     169.650 171.737 138.865  1.00  0.00     0.014 C 
BRANCH   3   4
ATOM      4  C   UNL     1     169.362 173.031 138.042  1.00  0.00     0.012 C 
BRANCH   4   5
ATOM      5  C   UNL     1     167.856 173.301 137.825  1.00  0.00     0.031 C 
BRANCH   5   6
ATOM      6  C   UNL     1     167.327 174.388 138.748  1.00  0.00    -0.077 C 
ATOM      7  C   UNL     1     167.572 175.829 138.376  1.00  0.00     0.039 C 
ATOM      8  C   UNL     1     166.657 174.140 139.898  1.00  0.00    -0.028 CG0
ATOM      9  G   UNL     1     166.366 172.772 140.465  1.00  0.00     0.000 G0
ENDBRANCH   5   6
ENDBRANCH   4   5
ENDBRANCH   3   4
BRANCH   3  10
ATOM     10  C   UNL     1     170.523 170.709 138.075  1.00  0.00    -0.010 C 
ATOM     11  C   UNL     1     171.193 169.694 139.021  1.00  0.00     0.008 C 
ATOM     12  C   UNL     1     169.701 169.931 137.031  1.00  0.00     0.008 C 
ENDBRANCH   3  10
ENDBRANCH   2   3
BRANCH   1  13
ATOM     13  C   UNL     1     168.348 171.501 141.615  1.00  0.00    -0.055 C 
ATOM     14  C   UNL     1     168.118 170.196 141.447  1.00  0.00     0.012 C 
BRANCH  13  15
ATOM     15  C   UNL     1     167.176 172.455 141.772  1.00  0.00     0.039 C 
BRANCH  15  16
ATOM     16  C   UNL     1     166.375 172.773 140.485  1.00  0.00     0.032 CG0
ATOM     17  G   UNL     1     166.641 174.138 139.898  1.00  0.00     0.000 G0
ENDBRANCH  15  16
ENDBRANCH  13  15
ENDBRANCH   1  13
TORSDOF 1
ENDMDL
MODEL 8
REMARK VINA RESULT:    -1.119     11.811     14.498
REMARK INTER + INTRA:          -2.143
REMARK INTER:                  -1.611
REMARK INTRA:                  -0.532
REMARK UNBOUND:                -0.501
REMARK SMILES C=C1C=C[C@H](C(C)C)CCC(C)=CCC1
REMARK SMILES IDX 3 1 4 2 5 3 9 4 10 5 11 6 12 7 13 8 6 10 7 11 8 12 2 13 1 14
REMARK SMILES IDX 15 15 14 16
REMARK H PARENT
REMARK Flexibility Score: 70.00
ROOT
ATOM      1  C   UNL     1     163.522 160.731 139.903  1.00  0.00    -0.001 C 
ATOM      2  C   UNL     1     163.468 159.391 139.914  1.00  0.00    -0.023 C 
ENDROOT
BRANCH   2   3
ATOM      3  C   UNL     1     164.630 158.483 139.566  1.00  0.00     0.014 C 
BRANCH   3   4
ATOM      4  C   UNL     1     165.069 157.696 140.840  1.00  0.00     0.012 C 
BRANCH   4   5
ATOM      5  C   UNL     1     166.546 157.928 141.228  1.00  0.00     0.031 C 
BRANCH   5   6
ATOM      6  C   UNL     1     166.693 158.926 142.367  1.00  0.00    -0.077 C 
ATOM      7  C   UNL     1     166.630 158.413 143.784  1.00  0.00     0.039 C 
ATOM      8  C   UNL     1     166.866 160.257 142.186  1.00  0.00    -0.028 CG0
ATOM      9  G   UNL     1     166.898 160.962 140.852  1.00  0.00     0.000 G0
ENDBRANCH   5   6
ENDBRANCH   4   5
ENDBRANCH   3   4
BRANCH   3  10
ATOM     10  C   UNL     1     164.266 157.537 138.376  1.00  0.00    -0.010 C 
ATOM     11  C   UNL     1     163.541 156.268 138.866  1.00  0.00     0.008 C 
ATOM     12  C   UNL     1     163.373 158.234 137.334  1.00  0.00     0.008 C 
ENDBRANCH   3  10
ENDBRANCH   2   3
BRANCH   1  13
ATOM     13  C   UNL     1     164.718 161.534 139.562  1.00  0.00    -0.055 C 
ATOM     14  C   UNL     1     165.023 161.686 138.270  1.00  0.00     0.012 C 
BRANCH  13  15
ATOM     15  C   UNL     1     165.725 161.943 140.622  1.00  0.00     0.039 C 
BRANCH  15  16
ATOM     16  C   UNL     1     166.906 160.968 140.859  1.00  0.00     0.032 CG0
ATOM     17  G   UNL     1     166.867 160.239 142.180  1.00  0.00     0.000 G0
ENDBRANCH  15  16
ENDBRANCH  13  15
ENDBRANCH   1  13
TORSDOF 1
ENDMDL
MODEL 9
REMARK VINA RESULT:    -1.110      2.786      4.288
REMARK INTER + INTRA:          -2.129
REMARK INTER:                  -1.769
REMARK INTRA:                  -0.360
REMARK UNBOUND:                -0.501
REMARK SMILES C=C1C=C[C@H](C(C)C)CCC(C)=CCC1
REMARK SMILES IDX 3 1 4 2 5 3 9 4 10 5 11 6 12 7 13 8 6 10 7 11 8 12 2 13 1 14
REMARK SMILES IDX 15 15 14 16
REMARK H PARENT
REMARK Flexibility Score: 70.00
ROOT
ATOM      1  C   UNL     1     168.107 171.368 141.675  1.00  0.00    -0.001 C 
ATOM      2  C   UNL     1     167.801 172.315 140.776  1.00  0.00    -0.023 C 
ENDROOT
BRANCH   2   3
ATOM      3  C   UNL     1     168.738 173.426 140.349  1.00  0.00     0.014 C 
BRANCH   3   4
ATOM      4  C   UNL     1     169.445 173.021 139.018  1.00  0.00     0.012 C 
BRANCH   4   5
ATOM      5  C   UNL     1     170.983 173.160 139.071  1.00  0.00     0.031 C 
BRANCH   5   6
ATOM      6  C   UNL     1     171.690 171.835 138.832  1.00  0.00    -0.077 C 
ATOM      7  C   UNL     1     172.000 171.431 137.412  1.00  0.00     0.039 C 
ATOM      8  C   UNL     1     172.050 170.983 139.822  1.00  0.00    -0.028 CG0
ATOM      9  G   UNL     1     171.777 171.184 141.293  1.00  0.00     0.000 G0
ENDBRANCH   5   6
ENDBRANCH   4   5
ENDBRANCH   3   4
BRANCH   3  10
ATOM     10  C   UNL     1     167.978 174.787 140.231  1.00  0.00    -0.010 C 
ATOM     11  C   UNL     1     168.635 175.711 139.187  1.00  0.00     0.008 C 
ATOM     12  C   UNL     1     166.500 174.594 139.846  1.00  0.00     0.008 C 
ENDBRANCH   3  10
ENDBRANCH   2   3
BRANCH   1  13
ATOM     13  C   UNL     1     169.402 171.249 142.382  1.00  0.00    -0.055 C 
ATOM     14  C   UNL     1     169.643 172.089 143.393  1.00  0.00     0.012 C 
BRANCH  13  15
ATOM     15  C   UNL     1     170.533 170.404 141.824  1.00  0.00     0.039 C 
BRANCH  15  16
ATOM     16  C   UNL     1     171.769 171.175 141.295  1.00  0.00     0.032 CG0
ATOM     17  G   UNL     1     172.051 170.981 139.825  1.00  0.00     0.000 G0
ENDBRANCH  15  16
ENDBRANCH  13  15
ENDBRANCH   1  13
TORSDOF 1
ENDMDL
