MODEL 1
REMARK VINA RESULT:    -4.817      0.000      0.000
REMARK INTER + INTRA:          -5.523
REMARK INTER:                  -5.240
REMARK INTRA:                  -0.284
REMARK UNBOUND:                -0.284
REMARK SMILES CC(=O)c1cc(C)ccc1O
REMARK SMILES IDX 7 1 6 2 5 3 4 4 10 5 9 6 8 7 2 8 3 9 1 10 11 11
REMARK H PARENT 11 12
REMARK Flexibility Score: inf
ROOT
ATOM      1  C   UNL     1      10.458 -13.421 -42.345  1.00  0.00     0.044 C 
ATOM      2  C   UNL     1      11.349 -12.401 -42.991  1.00  0.00    -0.050 A 
ATOM      3  C   UNL     1      10.863 -11.116 -43.272  1.00  0.00     0.019 A 
ATOM      4  C   UNL     1      11.679 -10.157 -43.902  1.00  0.00     0.059 A 
ATOM      5  C   UNL     1      12.992 -10.521 -44.289  1.00  0.00     0.126 A 
ATOM      6  C   UNL     1      13.468 -11.806 -44.004  1.00  0.00     0.047 A 
ATOM      7  C   UNL     1      12.653 -12.743 -43.368  1.00  0.00     0.007 A 
ENDROOT
BRANCH   4   8
ATOM      8  C   UNL     1      11.151  -8.788 -44.112  1.00  0.00     0.163 C 
ATOM      9  O   UNL     1      11.578  -8.089 -45.069  1.00  0.00    -0.294 OA
ATOM     10  C   UNL     1      10.181  -8.177 -43.146  1.00  0.00     0.093 C 
ENDBRANCH   4   8
BRANCH   5  11
ATOM     11  O   UNL     1      13.837  -9.652 -44.984  1.00  0.00    -0.507 OA
ATOM     12  H   UNL     1      14.094  -8.736 -44.643  1.00  0.00     0.293 HD
ENDBRANCH   5  11
TORSDOF 2
ENDMDL
MODEL 2
REMARK VINA RESULT:    -4.809      2.746      3.947
REMARK INTER + INTRA:          -5.514
REMARK INTER:                  -5.245
REMARK INTRA:                  -0.269
REMARK UNBOUND:                -0.284
REMARK SMILES CC(=O)c1cc(C)ccc1O
REMARK SMILES IDX 7 1 6 2 5 3 4 4 10 5 9 6 8 7 2 8 3 9 1 10 11 11
REMARK H PARENT 11 12
REMARK Flexibility Score: inf
ROOT
ATOM      1  C   UNL     1       9.722  -7.392 -43.455  1.00  0.00     0.044 C 
ATOM      2  C   UNL     1      10.242  -8.693 -43.991  1.00  0.00    -0.050 A 
ATOM      3  C   UNL     1       9.380  -9.578 -44.655  1.00  0.00     0.019 A 
ATOM      4  C   UNL     1       9.847 -10.815 -45.139  1.00  0.00     0.059 A 
ATOM      5  C   UNL     1      11.197 -11.176 -44.909  1.00  0.00     0.126 A 
ATOM      6  C   UNL     1      12.050 -10.286 -44.246  1.00  0.00     0.047 A 
ATOM      7  C   UNL     1      11.577  -9.058 -43.782  1.00  0.00     0.007 A 
ENDROOT
BRANCH   4   8
ATOM      8  C   UNL     1       8.921 -11.685 -45.901  1.00  0.00     0.163 C 
ATOM      9  O   UNL     1       9.380 -12.602 -46.634  1.00  0.00    -0.294 OA
ATOM     10  C   UNL     1       7.443 -11.437 -45.895  1.00  0.00     0.093 C 
ENDBRANCH   4   8
BRANCH   5  11
ATOM     11  O   UNL     1      11.717 -12.415 -45.293  1.00  0.00    -0.507 OA
ATOM     12  H   UNL     1      11.399 -13.293 -44.910  1.00  0.00     0.293 HD
ENDBRANCH   5  11
TORSDOF 2
ENDMDL
MODEL 3
REMARK VINA RESULT:    -4.735      2.354      2.791
REMARK INTER + INTRA:          -5.433
REMARK INTER:                  -5.126
REMARK INTRA:                  -0.307
REMARK UNBOUND:                -0.284
REMARK SMILES CC(=O)c1cc(C)ccc1O
REMARK SMILES IDX 7 1 6 2 5 3 4 4 10 5 9 6 8 7 2 8 3 9 1 10 11 11
REMARK H PARENT 11 12
REMARK Flexibility Score: inf
ROOT
ATOM      1  C   UNL     1       7.465 -11.828 -46.387  1.00  0.00     0.044 C 
ATOM      2  C   UNL     1       8.723 -11.629 -45.595  1.00  0.00    -0.050 A 
ATOM      3  C   UNL     1       9.226 -10.337 -45.382  1.00  0.00     0.019 A 
ATOM      4  C   UNL     1      10.420 -10.135 -44.664  1.00  0.00     0.059 A 
ATOM      5  C   UNL     1      11.136 -11.264 -44.193  1.00  0.00     0.126 A 
ATOM      6  C   UNL     1      10.627 -12.549 -44.410  1.00  0.00     0.047 A 
ATOM      7  C   UNL     1       9.435 -12.733 -45.113  1.00  0.00     0.007 A 
ENDROOT
BRANCH   4   8
ATOM      8  C   UNL     1      10.874  -8.751 -44.396  1.00  0.00     0.163 C 
ATOM      9  O   UNL     1      12.035  -8.393 -44.731  1.00  0.00    -0.294 OA
ATOM     10  C   UNL     1      10.010  -7.785 -43.644  1.00  0.00     0.093 C 
ENDBRANCH   4   8
BRANCH   5  11
ATOM     11  O   UNL     1      12.365 -11.151 -43.537  1.00  0.00    -0.507 OA
ATOM     12  H   UNL     1      13.254 -11.282 -43.998  1.00  0.00     0.293 HD
ENDBRANCH   5  11
TORSDOF 2
ENDMDL
MODEL 4
REMARK VINA RESULT:    -4.529      1.825      2.774
REMARK INTER + INTRA:          -5.210
REMARK INTER:                  -5.095
REMARK INTRA:                  -0.115
REMARK UNBOUND:                -0.284
REMARK SMILES CC(=O)c1cc(C)ccc1O
REMARK SMILES IDX 7 1 6 2 5 3 4 4 10 5 9 6 8 7 2 8 3 9 1 10 11 11
REMARK H PARENT 11 12
REMARK Flexibility Score: inf
ROOT
ATOM      1  C   UNL     1      13.090 -12.906 -44.250  1.00  0.00     0.044 C 
ATOM      2  C   UNL     1      11.859 -12.101 -44.548  1.00  0.00    -0.050 A 
ATOM      3  C   UNL     1      11.821 -10.731 -44.250  1.00  0.00     0.019 A 
ATOM      4  C   UNL     1      10.663  -9.969 -44.499  1.00  0.00     0.059 A 
ATOM      5  C   UNL     1       9.515 -10.616 -45.019  1.00  0.00     0.126 A 
ATOM      6  C   UNL     1       9.562 -11.983 -45.314  1.00  0.00     0.047 A 
ATOM      7  C   UNL     1      10.720 -12.724 -45.073  1.00  0.00     0.007 A 
ENDROOT
BRANCH   4   8
ATOM      8  C   UNL     1      10.693  -8.511 -44.240  1.00  0.00     0.163 C 
ATOM      9  O   UNL     1      11.306  -7.744 -45.030  1.00  0.00    -0.294 OA
ATOM     10  C   UNL     1      10.085  -7.933 -42.998  1.00  0.00     0.093 C 
ENDBRANCH   4   8
BRANCH   5  11
ATOM     11  O   UNL     1       8.307  -9.945 -45.224  1.00  0.00    -0.507 OA
ATOM     12  H   UNL     1       8.203  -8.945 -45.128  1.00  0.00     0.293 HD
ENDBRANCH   5  11
TORSDOF 2
ENDMDL
MODEL 5
REMARK VINA RESULT:    -4.437      2.525      4.411
REMARK INTER + INTRA:          -5.110
REMARK INTER:                  -4.800
REMARK INTRA:                  -0.309
REMARK UNBOUND:                -0.284
REMARK SMILES CC(=O)c1cc(C)ccc1O
REMARK SMILES IDX 7 1 6 2 5 3 4 4 10 5 9 6 8 7 2 8 3 9 1 10 11 11
REMARK H PARENT 11 12
REMARK Flexibility Score: inf
ROOT
ATOM      1  C   UNL     1      11.859  -8.542 -44.750  1.00  0.00     0.044 C 
ATOM      2  C   UNL     1      11.919  -9.932 -44.189  1.00  0.00    -0.050 A 
ATOM      3  C   UNL     1      13.140 -10.620 -44.137  1.00  0.00     0.019 A 
ATOM      4  C   UNL     1      13.208 -11.935 -43.639  1.00  0.00     0.059 A 
ATOM      5  C   UNL     1      12.013 -12.575 -43.226  1.00  0.00     0.126 A 
ATOM      6  C   UNL     1      10.799 -11.880 -43.281  1.00  0.00     0.047 A 
ATOM      7  C   UNL     1      10.749 -10.573 -43.766  1.00  0.00     0.007 A 
ENDROOT
BRANCH   4   8
ATOM      8  C   UNL     1      14.529 -12.597 -43.531  1.00  0.00     0.163 C 
ATOM      9  O   UNL     1      14.660 -13.802 -43.877  1.00  0.00    -0.294 OA
ATOM     10  C   UNL     1      15.702 -11.888 -42.925  1.00  0.00     0.093 C 
ENDBRANCH   4   8
BRANCH   5  11
ATOM     11  O   UNL     1      11.986 -13.902 -42.789  1.00  0.00    -0.507 OA
ATOM     12  H   UNL     1      12.313 -14.194 -41.879  1.00  0.00     0.293 HD
ENDBRANCH   5  11
TORSDOF 2
ENDMDL
MODEL 6
REMARK VINA RESULT:    -4.432      1.996      2.879
REMARK INTER + INTRA:          -5.104
REMARK INTER:                  -4.882
REMARK INTRA:                  -0.222
REMARK UNBOUND:                -0.284
REMARK SMILES CC(=O)c1cc(C)ccc1O
REMARK SMILES IDX 7 1 6 2 5 3 4 4 10 5 9 6 8 7 2 8 3 9 1 10 11 11
REMARK H PARENT 11 12
REMARK Flexibility Score: inf
ROOT
ATOM      1  C   UNL     1      14.969 -11.883 -43.310  1.00  0.00     0.044 C 
ATOM      2  C   UNL     1      13.509 -12.046 -43.612  1.00  0.00    -0.050 A 
ATOM      3  C   UNL     1      12.724 -10.926 -43.925  1.00  0.00     0.019 A 
ATOM      4  C   UNL     1      11.346 -11.060 -44.185  1.00  0.00     0.059 A 
ATOM      5  C   UNL     1      10.750 -12.341 -44.085  1.00  0.00     0.126 A 
ATOM      6  C   UNL     1      11.541 -13.452 -43.772  1.00  0.00     0.047 A 
ATOM      7  C   UNL     1      12.908 -13.307 -43.530  1.00  0.00     0.007 A 
ENDROOT
BRANCH   4   8
ATOM      8  C   UNL     1      10.571  -9.863 -44.586  1.00  0.00     0.163 C 
ATOM      9  O   UNL     1       9.390  -9.990 -45.007  1.00  0.00    -0.294 OA
ATOM     10  C   UNL     1      11.196  -8.501 -44.592  1.00  0.00     0.093 C 
ENDBRANCH   4   8
BRANCH   5  11
ATOM     11  O   UNL     1       9.378 -12.544 -44.255  1.00  0.00    -0.507 OA
ATOM     12  H   UNL     1       8.964 -13.455 -44.394  1.00  0.00     0.293 HD
ENDBRANCH   5  11
TORSDOF 2
ENDMDL
MODEL 7
REMARK VINA RESULT:    -4.419      2.405      4.197
REMARK INTER + INTRA:          -5.090
REMARK INTER:                  -4.790
REMARK INTRA:                  -0.300
REMARK UNBOUND:                -0.284
REMARK SMILES CC(=O)c1cc(C)ccc1O
REMARK SMILES IDX 7 1 6 2 5 3 4 4 10 5 9 6 8 7 2 8 3 9 1 10 11 11
REMARK H PARENT 11 12
REMARK Flexibility Score: inf
ROOT
ATOM      1  C   UNL     1      10.135  -7.816 -43.848  1.00  0.00     0.044 C 
ATOM      2  C   UNL     1      10.271  -9.258 -44.238  1.00  0.00    -0.050 A 
ATOM      3  C   UNL     1      11.424  -9.978 -43.892  1.00  0.00     0.019 A 
ATOM      4  C   UNL     1      11.578 -11.324 -44.276  1.00  0.00     0.059 A 
ATOM      5  C   UNL     1      10.566 -11.935 -45.056  1.00  0.00     0.126 A 
ATOM      6  C   UNL     1       9.418 -11.209 -45.397  1.00  0.00     0.047 A 
ATOM      7  C   UNL     1       9.274  -9.879 -44.999  1.00  0.00     0.007 A 
ENDROOT
BRANCH   4   8
ATOM      8  C   UNL     1      12.777 -12.068 -43.824  1.00  0.00     0.163 C 
ATOM      9  O   UNL     1      12.645 -13.174 -43.233  1.00  0.00    -0.294 OA
ATOM     10  C   UNL     1      14.150 -11.486 -43.969  1.00  0.00     0.093 C 
ENDBRANCH   4   8
BRANCH   5  11
ATOM     11  O   UNL     1      10.677 -13.241 -45.537  1.00  0.00    -0.507 OA
ATOM     12  H   UNL     1       9.893 -13.775 -45.885  1.00  0.00     0.293 HD
ENDBRANCH   5  11
TORSDOF 2
ENDMDL
MODEL 8
REMARK VINA RESULT:    -4.315     13.034     14.633
REMARK INTER + INTRA:          -4.977
REMARK INTER:                  -4.674
REMARK INTRA:                  -0.303
REMARK UNBOUND:                -0.284
REMARK SMILES CC(=O)c1cc(C)ccc1O
REMARK SMILES IDX 7 1 6 2 5 3 4 4 10 5 9 6 8 7 2 8 3 9 1 10 11 11
REMARK H PARENT 11 12
REMARK Flexibility Score: inf
ROOT
ATOM      1  C   UNL     1       4.930 -21.523 -37.518  1.00  0.00     0.044 C 
ATOM      2  C   UNL     1       6.288 -21.336 -36.908  1.00  0.00    -0.050 A 
ATOM      3  C   UNL     1       7.070 -22.450 -36.570  1.00  0.00     0.019 A 
ATOM      4  C   UNL     1       8.334 -22.291 -35.972  1.00  0.00     0.059 A 
ATOM      5  C   UNL     1       8.794 -20.984 -35.677  1.00  0.00     0.126 A 
ATOM      6  C   UNL     1       8.007 -19.878 -36.018  1.00  0.00     0.047 A 
ATOM      7  C   UNL     1       6.760 -20.050 -36.621  1.00  0.00     0.007 A 
ENDROOT
BRANCH   4   8
ATOM      8  C   UNL     1       9.159 -23.492 -35.702  1.00  0.00     0.163 C 
ATOM      9  O   UNL     1       9.855 -23.554 -34.653  1.00  0.00    -0.294 OA
ATOM     10  C   UNL     1       9.257 -24.604 -36.701  1.00  0.00     0.093 C 
ENDBRANCH   4   8
BRANCH   5  11
ATOM     11  O   UNL     1      10.003 -20.746 -35.019  1.00  0.00    -0.507 OA
ATOM     12  H   UNL     1      10.653 -20.023 -35.295  1.00  0.00     0.293 HD
ENDBRANCH   5  11
TORSDOF 2
ENDMDL
MODEL 9
REMARK VINA RESULT:    -4.190      2.836      4.263
REMARK INTER + INTRA:          -4.841
REMARK INTER:                  -4.530
REMARK INTRA:                  -0.311
REMARK UNBOUND:                -0.284
REMARK SMILES CC(=O)c1cc(C)ccc1O
REMARK SMILES IDX 7 1 6 2 5 3 4 4 10 5 9 6 8 7 2 8 3 9 1 10 11 11
REMARK H PARENT 11 12
REMARK Flexibility Score: inf
ROOT
ATOM      1  C   UNL     1      13.431 -11.486 -43.904  1.00  0.00     0.044 C 
ATOM      2  C   UNL     1      12.018 -11.124 -44.255  1.00  0.00    -0.050 A 
ATOM      3  C   UNL     1      11.143 -12.098 -44.757  1.00  0.00     0.019 A 
ATOM      4  C   UNL     1       9.823 -11.767 -45.116  1.00  0.00     0.059 A 
ATOM      5  C   UNL     1       9.398 -10.421 -45.003  1.00  0.00     0.126 A 
ATOM      6  C   UNL     1      10.278  -9.455 -44.500  1.00  0.00     0.047 A 
ATOM      7  C   UNL     1      11.580  -9.800 -44.137  1.00  0.00     0.007 A 
ENDROOT
BRANCH   4   8
ATOM      8  C   UNL     1       8.910 -12.842 -45.570  1.00  0.00     0.163 C 
ATOM      9  O   UNL     1       8.253 -12.702 -46.637  1.00  0.00    -0.294 OA
ATOM     10  C   UNL     1       8.675 -14.063 -44.733  1.00  0.00     0.093 C 
ENDBRANCH   4   8
BRANCH   5  11
ATOM     11  O   UNL     1       8.129  -9.999 -45.407  1.00  0.00    -0.507 OA
ATOM     12  H   UNL     1       7.751  -9.087 -45.192  1.00  0.00     0.293 HD
ENDBRANCH   5  11
TORSDOF 2
ENDMDL
