MODEL 1
REMARK VINA RESULT:    -3.694      0.000      0.000
REMARK INTER + INTRA:          -4.853
REMARK INTER:                  -4.774
REMARK INTRA:                  -0.079
REMARK UNBOUND:                -0.079
REMARK SMILES CCO[C@H]1O[C@H](CO)[C@@H](O)[C@@H](O)[C@H]1O
REMARK SMILES IDX 4 1 13 2 11 3 9 4 6 5 5 6 3 7 2 8 1 9 14 10 12 12 7 14 8 15
REMARK SMILES IDX 10 17
REMARK H PARENT 14 11 12 13 8 16 10 18
REMARK Flexibility Score: inf
ROOT
ATOM      1  C   UNL     1       6.799  35.023  34.358  1.00  0.00     0.281 C 
ATOM      2  C   UNL     1       8.246  34.594  34.680  1.00  0.00     0.202 C 
ATOM      3  C   UNL     1       8.825  33.656  33.602  1.00  0.00     0.179 C 
ATOM      4  C   UNL     1       7.808  32.559  33.211  1.00  0.00     0.177 C 
ATOM      5  C   UNL     1       6.402  33.163  32.974  1.00  0.00     0.178 C 
ATOM      6  O   UNL     1       5.975  33.892  34.113  1.00  0.00    -0.341 OA
ENDROOT
BRANCH   1   7
ATOM      7  O   UNL     1       6.774  35.936  33.271  1.00  0.00    -0.350 OA
BRANCH   7   8
ATOM      8  C   UNL     1       6.557  37.261  33.720  1.00  0.00     0.160 C 
ATOM      9  C   UNL     1       5.672  37.255  34.962  1.00  0.00     0.035 C 
ENDBRANCH   7   8
ENDBRANCH   1   7
BRANCH   2  10
ATOM     10  O   UNL     1       9.074  35.718  34.828  1.00  0.00    -0.385 OA
ATOM     11  H   UNL     1       9.655  35.755  34.024  1.00  0.00     0.211 HD
ENDBRANCH   2  10
BRANCH   3  12
ATOM     12  O   UNL     1       9.294  34.373  32.483  1.00  0.00    -0.387 OA
ATOM     13  H   UNL     1       9.903  33.789  31.966  1.00  0.00     0.211 HD
ENDBRANCH   3  12
BRANCH   5  14
ATOM     14  C   UNL     1       5.361  32.061  32.710  1.00  0.00     0.191 C 
BRANCH  14  15
ATOM     15  O   UNL     1       4.802  32.181  31.430  1.00  0.00    -0.394 OA
ATOM     16  H   UNL     1       5.533  32.004  30.781  1.00  0.00     0.210 HD
ENDBRANCH  14  15
ENDBRANCH   5  14
BRANCH   4  17
ATOM     17  O   UNL     1       8.250  31.888  32.059  1.00  0.00    -0.387 OA
ATOM     18  H   UNL     1       9.223  32.071  31.977  1.00  0.00     0.211 HD
ENDBRANCH   4  17
TORSDOF 7
ENDMDL
MODEL 2
REMARK VINA RESULT:    -3.657      2.625      4.731
REMARK INTER + INTRA:          -4.805
REMARK INTER:                  -4.429
REMARK INTRA:                  -0.375
REMARK UNBOUND:                -0.079
REMARK SMILES CCO[C@H]1O[C@H](CO)[C@@H](O)[C@@H](O)[C@H]1O
REMARK SMILES IDX 4 1 13 2 11 3 9 4 6 5 5 6 3 7 2 8 1 9 14 10 12 12 7 14 8 15
REMARK SMILES IDX 10 17
REMARK H PARENT 14 11 12 13 8 16 10 18
REMARK Flexibility Score: inf
ROOT
ATOM      1  C   UNL     1       9.072  34.602  34.191  1.00  0.00     0.281 C 
ATOM      2  C   UNL     1       9.472  35.930  33.514  1.00  0.00     0.202 C 
ATOM      3  C   UNL     1      10.776  35.798  32.705  1.00  0.00     0.179 C 
ATOM      4  C   UNL     1      11.855  35.033  33.505  1.00  0.00     0.177 C 
ATOM      5  C   UNL     1      11.267  33.756  34.154  1.00  0.00     0.178 C 
ATOM      6  O   UNL     1      10.146  34.079  34.960  1.00  0.00    -0.341 OA
ENDROOT
BRANCH   1   7
ATOM      7  O   UNL     1       8.611  33.665  33.229  1.00  0.00    -0.350 OA
BRANCH   7   8
ATOM      8  C   UNL     1       7.353  33.130  33.597  1.00  0.00     0.160 C 
ATOM      9  C   UNL     1       6.520  32.843  32.353  1.00  0.00     0.035 C 
ENDBRANCH   7   8
ENDBRANCH   1   7
BRANCH   2  10
ATOM     10  O   UNL     1       8.439  36.392  32.682  1.00  0.00    -0.385 OA
ATOM     11  H   UNL     1       7.721  35.706  32.708  1.00  0.00     0.211 HD
ENDBRANCH   2  10
BRANCH   3  12
ATOM     12  O   UNL     1      10.549  35.228  31.436  1.00  0.00    -0.387 OA
ATOM     13  H   UNL     1      10.050  34.382  31.554  1.00  0.00     0.211 HD
ENDBRANCH   3  12
BRANCH   5  14
ATOM     14  C   UNL     1      12.302  33.061  35.055  1.00  0.00     0.191 C 
BRANCH  14  15
ATOM     15  O   UNL     1      13.327  32.474  34.298  1.00  0.00    -0.394 OA
ATOM     16  H   UNL     1      12.943  31.657  33.883  1.00  0.00     0.210 HD
ENDBRANCH  14  15
ENDBRANCH   5  14
BRANCH   4  17
ATOM     17  O   UNL     1      12.928  34.700  32.662  1.00  0.00    -0.387 OA
ATOM     18  H   UNL     1      13.717  34.552  33.247  1.00  0.00     0.211 HD
ENDBRANCH   4  17
TORSDOF 7
ENDMDL
MODEL 3
REMARK VINA RESULT:    -3.259      1.409      4.098
REMARK INTER + INTRA:          -4.290
REMARK INTER:                  -3.822
REMARK INTRA:                  -0.468
REMARK UNBOUND:                -0.079
REMARK SMILES CCO[C@H]1O[C@H](CO)[C@@H](O)[C@@H](O)[C@H]1O
REMARK SMILES IDX 4 1 13 2 11 3 9 4 6 5 5 6 3 7 2 8 1 9 14 10 12 12 7 14 8 15
REMARK SMILES IDX 10 17
REMARK H PARENT 14 11 12 13 8 16 10 18
REMARK Flexibility Score: inf
ROOT
ATOM      1  C   UNL     1       6.429  32.883  33.491  1.00  0.00     0.281 C 
ATOM      2  C   UNL     1       7.624  33.061  32.530  1.00  0.00     0.202 C 
ATOM      3  C   UNL     1       8.690  34.015  33.101  1.00  0.00     0.179 C 
ATOM      4  C   UNL     1       8.040  35.284  33.700  1.00  0.00     0.177 C 
ATOM      5  C   UNL     1       6.831  34.920  34.597  1.00  0.00     0.178 C 
ATOM      6  O   UNL     1       5.892  34.141  33.873  1.00  0.00    -0.341 OA
ENDROOT
BRANCH   1   7
ATOM      7  O   UNL     1       6.802  32.106  34.620  1.00  0.00    -0.350 OA
BRANCH   7   8
ATOM      8  C   UNL     1       5.705  31.356  35.109  1.00  0.00     0.160 C 
ATOM      9  C   UNL     1       5.044  30.591  33.968  1.00  0.00     0.035 C 
ENDBRANCH   7   8
ENDBRANCH   1   7
BRANCH   2  10
ATOM     10  O   UNL     1       8.207  31.818  32.231  1.00  0.00    -0.385 OA
ATOM     11  H   UNL     1       8.682  31.520  33.050  1.00  0.00     0.211 HD
ENDBRANCH   2  10
BRANCH   3  12
ATOM     12  O   UNL     1       9.536  33.363  34.021  1.00  0.00    -0.387 OA
ATOM     13  H   UNL     1       8.986  32.770  34.591  1.00  0.00     0.211 HD
ENDBRANCH   3  12
BRANCH   5  14
ATOM     14  C   UNL     1       6.105  36.183  35.091  1.00  0.00     0.191 C 
BRANCH  14  15
ATOM     15  O   UNL     1       6.297  37.260  34.214  1.00  0.00    -0.394 OA
ATOM     16  H   UNL     1       6.930  36.949  33.515  1.00  0.00     0.210 HD
ENDBRANCH  14  15
ENDBRANCH   5  14
BRANCH   4  17
ATOM     17  O   UNL     1       8.993  36.004  34.438  1.00  0.00    -0.387 OA
ATOM     18  H   UNL     1       9.611  36.419  33.781  1.00  0.00     0.211 HD
ENDBRANCH   4  17
TORSDOF 7
ENDMDL
MODEL 4
REMARK VINA RESULT:    -3.222      1.590      2.405
REMARK INTER + INTRA:          -4.242
REMARK INTER:                  -3.835
REMARK INTRA:                  -0.407
REMARK UNBOUND:                -0.079
REMARK SMILES CCO[C@H]1O[C@H](CO)[C@@H](O)[C@@H](O)[C@H]1O
REMARK SMILES IDX 4 1 13 2 11 3 9 4 6 5 5 6 3 7 2 8 1 9 14 10 12 12 7 14 8 15
REMARK SMILES IDX 10 17
REMARK H PARENT 14 11 12 13 8 16 10 18
REMARK Flexibility Score: inf
ROOT
ATOM      1  C   UNL     1       7.260  34.346  34.220  1.00  0.00     0.281 C 
ATOM      2  C   UNL     1       7.956  33.297  33.327  1.00  0.00     0.202 C 
ATOM      3  C   UNL     1       6.949  32.503  32.474  1.00  0.00     0.179 C 
ATOM      4  C   UNL     1       5.734  32.052  33.318  1.00  0.00     0.177 C 
ATOM      5  C   UNL     1       5.197  33.215  34.187  1.00  0.00     0.178 C 
ATOM      6  O   UNL     1       6.231  33.749  34.997  1.00  0.00    -0.341 OA
ENDROOT
BRANCH   1   7
ATOM      7  O   UNL     1       6.770  35.426  33.441  1.00  0.00    -0.350 OA
BRANCH   7   8
ATOM      8  C   UNL     1       7.159  36.672  33.991  1.00  0.00     0.160 C 
ATOM      9  C   UNL     1       7.788  37.547  32.912  1.00  0.00     0.035 C 
ENDBRANCH   7   8
ENDBRANCH   1   7
BRANCH   2  10
ATOM     10  O   UNL     1       8.907  33.910  32.495  1.00  0.00    -0.385 OA
ATOM     11  H   UNL     1       8.487  34.735  32.138  1.00  0.00     0.211 HD
ENDBRANCH   2  10
BRANCH   3  12
ATOM     12  O   UNL     1       6.562  33.217  31.321  1.00  0.00    -0.387 OA
ATOM     13  H   UNL     1       5.653  33.581  31.466  1.00  0.00     0.211 HD
ENDBRANCH   3  12
BRANCH   5  14
ATOM     14  C   UNL     1       4.073  32.738  35.122  1.00  0.00     0.191 C 
BRANCH  14  15
ATOM     15  O   UNL     1       2.876  32.533  34.420  1.00  0.00    -0.394 OA
ATOM     16  H   UNL     1       2.835  33.232  33.716  1.00  0.00     0.210 HD
ENDBRANCH  14  15
ENDBRANCH   5  14
BRANCH   4  17
ATOM     17  O   UNL     1       4.722  31.565  32.475  1.00  0.00    -0.387 OA
ATOM     18  H   UNL     1       4.301  30.798  32.945  1.00  0.00     0.211 HD
ENDBRANCH   4  17
TORSDOF 7
ENDMDL
MODEL 5
REMARK VINA RESULT:    -3.168      2.025      3.893
REMARK INTER + INTRA:          -4.173
REMARK INTER:                  -3.730
REMARK INTRA:                  -0.443
REMARK UNBOUND:                -0.079
REMARK SMILES CCO[C@H]1O[C@H](CO)[C@@H](O)[C@@H](O)[C@H]1O
REMARK SMILES IDX 4 1 13 2 11 3 9 4 6 5 5 6 3 7 2 8 1 9 14 10 12 12 7 14 8 15
REMARK SMILES IDX 10 17
REMARK H PARENT 14 11 12 13 8 16 10 18
REMARK Flexibility Score: inf
ROOT
ATOM      1  C   UNL     1       9.945  34.813  34.400  1.00  0.00     0.281 C 
ATOM      2  C   UNL     1       9.619  33.360  34.805  1.00  0.00     0.202 C 
ATOM      3  C   UNL     1       8.346  32.837  34.111  1.00  0.00     0.179 C 
ATOM      4  C   UNL     1       7.209  33.883  34.168  1.00  0.00     0.177 C 
ATOM      5  C   UNL     1       7.726  35.290  33.779  1.00  0.00     0.178 C 
ATOM      6  O   UNL     1       8.823  35.661  34.599  1.00  0.00    -0.341 OA
ENDROOT
BRANCH   1   7
ATOM      7  O   UNL     1      10.415  34.870  33.061  1.00  0.00    -0.350 OA
BRANCH   7   8
ATOM      8  C   UNL     1      11.497  35.774  32.937  1.00  0.00     0.160 C 
ATOM      9  C   UNL     1      12.819  35.016  32.969  1.00  0.00     0.035 C 
ENDBRANCH   7   8
ENDBRANCH   1   7
BRANCH   2  10
ATOM     10  O   UNL     1      10.701  32.512  34.518  1.00  0.00    -0.385 OA
ATOM     11  H   UNL     1      11.332  32.584  35.281  1.00  0.00     0.211 HD
ENDBRANCH   2  10
BRANCH   3  12
ATOM     12  O   UNL     1       8.608  32.404  32.795  1.00  0.00    -0.387 OA
ATOM     13  H   UNL     1       7.835  32.641  32.225  1.00  0.00     0.211 HD
ENDBRANCH   3  12
BRANCH   5  14
ATOM     14  C   UNL     1       6.631  36.354  33.957  1.00  0.00     0.191 C 
BRANCH  14  15
ATOM     15  O   UNL     1       5.667  35.945  34.890  1.00  0.00    -0.394 OA
ATOM     16  H   UNL     1       4.786  36.003  34.434  1.00  0.00     0.210 HD
ENDBRANCH  14  15
ENDBRANCH   5  14
BRANCH   4  17
ATOM     17  O   UNL     1       6.163  33.496  33.315  1.00  0.00    -0.387 OA
ATOM     18  H   UNL     1       6.322  32.545  33.078  1.00  0.00     0.211 HD
ENDBRANCH   4  17
TORSDOF 7
ENDMDL
MODEL 6
REMARK VINA RESULT:    -3.063      2.417      4.910
REMARK INTER + INTRA:          -4.037
REMARK INTER:                  -3.844
REMARK INTRA:                  -0.193
REMARK UNBOUND:                -0.079
REMARK SMILES CCO[C@H]1O[C@H](CO)[C@@H](O)[C@@H](O)[C@H]1O
REMARK SMILES IDX 4 1 13 2 11 3 9 4 6 5 5 6 3 7 2 8 1 9 14 10 12 12 7 14 8 15
REMARK SMILES IDX 10 17
REMARK H PARENT 14 11 12 13 8 16 10 18
REMARK Flexibility Score: inf
ROOT
ATOM      1  C   UNL     1       9.029  34.239  34.137  1.00  0.00     0.281 C 
ATOM      2  C   UNL     1       8.435  35.623  34.474  1.00  0.00     0.202 C 
ATOM      3  C   UNL     1       9.160  36.761  33.731  1.00  0.00     0.179 C 
ATOM      4  C   UNL     1      10.695  36.588  33.805  1.00  0.00     0.177 C 
ATOM      5  C   UNL     1      11.107  35.130  33.486  1.00  0.00     0.178 C 
ATOM      6  O   UNL     1      10.434  34.224  34.345  1.00  0.00    -0.341 OA
ENDROOT
BRANCH   1   7
ATOM      7  O   UNL     1       8.690  33.855  32.812  1.00  0.00    -0.350 OA
BRANCH   7   8
ATOM      8  C   UNL     1       7.985  32.627  32.801  1.00  0.00     0.160 C 
ATOM      9  C   UNL     1       6.668  32.786  32.049  1.00  0.00     0.035 C 
ENDBRANCH   7   8
ENDBRANCH   1   7
BRANCH   2  10
ATOM     10  O   UNL     1       7.063  35.658  34.177  1.00  0.00    -0.385 OA
ATOM     11  H   UNL     1       6.737  36.562  34.429  1.00  0.00     0.211 HD
ENDBRANCH   2  10
BRANCH   3  12
ATOM     12  O   UNL     1       8.701  36.896  32.405  1.00  0.00    -0.387 OA
ATOM     13  H   UNL     1       8.207  36.075  32.157  1.00  0.00     0.211 HD
ENDBRANCH   3  12
BRANCH   5  14
ATOM     14  C   UNL     1      12.618  34.923  33.684  1.00  0.00     0.191 C 
BRANCH  14  15
ATOM     15  O   UNL     1      13.068  33.773  33.019  1.00  0.00    -0.394 OA
ATOM     16  H   UNL     1      13.305  34.052  32.095  1.00  0.00     0.210 HD
ENDBRANCH  14  15
ENDBRANCH   5  14
BRANCH   4  17
ATOM     17  O   UNL     1      11.318  37.476  32.913  1.00  0.00    -0.387 OA
ATOM     18  H   UNL     1      11.981  37.995  33.441  1.00  0.00     0.211 HD
ENDBRANCH   4  17
TORSDOF 7
ENDMDL
MODEL 7
REMARK VINA RESULT:    -3.028      1.938      3.659
REMARK INTER + INTRA:          -3.992
REMARK INTER:                  -3.562
REMARK INTRA:                  -0.430
REMARK UNBOUND:                -0.079
REMARK SMILES CCO[C@H]1O[C@H](CO)[C@@H](O)[C@@H](O)[C@H]1O
REMARK SMILES IDX 4 1 13 2 11 3 9 4 6 5 5 6 3 7 2 8 1 9 14 10 12 12 7 14 8 15
REMARK SMILES IDX 10 17
REMARK H PARENT 14 11 12 13 8 16 10 18
REMARK Flexibility Score: inf
ROOT
ATOM      1  C   UNL     1       8.247  32.619  33.448  1.00  0.00     0.281 C 
ATOM      2  C   UNL     1       7.587  33.905  32.907  1.00  0.00     0.202 C 
ATOM      3  C   UNL     1       6.289  34.251  33.661  1.00  0.00     0.179 C 
ATOM      4  C   UNL     1       5.402  33.000  33.851  1.00  0.00     0.177 C 
ATOM      5  C   UNL     1       6.237  31.795  34.351  1.00  0.00     0.178 C 
ATOM      6  O   UNL     1       7.321  31.543  33.471  1.00  0.00    -0.341 OA
ENDROOT
BRANCH   1   7
ATOM      7  O   UNL     1       8.820  32.847  34.728  1.00  0.00    -0.350 OA
BRANCH   7   8
ATOM      8  C   UNL     1      10.178  32.448  34.758  1.00  0.00     0.160 C 
ATOM      9  C   UNL     1      11.073  33.657  35.007  1.00  0.00     0.035 C 
ENDBRANCH   7   8
ENDBRANCH   1   7
BRANCH   2  10
ATOM     10  O   UNL     1       8.481  34.986  32.974  1.00  0.00    -0.385 OA
ATOM     11  H   UNL     1       7.963  35.767  33.302  1.00  0.00     0.211 HD
ENDBRANCH   2  10
BRANCH   3  12
ATOM     12  O   UNL     1       6.553  34.908  34.880  1.00  0.00    -0.387 OA
ATOM     13  H   UNL     1       7.346  35.489  34.762  1.00  0.00     0.211 HD
ENDBRANCH   3  12
BRANCH   5  14
ATOM     14  C   UNL     1       5.384  30.516  34.418  1.00  0.00     0.191 C 
BRANCH  14  15
ATOM     15  O   UNL     1       4.317  30.565  33.510  1.00  0.00    -0.394 OA
ATOM     16  H   UNL     1       4.638  31.071  32.718  1.00  0.00     0.210 HD
ENDBRANCH  14  15
ENDBRANCH   5  14
BRANCH   4  17
ATOM     17  O   UNL     1       4.365  33.282  34.755  1.00  0.00    -0.387 OA
ATOM     18  H   UNL     1       4.789  33.420  35.643  1.00  0.00     0.211 HD
ENDBRANCH   4  17
TORSDOF 7
ENDMDL
MODEL 8
REMARK VINA RESULT:    -2.916     10.489     12.497
REMARK INTER + INTRA:          -3.847
REMARK INTER:                  -3.457
REMARK INTRA:                  -0.390
REMARK UNBOUND:                -0.079
REMARK SMILES CCO[C@H]1O[C@H](CO)[C@@H](O)[C@@H](O)[C@H]1O
REMARK SMILES IDX 4 1 13 2 11 3 9 4 6 5 5 6 3 7 2 8 1 9 14 10 12 12 7 14 8 15
REMARK SMILES IDX 10 17
REMARK H PARENT 14 11 12 13 8 16 10 18
REMARK Flexibility Score: inf
ROOT
ATOM      1  C   UNL     1      18.002  37.827  33.034  1.00  0.00     0.281 C 
ATOM      2  C   UNL     1      18.005  37.194  31.627  1.00  0.00     0.202 C 
ATOM      3  C   UNL     1      18.945  35.976  31.542  1.00  0.00     0.179 C 
ATOM      4  C   UNL     1      20.306  36.272  32.213  1.00  0.00     0.177 C 
ATOM      5  C   UNL     1      20.112  36.950  33.592  1.00  0.00     0.178 C 
ATOM      6  O   UNL     1      19.323  38.122  33.463  1.00  0.00    -0.341 OA
ENDROOT
BRANCH   1   7
ATOM      7  O   UNL     1      17.323  36.992  33.961  1.00  0.00    -0.350 OA
BRANCH   7   8
ATOM      8  C   UNL     1      16.278  37.692  34.610  1.00  0.00     0.160 C 
ATOM      9  C   UNL     1      15.087  36.766  34.834  1.00  0.00     0.035 C 
ENDBRANCH   7   8
ENDBRANCH   1   7
BRANCH   2  10
ATOM     10  O   UNL     1      16.705  36.820  31.249  1.00  0.00    -0.385 OA
ATOM     11  H   UNL     1      16.751  35.870  30.965  1.00  0.00     0.211 HD
ENDBRANCH   2  10
BRANCH   3  12
ATOM     12  O   UNL     1      18.339  34.811  32.057  1.00  0.00    -0.387 OA
ATOM     13  H   UNL     1      18.547  34.055  31.454  1.00  0.00     0.211 HD
ENDBRANCH   3  12
BRANCH   5  14
ATOM     14  C   UNL     1      21.462  37.363  34.204  1.00  0.00     0.191 C 
BRANCH  14  15
ATOM     15  O   UNL     1      22.487  37.336  33.247  1.00  0.00    -0.394 OA
ATOM     16  H   UNL     1      22.164  36.768  32.499  1.00  0.00     0.210 HD
ENDBRANCH  14  15
ENDBRANCH   5  14
BRANCH   4  17
ATOM     17  O   UNL     1      21.038  35.082  32.354  1.00  0.00    -0.387 OA
ATOM     18  H   UNL     1      20.773  34.684  33.225  1.00  0.00     0.211 HD
ENDBRANCH   4  17
TORSDOF 7
ENDMDL
MODEL 9
REMARK VINA RESULT:    -2.907      2.029      3.907
REMARK INTER + INTRA:          -3.836
REMARK INTER:                  -3.582
REMARK INTRA:                  -0.254
REMARK UNBOUND:                -0.079
REMARK SMILES CCO[C@H]1O[C@H](CO)[C@@H](O)[C@@H](O)[C@H]1O
REMARK SMILES IDX 4 1 13 2 11 3 9 4 6 5 5 6 3 7 2 8 1 9 14 10 12 12 7 14 8 15
REMARK SMILES IDX 10 17
REMARK H PARENT 14 11 12 13 8 16 10 18
REMARK Flexibility Score: inf
ROOT
ATOM      1  C   UNL     1      10.021  35.528  33.040  1.00  0.00     0.281 C 
ATOM      2  C   UNL     1       9.070  36.745  33.038  1.00  0.00     0.202 C 
ATOM      3  C   UNL     1       7.725  36.429  33.719  1.00  0.00     0.179 C 
ATOM      4  C   UNL     1       7.167  35.066  33.250  1.00  0.00     0.177 C 
ATOM      5  C   UNL     1       8.268  33.977  33.270  1.00  0.00     0.178 C 
ATOM      6  O   UNL     1       9.383  34.383  32.493  1.00  0.00    -0.341 OA
ENDROOT
BRANCH   1   7
ATOM      7  O   UNL     1      10.518  35.279  34.346  1.00  0.00    -0.350 OA
BRANCH   7   8
ATOM      8  C   UNL     1      11.811  34.705  34.301  1.00  0.00     0.160 C 
ATOM      9  C   UNL     1      12.667  35.425  33.264  1.00  0.00     0.035 C 
ENDBRANCH   7   8
ENDBRANCH   1   7
BRANCH   2  10
ATOM     10  O   UNL     1       9.676  37.846  33.664  1.00  0.00    -0.385 OA
ATOM     11  H   UNL     1      10.486  37.504  34.125  1.00  0.00     0.211 HD
ENDBRANCH   2  10
BRANCH   3  12
ATOM     12  O   UNL     1       7.818  36.513  35.123  1.00  0.00    -0.387 OA
ATOM     13  H   UNL     1       8.735  36.799  35.363  1.00  0.00     0.211 HD
ENDBRANCH   3  12
BRANCH   5  14
ATOM     14  C   UNL     1       7.750  32.652  32.683  1.00  0.00     0.191 C 
BRANCH  14  15
ATOM     15  O   UNL     1       8.136  32.500  31.344  1.00  0.00    -0.394 OA
ATOM     16  H   UNL     1       7.591  33.140  30.815  1.00  0.00     0.210 HD
ENDBRANCH  14  15
ENDBRANCH   5  14
BRANCH   4  17
ATOM     17  O   UNL     1       6.090  34.685  34.067  1.00  0.00    -0.387 OA
ATOM     18  H   UNL     1       6.159  35.222  34.900  1.00  0.00     0.211 HD
ENDBRANCH   4  17
TORSDOF 7
ENDMDL
