MODEL 1
REMARK VINA RESULT:    -5.280      0.000      0.000
REMARK INTER + INTRA:          -6.461
REMARK INTER:                  -6.206
REMARK INTRA:                  -0.254
REMARK UNBOUND:                -0.254
REMARK SMILES O=C([O-])C=Cc1ccc(O)c(O)c1
REMARK SMILES IDX 6 1 13 2 7 3 11 4 8 5 9 6 5 7 4 8 2 9 1 10 3 11 12 12 10 14
REMARK H PARENT 12 13 10 15
REMARK Flexibility Score: inf
ROOT
ATOM      1  C   UNL     1      83.831  61.636   7.323  1.00  0.00    -0.022 A 
ATOM      2  C   UNL     1      84.754  62.680   7.156  1.00  0.00     0.058 A 
ATOM      3  C   UNL     1      84.003  60.732   8.379  1.00  0.00     0.012 A 
ATOM      4  C   UNL     1      85.809  62.858   8.060  1.00  0.00     0.157 A 
ATOM      5  C   UNL     1      85.051  60.901   9.287  1.00  0.00     0.051 A 
ATOM      6  C   UNL     1      85.955  61.959   9.145  1.00  0.00     0.157 A 
ENDROOT
BRANCH   1   7
ATOM      7  C   UNL     1      82.746  61.408   6.346  1.00  0.00     0.010 C 
ATOM      8  C   UNL     1      81.478  61.827   6.480  1.00  0.00     0.025 C 
BRANCH   8   9
ATOM      9  C   UNL     1      80.892  62.429   7.695  1.00  0.00     0.064 C 
ATOM     10  O   UNL     1      81.037  63.651   7.960  1.00  0.00    -0.545 OA
ATOM     11  O   UNL     1      80.222  61.614   8.598  1.00  0.00    -0.545 OA
ENDBRANCH   8   9
ENDBRANCH   1   7
BRANCH   4  12
ATOM     12  O   UNL     1      86.683  63.925   7.842  1.00  0.00    -0.504 OA
ATOM     13  H   UNL     1      87.207  64.061   6.989  1.00  0.00     0.293 HD
ENDBRANCH   4  12
BRANCH   6  14
ATOM     14  O   UNL     1      86.975  62.078  10.091  1.00  0.00    -0.504 OA
ATOM     15  H   UNL     1      87.838  62.578   9.931  1.00  0.00     0.293 HD
ENDBRANCH   6  14
TORSDOF 4
ENDMDL
MODEL 2
REMARK VINA RESULT:    -5.027      1.890      5.010
REMARK INTER + INTRA:          -6.163
REMARK INTER:                  -5.987
REMARK INTRA:                  -0.175
REMARK UNBOUND:                -0.254
REMARK SMILES O=C([O-])C=Cc1ccc(O)c(O)c1
REMARK SMILES IDX 6 1 13 2 7 3 11 4 8 5 9 6 5 7 4 8 2 9 1 10 3 11 12 12 10 14
REMARK H PARENT 12 13 10 15
REMARK Flexibility Score: inf
ROOT
ATOM      1  C   UNL     1      81.996  61.772   6.868  1.00  0.00    -0.022 A 
ATOM      2  C   UNL     1      81.625  62.766   5.949  1.00  0.00     0.058 A 
ATOM      3  C   UNL     1      81.260  61.624   8.050  1.00  0.00     0.012 A 
ATOM      4  C   UNL     1      80.502  63.572   6.176  1.00  0.00     0.157 A 
ATOM      5  C   UNL     1      80.137  62.421   8.285  1.00  0.00     0.051 A 
ATOM      6  C   UNL     1      79.743  63.392   7.358  1.00  0.00     0.157 A 
ENDROOT
BRANCH   1   7
ATOM      7  C   UNL     1      83.208  60.952   6.664  1.00  0.00     0.010 C 
ATOM      8  C   UNL     1      84.463  61.338   6.944  1.00  0.00     0.025 C 
BRANCH   8   9
ATOM      9  C   UNL     1      84.881  62.699   7.334  1.00  0.00     0.064 C 
ATOM     10  O   UNL     1      85.628  63.396   6.597  1.00  0.00    -0.545 OA
ATOM     11  O   UNL     1      84.496  63.197   8.572  1.00  0.00    -0.545 OA
ENDBRANCH   8   9
ENDBRANCH   1   7
BRANCH   4  12
ATOM     12  O   UNL     1      80.183  64.532   5.214  1.00  0.00    -0.504 OA
ATOM     13  H   UNL     1      80.856  65.155   4.792  1.00  0.00     0.293 HD
ENDBRANCH   4  12
BRANCH   6  14
ATOM     14  O   UNL     1      78.607  64.149   7.648  1.00  0.00    -0.504 OA
ATOM     15  H   UNL     1      78.631  65.121   7.919  1.00  0.00     0.293 HD
ENDBRANCH   6  14
TORSDOF 4
ENDMDL
MODEL 3
REMARK VINA RESULT:    -4.936      1.443      5.116
REMARK INTER + INTRA:          -6.057
REMARK INTER:                  -5.855
REMARK INTRA:                  -0.202
REMARK UNBOUND:                -0.254
REMARK SMILES O=C([O-])C=Cc1ccc(O)c(O)c1
REMARK SMILES IDX 6 1 13 2 7 3 11 4 8 5 9 6 5 7 4 8 2 9 1 10 3 11 12 12 10 14
REMARK H PARENT 12 13 10 15
REMARK Flexibility Score: inf
ROOT
ATOM      1  C   UNL     1      82.721  61.908   7.027  1.00  0.00    -0.022 A 
ATOM      2  C   UNL     1      81.990  62.731   7.899  1.00  0.00     0.058 A 
ATOM      3  C   UNL     1      82.380  61.876   5.669  1.00  0.00     0.012 A 
ATOM      4  C   UNL     1      80.965  63.556   7.418  1.00  0.00     0.157 A 
ATOM      5  C   UNL     1      81.361  62.696   5.179  1.00  0.00     0.051 A 
ATOM      6  C   UNL     1      80.651  63.543   6.037  1.00  0.00     0.157 A 
ENDROOT
BRANCH   1   7
ATOM      7  C   UNL     1      83.768  60.995   7.531  1.00  0.00     0.010 C 
ATOM      8  C   UNL     1      84.987  61.367   7.951  1.00  0.00     0.025 C 
BRANCH   8   9
ATOM      9  C   UNL     1      85.570  62.718   7.820  1.00  0.00     0.064 C 
ATOM     10  O   UNL     1      85.862  63.204   6.696  1.00  0.00    -0.545 OA
ATOM     11  O   UNL     1      85.864  63.441   8.968  1.00  0.00    -0.545 OA
ENDBRANCH   8   9
ENDBRANCH   1   7
BRANCH   4  12
ATOM     12  O   UNL     1      80.288  64.359   8.337  1.00  0.00    -0.504 OA
ATOM     13  H   UNL     1      79.298  64.554   8.296  1.00  0.00     0.293 HD
ENDBRANCH   4  12
BRANCH   6  14
ATOM     14  O   UNL     1      79.650  64.343   5.483  1.00  0.00    -0.504 OA
ATOM     15  H   UNL     1      79.369  65.237   5.860  1.00  0.00     0.293 HD
ENDBRANCH   6  14
TORSDOF 4
ENDMDL
MODEL 4
REMARK VINA RESULT:    -4.917      0.966      1.988
REMARK INTER + INTRA:          -6.034
REMARK INTER:                  -5.781
REMARK INTRA:                  -0.254
REMARK UNBOUND:                -0.254
REMARK SMILES O=C([O-])C=Cc1ccc(O)c(O)c1
REMARK SMILES IDX 6 1 13 2 7 3 11 4 8 5 9 6 5 7 4 8 2 9 1 10 3 11 12 12 10 14
REMARK H PARENT 12 13 10 15
REMARK Flexibility Score: inf
ROOT
ATOM      1  C   UNL     1      83.888  61.771   7.311  1.00  0.00    -0.022 A 
ATOM      2  C   UNL     1      83.939  60.709   8.228  1.00  0.00     0.058 A 
ATOM      3  C   UNL     1      84.763  62.853   7.467  1.00  0.00     0.012 A 
ATOM      4  C   UNL     1      84.886  60.696   9.260  1.00  0.00     0.157 A 
ATOM      5  C   UNL     1      85.712  62.849   8.491  1.00  0.00     0.051 A 
ATOM      6  C   UNL     1      85.790  61.779   9.389  1.00  0.00     0.157 A 
ENDROOT
BRANCH   1   7
ATOM      7  C   UNL     1      82.860  61.819   6.251  1.00  0.00     0.010 C 
ATOM      8  C   UNL     1      81.599  62.250   6.410  1.00  0.00     0.025 C 
BRANCH   8   9
ATOM      9  C   UNL     1      80.957  62.582   7.698  1.00  0.00     0.064 C 
ATOM     10  O   UNL     1      80.979  63.752   8.164  1.00  0.00    -0.545 OA
ATOM     11  O   UNL     1      80.373  61.567   8.444  1.00  0.00    -0.545 OA
ENDBRANCH   8   9
ENDBRANCH   1   7
BRANCH   4  12
ATOM     12  O   UNL     1      84.890  59.604  10.129  1.00  0.00    -0.504 OA
ATOM     13  H   UNL     1      84.865  58.640   9.826  1.00  0.00     0.293 HD
ENDBRANCH   4  12
BRANCH   6  14
ATOM     14  O   UNL     1      86.766  61.832  10.385  1.00  0.00    -0.504 OA
ATOM     15  H   UNL     1      87.054  61.037  10.937  1.00  0.00     0.293 HD
ENDBRANCH   6  14
TORSDOF 4
ENDMDL
MODEL 5
REMARK VINA RESULT:    -4.872      1.944      2.115
REMARK INTER + INTRA:          -5.981
REMARK INTER:                  -5.719
REMARK INTRA:                  -0.262
REMARK UNBOUND:                -0.254
REMARK SMILES O=C([O-])C=Cc1ccc(O)c(O)c1
REMARK SMILES IDX 6 1 13 2 7 3 11 4 8 5 9 6 5 7 4 8 2 9 1 10 3 11 12 12 10 14
REMARK H PARENT 12 13 10 15
REMARK Flexibility Score: inf
ROOT
ATOM      1  C   UNL     1      83.821  61.642   7.790  1.00  0.00    -0.022 A 
ATOM      2  C   UNL     1      84.575  62.824   7.864  1.00  0.00     0.058 A 
ATOM      3  C   UNL     1      84.450  60.451   7.409  1.00  0.00     0.012 A 
ATOM      4  C   UNL     1      85.953  62.813   7.613  1.00  0.00     0.157 A 
ATOM      5  C   UNL     1      85.823  60.429   7.159  1.00  0.00     0.051 A 
ATOM      6  C   UNL     1      86.588  61.596   7.262  1.00  0.00     0.157 A 
ENDROOT
BRANCH   1   7
ATOM      7  C   UNL     1      82.358  61.652   8.000  1.00  0.00     0.010 C 
ATOM      8  C   UNL     1      81.433  61.725   7.030  1.00  0.00     0.025 C 
BRANCH   8   9
ATOM      9  C   UNL     1      81.700  61.989   5.602  1.00  0.00     0.064 C 
ATOM     10  O   UNL     1      81.522  63.128   5.097  1.00  0.00    -0.545 OA
ATOM     11  O   UNL     1      82.093  60.938   4.783  1.00  0.00    -0.545 OA
ENDBRANCH   8   9
ENDBRANCH   1   7
BRANCH   4  12
ATOM     12  O   UNL     1      86.645  64.021   7.717  1.00  0.00    -0.504 OA
ATOM     13  H   UNL     1      87.245  64.264   8.493  1.00  0.00     0.293 HD
ENDBRANCH   4  12
BRANCH   6  14
ATOM     14  O   UNL     1      87.957  61.505   7.008  1.00  0.00    -0.504 OA
ATOM     15  H   UNL     1      88.621  62.235   7.224  1.00  0.00     0.293 HD
ENDBRANCH   6  14
TORSDOF 4
ENDMDL
MODEL 6
REMARK VINA RESULT:    -4.549      1.788      5.464
REMARK INTER + INTRA:          -5.601
REMARK INTER:                  -5.354
REMARK INTRA:                  -0.247
REMARK UNBOUND:                -0.254
REMARK SMILES O=C([O-])C=Cc1ccc(O)c(O)c1
REMARK SMILES IDX 6 1 13 2 7 3 11 4 8 5 9 6 5 7 4 8 2 9 1 10 3 11 12 12 10 14
REMARK H PARENT 12 13 10 15
REMARK Flexibility Score: inf
ROOT
ATOM      1  C   UNL     1      81.552  61.571   6.495  1.00  0.00    -0.022 A 
ATOM      2  C   UNL     1      80.573  61.235   7.443  1.00  0.00     0.058 A 
ATOM      3  C   UNL     1      81.412  62.752   5.756  1.00  0.00     0.012 A 
ATOM      4  C   UNL     1      79.492  62.090   7.694  1.00  0.00     0.157 A 
ATOM      5  C   UNL     1      80.339  63.612   6.000  1.00  0.00     0.051 A 
ATOM      6  C   UNL     1      79.377  63.299   6.966  1.00  0.00     0.157 A 
ENDROOT
BRANCH   1   7
ATOM      7  C   UNL     1      82.667  60.652   6.185  1.00  0.00     0.010 C 
ATOM      8  C   UNL     1      83.893  60.707   6.727  1.00  0.00     0.025 C 
BRANCH   8   9
ATOM      9  C   UNL     1      84.408  61.790   7.588  1.00  0.00     0.064 C 
ATOM     10  O   UNL     1      84.725  62.914   7.116  1.00  0.00    -0.545 OA
ATOM     11  O   UNL     1      84.611  61.542   8.939  1.00  0.00    -0.545 OA
ENDBRANCH   8   9
ENDBRANCH   1   7
BRANCH   4  12
ATOM     12  O   UNL     1      78.562  61.700   8.659  1.00  0.00    -0.504 OA
ATOM     13  H   UNL     1      78.416  60.744   8.951  1.00  0.00     0.293 HD
ENDBRANCH   4  12
BRANCH   6  14
ATOM     14  O   UNL     1      78.334  64.205   7.167  1.00  0.00    -0.504 OA
ATOM     15  H   UNL     1      78.317  65.140   6.786  1.00  0.00     0.293 HD
ENDBRANCH   6  14
TORSDOF 4
ENDMDL
MODEL 7
REMARK VINA RESULT:    -4.513      1.116      2.202
REMARK INTER + INTRA:          -5.558
REMARK INTER:                  -5.563
REMARK INTRA:                   0.005
REMARK UNBOUND:                -0.254
REMARK SMILES O=C([O-])C=Cc1ccc(O)c(O)c1
REMARK SMILES IDX 6 1 13 2 7 3 11 4 8 5 9 6 5 7 4 8 2 9 1 10 3 11 12 12 10 14
REMARK H PARENT 12 13 10 15
REMARK Flexibility Score: inf
ROOT
ATOM      1  C   UNL     1      83.912  60.731   7.895  1.00  0.00    -0.022 A 
ATOM      2  C   UNL     1      84.750  60.968   8.997  1.00  0.00     0.058 A 
ATOM      3  C   UNL     1      83.987  61.578   6.783  1.00  0.00     0.012 A 
ATOM      4  C   UNL     1      85.692  62.004   8.973  1.00  0.00     0.157 A 
ATOM      5  C   UNL     1      84.924  62.613   6.748  1.00  0.00     0.051 A 
ATOM      6  C   UNL     1      85.785  62.834   7.829  1.00  0.00     0.157 A 
ENDROOT
BRANCH   1   7
ATOM      7  C   UNL     1      82.879  59.675   7.930  1.00  0.00     0.010 C 
ATOM      8  C   UNL     1      81.565  59.865   7.732  1.00  0.00     0.025 C 
BRANCH   8   9
ATOM      9  C   UNL     1      80.890  61.173   7.621  1.00  0.00     0.064 C 
ATOM     10  O   UNL     1      80.534  61.819   8.642  1.00  0.00    -0.545 OA
ATOM     11  O   UNL     1      80.579  61.670   6.362  1.00  0.00    -0.545 OA
ENDBRANCH   8   9
ENDBRANCH   1   7
BRANCH   4  12
ATOM     12  O   UNL     1      86.502  62.175  10.096  1.00  0.00    -0.504 OA
ATOM     13  H   UNL     1      87.267  61.562  10.341  1.00  0.00     0.293 HD
ENDBRANCH   4  12
BRANCH   6  14
ATOM     14  O   UNL     1      86.705  63.880   7.729  1.00  0.00    -0.504 OA
ATOM     15  H   UNL     1      86.632  64.747   8.241  1.00  0.00     0.293 HD
ENDBRANCH   6  14
TORSDOF 4
ENDMDL
MODEL 8
REMARK VINA RESULT:    -4.438      2.056      2.798
REMARK INTER + INTRA:          -5.470
REMARK INTER:                  -5.288
REMARK INTRA:                  -0.183
REMARK UNBOUND:                -0.254
REMARK SMILES O=C([O-])C=Cc1ccc(O)c(O)c1
REMARK SMILES IDX 6 1 13 2 7 3 11 4 8 5 9 6 5 7 4 8 2 9 1 10 3 11 12 12 10 14
REMARK H PARENT 12 13 10 15
REMARK Flexibility Score: inf
ROOT
ATOM      1  C   UNL     1      84.364  62.261   7.527  1.00  0.00    -0.022 A 
ATOM      2  C   UNL     1      84.318  61.510   8.713  1.00  0.00     0.058 A 
ATOM      3  C   UNL     1      85.593  62.762   7.082  1.00  0.00     0.012 A 
ATOM      4  C   UNL     1      85.489  61.214   9.422  1.00  0.00     0.157 A 
ATOM      5  C   UNL     1      86.767  62.471   7.781  1.00  0.00     0.051 A 
ATOM      6  C   UNL     1      86.732  61.696   8.945  1.00  0.00     0.157 A 
ENDROOT
BRANCH   1   7
ATOM      7  C   UNL     1      83.130  62.623   6.800  1.00  0.00     0.010 C 
ATOM      8  C   UNL     1      82.320  61.762   6.164  1.00  0.00     0.025 C 
BRANCH   8   9
ATOM      9  C   UNL     1      82.603  60.333   5.919  1.00  0.00     0.064 C 
ATOM     10  O   UNL     1      83.171  59.945   4.865  1.00  0.00    -0.545 OA
ATOM     11  O   UNL     1      82.171  59.391   6.843  1.00  0.00    -0.545 OA
ENDBRANCH   8   9
ENDBRANCH   1   7
BRANCH   4  12
ATOM     12  O   UNL     1      85.372  60.452  10.585  1.00  0.00    -0.504 OA
ATOM     13  H   UNL     1      86.134  60.277  11.225  1.00  0.00     0.293 HD
ENDBRANCH   4  12
BRANCH   6  14
ATOM     14  O   UNL     1      87.941  61.434   9.592  1.00  0.00    -0.504 OA
ATOM     15  H   UNL     1      88.734  62.060   9.582  1.00  0.00     0.293 HD
ENDBRANCH   6  14
TORSDOF 4
ENDMDL
MODEL 9
REMARK VINA RESULT:    -4.360      2.953      5.438
REMARK INTER + INTRA:          -5.379
REMARK INTER:                  -5.099
REMARK INTRA:                  -0.280
REMARK UNBOUND:                -0.254
REMARK SMILES O=C([O-])C=Cc1ccc(O)c(O)c1
REMARK SMILES IDX 6 1 13 2 7 3 11 4 8 5 9 6 5 7 4 8 2 9 1 10 3 11 12 12 10 14
REMARK H PARENT 12 13 10 15
REMARK Flexibility Score: inf
ROOT
ATOM      1  C   UNL     1      81.915  62.883   7.341  1.00  0.00    -0.022 A 
ATOM      2  C   UNL     1      80.942  63.214   8.299  1.00  0.00     0.058 A 
ATOM      3  C   UNL     1      81.575  62.907   5.983  1.00  0.00     0.012 A 
ATOM      4  C   UNL     1      79.659  63.616   7.908  1.00  0.00     0.157 A 
ATOM      5  C   UNL     1      80.299  63.309   5.584  1.00  0.00     0.051 A 
ATOM      6  C   UNL     1      79.334  63.671   6.531  1.00  0.00     0.157 A 
ENDROOT
BRANCH   1   7
ATOM      7  C   UNL     1      83.255  62.407   7.743  1.00  0.00     0.010 C 
ATOM      8  C   UNL     1      83.615  61.121   7.877  1.00  0.00     0.025 C 
BRANCH   8   9
ATOM      9  C   UNL     1      82.704  59.960   7.826  1.00  0.00     0.064 C 
ATOM     10  O   UNL     1      82.392  59.415   6.734  1.00  0.00    -0.545 OA
ATOM     11  O   UNL     1      82.126  59.501   9.002  1.00  0.00    -0.545 OA
ENDBRANCH   8   9
ENDBRANCH   1   7
BRANCH   4  12
ATOM     12  O   UNL     1      78.744  63.944   8.911  1.00  0.00    -0.504 OA
ATOM     13  H   UNL     1      78.682  63.464   9.798  1.00  0.00     0.293 HD
ENDBRANCH   4  12
BRANCH   6  14
ATOM     14  O   UNL     1      78.080  64.071   6.066  1.00  0.00    -0.504 OA
ATOM     15  H   UNL     1      77.603  63.640   5.288  1.00  0.00     0.293 HD
ENDBRANCH   6  14
TORSDOF 4
ENDMDL
