MODEL 1
REMARK VINA RESULT:    -4.193      0.000      0.000
REMARK INTER + INTRA:          -5.463
REMARK INTER:                  -5.173
REMARK INTRA:                  -0.290
REMARK UNBOUND:                -0.290
REMARK SMILES C=CC[C@H](C)C(=O)CC
REMARK SMILES IDX 4 1 5 2 6 3 7 4 8 5 9 6 3 7 2 8 1 9
REMARK H PARENT
REMARK Flexibility Score: inf
ROOT
ATOM      1  C   UNL     1      49.023  19.858  21.130  1.00  0.00     0.057 C 
ATOM      2  C   UNL     1      49.454  18.875  20.032  1.00  0.00     0.016 C 
ENDROOT
BRANCH   1   3
ATOM      3  C   UNL     1      47.560  19.660  21.454  1.00  0.00     0.135 C 
ATOM      4  O   UNL     1      47.240  18.975  22.416  1.00  0.00    -0.299 OA
BRANCH   3   5
ATOM      5  C   UNL     1      46.508  20.310  20.587  1.00  0.00     0.072 C 
ATOM      6  C   UNL     1      45.239  20.682  21.355  1.00  0.00     0.012 C 
ENDBRANCH   3   5
ENDBRANCH   1   3
BRANCH   1   7
ATOM      7  C   UNL     1      49.280  21.323  20.721  1.00  0.00     0.038 C 
BRANCH   7   8
ATOM      8  C   UNL     1      49.886  21.436  19.346  1.00  0.00    -0.034 C 
ATOM      9  C   UNL     1      49.653  22.490  18.559  1.00  0.00     0.004 C 
ENDBRANCH   7   8
ENDBRANCH   1   7
TORSDOF 4
ENDMDL
MODEL 2
REMARK VINA RESULT:    -4.076      1.170      3.803
REMARK INTER + INTRA:          -5.320
REMARK INTER:                  -5.058
REMARK INTRA:                  -0.262
REMARK UNBOUND:                -0.290
REMARK SMILES C=CC[C@H](C)C(=O)CC
REMARK SMILES IDX 4 1 5 2 6 3 7 4 8 5 9 6 3 7 2 8 1 9
REMARK H PARENT
REMARK Flexibility Score: inf
ROOT
ATOM      1  C   UNL     1      47.438  19.388  21.118  1.00  0.00     0.057 C 
ATOM      2  C   UNL     1      47.113  19.158  22.600  1.00  0.00     0.016 C 
ENDROOT
BRANCH   1   3
ATOM      3  C   UNL     1      48.855  19.895  20.973  1.00  0.00     0.135 C 
ATOM      4  O   UNL     1      49.793  19.126  21.135  1.00  0.00    -0.299 OA
BRANCH   3   5
ATOM      5  C   UNL     1      49.098  21.346  20.631  1.00  0.00     0.072 C 
ATOM      6  C   UNL     1      49.855  21.536  19.316  1.00  0.00     0.012 C 
ENDBRANCH   3   5
ENDBRANCH   1   3
BRANCH   1   7
ATOM      7  C   UNL     1      46.453  20.378  20.462  1.00  0.00     0.038 C 
BRANCH   7   8
ATOM      8  C   UNL     1      45.283  20.698  21.355  1.00  0.00    -0.034 C 
ATOM      9  C   UNL     1      44.210  21.351  20.900  1.00  0.00     0.004 C 
ENDBRANCH   7   8
ENDBRANCH   1   7
TORSDOF 4
ENDMDL
MODEL 3
REMARK VINA RESULT:    -4.046      2.234      3.988
REMARK INTER + INTRA:          -5.282
REMARK INTER:                  -4.993
REMARK INTRA:                  -0.289
REMARK UNBOUND:                -0.290
REMARK SMILES C=CC[C@H](C)C(=O)CC
REMARK SMILES IDX 4 1 5 2 6 3 7 4 8 5 9 6 3 7 2 8 1 9
REMARK H PARENT
REMARK Flexibility Score: inf
ROOT
ATOM      1  C   UNL     1      48.984  20.087  19.726  1.00  0.00     0.057 C 
ATOM      2  C   UNL     1      49.981  19.056  20.273  1.00  0.00     0.016 C 
ENDROOT
BRANCH   1   3
ATOM      3  C   UNL     1      49.646  21.442  19.628  1.00  0.00     0.135 C 
ATOM      4  O   UNL     1      50.616  21.591  18.896  1.00  0.00    -0.299 OA
BRANCH   3   5
ATOM      5  C   UNL     1      49.104  22.599  20.433  1.00  0.00     0.072 C 
ATOM      6  C   UNL     1      50.195  23.414  21.129  1.00  0.00     0.012 C 
ENDBRANCH   3   5
ENDBRANCH   1   3
BRANCH   1   7
ATOM      7  C   UNL     1      47.718  20.180  20.603  1.00  0.00     0.038 C 
BRANCH   7   8
ATOM      8  C   UNL     1      47.755  19.225  21.767  1.00  0.00    -0.034 C 
ATOM      9  C   UNL     1      46.783  19.193  22.683  1.00  0.00     0.004 C 
ENDBRANCH   7   8
ENDBRANCH   1   7
TORSDOF 4
ENDMDL
MODEL 4
REMARK VINA RESULT:    -3.996      2.141      3.317
REMARK INTER + INTRA:          -5.221
REMARK INTER:                  -4.723
REMARK INTRA:                  -0.498
REMARK UNBOUND:                -0.290
REMARK SMILES C=CC[C@H](C)C(=O)CC
REMARK SMILES IDX 4 1 5 2 6 3 7 4 8 5 9 6 3 7 2 8 1 9
REMARK H PARENT
REMARK Flexibility Score: inf
ROOT
ATOM      1  C   UNL     1      49.229  22.532  19.672  1.00  0.00     0.057 C 
ATOM      2  C   UNL     1      50.070  22.937  20.890  1.00  0.00     0.016 C 
ENDROOT
BRANCH   1   3
ATOM      3  C   UNL     1      48.680  21.137  19.864  1.00  0.00     0.135 C 
ATOM      4  O   UNL     1      47.722  20.767  19.199  1.00  0.00    -0.299 OA
BRANCH   3   5
ATOM      5  C   UNL     1      49.319  20.215  20.875  1.00  0.00     0.072 C 
ATOM      6  C   UNL     1      49.775  18.885  20.275  1.00  0.00     0.012 C 
ENDBRANCH   3   5
ENDBRANCH   1   3
BRANCH   1   7
ATOM      7  C   UNL     1      50.045  22.603  18.363  1.00  0.00     0.038 C 
BRANCH   7   8
ATOM      8  C   UNL     1      51.502  22.288  18.578  1.00  0.00    -0.034 C 
ATOM      9  C   UNL     1      52.023  21.104  18.245  1.00  0.00     0.004 C 
ENDBRANCH   7   8
ENDBRANCH   1   7
TORSDOF 4
ENDMDL
MODEL 5
REMARK VINA RESULT:    -3.942      2.551      4.684
REMARK INTER + INTRA:          -5.154
REMARK INTER:                  -4.752
REMARK INTRA:                  -0.402
REMARK UNBOUND:                -0.290
REMARK SMILES C=CC[C@H](C)C(=O)CC
REMARK SMILES IDX 4 1 5 2 6 3 7 4 8 5 9 6 3 7 2 8 1 9
REMARK H PARENT
REMARK Flexibility Score: inf
ROOT
ATOM      1  C   UNL     1      50.016  22.079  20.363  1.00  0.00     0.057 C 
ATOM      2  C   UNL     1      49.950  23.464  21.022  1.00  0.00     0.016 C 
ENDROOT
BRANCH   1   3
ATOM      3  C   UNL     1      50.276  22.225  18.881  1.00  0.00     0.135 C 
ATOM      4  O   UNL     1      49.353  22.509  18.129  1.00  0.00    -0.299 OA
BRANCH   3   5
ATOM      5  C   UNL     1      51.673  22.018  18.344  1.00  0.00     0.072 C 
ATOM      6  C   UNL     1      52.109  20.552  18.345  1.00  0.00     0.012 C 
ENDBRANCH   3   5
ENDBRANCH   1   3
BRANCH   1   7
ATOM      7  C   UNL     1      48.721  21.272  20.595  1.00  0.00     0.038 C 
BRANCH   7   8
ATOM      8  C   UNL     1      48.998  19.840  20.972  1.00  0.00    -0.034 C 
ATOM      9  C   UNL     1      49.120  18.881  20.050  1.00  0.00     0.004 C 
ENDBRANCH   7   8
ENDBRANCH   1   7
TORSDOF 4
ENDMDL
MODEL 6
REMARK VINA RESULT:    -3.861      1.658      3.914
REMARK INTER + INTRA:          -5.054
REMARK INTER:                  -4.828
REMARK INTRA:                  -0.226
REMARK UNBOUND:                -0.290
REMARK SMILES C=CC[C@H](C)C(=O)CC
REMARK SMILES IDX 4 1 5 2 6 3 7 4 8 5 9 6 3 7 2 8 1 9
REMARK H PARENT
REMARK Flexibility Score: inf
ROOT
ATOM      1  C   UNL     1      48.840  20.053  19.932  1.00  0.00     0.057 C 
ATOM      2  C   UNL     1      49.843  19.058  20.531  1.00  0.00     0.016 C 
ENDROOT
BRANCH   1   3
ATOM      3  C   UNL     1      49.420  21.448  19.957  1.00  0.00     0.135 C 
ATOM      4  O   UNL     1      49.563  22.025  21.027  1.00  0.00    -0.299 OA
BRANCH   3   5
ATOM      5  C   UNL     1      49.816  22.117  18.662  1.00  0.00     0.072 C 
ATOM      6  C   UNL     1      51.330  22.202  18.466  1.00  0.00     0.012 C 
ENDBRANCH   3   5
ENDBRANCH   1   3
BRANCH   1   7
ATOM      7  C   UNL     1      47.490  20.028  20.680  1.00  0.00     0.038 C 
BRANCH   7   8
ATOM      8  C   UNL     1      46.398  20.728  19.915  1.00  0.00    -0.034 C 
ATOM      9  C   UNL     1      45.123  20.683  20.311  1.00  0.00     0.004 C 
ENDBRANCH   7   8
ENDBRANCH   1   7
TORSDOF 4
ENDMDL
MODEL 7
REMARK VINA RESULT:    -3.840      2.207      3.083
REMARK INTER + INTRA:          -5.028
REMARK INTER:                  -4.880
REMARK INTRA:                  -0.149
REMARK UNBOUND:                -0.290
REMARK SMILES C=CC[C@H](C)C(=O)CC
REMARK SMILES IDX 4 1 5 2 6 3 7 4 8 5 9 6 3 7 2 8 1 9
REMARK H PARENT
REMARK Flexibility Score: inf
ROOT
ATOM      1  C   UNL     1      49.784  21.899  20.002  1.00  0.00     0.057 C 
ATOM      2  C   UNL     1      50.061  22.268  18.538  1.00  0.00     0.016 C 
ENDROOT
BRANCH   1   3
ATOM      3  C   UNL     1      48.787  20.764  20.068  1.00  0.00     0.135 C 
ATOM      4  O   UNL     1      47.862  20.722  19.268  1.00  0.00    -0.299 OA
BRANCH   3   5
ATOM      5  C   UNL     1      48.944  19.692  21.121  1.00  0.00     0.072 C 
ATOM      6  C   UNL     1      47.613  19.246  21.729  1.00  0.00     0.012 C 
ENDBRANCH   3   5
ENDBRANCH   1   3
BRANCH   1   7
ATOM      7  C   UNL     1      49.263  23.106  20.809  1.00  0.00     0.038 C 
BRANCH   7   8
ATOM      8  C   UNL     1      50.378  23.991  21.302  1.00  0.00    -0.034 C 
ATOM      9  C   UNL     1      50.143  25.054  22.075  1.00  0.00     0.004 C 
ENDBRANCH   7   8
ENDBRANCH   1   7
TORSDOF 4
ENDMDL
MODEL 8
REMARK VINA RESULT:    -3.813      3.035      4.523
REMARK INTER + INTRA:          -4.996
REMARK INTER:                  -4.712
REMARK INTRA:                  -0.283
REMARK UNBOUND:                -0.290
REMARK SMILES C=CC[C@H](C)C(=O)CC
REMARK SMILES IDX 4 1 5 2 6 3 7 4 8 5 9 6 3 7 2 8 1 9
REMARK H PARENT
REMARK Flexibility Score: inf
ROOT
ATOM      1  C   UNL     1      49.739  22.422  18.776  1.00  0.00     0.057 C 
ATOM      2  C   UNL     1      51.154  21.888  18.512  1.00  0.00     0.016 C 
ENDROOT
BRANCH   1   3
ATOM      3  C   UNL     1      49.808  23.656  19.646  1.00  0.00     0.135 C 
ATOM      4  O   UNL     1      49.580  24.755  19.157  1.00  0.00    -0.299 OA
BRANCH   3   5
ATOM      5  C   UNL     1      50.155  23.521  21.110  1.00  0.00     0.072 C 
ATOM      6  C   UNL     1      50.062  24.841  21.876  1.00  0.00     0.012 C 
ENDBRANCH   3   5
ENDBRANCH   1   3
BRANCH   1   7
ATOM      7  C   UNL     1      48.840  21.358  19.439  1.00  0.00     0.038 C 
BRANCH   7   8
ATOM      8  C   UNL     1      49.611  20.131  19.852  1.00  0.00    -0.034 C 
ATOM      9  C   UNL     1      49.435  19.558  21.045  1.00  0.00     0.004 C 
ENDBRANCH   7   8
ENDBRANCH   1   7
TORSDOF 4
ENDMDL
MODEL 9
REMARK VINA RESULT:    -3.740      2.458      4.681
REMARK INTER + INTRA:          -4.905
REMARK INTER:                  -4.605
REMARK INTRA:                  -0.300
REMARK UNBOUND:                -0.290
REMARK SMILES C=CC[C@H](C)C(=O)CC
REMARK SMILES IDX 4 1 5 2 6 3 7 4 8 5 9 6 3 7 2 8 1 9
REMARK H PARENT
REMARK Flexibility Score: inf
ROOT
ATOM      1  C   UNL     1      49.874  22.132  20.343  1.00  0.00     0.057 C 
ATOM      2  C   UNL     1      50.157  23.443  21.088  1.00  0.00     0.016 C 
ENDROOT
BRANCH   1   3
ATOM      3  C   UNL     1      50.377  22.227  18.921  1.00  0.00     0.135 C 
ATOM      4  O   UNL     1      51.227  21.441  18.525  1.00  0.00    -0.299 OA
BRANCH   3   5
ATOM      5  C   UNL     1      49.825  23.293  18.003  1.00  0.00     0.072 C 
ATOM      6  C   UNL     1      50.913  24.108  17.303  1.00  0.00     0.012 C 
ENDBRANCH   3   5
ENDBRANCH   1   3
BRANCH   1   7
ATOM      7  C   UNL     1      48.371  21.782  20.349  1.00  0.00     0.038 C 
BRANCH   7   8
ATOM      8  C   UNL     1      48.112  20.376  20.825  1.00  0.00    -0.034 C 
ATOM      9  C   UNL     1      49.109  19.542  21.130  1.00  0.00     0.004 C 
ENDBRANCH   7   8
ENDBRANCH   1   7
TORSDOF 4
ENDMDL
