MODEL 1
REMARK VINA RESULT:    -3.732      0.000      0.000
REMARK INTER + INTRA:          -5.275
REMARK INTER:                  -4.823
REMARK INTRA:                  -0.451
REMARK UNBOUND:                -0.451
REMARK SMILES CCCCCCC(=O)[O-]
REMARK SMILES IDX 5 1 6 2 7 3 8 4 9 5 4 6 3 7 2 8 1 9
REMARK H PARENT
REMARK Flexibility Score: inf
ROOT
ATOM      1  C   UNL     1       1.188  -3.293  -5.748  1.00  0.00     0.006 C 
ENDROOT
BRANCH   1   2
ATOM      2  C   UNL     1       2.154  -4.459  -5.981  1.00  0.00     0.053 C 
BRANCH   2   3
ATOM      3  C   UNL     1       2.124  -4.884  -7.416  1.00  0.00     0.041 C 
ATOM      4  O   UNL     1       3.171  -5.308  -7.973  1.00  0.00    -0.550 OA
ATOM      5  O   UNL     1       0.930  -4.858  -8.123  1.00  0.00    -0.550 OA
ENDBRANCH   2   3
ENDBRANCH   1   2
BRANCH   1   6
ATOM      6  C   UNL     1       1.804  -1.968  -6.213  1.00  0.00     0.000 C 
BRANCH   6   7
ATOM      7  C   UNL     1       0.851  -1.217  -7.151  1.00  0.00    -0.000 C 
BRANCH   7   8
ATOM      8  C   UNL     1       1.393  -1.198  -8.586  1.00  0.00    -0.003 C 
ATOM      9  C   UNL     1       2.882  -1.526  -8.618  1.00  0.00     0.004 C 
ENDBRANCH   7   8
ENDBRANCH   6   7
ENDBRANCH   1   6
TORSDOF 5
ENDMDL
MODEL 2
REMARK VINA RESULT:    -3.731      2.377      3.643
REMARK INTER + INTRA:          -5.273
REMARK INTER:                  -4.907
REMARK INTRA:                  -0.365
REMARK UNBOUND:                -0.451
REMARK SMILES CCCCCCC(=O)[O-]
REMARK SMILES IDX 5 1 6 2 7 3 8 4 9 5 4 6 3 7 2 8 1 9
REMARK H PARENT
REMARK Flexibility Score: inf
ROOT
ATOM      1  C   UNL     1       2.730  -3.122  -6.435  1.00  0.00     0.006 C 
ENDROOT
BRANCH   1   2
ATOM      2  C   UNL     1       1.873  -1.938  -5.975  1.00  0.00     0.053 C 
BRANCH   2   3
ATOM      3  C   UNL     1       1.430  -1.125  -7.150  1.00  0.00     0.041 C 
ATOM      4  O   UNL     1       0.374  -0.441  -7.086  1.00  0.00    -0.550 OA
ATOM      5  O   UNL     1       2.208  -1.084  -8.300  1.00  0.00    -0.550 OA
ENDBRANCH   2   3
ENDBRANCH   1   2
BRANCH   1   6
ATOM      6  C   UNL     1       2.099  -4.454  -6.010  1.00  0.00     0.000 C 
BRANCH   6   7
ATOM      7  C   UNL     1       0.760  -4.680  -6.723  1.00  0.00    -0.000 C 
BRANCH   7   8
ATOM      8  C   UNL     1       0.975  -5.049  -8.196  1.00  0.00    -0.003 C 
ATOM      9  C   UNL     1       0.255  -4.073  -9.120  1.00  0.00     0.004 C 
ENDBRANCH   7   8
ENDBRANCH   6   7
ENDBRANCH   1   6
TORSDOF 5
ENDMDL
MODEL 3
REMARK VINA RESULT:    -3.661      1.937      3.455
REMARK INTER + INTRA:          -5.182
REMARK INTER:                  -4.744
REMARK INTRA:                  -0.438
REMARK UNBOUND:                -0.451
REMARK SMILES CCCCCCC(=O)[O-]
REMARK SMILES IDX 5 1 6 2 7 3 8 4 9 5 4 6 3 7 2 8 1 9
REMARK H PARENT
REMARK Flexibility Score: inf
ROOT
ATOM      1  C   UNL     1       1.659  -1.994  -6.070  1.00  0.00     0.006 C 
ENDROOT
BRANCH   1   2
ATOM      2  C   UNL     1       0.779  -1.238  -7.069  1.00  0.00     0.053 C 
BRANCH   2   3
ATOM      3  C   UNL     1       1.370  -1.304  -8.442  1.00  0.00     0.041 C 
ATOM      4  O   UNL     1       2.587  -1.032  -8.622  1.00  0.00    -0.550 OA
ATOM      5  O   UNL     1       0.590  -1.714  -9.515  1.00  0.00    -0.550 OA
ENDBRANCH   2   3
ENDBRANCH   1   2
BRANCH   1   6
ATOM      6  C   UNL     1       1.178  -3.440  -5.897  1.00  0.00     0.000 C 
BRANCH   6   7
ATOM      7  C   UNL     1       2.334  -4.430  -6.080  1.00  0.00    -0.000 C 
BRANCH   7   8
ATOM      8  C   UNL     1       2.571  -4.730  -7.566  1.00  0.00    -0.003 C 
ATOM      9  C   UNL     1       1.266  -5.078  -8.274  1.00  0.00     0.004 C 
ENDBRANCH   7   8
ENDBRANCH   6   7
ENDBRANCH   1   6
TORSDOF 5
ENDMDL
MODEL 4
REMARK VINA RESULT:    -3.571      1.475      2.378
REMARK INTER + INTRA:          -5.065
REMARK INTER:                  -4.826
REMARK INTRA:                  -0.240
REMARK UNBOUND:                -0.451
REMARK SMILES CCCCCCC(=O)[O-]
REMARK SMILES IDX 5 1 6 2 7 3 8 4 9 5 4 6 3 7 2 8 1 9
REMARK H PARENT
REMARK Flexibility Score: inf
ROOT
ATOM      1  C   UNL     1       1.723  -1.674  -6.052  1.00  0.00     0.006 C 
ENDROOT
BRANCH   1   2
ATOM      2  C   UNL     1       2.560  -2.810  -6.649  1.00  0.00     0.053 C 
BRANCH   2   3
ATOM      3  C   UNL     1       2.036  -4.138  -6.200  1.00  0.00     0.041 C 
ATOM      4  O   UNL     1       0.796  -4.322  -6.079  1.00  0.00    -0.550 OA
ATOM      5  O   UNL     1       2.914  -5.186  -5.962  1.00  0.00    -0.550 OA
ENDBRANCH   2   3
ENDBRANCH   1   2
BRANCH   1   6
ATOM      6  C   UNL     1       0.799  -1.059  -7.111  1.00  0.00     0.000 C 
BRANCH   6   7
ATOM      7  C   UNL     1       1.325  -1.330  -8.525  1.00  0.00    -0.000 C 
BRANCH   7   8
ATOM      8  C   UNL     1       0.231  -1.934  -9.413  1.00  0.00    -0.003 C 
ATOM      9  C   UNL     1      -1.078  -1.162  -9.279  1.00  0.00     0.004 C 
ENDBRANCH   7   8
ENDBRANCH   6   7
ENDBRANCH   1   6
TORSDOF 5
ENDMDL
MODEL 5
REMARK VINA RESULT:    -3.570      0.856      1.184
REMARK INTER + INTRA:          -5.064
REMARK INTER:                  -4.661
REMARK INTRA:                  -0.403
REMARK UNBOUND:                -0.451
REMARK SMILES CCCCCCC(=O)[O-]
REMARK SMILES IDX 5 1 6 2 7 3 8 4 9 5 4 6 3 7 2 8 1 9
REMARK H PARENT
REMARK Flexibility Score: inf
ROOT
ATOM      1  C   UNL     1       1.198  -3.396  -5.912  1.00  0.00     0.006 C 
ENDROOT
BRANCH   1   2
ATOM      2  C   UNL     1       2.267  -4.448  -6.223  1.00  0.00     0.053 C 
BRANCH   2   3
ATOM      3  C   UNL     1       2.294  -4.748  -7.689  1.00  0.00     0.041 C 
ATOM      4  O   UNL     1       3.165  -4.217  -8.429  1.00  0.00    -0.550 OA
ATOM      5  O   UNL     1       1.390  -5.653  -8.229  1.00  0.00    -0.550 OA
ENDBRANCH   2   3
ENDBRANCH   1   2
BRANCH   1   6
ATOM      6  C   UNL     1       1.717  -1.983  -6.203  1.00  0.00     0.000 C 
BRANCH   6   7
ATOM      7  C   UNL     1       0.694  -1.177  -7.012  1.00  0.00    -0.000 C 
BRANCH   7   8
ATOM      8  C   UNL     1       0.936  -1.334  -8.519  1.00  0.00    -0.003 C 
ATOM      9  C   UNL     1      -0.130  -2.217  -9.159  1.00  0.00     0.004 C 
ENDBRANCH   7   8
ENDBRANCH   6   7
ENDBRANCH   1   6
TORSDOF 5
ENDMDL
MODEL 6
REMARK VINA RESULT:    -3.300      2.310      4.105
REMARK INTER + INTRA:          -4.716
REMARK INTER:                  -4.262
REMARK INTRA:                  -0.454
REMARK UNBOUND:                -0.451
REMARK SMILES CCCCCCC(=O)[O-]
REMARK SMILES IDX 5 1 6 2 7 3 8 4 9 5 4 6 3 7 2 8 1 9
REMARK H PARENT
REMARK Flexibility Score: inf
ROOT
ATOM      1  C   UNL     1       0.588  -3.036  -9.345  1.00  0.00     0.006 C 
ENDROOT
BRANCH   1   2
ATOM      2  C   UNL     1       0.134  -1.697  -8.758  1.00  0.00     0.053 C 
BRANCH   2   3
ATOM      3  C   UNL     1       1.184  -1.142  -7.847  1.00  0.00     0.041 C 
ATOM      4  O   UNL     1       0.861  -0.651  -6.733  1.00  0.00    -0.550 OA
ATOM      5  O   UNL     1       2.523  -1.212  -8.207  1.00  0.00    -0.550 OA
ENDBRANCH   2   3
ENDBRANCH   1   2
BRANCH   1   6
ATOM      6  C   UNL     1       0.478  -4.157  -8.304  1.00  0.00     0.000 C 
BRANCH   6   7
ATOM      7  C   UNL     1       1.743  -5.024  -8.293  1.00  0.00    -0.000 C 
BRANCH   7   8
ATOM      8  C   UNL     1       2.682  -4.613  -7.153  1.00  0.00    -0.003 C 
ATOM      9  C   UNL     1       1.905  -4.352  -5.866  1.00  0.00     0.004 C 
ENDBRANCH   7   8
ENDBRANCH   6   7
ENDBRANCH   1   6
TORSDOF 5
ENDMDL
MODEL 7
REMARK VINA RESULT:    -3.262      1.465      2.405
REMARK INTER + INTRA:          -4.667
REMARK INTER:                  -4.603
REMARK INTRA:                  -0.064
REMARK UNBOUND:                -0.451
REMARK SMILES CCCCCCC(=O)[O-]
REMARK SMILES IDX 5 1 6 2 7 3 8 4 9 5 4 6 3 7 2 8 1 9
REMARK H PARENT
REMARK Flexibility Score: inf
ROOT
ATOM      1  C   UNL     1       0.661  -4.890  -7.550  1.00  0.00     0.006 C 
ENDROOT
BRANCH   1   2
ATOM      2  C   UNL     1       1.390  -5.396  -8.798  1.00  0.00     0.053 C 
BRANCH   2   3
ATOM      3  C   UNL     1       2.808  -4.919  -8.805  1.00  0.00     0.041 C 
ATOM      4  O   UNL     1       3.749  -5.723  -8.568  1.00  0.00    -0.550 OA
ATOM      5  O   UNL     1       3.095  -3.598  -9.122  1.00  0.00    -0.550 OA
ENDBRANCH   2   3
ENDBRANCH   1   2
BRANCH   1   6
ATOM      6  C   UNL     1       1.657  -4.526  -6.442  1.00  0.00     0.000 C 
BRANCH   6   7
ATOM      7  C   UNL     1       1.209  -3.266  -5.692  1.00  0.00    -0.000 C 
BRANCH   7   8
ATOM      8  C   UNL     1       1.843  -2.009  -6.299  1.00  0.00    -0.003 C 
ATOM      9  C   UNL     1       0.808  -1.175  -7.048  1.00  0.00     0.004 C 
ENDBRANCH   7   8
ENDBRANCH   6   7
ENDBRANCH   1   6
TORSDOF 5
ENDMDL
MODEL 8
REMARK VINA RESULT:    -3.163      1.775      3.247
REMARK INTER + INTRA:          -4.538
REMARK INTER:                  -4.068
REMARK INTRA:                  -0.470
REMARK UNBOUND:                -0.451
REMARK SMILES CCCCCCC(=O)[O-]
REMARK SMILES IDX 5 1 6 2 7 3 8 4 9 5 4 6 3 7 2 8 1 9
REMARK H PARENT
REMARK Flexibility Score: inf
ROOT
ATOM      1  C   UNL     1       0.753  -1.107  -6.847  1.00  0.00     0.006 C 
ENDROOT
BRANCH   1   2
ATOM      2  C   UNL     1       0.847  -0.760  -8.335  1.00  0.00     0.053 C 
BRANCH   2   3
ATOM      3  C   UNL     1       0.760  -2.000  -9.169  1.00  0.00     0.041 C 
ATOM      4  O   UNL     1       1.705  -2.313  -9.940  1.00  0.00    -0.550 OA
ATOM      5  O   UNL     1      -0.343  -2.836  -9.056  1.00  0.00    -0.550 OA
ENDBRANCH   2   3
ENDBRANCH   1   2
BRANCH   1   6
ATOM      6  C   UNL     1       1.913  -2.015  -6.420  1.00  0.00     0.000 C 
BRANCH   6   7
ATOM      7  C   UNL     1       1.404  -3.217  -5.617  1.00  0.00    -0.000 C 
BRANCH   7   8
ATOM      8  C   UNL     1       1.456  -4.501  -6.455  1.00  0.00    -0.003 C 
ATOM      9  C   UNL     1       2.707  -4.539  -7.327  1.00  0.00     0.004 C 
ENDBRANCH   7   8
ENDBRANCH   6   7
ENDBRANCH   1   6
TORSDOF 5
ENDMDL
MODEL 9
REMARK VINA RESULT:    -3.127     15.718     16.742
REMARK INTER + INTRA:          -4.492
REMARK INTER:                  -4.289
REMARK INTRA:                  -0.203
REMARK UNBOUND:                -0.451
REMARK SMILES CCCCCCC(=O)[O-]
REMARK SMILES IDX 5 1 6 2 7 3 8 4 9 5 4 6 3 7 2 8 1 9
REMARK H PARENT
REMARK Flexibility Score: inf
ROOT
ATOM      1  C   UNL     1       8.109   2.717   6.403  1.00  0.00     0.006 C 
ENDROOT
BRANCH   1   2
ATOM      2  C   UNL     1       8.653   2.294   5.035  1.00  0.00     0.053 C 
BRANCH   2   3
ATOM      3  C   UNL     1       8.845   3.490   4.156  1.00  0.00     0.041 C 
ATOM      4  O   UNL     1       9.251   3.348   2.972  1.00  0.00    -0.550 OA
ATOM      5  O   UNL     1       8.528   4.757   4.628  1.00  0.00    -0.550 OA
ENDBRANCH   2   3
ENDBRANCH   1   2
BRANCH   1   6
ATOM      6  C   UNL     1       9.214   2.690   7.466  1.00  0.00     0.000 C 
BRANCH   6   7
ATOM      7  C   UNL     1       8.724   2.015   8.752  1.00  0.00    -0.000 C 
BRANCH   7   8
ATOM      8  C   UNL     1       7.275   1.534   8.604  1.00  0.00    -0.003 C 
ATOM      9  C   UNL     1       6.819   0.770   9.843  1.00  0.00     0.004 C 
ENDBRANCH   7   8
ENDBRANCH   6   7
ENDBRANCH   1   6
TORSDOF 5
ENDMDL
