MODEL 1
REMARK VINA RESULT:    -4.728      0.000      0.000
REMARK INTER + INTRA:          -5.794
REMARK INTER:                  -6.663
REMARK INTRA:                   0.869
REMARK UNBOUND:                 0.869
REMARK SMILES CC1=CCC(=C(C)C)C(=O)CC(C)=CCC1
REMARK SMILES IDX 12 1 14 2 13 3 15 4 16 5 2 6 1 7 3 8 11 10 9 11 10 12 5 13
REMARK SMILES IDX 6 14 7 15 8 16 4 17
REMARK H PARENT
REMARK Flexibility Score: 60.00
ROOT
ATOM      1  C   UNL     1       3.488  28.705  32.609  1.00  0.00    -0.070 C 
ATOM      2  C   UNL     1       2.936  29.441  33.602  1.00  0.00    -0.027 C 
ATOM      3  C   UNL     1       4.147  27.402  32.994  1.00  0.00     0.039 C 
ENDROOT
BRANCH   2   4
ATOM      4  C   UNL     1       2.141  30.714  33.433  1.00  0.00     0.032 C 
BRANCH   4   5
ATOM      5  C   UNL     1       0.661  30.545  33.827  1.00  0.00     0.034 C 
BRANCH   5   6
ATOM      6  C   UNL     1       0.060  29.275  33.257  1.00  0.00    -0.077 C 
ATOM      7  C   UNL     1      -0.234  28.136  34.199  1.00  0.00     0.039 C 
ATOM      8  C   UNL     1      -0.207  29.094  31.943  1.00  0.00    -0.023 CG0
ATOM      9  G   UNL     1       0.048  30.099  30.846  1.00  0.00     0.000 G0
ENDBRANCH   5   6
ENDBRANCH   4   5
ENDBRANCH   2   4
BRANCH   1  10
ATOM     10  C   UNL     1       3.420  29.082  31.139  1.00  0.00     0.111 C 
BRANCH  10  11
ATOM     11  C   UNL     1       2.137  28.607  30.502  1.00  0.00     0.163 C 
ATOM     12  O   UNL     1       1.930  27.365  30.439  1.00  0.00    -0.294 OA
BRANCH  11  13
ATOM     13  C   UNL     1       1.147  29.560  29.908  1.00  0.00    -0.002 C 
ATOM     14  C   UNL     1       1.172  29.885  28.581  1.00  0.00    -0.069 C 
ATOM     15  C   UNL     1       0.191  30.878  27.995  1.00  0.00     0.039 C 
ATOM     16  C   UNL     1       2.154  29.247  27.625  1.00  0.00     0.039 C 
BRANCH  13  17
ATOM     17  C   UNL     1       0.064  30.092  30.829  1.00  0.00     0.066 CG0
ATOM     18  G   UNL     1      -0.210  29.093  31.927  1.00  0.00     0.000 G0
ENDBRANCH  13  17
ENDBRANCH  11  13
ENDBRANCH  10  11
ENDBRANCH   1  10
TORSDOF 0
ENDMDL
MODEL 2
REMARK VINA RESULT:    -4.661      1.548      2.965
REMARK INTER + INTRA:          -5.699
REMARK INTER:                  -6.587
REMARK INTRA:                   0.888
REMARK UNBOUND:                 0.869
REMARK SMILES CC1=CCC(=C(C)C)C(=O)CC(C)=CCC1
REMARK SMILES IDX 12 1 14 2 13 3 15 4 16 5 2 6 1 7 3 8 11 10 9 11 10 12 5 13
REMARK SMILES IDX 6 14 7 15 8 16 4 17
REMARK H PARENT
REMARK Flexibility Score: 60.00
ROOT
ATOM      1  C   UNL     1      -0.459  28.634  32.213  1.00  0.00    -0.070 C 
ATOM      2  C   UNL     1       0.222  28.801  33.371  1.00  0.00    -0.027 C 
ATOM      3  C   UNL     1      -1.161  27.313  32.004  1.00  0.00     0.039 C 
ENDROOT
BRANCH   2   4
ATOM      4  C   UNL     1       0.904  30.067  33.831  1.00  0.00     0.032 C 
BRANCH   4   5
ATOM      5  C   UNL     1       2.437  29.926  33.894  1.00  0.00     0.034 C 
BRANCH   5   6
ATOM      6  C   UNL     1       2.976  29.048  32.781  1.00  0.00    -0.077 C 
ATOM      7  C   UNL     1       3.589  27.721  33.148  1.00  0.00     0.039 C 
ATOM      8  C   UNL     1       2.961  29.398  31.474  1.00  0.00    -0.023 CG0
ATOM      9  G   UNL     1       2.425  30.695  30.916  1.00  0.00     0.000 G0
ENDBRANCH   5   6
ENDBRANCH   4   5
ENDBRANCH   2   4
BRANCH   1  10
ATOM     10  C   UNL     1      -0.609  29.716  31.157  1.00  0.00     0.111 C 
BRANCH  10  11
ATOM     11  C   UNL     1       0.346  29.506  30.008  1.00  0.00     0.163 C 
ATOM     12  O   UNL     1       0.178  28.495  29.274  1.00  0.00    -0.294 OA
BRANCH  11  13
ATOM     13  C   UNL     1       1.499  30.427  29.758  1.00  0.00    -0.002 C 
ATOM     14  C   UNL     1       1.668  31.056  28.557  1.00  0.00    -0.069 C 
ATOM     15  C   UNL     1       2.857  31.956  28.300  1.00  0.00     0.039 C 
ATOM     16  C   UNL     1       0.661  30.915  27.438  1.00  0.00     0.039 C 
BRANCH  13  17
ATOM     17  C   UNL     1       2.434  30.693  30.924  1.00  0.00     0.066 CG0
ATOM     18  G   UNL     1       2.962  29.386  31.466  1.00  0.00     0.000 G0
ENDBRANCH  13  17
ENDBRANCH  11  13
ENDBRANCH  10  11
ENDBRANCH   1  10
TORSDOF 0
ENDMDL
MODEL 3
REMARK VINA RESULT:    -4.454      2.308      3.955
REMARK INTER + INTRA:          -5.407
REMARK INTER:                  -5.973
REMARK INTRA:                   0.566
REMARK UNBOUND:                 0.869
REMARK SMILES CC1=CCC(=C(C)C)C(=O)CC(C)=CCC1
REMARK SMILES IDX 12 1 14 2 13 3 15 4 16 5 2 6 1 7 3 8 11 10 9 11 10 12 5 13
REMARK SMILES IDX 6 14 7 15 8 16 4 17
REMARK H PARENT
REMARK Flexibility Score: 60.00
ROOT
ATOM      1  C   UNL     1       0.925  29.790  32.853  1.00  0.00    -0.070 C 
ATOM      2  C   UNL     1       2.054  30.445  32.491  1.00  0.00    -0.027 C 
ATOM      3  C   UNL     1       0.841  29.285  34.273  1.00  0.00     0.039 C 
ENDROOT
BRANCH   2   4
ATOM      4  C   UNL     1       2.307  31.121  31.164  1.00  0.00     0.032 C 
BRANCH   4   5
ATOM      5  C   UNL     1       2.843  30.148  30.097  1.00  0.00     0.034 C 
BRANCH   5   6
ATOM      6  C   UNL     1       1.882  29.989  28.935  1.00  0.00    -0.077 C 
ATOM      7  C   UNL     1       1.766  31.117  27.941  1.00  0.00     0.039 C 
ATOM      8  C   UNL     1       1.100  28.901  28.750  1.00  0.00    -0.023 CG0
ATOM      9  G   UNL     1       1.047  27.691  29.651  1.00  0.00     0.000 G0
ENDBRANCH   5   6
ENDBRANCH   4   5
ENDBRANCH   2   4
BRANCH   1  10
ATOM     10  C   UNL     1      -0.272  29.599  31.937  1.00  0.00     0.111 C 
BRANCH  10  11
ATOM     11  C   UNL     1      -0.522  28.139  31.649  1.00  0.00     0.163 C 
ATOM     12  O   UNL     1      -0.841  27.390  32.611  1.00  0.00    -0.294 OA
BRANCH  11  13
ATOM     13  C   UNL     1      -0.352  27.563  30.278  1.00  0.00    -0.002 C 
ATOM     14  C   UNL     1      -1.402  27.017  29.593  1.00  0.00    -0.069 C 
ATOM     15  C   UNL     1      -1.213  26.401  28.224  1.00  0.00     0.039 C 
ATOM     16  C   UNL     1      -2.807  27.030  30.152  1.00  0.00     0.039 C 
BRANCH  13  17
ATOM     17  C   UNL     1       1.024  27.679  29.647  1.00  0.00     0.066 CG0
ATOM     18  G   UNL     1       1.080  28.900  28.762  1.00  0.00     0.000 G0
ENDBRANCH  13  17
ENDBRANCH  11  13
ENDBRANCH  10  11
ENDBRANCH   1  10
TORSDOF 0
ENDMDL
MODEL 4
REMARK VINA RESULT:    -4.408      1.607      4.310
REMARK INTER + INTRA:          -5.343
REMARK INTER:                  -5.889
REMARK INTRA:                   0.545
REMARK UNBOUND:                 0.869
REMARK SMILES CC1=CCC(=C(C)C)C(=O)CC(C)=CCC1
REMARK SMILES IDX 12 1 14 2 13 3 15 4 16 5 2 6 1 7 3 8 11 10 9 11 10 12 5 13
REMARK SMILES IDX 6 14 7 15 8 16 4 17
REMARK H PARENT
REMARK Flexibility Score: 60.00
ROOT
ATOM      1  C   UNL     1       2.369  30.616  29.068  1.00  0.00    -0.070 C 
ATOM      2  C   UNL     1       1.209  30.621  28.368  1.00  0.00    -0.027 C 
ATOM      3  C   UNL     1       3.654  30.536  28.281  1.00  0.00     0.039 C 
ENDROOT
BRANCH   2   4
ATOM      4  C   UNL     1      -0.177  30.798  28.940  1.00  0.00     0.032 C 
BRANCH   4   5
ATOM      5  C   UNL     1      -1.103  29.606  28.630  1.00  0.00     0.034 C 
BRANCH   5   6
ATOM      6  C   UNL     1      -0.508  28.288  29.086  1.00  0.00    -0.077 C 
ATOM      7  C   UNL     1      -0.329  27.193  28.066  1.00  0.00     0.039 C 
ATOM      8  C   UNL     1      -0.149  28.027  30.363  1.00  0.00    -0.023 CG0
ATOM      9  G   UNL     1      -0.283  28.979  31.528  1.00  0.00     0.000 G0
ENDBRANCH   5   6
ENDBRANCH   4   5
ENDBRANCH   2   4
BRANCH   1  10
ATOM     10  C   UNL     1       2.444  30.752  30.579  1.00  0.00     0.111 C 
BRANCH  10  11
ATOM     11  C   UNL     1       2.255  29.422  31.267  1.00  0.00     0.163 C 
ATOM     12  O   UNL     1       3.073  28.499  31.009  1.00  0.00    -0.294 OA
BRANCH  11  13
ATOM     13  C   UNL     1       1.106  29.165  32.190  1.00  0.00    -0.002 C 
ATOM     14  C   UNL     1       1.259  29.175  33.548  1.00  0.00    -0.069 C 
ATOM     15  C   UNL     1       0.100  28.876  34.474  1.00  0.00     0.039 C 
ATOM     16  C   UNL     1       2.583  29.519  34.194  1.00  0.00     0.039 C 
BRANCH  13  17
ATOM     17  C   UNL     1      -0.259  28.966  31.554  1.00  0.00     0.066 CG0
ATOM     18  G   UNL     1      -0.141  28.041  30.367  1.00  0.00     0.000 G0
ENDBRANCH  13  17
ENDBRANCH  11  13
ENDBRANCH  10  11
ENDBRANCH   1  10
TORSDOF 0
ENDMDL
MODEL 5
REMARK VINA RESULT:    -4.294      1.945      4.902
REMARK INTER + INTRA:          -5.182
REMARK INTER:                  -6.074
REMARK INTRA:                   0.893
REMARK UNBOUND:                 0.869
REMARK SMILES CC1=CCC(=C(C)C)C(=O)CC(C)=CCC1
REMARK SMILES IDX 12 1 14 2 13 3 15 4 16 5 2 6 1 7 3 8 11 10 9 11 10 12 5 13
REMARK SMILES IDX 6 14 7 15 8 16 4 17
REMARK H PARENT
REMARK Flexibility Score: 60.00
ROOT
ATOM      1  C   UNL     1      -0.260  28.610  31.575  1.00  0.00    -0.070 C 
ATOM      2  C   UNL     1      -0.592  27.749  30.584  1.00  0.00    -0.027 C 
ATOM      3  C   UNL     1      -0.336  28.100  32.994  1.00  0.00     0.039 C 
ENDROOT
BRANCH   2   4
ATOM      4  C   UNL     1      -0.488  28.012  29.101  1.00  0.00     0.032 C 
BRANCH   4   5
ATOM      5  C   UNL     1       0.705  27.285  28.452  1.00  0.00     0.034 C 
BRANCH   5   6
ATOM      6  C   UNL     1       1.888  28.210  28.238  1.00  0.00    -0.077 C 
ATOM      7  C   UNL     1       2.035  28.887  26.899  1.00  0.00     0.039 C 
ATOM      8  C   UNL     1       2.837  28.446  29.173  1.00  0.00    -0.023 CG0
ATOM      9  G   UNL     1       2.882  27.837  30.554  1.00  0.00     0.000 G0
ENDBRANCH   5   6
ENDBRANCH   4   5
ENDBRANCH   2   4
BRANCH   1  10
ATOM     10  C   UNL     1       0.241  30.024  31.333  1.00  0.00     0.111 C 
BRANCH  10  11
ATOM     11  C   UNL     1       1.742  30.063  31.188  1.00  0.00     0.163 C 
ATOM     12  O   UNL     1       2.261  31.081  30.654  1.00  0.00    -0.294 OA
BRANCH  11  13
ATOM     13  C   UNL     1       2.609  28.919  31.611  1.00  0.00    -0.002 C 
ATOM     14  C   UNL     1       3.072  28.803  32.892  1.00  0.00    -0.069 C 
ATOM     15  C   UNL     1       3.979  27.662  33.301  1.00  0.00     0.039 C 
ATOM     16  C   UNL     1       2.676  29.785  33.971  1.00  0.00     0.039 C 
BRANCH  13  17
ATOM     17  C   UNL     1       2.890  27.847  30.572  1.00  0.00     0.066 CG0
ATOM     18  G   UNL     1       2.841  28.449  29.189  1.00  0.00     0.000 G0
ENDBRANCH  13  17
ENDBRANCH  11  13
ENDBRANCH  10  11
ENDBRANCH   1  10
TORSDOF 0
ENDMDL
MODEL 6
REMARK VINA RESULT:    -4.271      1.736      2.280
REMARK INTER + INTRA:          -5.150
REMARK INTER:                  -5.435
REMARK INTRA:                   0.285
REMARK UNBOUND:                 0.869
REMARK SMILES CC1=CCC(=C(C)C)C(=O)CC(C)=CCC1
REMARK SMILES IDX 12 1 14 2 13 3 15 4 16 5 2 6 1 7 3 8 11 10 9 11 10 12 5 13
REMARK SMILES IDX 6 14 7 15 8 16 4 17
REMARK H PARENT
REMARK Flexibility Score: 60.00
ROOT
ATOM      1  C   UNL     1       4.251  26.962  30.793  1.00  0.00    -0.070 C 
ATOM      2  C   UNL     1       4.479  27.000  32.127  1.00  0.00    -0.027 C 
ATOM      3  C   UNL     1       5.341  26.391  29.918  1.00  0.00     0.039 C 
ENDROOT
BRANCH   2   4
ATOM      4  C   UNL     1       3.494  27.429  33.189  1.00  0.00     0.032 C 
BRANCH   4   5
ATOM      5  C   UNL     1       3.314  28.958  33.247  1.00  0.00     0.034 C 
BRANCH   5   6
ATOM      6  C   UNL     1       1.854  29.364  33.175  1.00  0.00    -0.077 C 
ATOM      7  C   UNL     1       0.921  28.872  34.252  1.00  0.00     0.039 C 
ATOM      8  C   UNL     1       1.333  30.123  32.185  1.00  0.00    -0.023 CG0
ATOM      9  G   UNL     1       2.096  30.678  31.006  1.00  0.00     0.000 G0
ENDBRANCH   5   6
ENDBRANCH   4   5
ENDBRANCH   2   4
BRANCH   1  10
ATOM     10  C   UNL     1       2.946  27.396  30.145  1.00  0.00     0.111 C 
BRANCH  10  11
ATOM     11  C   UNL     1       3.044  28.793  29.583  1.00  0.00     0.163 C 
ATOM     12  O   UNL     1       4.097  29.113  28.968  1.00  0.00    -0.294 OA
BRANCH  11  13
ATOM     13  C   UNL     1       1.960  29.805  29.783  1.00  0.00    -0.002 C 
ATOM     14  C   UNL     1       0.873  29.866  28.956  1.00  0.00    -0.069 C 
ATOM     15  C   UNL     1      -0.200  30.917  29.142  1.00  0.00     0.039 C 
ATOM     16  C   UNL     1       0.670  28.869  27.837  1.00  0.00     0.039 C 
BRANCH  13  17
ATOM     17  C   UNL     1       2.080  30.715  30.993  1.00  0.00     0.066 CG0
ATOM     18  G   UNL     1       1.349  30.106  32.166  1.00  0.00     0.000 G0
ENDBRANCH  13  17
ENDBRANCH  11  13
ENDBRANCH  10  11
ENDBRANCH   1  10
TORSDOF 0
ENDMDL
MODEL 7
REMARK VINA RESULT:    -4.210      1.862      3.500
REMARK INTER + INTRA:          -5.063
REMARK INTER:                  -5.802
REMARK INTRA:                   0.739
REMARK UNBOUND:                 0.869
REMARK SMILES CC1=CCC(=C(C)C)C(=O)CC(C)=CCC1
REMARK SMILES IDX 12 1 14 2 13 3 15 4 16 5 2 6 1 7 3 8 11 10 9 11 10 12 5 13
REMARK SMILES IDX 6 14 7 15 8 16 4 17
REMARK H PARENT
REMARK Flexibility Score: 60.00
ROOT
ATOM      1  C   UNL     1       1.549  29.604  33.062  1.00  0.00    -0.070 C 
ATOM      2  C   UNL     1       2.708  29.003  33.422  1.00  0.00    -0.027 C 
ATOM      3  C   UNL     1       1.431  31.089  33.308  1.00  0.00     0.039 C 
ENDROOT
BRANCH   2   4
ATOM      4  C   UNL     1       3.080  27.560  33.175  1.00  0.00     0.032 C 
BRANCH   4   5
ATOM      5  C   UNL     1       4.322  27.415  32.274  1.00  0.00     0.034 C 
BRANCH   5   6
ATOM      6  C   UNL     1       3.964  26.928  30.883  1.00  0.00    -0.077 C 
ATOM      7  C   UNL     1       4.261  25.493  30.529  1.00  0.00     0.039 C 
ATOM      8  C   UNL     1       3.415  27.715  29.930  1.00  0.00    -0.023 CG0
ATOM      9  G   UNL     1       3.079  29.179  30.082  1.00  0.00     0.000 G0
ENDBRANCH   5   6
ENDBRANCH   4   5
ENDBRANCH   2   4
BRANCH   1  10
ATOM     10  C   UNL     1       0.403  28.884  32.371  1.00  0.00     0.111 C 
BRANCH  10  11
ATOM     11  C   UNL     1       0.757  28.511  30.953  1.00  0.00     0.163 C 
ATOM     12  O   UNL     1       0.380  27.387  30.523  1.00  0.00    -0.294 OA
BRANCH  11  13
ATOM     13  C   UNL     1       1.575  29.408  30.078  1.00  0.00    -0.002 C 
ATOM     14  C   UNL     1       1.008  30.427  29.365  1.00  0.00    -0.069 C 
ATOM     15  C   UNL     1       1.837  31.306  28.453  1.00  0.00     0.039 C 
ATOM     16  C   UNL     1      -0.465  30.750  29.475  1.00  0.00     0.039 C 
BRANCH  13  17
ATOM     17  C   UNL     1       3.077  29.186  30.076  1.00  0.00     0.066 CG0
ATOM     18  G   UNL     1       3.377  27.713  29.944  1.00  0.00     0.000 G0
ENDBRANCH  13  17
ENDBRANCH  11  13
ENDBRANCH  10  11
ENDBRANCH   1  10
TORSDOF 0
ENDMDL
MODEL 8
REMARK VINA RESULT:    -3.892      2.238      3.728
REMARK INTER + INTRA:          -4.615
REMARK INTER:                  -5.165
REMARK INTRA:                   0.550
REMARK UNBOUND:                 0.869
REMARK SMILES CC1=CCC(=C(C)C)C(=O)CC(C)=CCC1
REMARK SMILES IDX 12 1 14 2 13 3 15 4 16 5 2 6 1 7 3 8 11 10 9 11 10 12 5 13
REMARK SMILES IDX 6 14 7 15 8 16 4 17
REMARK H PARENT
REMARK Flexibility Score: 60.00
ROOT
ATOM      1  C   UNL     1       0.223  28.907  32.798  1.00  0.00    -0.070 C 
ATOM      2  C   UNL     1      -0.697  27.940  32.566  1.00  0.00    -0.027 C 
ATOM      3  C   UNL     1       0.958  28.864  34.116  1.00  0.00     0.039 C 
ENDROOT
BRANCH   2   4
ATOM      4  C   UNL     1      -1.468  27.731  31.285  1.00  0.00     0.032 C 
BRANCH   4   5
ATOM      5  C   UNL     1      -0.705  26.859  30.269  1.00  0.00     0.034 C 
BRANCH   5   6
ATOM      6  C   UNL     1      -0.523  27.561  28.937  1.00  0.00    -0.077 C 
ATOM      7  C   UNL     1      -1.706  27.650  28.007  1.00  0.00     0.039 C 
ATOM      8  C   UNL     1       0.650  28.093  28.522  1.00  0.00    -0.023 CG0
ATOM      9  G   UNL     1       1.948  28.072  29.292  1.00  0.00     0.000 G0
ENDBRANCH   5   6
ENDBRANCH   4   5
ENDBRANCH   2   4
BRANCH   1  10
ATOM     10  C   UNL     1       0.595  29.979  31.788  1.00  0.00     0.111 C 
BRANCH  10  11
ATOM     11  C   UNL     1       1.990  29.772  31.249  1.00  0.00     0.163 C 
ATOM     12  O   UNL     1       2.958  29.879  32.050  1.00  0.00    -0.294 OA
BRANCH  11  13
ATOM     13  C   UNL     1       2.247  29.500  29.800  1.00  0.00    -0.002 C 
ATOM     14  C   UNL     1       2.784  30.449  28.975  1.00  0.00    -0.069 C 
ATOM     15  C   UNL     1       3.006  30.178  27.503  1.00  0.00     0.039 C 
ATOM     16  C   UNL     1       3.215  31.801  29.497  1.00  0.00     0.039 C 
BRANCH  13  17
ATOM     17  C   UNL     1       1.957  28.096  29.300  1.00  0.00     0.066 CG0
ATOM     18  G   UNL     1       0.654  28.083  28.538  1.00  0.00     0.000 G0
ENDBRANCH  13  17
ENDBRANCH  11  13
ENDBRANCH  10  11
ENDBRANCH   1  10
TORSDOF 0
ENDMDL
MODEL 9
REMARK VINA RESULT:    -3.869      2.327      3.731
REMARK INTER + INTRA:          -4.584
REMARK INTER:                  -5.184
REMARK INTRA:                   0.601
REMARK UNBOUND:                 0.869
REMARK SMILES CC1=CCC(=C(C)C)C(=O)CC(C)=CCC1
REMARK SMILES IDX 12 1 14 2 13 3 15 4 16 5 2 6 1 7 3 8 11 10 9 11 10 12 5 13
REMARK SMILES IDX 6 14 7 15 8 16 4 17
REMARK H PARENT
REMARK Flexibility Score: 60.00
ROOT
ATOM      1  C   UNL     1       1.519  29.420  32.847  1.00  0.00    -0.070 C 
ATOM      2  C   UNL     1       0.178  29.414  32.655  1.00  0.00    -0.027 C 
ATOM      3  C   UNL     1       2.071  30.398  33.856  1.00  0.00     0.039 C 
ENDROOT
BRANCH   2   4
ATOM      4  C   UNL     1      -0.594  28.456  31.780  1.00  0.00     0.032 C 
BRANCH   4   5
ATOM      5  C   UNL     1      -0.536  28.837  30.288  1.00  0.00     0.034 C 
BRANCH   5   6
ATOM      6  C   UNL     1      -0.358  27.625  29.395  1.00  0.00    -0.077 C 
ATOM      7  C   UNL     1      -1.433  26.568  29.400  1.00  0.00     0.039 C 
ATOM      8  C   UNL     1       0.724  27.422  28.610  1.00  0.00    -0.023 CG0
ATOM      9  G   UNL     1       1.915  28.343  28.495  1.00  0.00     0.000 G0
ENDBRANCH   5   6
ENDBRANCH   4   5
ENDBRANCH   2   4
BRANCH   1  10
ATOM     10  C   UNL     1       2.475  28.462  32.158  1.00  0.00     0.111 C 
BRANCH  10  11
ATOM     11  C   UNL     1       2.873  28.963  30.791  1.00  0.00     0.163 C 
ATOM     12  O   UNL     1       3.125  30.191  30.659  1.00  0.00    -0.294 OA
BRANCH  11  13
ATOM     13  C   UNL     1       2.923  28.058  29.599  1.00  0.00    -0.002 C 
ATOM     14  C   UNL     1       3.774  26.989  29.544  1.00  0.00    -0.069 C 
ATOM     15  C   UNL     1       3.845  26.102  28.320  1.00  0.00     0.039 C 
ATOM     16  C   UNL     1       4.660  26.619  30.712  1.00  0.00     0.039 C 
BRANCH  13  17
ATOM     17  C   UNL     1       1.932  28.333  28.483  1.00  0.00     0.066 CG0
ATOM     18  G   UNL     1       0.741  27.415  28.618  1.00  0.00     0.000 G0
ENDBRANCH  13  17
ENDBRANCH  11  13
ENDBRANCH  10  11
ENDBRANCH   1  10
TORSDOF 0
ENDMDL
