MODEL 1
REMARK VINA RESULT:    -6.443      0.000      0.000
REMARK INTER + INTRA:          -6.443
REMARK INTER:                  -6.443
REMARK INTRA:                   0.000
REMARK UNBOUND:                 0.000
REMARK SMILES CC1=CC(=O)[C@H]2C[C@@H]1C2(C)C
REMARK SMILES IDX 1 1 2 2 3 3 4 4 5 5 6 6 7 7 8 8 9 9 10 10 11 11
REMARK H PARENT
REMARK Flexibility Score: inf
ROOT
ATOM      1  C   UNL     1      -6.392  14.406 -28.506  1.00  0.00     0.040 C 
ATOM      2  C   UNL     1      -5.009  13.892 -28.747  1.00  0.00    -0.066 C 
ATOM      3  C   UNL     1      -4.479  13.846 -30.001  1.00  0.00     0.047 C 
ATOM      4  C   UNL     1      -3.095  13.281 -30.116  1.00  0.00     0.159 C 
ATOM      5  O   UNL     1      -2.512  13.149 -31.224  1.00  0.00    -0.295 OA
ATOM      6  C   UNL     1      -2.442  12.874 -28.794  1.00  0.00     0.067 C 
ATOM      7  C   UNL     1      -2.732  14.062 -27.849  1.00  0.00     0.021 C 
ATOM      8  C   UNL     1      -4.109  13.407 -27.591  1.00  0.00     0.022 C 
ATOM      9  C   UNL     1      -3.467  12.041 -27.972  1.00  0.00    -0.019 C 
ATOM     10  C   UNL     1      -2.813  11.337 -26.755  1.00  0.00     0.012 C 
ATOM     11  C   UNL     1      -4.345  11.000 -28.723  1.00  0.00     0.012 C 
ENDROOT
TORSDOF 0
ENDMDL
MODEL 2
REMARK VINA RESULT:    -5.855      1.547      2.716
REMARK INTER + INTRA:          -5.855
REMARK INTER:                  -5.855
REMARK INTRA:                   0.000
REMARK UNBOUND:                 0.000
REMARK SMILES CC1=CC(=O)[C@H]2C[C@@H]1C2(C)C
REMARK SMILES IDX 1 1 2 2 3 3 4 4 5 5 6 6 7 7 8 8 9 9 10 10 11 11
REMARK H PARENT
REMARK Flexibility Score: inf
ROOT
ATOM      1  C   UNL     1      -4.774   9.893 -29.487  1.00  0.00     0.040 C 
ATOM      2  C   UNL     1      -3.841  11.014 -29.156  1.00  0.00    -0.066 C 
ATOM      3  C   UNL     1      -2.520  10.956 -29.482  1.00  0.00     0.047 C 
ATOM      4  C   UNL     1      -1.683  12.128 -29.068  1.00  0.00     0.159 C 
ATOM      5  O   UNL     1      -0.442  12.176 -29.277  1.00  0.00    -0.295 OA
ATOM      6  C   UNL     1      -2.441  13.261 -28.374  1.00  0.00     0.067 C 
ATOM      7  C   UNL     1      -3.701  13.461 -29.244  1.00  0.00     0.021 C 
ATOM      8  C   UNL     1      -4.330  12.295 -28.447  1.00  0.00     0.022 C 
ATOM      9  C   UNL     1      -3.360  12.644 -27.281  1.00  0.00    -0.019 C 
ATOM     10  C   UNL     1      -3.945  13.717 -26.328  1.00  0.00     0.012 C 
ATOM     11  C   UNL     1      -2.800  11.479 -26.417  1.00  0.00     0.012 C 
ENDROOT
TORSDOF 0
ENDMDL
MODEL 3
REMARK VINA RESULT:    -5.818      1.545      3.252
REMARK INTER + INTRA:          -5.818
REMARK INTER:                  -5.818
REMARK INTRA:                   0.000
REMARK UNBOUND:                 0.000
REMARK SMILES CC1=CC(=O)[C@H]2C[C@@H]1C2(C)C
REMARK SMILES IDX 1 1 2 2 3 3 4 4 5 5 6 6 7 7 8 8 9 9 10 10 11 11
REMARK H PARENT
REMARK Flexibility Score: inf
ROOT
ATOM      1  C   UNL     1      -0.502  14.377 -28.377  1.00  0.00     0.040 C 
ATOM      2  C   UNL     1      -1.656  13.426 -28.379  1.00  0.00    -0.066 C 
ATOM      3  C   UNL     1      -1.528  12.158 -28.861  1.00  0.00     0.047 C 
ATOM      4  C   UNL     1      -2.766  11.312 -28.838  1.00  0.00     0.159 C 
ATOM      5  O   UNL     1      -2.786  10.138 -29.292  1.00  0.00    -0.295 OA
ATOM      6  C   UNL     1      -4.001  11.976 -28.227  1.00  0.00     0.067 C 
ATOM      7  C   UNL     1      -3.474  12.636 -26.934  1.00  0.00     0.021 C 
ATOM      8  C   UNL     1      -3.039  13.825 -27.822  1.00  0.00     0.022 C 
ATOM      9  C   UNL     1      -4.146  13.402 -28.831  1.00  0.00    -0.019 C 
ATOM     10  C   UNL     1      -5.518  14.044 -28.503  1.00  0.00     0.012 C 
ATOM     11  C   UNL     1      -3.869  13.593 -30.349  1.00  0.00     0.012 C 
ENDROOT
TORSDOF 0
ENDMDL
MODEL 4
REMARK VINA RESULT:    -5.776      1.837      3.308
REMARK INTER + INTRA:          -5.776
REMARK INTER:                  -5.776
REMARK INTRA:                   0.000
REMARK UNBOUND:                 0.000
REMARK SMILES CC1=CC(=O)[C@H]2C[C@@H]1C2(C)C
REMARK SMILES IDX 1 1 2 2 3 3 4 4 5 5 6 6 7 7 8 8 9 9 10 10 11 11
REMARK H PARENT
REMARK Flexibility Score: inf
ROOT
ATOM      1  C   UNL     1      -0.565  13.435 -29.553  1.00  0.00     0.040 C 
ATOM      2  C   UNL     1      -1.974  13.336 -29.062  1.00  0.00    -0.066 C 
ATOM      3  C   UNL     1      -2.422  14.109 -28.033  1.00  0.00     0.047 C 
ATOM      4  C   UNL     1      -3.844  13.894 -27.613  1.00  0.00     0.159 C 
ATOM      5  O   UNL     1      -4.363  14.517 -26.650  1.00  0.00    -0.295 OA
ATOM      6  C   UNL     1      -4.621  12.864 -28.435  1.00  0.00     0.067 C 
ATOM      7  C   UNL     1      -4.276  13.212 -29.900  1.00  0.00     0.021 C 
ATOM      8  C   UNL     1      -2.993  12.372 -29.705  1.00  0.00     0.022 C 
ATOM      9  C   UNL     1      -3.742  11.589 -28.588  1.00  0.00    -0.019 C 
ATOM     10  C   UNL     1      -4.543  10.386 -29.147  1.00  0.00     0.012 C 
ATOM     11  C   UNL     1      -2.927  11.102 -27.358  1.00  0.00     0.012 C 
ENDROOT
TORSDOF 0
ENDMDL
MODEL 5
REMARK VINA RESULT:    -5.738      1.511      2.536
REMARK INTER + INTRA:          -5.738
REMARK INTER:                  -5.738
REMARK INTRA:                   0.000
REMARK UNBOUND:                 0.000
REMARK SMILES CC1=CC(=O)[C@H]2C[C@@H]1C2(C)C
REMARK SMILES IDX 1 1 2 2 3 3 4 4 5 5 6 6 7 7 8 8 9 9 10 10 11 11
REMARK H PARENT
REMARK Flexibility Score: inf
ROOT
ATOM      1  C   UNL     1      -5.675  14.343 -28.196  1.00  0.00     0.040 C 
ATOM      2  C   UNL     1      -4.478  13.491 -28.473  1.00  0.00    -0.066 C 
ATOM      3  C   UNL     1      -3.215  13.943 -28.233  1.00  0.00     0.047 C 
ATOM      4  C   UNL     1      -2.098  13.006 -28.582  1.00  0.00     0.159 C 
ATOM      5  O   UNL     1      -0.887  13.322 -28.444  1.00  0.00    -0.295 OA
ATOM      6  C   UNL     1      -2.532  11.641 -29.118  1.00  0.00     0.067 C 
ATOM      7  C   UNL     1      -3.660  11.200 -28.159  1.00  0.00     0.021 C 
ATOM      8  C   UNL     1      -4.612  12.056 -29.025  1.00  0.00     0.022 C 
ATOM      9  C   UNL     1      -3.620  11.860 -30.208  1.00  0.00    -0.019 C 
ATOM     10  C   UNL     1      -3.913  10.570 -31.016  1.00  0.00     0.012 C 
ATOM     11  C   UNL     1      -3.433  13.032 -31.212  1.00  0.00     0.012 C 
ENDROOT
TORSDOF 0
ENDMDL
MODEL 6
REMARK VINA RESULT:    -5.686      1.803      3.181
REMARK INTER + INTRA:          -5.686
REMARK INTER:                  -5.686
REMARK INTRA:                   0.000
REMARK UNBOUND:                 0.000
REMARK SMILES CC1=CC(=O)[C@H]2C[C@@H]1C2(C)C
REMARK SMILES IDX 1 1 2 2 3 3 4 4 5 5 6 6 7 7 8 8 9 9 10 10 11 11
REMARK H PARENT
REMARK Flexibility Score: inf
ROOT
ATOM      1  C   UNL     1      -5.483  14.084 -28.581  1.00  0.00     0.040 C 
ATOM      2  C   UNL     1      -4.497  13.079 -29.085  1.00  0.00    -0.066 C 
ATOM      3  C   UNL     1      -4.238  11.933 -28.395  1.00  0.00     0.047 C 
ATOM      4  C   UNL     1      -3.207  11.021 -28.988  1.00  0.00     0.159 C 
ATOM      5  O   UNL     1      -2.850   9.953 -28.426  1.00  0.00    -0.295 OA
ATOM      6  C   UNL     1      -2.617  11.481 -30.323  1.00  0.00     0.067 C 
ATOM      7  C   UNL     1      -3.846  11.922 -31.147  1.00  0.00     0.021 C 
ATOM      8  C   UNL     1      -3.741  13.280 -30.415  1.00  0.00     0.022 C 
ATOM      9  C   UNL     1      -2.228  12.983 -30.201  1.00  0.00    -0.019 C 
ATOM     10  C   UNL     1      -1.359  13.464 -31.391  1.00  0.00     0.012 C 
ATOM     11  C   UNL     1      -1.563  13.469 -28.883  1.00  0.00     0.012 C 
ENDROOT
TORSDOF 0
ENDMDL
MODEL 7
REMARK VINA RESULT:    -5.665      1.499      3.074
REMARK INTER + INTRA:          -5.665
REMARK INTER:                  -5.665
REMARK INTRA:                   0.000
REMARK UNBOUND:                 0.000
REMARK SMILES CC1=CC(=O)[C@H]2C[C@@H]1C2(C)C
REMARK SMILES IDX 1 1 2 2 3 3 4 4 5 5 6 6 7 7 8 8 9 9 10 10 11 11
REMARK H PARENT
REMARK Flexibility Score: inf
ROOT
ATOM      1  C   UNL     1      -1.244  12.593 -31.334  1.00  0.00     0.040 C 
ATOM      2  C   UNL     1      -2.481  12.728 -30.505  1.00  0.00    -0.066 C 
ATOM      3  C   UNL     1      -3.432  13.658 -30.799  1.00  0.00     0.047 C 
ATOM      4  C   UNL     1      -4.610  13.717 -29.875  1.00  0.00     0.159 C 
ATOM      5  O   UNL     1      -5.536  14.558 -30.017  1.00  0.00    -0.295 OA
ATOM      6  C   UNL     1      -4.608  12.685 -28.745  1.00  0.00     0.067 C 
ATOM      7  C   UNL     1      -4.219  11.362 -29.443  1.00  0.00     0.021 C 
ATOM      8  C   UNL     1      -2.749  11.816 -29.290  1.00  0.00     0.022 C 
ATOM      9  C   UNL     1      -3.202  12.683 -28.080  1.00  0.00    -0.019 C 
ATOM     10  C   UNL     1      -3.182  11.892 -26.747  1.00  0.00     0.012 C 
ATOM     11  C   UNL     1      -2.494  14.047 -27.847  1.00  0.00     0.012 C 
ENDROOT
TORSDOF 0
ENDMDL
MODEL 8
REMARK VINA RESULT:    -5.533      1.907      3.378
REMARK INTER + INTRA:          -5.533
REMARK INTER:                  -5.533
REMARK INTRA:                   0.000
REMARK UNBOUND:                 0.000
REMARK SMILES CC1=CC(=O)[C@H]2C[C@@H]1C2(C)C
REMARK SMILES IDX 1 1 2 2 3 3 4 4 5 5 6 6 7 7 8 8 9 9 10 10 11 11
REMARK H PARENT
REMARK Flexibility Score: inf
ROOT
ATOM      1  C   UNL     1      -4.622   9.875 -29.829  1.00  0.00     0.040 C 
ATOM      2  C   UNL     1      -3.980  11.186 -29.501  1.00  0.00    -0.066 C 
ATOM      3  C   UNL     1      -4.625  12.122 -28.750  1.00  0.00     0.047 C 
ATOM      4  C   UNL     1      -3.889  13.407 -28.517  1.00  0.00     0.159 C 
ATOM      5  O   UNL     1      -4.392  14.364 -27.873  1.00  0.00    -0.295 OA
ATOM      6  C   UNL     1      -2.484  13.474 -29.119  1.00  0.00     0.067 C 
ATOM      7  C   UNL     1      -1.845  12.120 -28.739  1.00  0.00     0.021 C 
ATOM      8  C   UNL     1      -2.556  11.535 -29.981  1.00  0.00     0.022 C 
ATOM      9  C   UNL     1      -2.551  12.968 -30.589  1.00  0.00    -0.019 C 
ATOM     10  C   UNL     1      -1.249  13.270 -31.375  1.00  0.00     0.012 C 
ATOM     11  C   UNL     1      -3.760  13.399 -31.464  1.00  0.00     0.012 C 
ENDROOT
TORSDOF 0
ENDMDL
MODEL 9
REMARK VINA RESULT:    -5.479      1.995      3.084
REMARK INTER + INTRA:          -5.479
REMARK INTER:                  -5.479
REMARK INTRA:                   0.000
REMARK UNBOUND:                 0.000
REMARK SMILES CC1=CC(=O)[C@H]2C[C@@H]1C2(C)C
REMARK SMILES IDX 1 1 2 2 3 3 4 4 5 5 6 6 7 7 8 8 9 9 10 10 11 11
REMARK H PARENT
REMARK Flexibility Score: inf
ROOT
ATOM      1  C   UNL     1      -5.270  14.382 -29.871  1.00  0.00     0.040 C 
ATOM      2  C   UNL     1      -4.474  13.288 -29.234  1.00  0.00    -0.066 C 
ATOM      3  C   UNL     1      -4.252  13.265 -27.890  1.00  0.00     0.047 C 
ATOM      4  C   UNL     1      -3.412  12.134 -27.376  1.00  0.00     0.159 C 
ATOM      5  O   UNL     1      -3.103  12.024 -26.161  1.00  0.00    -0.295 OA
ATOM      6  C   UNL     1      -2.957  11.125 -28.432  1.00  0.00     0.067 C 
ATOM      7  C   UNL     1      -4.229  10.848 -29.263  1.00  0.00     0.021 C 
ATOM      8  C   UNL     1      -3.882  12.126 -30.059  1.00  0.00     0.022 C 
ATOM      9  C   UNL     1      -2.395  11.907 -29.653  1.00  0.00    -0.019 C 
ATOM     10  C   UNL     1      -1.643  10.986 -30.647  1.00  0.00     0.012 C 
ATOM     11  C   UNL     1      -1.514  13.160 -29.387  1.00  0.00     0.012 C 
ENDROOT
TORSDOF 0
ENDMDL
