MODEL 1
REMARK VINA RESULT:    -3.343      0.000      0.000
REMARK INTER + INTRA:          -4.233
REMARK INTER:                  -4.027
REMARK INTRA:                  -0.207
REMARK UNBOUND:                -0.207
REMARK SMILES OCC(O)CO
REMARK SMILES IDX 3 1 5 2 6 3 2 5 1 6 4 8
REMARK H PARENT 6 4 1 7 4 9
REMARK Flexibility Score: inf
ROOT
ATOM      1  C   UNL     1       9.082 -23.473  56.117  1.00  0.00     0.165 C 
ENDROOT
BRANCH   1   2
ATOM      2  C   UNL     1       8.847 -24.943  56.501  1.00  0.00     0.190 C 
BRANCH   2   3
ATOM      3  O   UNL     1      10.063 -25.637  56.570  1.00  0.00    -0.394 OA
ATOM      4  H   UNL     1      10.076 -26.082  57.456  1.00  0.00     0.210 HD
ENDBRANCH   2   3
ENDBRANCH   1   2
BRANCH   1   5
ATOM      5  C   UNL     1       9.214 -22.571  57.350  1.00  0.00     0.190 C 
BRANCH   5   6
ATOM      6  O   UNL     1      10.240 -23.026  58.188  1.00  0.00    -0.394 OA
ATOM      7  H   UNL     1       9.818 -23.201  59.070  1.00  0.00     0.210 HD
ENDBRANCH   5   6
ENDBRANCH   1   5
BRANCH   1   8
ATOM      8  O   UNL     1       8.039 -23.007  55.300  1.00  0.00    -0.388 OA
ATOM      9  H   UNL     1       8.170 -23.417  54.405  1.00  0.00     0.211 HD
ENDBRANCH   1   8
TORSDOF 5
ENDMDL
MODEL 2
REMARK VINA RESULT:    -3.222     13.904     14.948
REMARK INTER + INTRA:          -4.088
REMARK INTER:                  -3.881
REMARK INTRA:                  -0.207
REMARK UNBOUND:                -0.207
REMARK SMILES OCC(O)CO
REMARK SMILES IDX 3 1 5 2 6 3 2 5 1 6 4 8
REMARK H PARENT 6 4 1 7 4 9
REMARK Flexibility Score: inf
ROOT
ATOM      1  C   UNL     1       1.647 -31.004  47.042  1.00  0.00     0.165 C 
ENDROOT
BRANCH   1   2
ATOM      2  C   UNL     1       1.413 -32.458  47.487  1.00  0.00     0.190 C 
BRANCH   2   3
ATOM      3  O   UNL     1       1.003 -33.245  46.403  1.00  0.00    -0.394 OA
ATOM      4  H   UNL     1       1.578 -34.055  46.417  1.00  0.00     0.210 HD
ENDBRANCH   2   3
ENDBRANCH   1   2
BRANCH   1   5
ATOM      5  C   UNL     1       1.568 -30.849  45.518  1.00  0.00     0.190 C 
BRANCH   5   6
ATOM      6  O   UNL     1       2.781 -31.216  44.921  1.00  0.00    -0.394 OA
ATOM      7  H   UNL     1       2.731 -30.905  43.980  1.00  0.00     0.210 HD
ENDBRANCH   5   6
ENDBRANCH   1   5
BRANCH   1   8
ATOM      8  O   UNL     1       2.894 -30.547  47.499  1.00  0.00    -0.388 OA
ATOM      9  H   UNL     1       3.194 -29.848  46.861  1.00  0.00     0.211 HD
ENDBRANCH   1   8
TORSDOF 5
ENDMDL
MODEL 3
REMARK VINA RESULT:    -3.192      0.841      2.368
REMARK INTER + INTRA:          -4.052
REMARK INTER:                  -3.833
REMARK INTRA:                  -0.219
REMARK UNBOUND:                -0.207
REMARK SMILES OCC(O)CO
REMARK SMILES IDX 3 1 5 2 6 3 2 5 1 6 4 8
REMARK H PARENT 6 4 1 7 4 9
REMARK Flexibility Score: inf
ROOT
ATOM      1  C   UNL     1       8.798 -23.386  56.104  1.00  0.00     0.165 C 
ENDROOT
BRANCH   1   2
ATOM      2  C   UNL     1       9.631 -22.390  56.927  1.00  0.00     0.190 C 
BRANCH   2   3
ATOM      3  O   UNL     1      10.314 -23.051  57.957  1.00  0.00    -0.394 OA
ATOM      4  H   UNL     1       9.616 -23.403  58.569  1.00  0.00     0.210 HD
ENDBRANCH   2   3
ENDBRANCH   1   2
BRANCH   1   5
ATOM      5  C   UNL     1       8.433 -24.638  56.912  1.00  0.00     0.190 C 
BRANCH   5   6
ATOM      6  O   UNL     1       9.393 -25.641  56.728  1.00  0.00    -0.394 OA
ATOM      7  H   UNL     1       9.269 -26.283  57.476  1.00  0.00     0.210 HD
ENDBRANCH   5   6
ENDBRANCH   1   5
BRANCH   1   8
ATOM      8  O   UNL     1       9.491 -23.761  54.941  1.00  0.00    -0.388 OA
ATOM      9  H   UNL     1       9.992 -24.590  55.161  1.00  0.00     0.211 HD
ENDBRANCH   1   8
TORSDOF 5
ENDMDL
MODEL 4
REMARK VINA RESULT:    -3.186      1.305      2.806
REMARK INTER + INTRA:          -4.044
REMARK INTER:                  -4.042
REMARK INTRA:                  -0.002
REMARK UNBOUND:                -0.207
REMARK SMILES OCC(O)CO
REMARK SMILES IDX 3 1 5 2 6 3 2 5 1 6 4 8
REMARK H PARENT 6 4 1 7 4 9
REMARK Flexibility Score: inf
ROOT
ATOM      1  C   UNL     1       9.067 -23.345  56.190  1.00  0.00     0.165 C 
ENDROOT
BRANCH   1   2
ATOM      2  C   UNL     1       9.183 -22.449  57.434  1.00  0.00     0.190 C 
BRANCH   2   3
ATOM      3  O   UNL     1      10.218 -22.894  58.268  1.00  0.00    -0.394 OA
ATOM      4  H   UNL     1      10.905 -23.286  57.669  1.00  0.00     0.210 HD
ENDBRANCH   2   3
ENDBRANCH   1   2
BRANCH   1   5
ATOM      5  C   UNL     1       8.901 -22.525  54.904  1.00  0.00     0.190 C 
BRANCH   5   6
ATOM      6  O   UNL     1       7.553 -22.468  54.525  1.00  0.00    -0.394 OA
ATOM      7  H   UNL     1       7.300 -21.509  54.551  1.00  0.00     0.210 HD
ENDBRANCH   5   6
ENDBRANCH   1   5
BRANCH   1   8
ATOM      8  O   UNL     1       7.988 -24.234  56.325  1.00  0.00    -0.388 OA
ATOM      9  H   UNL     1       7.724 -24.220  57.283  1.00  0.00     0.211 HD
ENDBRANCH   1   8
TORSDOF 5
ENDMDL
MODEL 5
REMARK VINA RESULT:    -3.181      0.915      2.363
REMARK INTER + INTRA:          -4.038
REMARK INTER:                  -4.036
REMARK INTRA:                  -0.002
REMARK UNBOUND:                -0.207
REMARK SMILES OCC(O)CO
REMARK SMILES IDX 3 1 5 2 6 3 2 5 1 6 4 8
REMARK H PARENT 6 4 1 7 4 9
REMARK Flexibility Score: inf
ROOT
ATOM      1  C   UNL     1       8.855 -23.406  56.441  1.00  0.00     0.165 C 
ENDROOT
BRANCH   1   2
ATOM      2  C   UNL     1       8.917 -22.711  55.072  1.00  0.00     0.190 C 
BRANCH   2   3
ATOM      3  O   UNL     1       7.629 -22.521  54.555  1.00  0.00    -0.394 OA
ATOM      4  H   UNL     1       7.668 -21.688  54.016  1.00  0.00     0.210 HD
ENDBRANCH   2   3
ENDBRANCH   1   2
BRANCH   1   5
ATOM      5  C   UNL     1       9.168 -22.441  57.592  1.00  0.00     0.190 C 
BRANCH   5   6
ATOM      6  O   UNL     1      10.287 -22.879  58.312  1.00  0.00    -0.394 OA
ATOM      7  H   UNL     1       9.968 -23.613  58.899  1.00  0.00     0.210 HD
ENDBRANCH   5   6
ENDBRANCH   1   5
BRANCH   1   8
ATOM      8  O   UNL     1       9.745 -24.492  56.481  1.00  0.00    -0.388 OA
ATOM      9  H   UNL     1       9.904 -24.698  57.439  1.00  0.00     0.211 HD
ENDBRANCH   1   8
TORSDOF 5
ENDMDL
MODEL 6
REMARK VINA RESULT:    -3.122     13.951     14.949
REMARK INTER + INTRA:          -3.968
REMARK INTER:                  -3.784
REMARK INTRA:                  -0.183
REMARK UNBOUND:                -0.207
REMARK SMILES OCC(O)CO
REMARK SMILES IDX 3 1 5 2 6 3 2 5 1 6 4 8
REMARK H PARENT 6 4 1 7 4 9
REMARK Flexibility Score: inf
ROOT
ATOM      1  C   UNL     1       0.958 -31.726  46.617  1.00  0.00     0.165 C 
ENDROOT
BRANCH   1   2
ATOM      2  C   UNL     1       1.378 -30.919  45.378  1.00  0.00     0.190 C 
BRANCH   2   3
ATOM      3  O   UNL     1       2.638 -31.330  44.925  1.00  0.00    -0.394 OA
ATOM      4  H   UNL     1       3.201 -30.513  44.895  1.00  0.00     0.210 HD
ENDBRANCH   2   3
ENDBRANCH   1   2
BRANCH   1   5
ATOM      5  C   UNL     1       1.800 -31.369  47.849  1.00  0.00     0.190 C 
BRANCH   5   6
ATOM      6  O   UNL     1       2.850 -30.511  47.498  1.00  0.00    -0.394 OA
ATOM      7  H   UNL     1       2.494 -29.589  47.588  1.00  0.00     0.210 HD
ENDBRANCH   5   6
ENDBRANCH   1   5
BRANCH   1   8
ATOM      8  O   UNL     1       1.056 -33.104  46.361  1.00  0.00    -0.388 OA
ATOM      9  H   UNL     1       0.749 -33.244  45.428  1.00  0.00     0.211 HD
ENDBRANCH   1   8
TORSDOF 5
ENDMDL
MODEL 7
REMARK VINA RESULT:    -3.096      1.854      2.977
REMARK INTER + INTRA:          -3.936
REMARK INTER:                  -3.712
REMARK INTRA:                  -0.224
REMARK UNBOUND:                -0.207
REMARK SMILES OCC(O)CO
REMARK SMILES IDX 3 1 5 2 6 3 2 5 1 6 4 8
REMARK H PARENT 6 4 1 7 4 9
REMARK Flexibility Score: inf
ROOT
ATOM      1  C   UNL     1       9.613 -26.112  55.697  1.00  0.00     0.165 C 
ENDROOT
BRANCH   1   2
ATOM      2  C   UNL     1      10.073 -25.772  54.269  1.00  0.00     0.190 C 
BRANCH   2   3
ATOM      3  O   UNL     1       9.787 -24.435  53.964  1.00  0.00    -0.394 OA
ATOM      4  H   UNL     1       9.698 -24.391  52.976  1.00  0.00     0.210 HD
ENDBRANCH   2   3
ENDBRANCH   1   2
BRANCH   1   5
ATOM      5  C   UNL     1       8.879 -24.939  56.359  1.00  0.00     0.190 C 
BRANCH   5   6
ATOM      6  O   UNL     1       9.794 -24.009  56.869  1.00  0.00    -0.394 OA
ATOM      7  H   UNL     1       9.278 -23.421  57.480  1.00  0.00     0.210 HD
ENDBRANCH   5   6
ENDBRANCH   1   5
BRANCH   1   8
ATOM      8  O   UNL     1      10.710 -26.489  56.488  1.00  0.00    -0.388 OA
ATOM      9  H   UNL     1      11.190 -27.203  55.992  1.00  0.00     0.211 HD
ENDBRANCH   1   8
TORSDOF 5
ENDMDL
MODEL 8
REMARK VINA RESULT:    -3.084     13.947     15.009
REMARK INTER + INTRA:          -3.921
REMARK INTER:                  -3.736
REMARK INTRA:                  -0.185
REMARK UNBOUND:                -0.207
REMARK SMILES OCC(O)CO
REMARK SMILES IDX 3 1 5 2 6 3 2 5 1 6 4 8
REMARK H PARENT 6 4 1 7 4 9
REMARK Flexibility Score: inf
ROOT
ATOM      1  C   UNL     1       1.309 -31.085  45.856  1.00  0.00     0.165 C 
ENDROOT
BRANCH   1   2
ATOM      2  C   UNL     1       1.636 -30.215  47.081  1.00  0.00     0.190 C 
BRANCH   2   3
ATOM      3  O   UNL     1       2.934 -30.476  47.539  1.00  0.00    -0.394 OA
ATOM      4  H   UNL     1       3.350 -31.073  46.863  1.00  0.00     0.210 HD
ENDBRANCH   2   3
ENDBRANCH   1   2
BRANCH   1   5
ATOM      5  C   UNL     1       0.574 -32.374  46.245  1.00  0.00     0.190 C 
BRANCH   5   6
ATOM      6  O   UNL     1       1.380 -33.175  47.065  1.00  0.00    -0.394 OA
ATOM      7  H   UNL     1       1.398 -34.073  46.642  1.00  0.00     0.210 HD
ENDBRANCH   5   6
ENDBRANCH   1   5
BRANCH   1   8
ATOM      8  O   UNL     1       2.483 -31.405  45.155  1.00  0.00    -0.388 OA
ATOM      9  H   UNL     1       3.240 -31.034  45.680  1.00  0.00     0.211 HD
ENDBRANCH   1   8
TORSDOF 5
ENDMDL
MODEL 9
REMARK VINA RESULT:    -3.021      0.955      2.370
REMARK INTER + INTRA:          -3.846
REMARK INTER:                  -3.628
REMARK INTRA:                  -0.218
REMARK UNBOUND:                -0.207
REMARK SMILES OCC(O)CO
REMARK SMILES IDX 3 1 5 2 6 3 2 5 1 6 4 8
REMARK H PARENT 6 4 1 7 4 9
REMARK Flexibility Score: inf
ROOT
ATOM      1  C   UNL     1       8.882 -23.407  56.752  1.00  0.00     0.165 C 
ENDROOT
BRANCH   1   2
ATOM      2  C   UNL     1       8.851 -24.889  56.342  1.00  0.00     0.190 C 
BRANCH   2   3
ATOM      3  O   UNL     1       9.546 -25.083  55.141  1.00  0.00    -0.394 OA
ATOM      4  H   UNL     1       9.119 -24.483  54.475  1.00  0.00     0.210 HD
ENDBRANCH   2   3
ENDBRANCH   1   2
BRANCH   1   5
ATOM      5  C   UNL     1       8.849 -22.473  55.536  1.00  0.00     0.190 C 
BRANCH   5   6
ATOM      6  O   UNL     1       7.711 -22.718  54.755  1.00  0.00    -0.394 OA
ATOM      7  H   UNL     1       7.480 -21.854  54.325  1.00  0.00     0.210 HD
ENDBRANCH   5   6
ENDBRANCH   1   5
BRANCH   1   8
ATOM      8  O   UNL     1      10.025 -23.136  57.523  1.00  0.00    -0.388 OA
ATOM      9  H   UNL     1       9.745 -23.182  58.475  1.00  0.00     0.211 HD
ENDBRANCH   1   8
TORSDOF 5
ENDMDL
