MODEL 1
REMARK VINA RESULT:    -3.111      0.000      0.000
REMARK INTER + INTRA:          -4.412
REMARK INTER:                  -4.021
REMARK INTRA:                  -0.391
REMARK UNBOUND:                -0.391
REMARK SMILES CCCCCCC(=O)[O-]
REMARK SMILES IDX 5 1 6 2 7 3 8 4 9 5 4 6 3 7 2 8 1 9
REMARK H PARENT
REMARK Flexibility Score: inf
ROOT
ATOM      1  C   UNL     1      21.311  33.245  24.159  1.00  0.00     0.006 C 
ENDROOT
BRANCH   1   2
ATOM      2  C   UNL     1      20.952  31.792  24.497  1.00  0.00     0.053 C 
BRANCH   2   3
ATOM      3  C   UNL     1      20.161  31.698  25.767  1.00  0.00     0.041 C 
ATOM      4  O   UNL     1      20.621  32.171  26.838  1.00  0.00    -0.550 OA
ATOM      5  O   UNL     1      18.928  31.057  25.771  1.00  0.00    -0.550 OA
ENDBRANCH   2   3
ENDBRANCH   1   2
BRANCH   1   6
ATOM      6  C   UNL     1      20.067  34.108  23.901  1.00  0.00     0.000 C 
BRANCH   6   7
ATOM      7  C   UNL     1      20.030  35.315  24.849  1.00  0.00    -0.000 C 
BRANCH   7   8
ATOM      8  C   UNL     1      18.862  35.248  25.846  1.00  0.00    -0.003 C 
ATOM      9  C   UNL     1      19.316  35.387  27.299  1.00  0.00     0.004 C 
ENDBRANCH   7   8
ENDBRANCH   6   7
ENDBRANCH   1   6
TORSDOF 5
ENDMDL
MODEL 2
REMARK VINA RESULT:    -3.074     10.108     11.235
REMARK INTER + INTRA:          -4.364
REMARK INTER:                  -4.176
REMARK INTRA:                  -0.188
REMARK UNBOUND:                -0.391
REMARK SMILES CCCCCCC(=O)[O-]
REMARK SMILES IDX 5 1 6 2 7 3 8 4 9 5 4 6 3 7 2 8 1 9
REMARK H PARENT
REMARK Flexibility Score: inf
ROOT
ATOM      1  C   UNL     1      12.610  29.957  32.893  1.00  0.00     0.006 C 
ENDROOT
BRANCH   1   2
ATOM      2  C   UNL     1      12.628  30.616  34.279  1.00  0.00     0.053 C 
BRANCH   2   3
ATOM      3  C   UNL     1      12.176  29.669  35.349  1.00  0.00     0.041 C 
ATOM      4  O   UNL     1      12.996  28.882  35.888  1.00  0.00    -0.550 OA
ATOM      5  O   UNL     1      10.839  29.635  35.727  1.00  0.00    -0.550 OA
ENDBRANCH   2   3
ENDBRANCH   1   2
BRANCH   1   6
ATOM      6  C   UNL     1      13.337  30.801  31.837  1.00  0.00     0.000 C 
BRANCH   6   7
ATOM      7  C   UNL     1      13.738  32.169  32.409  1.00  0.00    -0.000 C 
BRANCH   7   8
ATOM      8  C   UNL     1      13.946  33.228  31.316  1.00  0.00    -0.003 C 
ATOM      9  C   UNL     1      13.694  32.685  29.910  1.00  0.00     0.004 C 
ENDBRANCH   7   8
ENDBRANCH   6   7
ENDBRANCH   1   6
TORSDOF 5
ENDMDL
MODEL 3
REMARK VINA RESULT:    -3.007      6.341      7.788
REMARK INTER + INTRA:          -4.278
REMARK INTER:                  -4.080
REMARK INTRA:                  -0.197
REMARK UNBOUND:                -0.391
REMARK SMILES CCCCCCC(=O)[O-]
REMARK SMILES IDX 5 1 6 2 7 3 8 4 9 5 4 6 3 7 2 8 1 9
REMARK H PARENT
REMARK Flexibility Score: inf
ROOT
ATOM      1  C   UNL     1      14.287  38.764  26.621  1.00  0.00     0.006 C 
ENDROOT
BRANCH   1   2
ATOM      2  C   UNL     1      14.444  37.684  25.542  1.00  0.00     0.053 C 
BRANCH   2   3
ATOM      3  C   UNL     1      14.826  36.361  26.132  1.00  0.00     0.041 C 
ATOM      4  O   UNL     1      15.183  36.283  27.337  1.00  0.00    -0.550 OA
ATOM      5  O   UNL     1      14.818  35.219  25.342  1.00  0.00    -0.550 OA
ENDBRANCH   2   3
ENDBRANCH   1   2
BRANCH   1   6
ATOM      6  C   UNL     1      15.457  39.759  26.623  1.00  0.00     0.000 C 
BRANCH   6   7
ATOM      7  C   UNL     1      15.120  40.999  27.464  1.00  0.00    -0.000 C 
BRANCH   7   8
ATOM      8  C   UNL     1      13.808  40.843  28.248  1.00  0.00    -0.003 C 
ATOM      9  C   UNL     1      14.018  40.848  29.762  1.00  0.00     0.004 C 
ENDBRANCH   7   8
ENDBRANCH   6   7
ENDBRANCH   1   6
TORSDOF 5
ENDMDL
MODEL 4
REMARK VINA RESULT:    -2.982      9.731     11.710
REMARK INTER + INTRA:          -4.245
REMARK INTER:                  -3.897
REMARK INTRA:                  -0.348
REMARK UNBOUND:                -0.391
REMARK SMILES CCCCCCC(=O)[O-]
REMARK SMILES IDX 5 1 6 2 7 3 8 4 9 5 4 6 3 7 2 8 1 9
REMARK H PARENT
REMARK Flexibility Score: inf
ROOT
ATOM      1  C   UNL     1      21.719  37.427  35.805  1.00  0.00     0.006 C 
ENDROOT
BRANCH   1   2
ATOM      2  C   UNL     1      21.131  37.052  34.438  1.00  0.00     0.053 C 
BRANCH   2   3
ATOM      3  C   UNL     1      19.633  37.069  34.455  1.00  0.00     0.041 C 
ATOM      4  O   UNL     1      19.016  37.712  35.344  1.00  0.00    -0.550 OA
ATOM      5  O   UNL     1      18.919  36.348  33.506  1.00  0.00    -0.550 OA
ENDBRANCH   2   3
ENDBRANCH   1   2
BRANCH   1   6
ATOM      6  C   UNL     1      22.078  36.192  36.644  1.00  0.00     0.000 C 
BRANCH   6   7
ATOM      7  C   UNL     1      21.486  36.298  38.057  1.00  0.00    -0.000 C 
BRANCH   7   8
ATOM      8  C   UNL     1      20.876  37.679  38.340  1.00  0.00    -0.003 C 
ATOM      9  C   UNL     1      19.501  37.594  39.004  1.00  0.00     0.004 C 
ENDBRANCH   7   8
ENDBRANCH   6   7
ENDBRANCH   1   6
TORSDOF 5
ENDMDL
MODEL 5
REMARK VINA RESULT:    -2.980     10.556     11.612
REMARK INTER + INTRA:          -4.242
REMARK INTER:                  -3.990
REMARK INTRA:                  -0.252
REMARK UNBOUND:                -0.391
REMARK SMILES CCCCCCC(=O)[O-]
REMARK SMILES IDX 5 1 6 2 7 3 8 4 9 5 4 6 3 7 2 8 1 9
REMARK H PARENT
REMARK Flexibility Score: inf
ROOT
ATOM      1  C   UNL     1      21.542  37.425  35.556  1.00  0.00     0.006 C 
ENDROOT
BRANCH   1   2
ATOM      2  C   UNL     1      22.060  36.234  36.372  1.00  0.00     0.053 C 
BRANCH   2   3
ATOM      3  C   UNL     1      21.715  36.365  37.825  1.00  0.00     0.041 C 
ATOM      4  O   UNL     1      20.569  36.752  38.172  1.00  0.00    -0.550 OA
ATOM      5  O   UNL     1      22.671  36.088  38.794  1.00  0.00    -0.550 OA
ENDBRANCH   2   3
ENDBRANCH   1   2
BRANCH   1   6
ATOM      6  C   UNL     1      20.979  36.996  34.193  1.00  0.00     0.000 C 
BRANCH   6   7
ATOM      7  C   UNL     1      19.447  37.100  34.174  1.00  0.00    -0.000 C 
BRANCH   7   8
ATOM      8  C   UNL     1      18.906  38.045  35.259  1.00  0.00    -0.003 C 
ATOM      9  C   UNL     1      17.384  38.179  35.221  1.00  0.00     0.004 C 
ENDBRANCH   7   8
ENDBRANCH   6   7
ENDBRANCH   1   6
TORSDOF 5
ENDMDL
MODEL 6
REMARK VINA RESULT:    -2.950     12.046     13.813
REMARK INTER + INTRA:          -4.203
REMARK INTER:                  -3.992
REMARK INTRA:                  -0.212
REMARK UNBOUND:                -0.391
REMARK SMILES CCCCCCC(=O)[O-]
REMARK SMILES IDX 5 1 6 2 7 3 8 4 9 5 4 6 3 7 2 8 1 9
REMARK H PARENT
REMARK Flexibility Score: inf
ROOT
ATOM      1  C   UNL     1      18.927  38.426  37.964  1.00  0.00     0.006 C 
ENDROOT
BRANCH   1   2
ATOM      2  C   UNL     1      19.253  37.901  39.369  1.00  0.00     0.053 C 
BRANCH   2   3
ATOM      3  C   UNL     1      20.360  38.681  40.010  1.00  0.00     0.041 C 
ATOM      4  O   UNL     1      20.150  39.846  40.437  1.00  0.00    -0.550 OA
ATOM      5  O   UNL     1      21.632  38.131  40.107  1.00  0.00    -0.550 OA
ENDBRANCH   2   3
ENDBRANCH   1   2
BRANCH   1   6
ATOM      6  C   UNL     1      19.872  37.857  36.896  1.00  0.00     0.000 C 
BRANCH   6   7
ATOM      7  C   UNL     1      19.196  37.843  35.517  1.00  0.00    -0.000 C 
BRANCH   7   8
ATOM      8  C   UNL     1      17.813  38.512  35.530  1.00  0.00    -0.003 C 
ATOM      9  C   UNL     1      16.837  37.872  34.544  1.00  0.00     0.004 C 
ENDBRANCH   7   8
ENDBRANCH   6   7
ENDBRANCH   1   6
TORSDOF 5
ENDMDL
MODEL 7
REMARK VINA RESULT:    -2.942      9.192     11.378
REMARK INTER + INTRA:          -4.193
REMARK INTER:                  -3.991
REMARK INTRA:                  -0.203
REMARK UNBOUND:                -0.391
REMARK SMILES CCCCCCC(=O)[O-]
REMARK SMILES IDX 5 1 6 2 7 3 8 4 9 5 4 6 3 7 2 8 1 9
REMARK H PARENT
REMARK Flexibility Score: inf
ROOT
ATOM      1  C   UNL     1      18.692  38.069  35.185  1.00  0.00     0.006 C 
ENDROOT
BRANCH   1   2
ATOM      2  C   UNL     1      19.830  37.202  34.630  1.00  0.00     0.053 C 
BRANCH   2   3
ATOM      3  C   UNL     1      19.497  36.651  33.277  1.00  0.00     0.041 C 
ATOM      4  O   UNL     1      18.398  36.070  33.081  1.00  0.00    -0.550 OA
ATOM      5  O   UNL     1      20.417  36.751  32.240  1.00  0.00    -0.550 OA
ENDBRANCH   2   3
ENDBRANCH   1   2
BRANCH   1   6
ATOM      6  C   UNL     1      18.893  38.414  36.668  1.00  0.00     0.000 C 
BRANCH   6   7
ATOM      7  C   UNL     1      20.198  37.806  37.201  1.00  0.00    -0.000 C 
BRANCH   7   8
ATOM      8  C   UNL     1      20.085  37.355  38.665  1.00  0.00    -0.003 C 
ATOM      9  C   UNL     1      18.806  37.848  39.339  1.00  0.00     0.004 C 
ENDBRANCH   7   8
ENDBRANCH   6   7
ENDBRANCH   1   6
TORSDOF 5
ENDMDL
MODEL 8
REMARK VINA RESULT:    -2.928     10.796     12.851
REMARK INTER + INTRA:          -4.175
REMARK INTER:                  -3.786
REMARK INTRA:                  -0.389
REMARK UNBOUND:                -0.391
REMARK SMILES CCCCCCC(=O)[O-]
REMARK SMILES IDX 5 1 6 2 7 3 8 4 9 5 4 6 3 7 2 8 1 9
REMARK H PARENT
REMARK Flexibility Score: inf
ROOT
ATOM      1  C   UNL     1      21.381  36.386  38.138  1.00  0.00     0.006 C 
ENDROOT
BRANCH   1   2
ATOM      2  C   UNL     1      20.932  37.830  38.400  1.00  0.00     0.053 C 
BRANCH   2   3
ATOM      3  C   UNL     1      19.439  37.958  38.381  1.00  0.00     0.041 C 
ATOM      4  O   UNL     1      18.847  38.322  37.332  1.00  0.00    -0.550 OA
ATOM      5  O   UNL     1      18.705  37.705  39.533  1.00  0.00    -0.550 OA
ENDBRANCH   2   3
ENDBRANCH   1   2
BRANCH   1   6
ATOM      6  C   UNL     1      22.062  36.227  36.771  1.00  0.00     0.000 C 
BRANCH   6   7
ATOM      7  C   UNL     1      22.488  37.591  36.208  1.00  0.00    -0.000 C 
BRANCH   7   8
ATOM      8  C   UNL     1      21.866  37.885  34.835  1.00  0.00    -0.003 C 
ATOM      9  C   UNL     1      20.671  36.985  34.522  1.00  0.00     0.004 C 
ENDBRANCH   7   8
ENDBRANCH   6   7
ENDBRANCH   1   6
TORSDOF 5
ENDMDL
MODEL 9
REMARK VINA RESULT:    -2.851     11.484     12.981
REMARK INTER + INTRA:          -4.076
REMARK INTER:                  -3.703
REMARK INTRA:                  -0.373
REMARK UNBOUND:                -0.391
REMARK SMILES CCCCCCC(=O)[O-]
REMARK SMILES IDX 5 1 6 2 7 3 8 4 9 5 4 6 3 7 2 8 1 9
REMARK H PARENT
REMARK Flexibility Score: inf
ROOT
ATOM      1  C   UNL     1      19.006  38.140  36.453  1.00  0.00     0.006 C 
ENDROOT
BRANCH   1   2
ATOM      2  C   UNL     1      19.334  38.967  37.704  1.00  0.00     0.053 C 
BRANCH   2   3
ATOM      3  C   UNL     1      19.566  38.094  38.900  1.00  0.00     0.041 C 
ATOM      4  O   UNL     1      18.595  37.705  39.599  1.00  0.00    -0.550 OA
ATOM      5  O   UNL     1      20.860  37.739  39.260  1.00  0.00    -0.550 OA
ENDBRANCH   2   3
ENDBRANCH   1   2
BRANCH   1   6
ATOM      6  C   UNL     1      20.022  38.365  35.324  1.00  0.00     0.000 C 
BRANCH   6   7
ATOM      7  C   UNL     1      20.726  37.052  34.950  1.00  0.00    -0.000 C 
BRANCH   7   8
ATOM      8  C   UNL     1      21.852  36.686  35.929  1.00  0.00    -0.003 C 
ATOM      9  C   UNL     1      22.714  37.886  36.315  1.00  0.00     0.004 C 
ENDBRANCH   7   8
ENDBRANCH   6   7
ENDBRANCH   1   6
TORSDOF 5
ENDMDL
