MODEL 1
REMARK VINA RESULT:    -7.067      0.000      0.000
REMARK INTER + INTRA:         -12.385
REMARK INTER:                 -10.992
REMARK INTRA:                  -1.393
REMARK UNBOUND:                -1.393
REMARK SMILES C[C@@]12C[C@@H](O)[C@H]3C[C@]1(O[C@H]1O[C@@H](CO)[C@@H](O)[C@@H](O)[C@@H]1O)[C@@]3(COC(=O)c1ccccc1)C(=O)O2
REMARK SMILES IDX 1 1 2 2 3 3 4 4 6 5 7 6 8 7 21 8 32 9 33 10 34 11 9 12 10 13
REMARK SMILES IDX 19 14 11 15 17 16 12 17 15 18 20 19 18 21 13 23 14 24 16 26
REMARK SMILES IDX 5 28 22 30 23 31 24 32 25 33 26 34 27 35 31 36 28 37 30 38
REMARK SMILES IDX 29 39
REMARK H PARENT 20 20 18 22 14 25 16 27 5 29
REMARK Flexibility Score: inf
ROOT
ATOM      1  C   UNL     1      59.036  31.553  28.992  1.00  0.00     0.060 C 
ATOM      2  C   UNL     1      60.231  31.636  28.049  1.00  0.00     0.142 C 
ATOM      3  C   UNL     1      61.418  32.432  28.707  1.00  0.00     0.083 C 
ATOM      4  C   UNL     1      62.738  32.244  27.875  1.00  0.00     0.123 C 
ATOM      5  C   UNL     1      62.725  30.867  27.130  1.00  0.00     0.045 C 
ATOM      6  C   UNL     1      62.102  29.827  28.086  1.00  0.00     0.049 C 
ATOM      7  C   UNL     1      60.742  30.232  27.477  1.00  0.00     0.131 C 
ATOM      8  C   UNL     1      61.464  30.740  26.206  1.00  0.00     0.140 C 
ATOM      9  C   UNL     1      60.684  31.969  25.852  1.00  0.00     0.319 C 
ATOM     10  O   UNL     1      60.763  32.598  24.764  1.00  0.00    -0.251 OA
ATOM     11  O   UNL     1      59.880  32.371  26.890  1.00  0.00    -0.456 OA
ENDROOT
BRANCH   7  12
ATOM     12  O   UNL     1      59.678  29.282  27.300  1.00  0.00    -0.338 OA
BRANCH  12  13
ATOM     13  C   UNL     1      59.753  28.106  28.098  1.00  0.00     0.282 C 
ATOM     14  C   UNL     1      60.406  26.950  27.310  1.00  0.00     0.202 C 
ATOM     15  O   UNL     1      58.497  27.771  28.674  1.00  0.00    -0.341 OA
ATOM     16  C   UNL     1      59.462  26.389  26.251  1.00  0.00     0.179 C 
ATOM     17  C   UNL     1      57.551  27.161  27.802  1.00  0.00     0.178 C 
ATOM     18  C   UNL     1      58.117  26.029  26.898  1.00  0.00     0.177 C 
BRANCH  14  19
ATOM     19  O   UNL     1      60.775  25.918  28.192  1.00  0.00    -0.385 OA
ATOM     20  H   UNL     1      61.695  26.121  28.508  1.00  0.00     0.211 HD
ENDBRANCH  14  19
BRANCH  16  21
ATOM     21  O   UNL     1      59.291  27.305  25.201  1.00  0.00    -0.387 OA
ATOM     22  H   UNL     1      58.519  26.988  24.662  1.00  0.00     0.211 HD
ENDBRANCH  16  21
BRANCH  17  23
ATOM     23  C   UNL     1      56.637  28.196  27.115  1.00  0.00     0.191 C 
BRANCH  23  24
ATOM     24  O   UNL     1      57.217  28.726  25.958  1.00  0.00    -0.394 OA
ATOM     25  H   UNL     1      58.093  28.278  25.828  1.00  0.00     0.210 HD
ENDBRANCH  23  24
ENDBRANCH  17  23
BRANCH  18  26
ATOM     26  O   UNL     1      57.176  25.660  25.922  1.00  0.00    -0.387 OA
ATOM     27  H   UNL     1      56.303  26.036  26.207  1.00  0.00     0.211 HD
ENDBRANCH  18  26
ENDBRANCH  12  13
ENDBRANCH   7  12
BRANCH   4  28
ATOM     28  O   UNL     1      63.875  32.375  28.689  1.00  0.00    -0.393 OA
ATOM     29  H   UNL     1      64.665  32.469  28.098  1.00  0.00     0.210 HD
ENDBRANCH   4  28
BRANCH   8  30
ATOM     30  C   UNL     1      61.663  29.780  25.014  1.00  0.00     0.255 C 
BRANCH  30  31
ATOM     31  O   UNL     1      60.465  29.716  24.246  1.00  0.00    -0.461 OA
BRANCH  31  32
ATOM     32  C   UNL     1      60.448  29.819  22.851  1.00  0.00     0.338 C 
ATOM     33  O   UNL     1      59.353  29.778  22.226  1.00  0.00    -0.246 OA
BRANCH  32  34
ATOM     34  C   UNL     1      61.720  29.987  22.113  1.00  0.00     0.060 A 
ATOM     35  C   UNL     1      62.302  31.261  21.965  1.00  0.00     0.015 A 
ATOM     36  C   UNL     1      62.364  28.872  21.547  1.00  0.00     0.015 A 
ATOM     37  C   UNL     1      63.503  31.410  21.264  1.00  0.00     0.001 A 
ATOM     38  C   UNL     1      63.563  29.028  20.844  1.00  0.00     0.001 A 
ATOM     39  C   UNL     1      64.132  30.296  20.704  1.00  0.00     0.000 A 
ENDBRANCH  32  34
ENDBRANCH  31  32
ENDBRANCH  30  31
ENDBRANCH   8  30
TORSDOF 12
ENDMDL
MODEL 2
REMARK VINA RESULT:    -6.990      2.075      6.867
REMARK INTER + INTRA:         -12.264
REMARK INTER:                 -11.376
REMARK INTRA:                  -0.888
REMARK UNBOUND:                -1.393
REMARK SMILES C[C@@]12C[C@@H](O)[C@H]3C[C@]1(O[C@H]1O[C@@H](CO)[C@@H](O)[C@@H](O)[C@@H]1O)[C@@]3(COC(=O)c1ccccc1)C(=O)O2
REMARK SMILES IDX 1 1 2 2 3 3 4 4 6 5 7 6 8 7 21 8 32 9 33 10 34 11 9 12 10 13
REMARK SMILES IDX 19 14 11 15 17 16 12 17 15 18 20 19 18 21 13 23 14 24 16 26
REMARK SMILES IDX 5 28 22 30 23 31 24 32 25 33 26 34 27 35 31 36 28 37 30 38
REMARK SMILES IDX 29 39
REMARK H PARENT 20 20 18 22 14 25 16 27 5 29
REMARK Flexibility Score: inf
ROOT
ATOM      1  C   UNL     1      62.303  32.707  24.647  1.00  0.00     0.060 C 
ATOM      2  C   UNL     1      61.377  31.863  25.516  1.00  0.00     0.142 C 
ATOM      3  C   UNL     1      60.637  32.749  26.584  1.00  0.00     0.083 C 
ATOM      4  C   UNL     1      59.465  31.945  27.254  1.00  0.00     0.123 C 
ATOM      5  C   UNL     1      58.910  30.862  26.268  1.00  0.00     0.045 C 
ATOM      6  C   UNL     1      58.887  31.486  24.856  1.00  0.00     0.049 C 
ATOM      7  C   UNL     1      60.331  30.958  24.710  1.00  0.00     0.131 C 
ATOM      8  C   UNL     1      60.050  29.893  25.798  1.00  0.00     0.140 C 
ATOM      9  C   UNL     1      61.339  29.849  26.559  1.00  0.00     0.319 C 
ATOM     10  O   UNL     1      61.663  28.970  27.400  1.00  0.00    -0.251 OA
ATOM     11  O   UNL     1      62.136  30.928  26.261  1.00  0.00    -0.456 OA
ENDROOT
BRANCH   7  12
ATOM     12  O   UNL     1      60.847  30.499  23.450  1.00  0.00    -0.338 OA
BRANCH  12  13
ATOM     13  C   UNL     1      60.213  31.024  22.289  1.00  0.00     0.282 C 
ATOM     14  C   UNL     1      59.530  29.900  21.481  1.00  0.00     0.202 C 
ATOM     15  O   UNL     1      61.095  31.832  21.520  1.00  0.00    -0.341 OA
ATOM     16  C   UNL     1      60.553  29.033  20.751  1.00  0.00     0.179 C 
ATOM     17  C   UNL     1      62.049  31.134  20.725  1.00  0.00     0.178 C 
ATOM     18  C   UNL     1      61.488  29.926  19.923  1.00  0.00     0.177 C 
BRANCH  14  19
ATOM     19  O   UNL     1      58.644  30.456  20.540  1.00  0.00    -0.385 OA
ATOM     20  H   UNL     1      58.857  30.044  19.661  1.00  0.00     0.211 HD
ENDBRANCH  14  19
BRANCH  16  21
ATOM     21  O   UNL     1      61.276  28.246  21.660  1.00  0.00    -0.387 OA
ATOM     22  H   UNL     1      62.122  28.729  21.854  1.00  0.00     0.211 HD
ENDBRANCH  16  21
BRANCH  17  23
ATOM     23  C   UNL     1      63.377  30.902  21.476  1.00  0.00     0.191 C 
BRANCH  23  24
ATOM     24  O   UNL     1      63.536  29.568  21.865  1.00  0.00    -0.394 OA
ATOM     25  H   UNL     1      62.821  29.039  21.425  1.00  0.00     0.210 HD
ENDBRANCH  23  24
ENDBRANCH  17  23
BRANCH  18  26
ATOM     26  O   UNL     1      62.536  29.172  19.367  1.00  0.00    -0.387 OA
ATOM     27  H   UNL     1      63.050  28.791  20.126  1.00  0.00     0.211 HD
ENDBRANCH  18  26
ENDBRANCH  12  13
ENDBRANCH   7  12
BRANCH   4  28
ATOM     28  O   UNL     1      58.446  32.804  27.697  1.00  0.00    -0.393 OA
ATOM     29  H   UNL     1      58.867  33.535  28.217  1.00  0.00     0.210 HD
ENDBRANCH   4  28
BRANCH   8  30
ATOM     30  C   UNL     1      59.543  28.498  25.376  1.00  0.00     0.255 C 
BRANCH  30  31
ATOM     31  O   UNL     1      59.052  27.802  26.518  1.00  0.00    -0.461 OA
BRANCH  31  32
ATOM     32  C   UNL     1      58.275  26.643  26.427  1.00  0.00     0.338 C 
ATOM     33  O   UNL     1      58.715  25.632  25.814  1.00  0.00    -0.246 OA
BRANCH  32  34
ATOM     34  C   UNL     1      56.940  26.603  27.064  1.00  0.00     0.060 A 
ATOM     35  C   UNL     1      56.574  27.564  28.026  1.00  0.00     0.015 A 
ATOM     36  C   UNL     1      56.018  25.600  26.716  1.00  0.00     0.015 A 
ATOM     37  C   UNL     1      55.310  27.517  28.624  1.00  0.00     0.001 A 
ATOM     38  C   UNL     1      54.757  25.556  27.320  1.00  0.00     0.001 A 
ATOM     39  C   UNL     1      54.404  26.514  28.273  1.00  0.00     0.000 A 
ENDBRANCH  32  34
ENDBRANCH  31  32
ENDBRANCH  30  31
ENDBRANCH   8  30
TORSDOF 12
ENDMDL
MODEL 3
REMARK VINA RESULT:    -6.504      1.653      2.216
REMARK INTER + INTRA:         -11.508
REMARK INTER:                 -10.470
REMARK INTRA:                  -1.038
REMARK UNBOUND:                -1.393
REMARK SMILES C[C@@]12C[C@@H](O)[C@H]3C[C@]1(O[C@H]1O[C@@H](CO)[C@@H](O)[C@@H](O)[C@@H]1O)[C@@]3(COC(=O)c1ccccc1)C(=O)O2
REMARK SMILES IDX 1 1 2 2 3 3 4 4 6 5 7 6 8 7 21 8 32 9 33 10 34 11 9 12 10 13
REMARK SMILES IDX 19 14 11 15 17 16 12 17 15 18 20 19 18 21 13 23 14 24 16 26
REMARK SMILES IDX 5 28 22 30 23 31 24 32 25 33 26 34 27 35 31 36 28 37 30 38
REMARK SMILES IDX 29 39
REMARK H PARENT 20 20 18 22 14 25 16 27 5 29
REMARK Flexibility Score: inf
ROOT
ATOM      1  C   UNL     1      60.066  30.576  29.764  1.00  0.00     0.060 C 
ATOM      2  C   UNL     1      60.720  30.317  28.410  1.00  0.00     0.142 C 
ATOM      3  C   UNL     1      62.284  30.225  28.545  1.00  0.00     0.083 C 
ATOM      4  C   UNL     1      62.919  29.650  27.227  1.00  0.00     0.123 C 
ATOM      5  C   UNL     1      61.904  28.711  26.493  1.00  0.00     0.045 C 
ATOM      6  C   UNL     1      61.163  27.893  27.573  1.00  0.00     0.049 C 
ATOM      7  C   UNL     1      60.146  29.054  27.612  1.00  0.00     0.131 C 
ATOM      8  C   UNL     1      60.565  29.467  26.180  1.00  0.00     0.140 C 
ATOM      9  C   UNL     1      60.533  30.963  26.244  1.00  0.00     0.319 C 
ATOM     10  O   UNL     1      60.586  31.739  25.255  1.00  0.00    -0.251 OA
ATOM     11  O   UNL     1      60.478  31.410  27.542  1.00  0.00    -0.456 OA
ENDROOT
BRANCH   7  12
ATOM     12  O   UNL     1      58.747  28.830  27.854  1.00  0.00    -0.338 OA
BRANCH  12  13
ATOM     13  C   UNL     1      58.391  27.517  28.275  1.00  0.00     0.282 C 
ATOM     14  C   UNL     1      57.532  26.813  27.203  1.00  0.00     0.202 C 
ATOM     15  O   UNL     1      57.809  27.513  29.572  1.00  0.00    -0.341 OA
ATOM     16  C   UNL     1      56.115  27.379  27.158  1.00  0.00     0.179 C 
ATOM     17  C   UNL     1      56.454  27.944  29.651  1.00  0.00     0.178 C 
ATOM     18  C   UNL     1      55.507  27.357  28.567  1.00  0.00     0.177 C 
BRANCH  14  19
ATOM     19  O   UNL     1      57.468  25.434  27.470  1.00  0.00    -0.385 OA
ATOM     20  H   UNL     1      57.207  25.335  28.424  1.00  0.00     0.211 HD
ENDBRANCH  14  19
BRANCH  16  21
ATOM     21  O   UNL     1      56.115  28.677  26.625  1.00  0.00    -0.387 OA
ATOM     22  H   UNL     1      55.961  28.590  25.647  1.00  0.00     0.211 HD
ENDBRANCH  16  21
BRANCH  17  23
ATOM     23  C   UNL     1      56.338  29.459  29.918  1.00  0.00     0.191 C 
BRANCH  23  24
ATOM     24  O   UNL     1      56.474  30.212  28.747  1.00  0.00    -0.394 OA
ATOM     25  H   UNL     1      55.635  30.726  28.620  1.00  0.00     0.210 HD
ENDBRANCH  23  24
ENDBRANCH  17  23
BRANCH  18  26
ATOM     26  O   UNL     1      54.266  28.016  28.586  1.00  0.00    -0.387 OA
ATOM     27  H   UNL     1      53.627  27.443  28.087  1.00  0.00     0.211 HD
ENDBRANCH  18  26
ENDBRANCH  12  13
ENDBRANCH   7  12
BRANCH   4  28
ATOM     28  O   UNL     1      64.129  28.987  27.493  1.00  0.00    -0.393 OA
ATOM     29  H   UNL     1      64.011  28.457  28.322  1.00  0.00     0.210 HD
ENDBRANCH   4  28
BRANCH   8  30
ATOM     30  C   UNL     1      59.797  28.892  24.972  1.00  0.00     0.255 C 
BRANCH  30  31
ATOM     31  O   UNL     1      60.699  28.668  23.893  1.00  0.00    -0.461 OA
BRANCH  31  32
ATOM     32  C   UNL     1      60.603  29.337  22.668  1.00  0.00     0.338 C 
ATOM     33  O   UNL     1      59.479  29.723  22.244  1.00  0.00    -0.246 OA
BRANCH  32  34
ATOM     34  C   UNL     1      61.827  29.600  21.879  1.00  0.00     0.060 A 
ATOM     35  C   UNL     1      62.620  30.735  22.138  1.00  0.00     0.015 A 
ATOM     36  C   UNL     1      62.212  28.717  20.854  1.00  0.00     0.015 A 
ATOM     37  C   UNL     1      63.773  30.975  21.385  1.00  0.00     0.001 A 
ATOM     38  C   UNL     1      63.365  28.966  20.102  1.00  0.00     0.001 A 
ATOM     39  C   UNL     1      64.145  30.093  20.368  1.00  0.00     0.000 A 
ENDBRANCH  32  34
ENDBRANCH  31  32
ENDBRANCH  30  31
ENDBRANCH   8  30
TORSDOF 12
ENDMDL
MODEL 4
REMARK VINA RESULT:    -6.436      2.238      7.295
REMARK INTER + INTRA:         -11.404
REMARK INTER:                 -10.609
REMARK INTRA:                  -0.795
REMARK UNBOUND:                -1.393
REMARK SMILES C[C@@]12C[C@@H](O)[C@H]3C[C@]1(O[C@H]1O[C@@H](CO)[C@@H](O)[C@@H](O)[C@@H]1O)[C@@]3(COC(=O)c1ccccc1)C(=O)O2
REMARK SMILES IDX 1 1 2 2 3 3 4 4 6 5 7 6 8 7 21 8 32 9 33 10 34 11 9 12 10 13
REMARK SMILES IDX 19 14 11 15 17 16 12 17 15 18 20 19 18 21 13 23 14 24 16 26
REMARK SMILES IDX 5 28 22 30 23 31 24 32 25 33 26 34 27 35 31 36 28 37 30 38
REMARK SMILES IDX 29 39
REMARK H PARENT 20 20 18 22 14 25 16 27 5 29
REMARK Flexibility Score: inf
ROOT
ATOM      1  C   UNL     1      62.549  28.283  25.255  1.00  0.00     0.060 C 
ATOM      2  C   UNL     1      61.357  28.455  26.191  1.00  0.00     0.142 C 
ATOM      3  C   UNL     1      61.826  28.582  27.687  1.00  0.00     0.083 C 
ATOM      4  C   UNL     1      60.643  29.071  28.598  1.00  0.00     0.123 C 
ATOM      5  C   UNL     1      59.637  29.939  27.770  1.00  0.00     0.045 C 
ATOM      6  C   UNL     1      60.464  30.820  26.809  1.00  0.00     0.049 C 
ATOM      7  C   UNL     1      60.362  29.648  25.809  1.00  0.00     0.131 C 
ATOM      8  C   UNL     1      59.092  29.141  26.534  1.00  0.00     0.140 C 
ATOM      9  C   UNL     1      59.257  27.653  26.488  1.00  0.00     0.319 C 
ATOM     10  O   UNL     1      58.363  26.809  26.759  1.00  0.00    -0.251 OA
ATOM     11  O   UNL     1      60.540  27.299  26.148  1.00  0.00    -0.456 OA
ENDROOT
BRANCH   7  12
ATOM     12  O   UNL     1      60.273  29.867  24.391  1.00  0.00    -0.338 OA
BRANCH  12  13
ATOM     13  C   UNL     1      60.502  31.200  23.950  1.00  0.00     0.282 C 
ATOM     14  C   UNL     1      59.300  31.723  23.135  1.00  0.00     0.202 C 
ATOM     15  O   UNL     1      61.751  31.335  23.285  1.00  0.00    -0.341 OA
ATOM     16  C   UNL     1      59.241  31.083  21.750  1.00  0.00     0.179 C 
ATOM     17  C   UNL     1      61.802  30.847  21.947  1.00  0.00     0.178 C 
ATOM     18  C   UNL     1      60.597  31.247  21.049  1.00  0.00     0.177 C 
BRANCH  14  19
ATOM     19  O   UNL     1      59.388  33.120  22.994  1.00  0.00    -0.385 OA
ATOM     20  H   UNL     1      59.193  33.328  22.041  1.00  0.00     0.211 HD
ENDBRANCH  14  19
BRANCH  16  21
ATOM     21  O   UNL     1      58.877  29.731  21.842  1.00  0.00    -0.387 OA
ATOM     22  H   UNL     1      57.885  29.699  21.874  1.00  0.00     0.211 HD
ENDBRANCH  16  21
BRANCH  17  23
ATOM     23  C   UNL     1      62.250  29.372  21.879  1.00  0.00     0.191 C 
BRANCH  23  24
ATOM     24  O   UNL     1      61.164  28.491  21.892  1.00  0.00    -0.394 OA
ATOM     25  H   UNL     1      61.511  27.582  21.700  1.00  0.00     0.210 HD
ENDBRANCH  23  24
ENDBRANCH  17  23
BRANCH  18  26
ATOM     26  O   UNL     1      60.624  30.532  19.840  1.00  0.00    -0.387 OA
ATOM     27  H   UNL     1      60.989  31.146  19.150  1.00  0.00     0.211 HD
ENDBRANCH  18  26
ENDBRANCH  12  13
ENDBRANCH   7  12
BRANCH   4  28
ATOM     28  O   UNL     1      61.120  29.771  29.719  1.00  0.00    -0.393 OA
ATOM     29  H   UNL     1      61.792  29.202  30.172  1.00  0.00     0.210 HD
ENDBRANCH   4  28
BRANCH   8  30
ATOM     30  C   UNL     1      57.705  29.616  26.052  1.00  0.00     0.255 C 
BRANCH  30  31
ATOM     31  O   UNL     1      56.687  28.883  26.726  1.00  0.00    -0.461 OA
BRANCH  31  32
ATOM     32  C   UNL     1      56.047  29.352  27.878  1.00  0.00     0.338 C 
ATOM     33  O   UNL     1      56.324  30.494  28.336  1.00  0.00    -0.246 OA
BRANCH  32  34
ATOM     34  C   UNL     1      55.034  28.507  28.549  1.00  0.00     0.060 A 
ATOM     35  C   UNL     1      54.150  29.059  29.495  1.00  0.00     0.015 A 
ATOM     36  C   UNL     1      54.945  27.135  28.249  1.00  0.00     0.015 A 
ATOM     37  C   UNL     1      53.198  28.251  30.125  1.00  0.00     0.001 A 
ATOM     38  C   UNL     1      53.993  26.332  28.886  1.00  0.00     0.001 A 
ATOM     39  C   UNL     1      53.120  26.890  29.822  1.00  0.00     0.000 A 
ENDBRANCH  32  34
ENDBRANCH  31  32
ENDBRANCH  30  31
ENDBRANCH   8  30
TORSDOF 12
ENDMDL
MODEL 5
REMARK VINA RESULT:    -6.411      1.925      5.891
REMARK INTER + INTRA:         -11.364
REMARK INTER:                  -9.677
REMARK INTRA:                  -1.688
REMARK UNBOUND:                -1.393
REMARK SMILES C[C@@]12C[C@@H](O)[C@H]3C[C@]1(O[C@H]1O[C@@H](CO)[C@@H](O)[C@@H](O)[C@@H]1O)[C@@]3(COC(=O)c1ccccc1)C(=O)O2
REMARK SMILES IDX 1 1 2 2 3 3 4 4 6 5 7 6 8 7 21 8 32 9 33 10 34 11 9 12 10 13
REMARK SMILES IDX 19 14 11 15 17 16 12 17 15 18 20 19 18 21 13 23 14 24 16 26
REMARK SMILES IDX 5 28 22 30 23 31 24 32 25 33 26 34 27 35 31 36 28 37 30 38
REMARK SMILES IDX 29 39
REMARK H PARENT 20 20 18 22 14 25 16 27 5 29
REMARK Flexibility Score: inf
ROOT
ATOM      1  C   UNL     1      63.016  28.874  26.204  1.00  0.00     0.060 C 
ATOM      2  C   UNL     1      62.259  29.466  27.389  1.00  0.00     0.142 C 
ATOM      3  C   UNL     1      63.251  30.046  28.462  1.00  0.00     0.083 C 
ATOM      4  C   UNL     1      62.479  30.925  29.512  1.00  0.00     0.123 C 
ATOM      5  C   UNL     1      61.199  31.553  28.864  1.00  0.00     0.045 C 
ATOM      6  C   UNL     1      61.564  31.974  27.424  1.00  0.00     0.049 C 
ATOM      7  C   UNL     1      61.143  30.548  27.009  1.00  0.00     0.131 C 
ATOM      8  C   UNL     1      60.263  30.439  28.277  1.00  0.00     0.140 C 
ATOM      9  C   UNL     1      60.461  29.015  28.696  1.00  0.00     0.319 C 
ATOM     10  O   UNL     1      59.772  28.401  29.552  1.00  0.00    -0.251 OA
ATOM     11  O   UNL     1      61.535  28.447  28.055  1.00  0.00    -0.456 OA
ENDROOT
BRANCH   7  12
ATOM     12  O   UNL     1      60.517  30.281  25.742  1.00  0.00    -0.338 OA
BRANCH  12  13
ATOM     13  C   UNL     1      60.466  31.373  24.830  1.00  0.00     0.282 C 
ATOM     14  C   UNL     1      59.006  31.706  24.456  1.00  0.00     0.202 C 
ATOM     15  O   UNL     1      61.316  31.171  23.709  1.00  0.00    -0.341 OA
ATOM     16  C   UNL     1      58.415  30.658  23.516  1.00  0.00     0.179 C 
ATOM     17  C   UNL     1      60.836  30.272  22.714  1.00  0.00     0.178 C 
ATOM     18  C   UNL     1      59.346  30.463  22.311  1.00  0.00     0.177 C 
BRANCH  14  19
ATOM     19  O   UNL     1      58.947  32.967  23.835  1.00  0.00    -0.385 OA
ATOM     20  H   UNL     1      59.786  33.074  23.313  1.00  0.00     0.211 HD
ENDBRANCH  14  19
BRANCH  16  21
ATOM     21  O   UNL     1      58.200  29.448  24.192  1.00  0.00    -0.387 OA
ATOM     22  H   UNL     1      58.367  28.717  23.541  1.00  0.00     0.211 HD
ENDBRANCH  16  21
BRANCH  17  23
ATOM     23  C   UNL     1      61.299  28.821  22.964  1.00  0.00     0.191 C 
BRANCH  23  24
ATOM     24  O   UNL     1      60.404  28.115  23.774  1.00  0.00    -0.394 OA
ATOM     25  H   UNL     1      59.545  28.046  23.283  1.00  0.00     0.210 HD
ENDBRANCH  23  24
ENDBRANCH  17  23
BRANCH  18  26
ATOM     26  O   UNL     1      58.910  29.394  21.510  1.00  0.00    -0.387 OA
ATOM     27  H   UNL     1      58.142  28.976  21.981  1.00  0.00     0.211 HD
ENDBRANCH  18  26
ENDBRANCH  12  13
ENDBRANCH   7  12
BRANCH   4  28
ATOM     28  O   UNL     1      63.313  31.914  30.059  1.00  0.00    -0.393 OA
ATOM     29  H   UNL     1      63.572  31.626  30.971  1.00  0.00     0.210 HD
ENDBRANCH   4  28
BRANCH   8  30
ATOM     30  C   UNL     1      58.778  30.852  28.205  1.00  0.00     0.255 C 
BRANCH  30  31
ATOM     31  O   UNL     1      58.073  29.956  27.351  1.00  0.00    -0.461 OA
BRANCH  31  32
ATOM     32  C   UNL     1      56.972  29.205  27.777  1.00  0.00     0.338 C 
ATOM     33  O   UNL     1      56.113  29.721  28.543  1.00  0.00    -0.246 OA
BRANCH  32  34
ATOM     34  C   UNL     1      56.816  27.808  27.315  1.00  0.00     0.060 A 
ATOM     35  C   UNL     1      55.587  27.136  27.461  1.00  0.00     0.015 A 
ATOM     36  C   UNL     1      57.899  27.131  26.724  1.00  0.00     0.015 A 
ATOM     37  C   UNL     1      55.449  25.815  27.023  1.00  0.00     0.001 A 
ATOM     38  C   UNL     1      57.755  25.808  26.292  1.00  0.00     0.001 A 
ATOM     39  C   UNL     1      56.532  25.152  26.441  1.00  0.00     0.000 A 
ENDBRANCH  32  34
ENDBRANCH  31  32
ENDBRANCH  30  31
ENDBRANCH   8  30
TORSDOF 12
ENDMDL
MODEL 6
REMARK VINA RESULT:    -5.960      2.230      6.934
REMARK INTER + INTRA:         -10.663
REMARK INTER:                  -9.866
REMARK INTRA:                  -0.797
REMARK UNBOUND:                -1.393
REMARK SMILES C[C@@]12C[C@@H](O)[C@H]3C[C@]1(O[C@H]1O[C@@H](CO)[C@@H](O)[C@@H](O)[C@@H]1O)[C@@]3(COC(=O)c1ccccc1)C(=O)O2
REMARK SMILES IDX 1 1 2 2 3 3 4 4 6 5 7 6 8 7 21 8 32 9 33 10 34 11 9 12 10 13
REMARK SMILES IDX 19 14 11 15 17 16 12 17 15 18 20 19 18 21 13 23 14 24 16 26
REMARK SMILES IDX 5 28 22 30 23 31 24 32 25 33 26 34 27 35 31 36 28 37 30 38
REMARK SMILES IDX 29 39
REMARK H PARENT 20 20 18 22 14 25 16 27 5 29
REMARK Flexibility Score: inf
ROOT
ATOM      1  C   UNL     1      62.270  28.302  25.291  1.00  0.00     0.060 C 
ATOM      2  C   UNL     1      61.113  28.410  26.278  1.00  0.00     0.142 C 
ATOM      3  C   UNL     1      61.637  28.498  27.758  1.00  0.00     0.083 C 
ATOM      4  C   UNL     1      60.478  28.924  28.731  1.00  0.00     0.123 C 
ATOM      5  C   UNL     1      59.417  29.792  27.973  1.00  0.00     0.045 C 
ATOM      6  C   UNL     1      60.183  30.727  27.012  1.00  0.00     0.049 C 
ATOM      7  C   UNL     1      60.072  29.587  25.976  1.00  0.00     0.131 C 
ATOM      8  C   UNL     1      58.846  29.021  26.731  1.00  0.00     0.140 C 
ATOM      9  C   UNL     1      59.047  27.541  26.627  1.00  0.00     0.319 C 
ATOM     10  O   UNL     1      58.187  26.664  26.902  1.00  0.00    -0.251 OA
ATOM     11  O   UNL     1      60.324  27.234  26.226  1.00  0.00    -0.456 OA
ENDROOT
BRANCH   7  12
ATOM     12  O   UNL     1      59.922  29.852  24.571  1.00  0.00    -0.338 OA
BRANCH  12  13
ATOM     13  C   UNL     1      60.217  31.179  24.152  1.00  0.00     0.282 C 
ATOM     14  C   UNL     1      59.099  31.726  23.238  1.00  0.00     0.202 C 
ATOM     15  O   UNL     1      61.520  31.285  23.594  1.00  0.00    -0.341 OA
ATOM     16  C   UNL     1      59.143  31.085  21.853  1.00  0.00     0.179 C 
ATOM     17  C   UNL     1      61.673  30.795  22.265  1.00  0.00     0.178 C 
ATOM     18  C   UNL     1      60.557  31.219  21.269  1.00  0.00     0.177 C 
BRANCH  14  19
ATOM     19  O   UNL     1      59.228  33.120  23.105  1.00  0.00    -0.385 OA
ATOM     20  H   UNL     1      60.112  33.368  23.487  1.00  0.00     0.211 HD
ENDBRANCH  14  19
BRANCH  16  21
ATOM     21  O   UNL     1      58.744  29.742  21.913  1.00  0.00    -0.387 OA
ATOM     22  H   UNL     1      58.706  29.408  20.979  1.00  0.00     0.211 HD
ENDBRANCH  16  21
BRANCH  17  23
ATOM     23  C   UNL     1      62.092  29.310  22.235  1.00  0.00     0.191 C 
BRANCH  23  24
ATOM     24  O   UNL     1      61.006  28.460  22.004  1.00  0.00    -0.394 OA
ATOM     25  H   UNL     1      60.227  29.026  21.764  1.00  0.00     0.210 HD
ENDBRANCH  23  24
ENDBRANCH  17  23
BRANCH  18  26
ATOM     26  O   UNL     1      60.670  30.501  20.066  1.00  0.00    -0.387 OA
ATOM     27  H   UNL     1      61.401  29.842  20.191  1.00  0.00     0.211 HD
ENDBRANCH  18  26
ENDBRANCH  12  13
ENDBRANCH   7  12
BRANCH   4  28
ATOM     28  O   UNL     1      60.980  29.598  29.856  1.00  0.00    -0.393 OA
ATOM     29  H   UNL     1      61.941  29.372  29.944  1.00  0.00     0.210 HD
ENDBRANCH   4  28
BRANCH   8  30
ATOM     30  C   UNL     1      57.429  29.475  26.320  1.00  0.00     0.255 C 
BRANCH  30  31
ATOM     31  O   UNL     1      56.462  28.601  26.894  1.00  0.00    -0.461 OA
BRANCH  31  32
ATOM     32  C   UNL     1      55.742  28.917  28.051  1.00  0.00     0.338 C 
ATOM     33  O   UNL     1      55.263  27.997  28.770  1.00  0.00    -0.246 OA
BRANCH  32  34
ATOM     34  C   UNL     1      55.557  30.334  28.435  1.00  0.00     0.060 A 
ATOM     35  C   UNL     1      56.432  30.952  29.349  1.00  0.00     0.015 A 
ATOM     36  C   UNL     1      54.498  31.083  27.891  1.00  0.00     0.015 A 
ATOM     37  C   UNL     1      56.248  32.291  29.707  1.00  0.00     0.001 A 
ATOM     38  C   UNL     1      54.317  32.421  28.256  1.00  0.00     0.001 A 
ATOM     39  C   UNL     1      55.191  33.025  29.162  1.00  0.00     0.000 A 
ENDBRANCH  32  34
ENDBRANCH  31  32
ENDBRANCH  30  31
ENDBRANCH   8  30
TORSDOF 12
ENDMDL
MODEL 7
REMARK VINA RESULT:    -5.922      1.633      5.172
REMARK INTER + INTRA:         -10.604
REMARK INTER:                  -9.410
REMARK INTRA:                  -1.194
REMARK UNBOUND:                -1.393
REMARK SMILES C[C@@]12C[C@@H](O)[C@H]3C[C@]1(O[C@H]1O[C@@H](CO)[C@@H](O)[C@@H](O)[C@@H]1O)[C@@]3(COC(=O)c1ccccc1)C(=O)O2
REMARK SMILES IDX 1 1 2 2 3 3 4 4 6 5 7 6 8 7 21 8 32 9 33 10 34 11 9 12 10 13
REMARK SMILES IDX 19 14 11 15 17 16 12 17 15 18 20 19 18 21 13 23 14 24 16 26
REMARK SMILES IDX 5 28 22 30 23 31 24 32 25 33 26 34 27 35 31 36 28 37 30 38
REMARK SMILES IDX 29 39
REMARK H PARENT 20 20 18 22 14 25 16 27 5 29
REMARK Flexibility Score: inf
ROOT
ATOM      1  C   UNL     1      60.863  27.260  29.017  1.00  0.00     0.060 C 
ATOM      2  C   UNL     1      59.939  27.585  27.848  1.00  0.00     0.142 C 
ATOM      3  C   UNL     1      58.510  26.967  28.066  1.00  0.00     0.083 C 
ATOM      4  C   UNL     1      57.486  27.562  27.033  1.00  0.00     0.123 C 
ATOM      5  C   UNL     1      57.916  29.005  26.604  1.00  0.00     0.045 C 
ATOM      6  C   UNL     1      58.454  29.723  27.861  1.00  0.00     0.049 C 
ATOM      7  C   UNL     1      59.832  29.139  27.480  1.00  0.00     0.131 C 
ATOM      8  C   UNL     1      59.368  29.005  26.010  1.00  0.00     0.140 C 
ATOM      9  C   UNL     1      59.989  27.711  25.584  1.00  0.00     0.319 C 
ATOM     10  O   UNL     1      60.072  27.295  24.399  1.00  0.00    -0.251 OA
ATOM     11  O   UNL     1      60.433  26.987  26.663  1.00  0.00    -0.456 OA
ENDROOT
BRANCH   7  12
ATOM     12  O   UNL     1      61.053  29.856  27.728  1.00  0.00    -0.338 OA
BRANCH  12  13
ATOM     13  C   UNL     1      61.062  30.694  28.878  1.00  0.00     0.282 C 
ATOM     14  C   UNL     1      60.749  32.156  28.493  1.00  0.00     0.202 C 
ATOM     15  O   UNL     1      62.252  30.541  29.640  1.00  0.00    -0.341 OA
ATOM     16  C   UNL     1      61.930  32.813  27.782  1.00  0.00     0.179 C 
ATOM     17  C   UNL     1      63.413  31.183  29.121  1.00  0.00     0.178 C 
ATOM     18  C   UNL     1      63.200  32.642  28.627  1.00  0.00     0.177 C 
BRANCH  14  19
ATOM     19  O   UNL     1      60.435  32.898  29.646  1.00  0.00    -0.385 OA
ATOM     20  H   UNL     1      60.770  32.380  30.425  1.00  0.00     0.211 HD
ENDBRANCH  14  19
BRANCH  16  21
ATOM     21  O   UNL     1      62.098  32.276  26.497  1.00  0.00    -0.387 OA
ATOM     22  H   UNL     1      61.719  31.358  26.514  1.00  0.00     0.211 HD
ENDBRANCH  16  21
BRANCH  17  23
ATOM     23  C   UNL     1      64.228  30.256  28.195  1.00  0.00     0.191 C 
BRANCH  23  24
ATOM     24  O   UNL     1      63.839  28.918  28.313  1.00  0.00    -0.394 OA
ATOM     25  H   UNL     1      64.527  28.451  28.855  1.00  0.00     0.210 HD
ENDBRANCH  23  24
ENDBRANCH  17  23
BRANCH  18  26
ATOM     26  O   UNL     1      64.330  33.096  27.926  1.00  0.00    -0.387 OA
ATOM     27  H   UNL     1      64.136  32.981  26.960  1.00  0.00     0.211 HD
ENDBRANCH  18  26
ENDBRANCH  12  13
ENDBRANCH   7  12
BRANCH   4  28
ATOM     28  O   UNL     1      56.179  27.549  27.547  1.00  0.00    -0.393 OA
ATOM     29  H   UNL     1      55.811  26.637  27.426  1.00  0.00     0.210 HD
ENDBRANCH   4  28
BRANCH   8  30
ATOM     30  C   UNL     1      59.634  30.163  25.025  1.00  0.00     0.255 C 
BRANCH  30  31
ATOM     31  O   UNL     1      60.938  30.028  24.469  1.00  0.00    -0.461 OA
BRANCH  31  32
ATOM     32  C   UNL     1      61.428  30.867  23.463  1.00  0.00     0.338 C 
ATOM     33  O   UNL     1      61.297  32.118  23.562  1.00  0.00    -0.246 OA
BRANCH  32  34
ATOM     34  C   UNL     1      62.111  30.282  22.288  1.00  0.00     0.060 A 
ATOM     35  C   UNL     1      63.282  30.867  21.771  1.00  0.00     0.015 A 
ATOM     36  C   UNL     1      61.593  29.129  21.669  1.00  0.00     0.015 A 
ATOM     37  C   UNL     1      63.919  30.307  20.659  1.00  0.00     0.001 A 
ATOM     38  C   UNL     1      62.232  28.576  20.555  1.00  0.00     0.001 A 
ATOM     39  C   UNL     1      63.394  29.164  20.050  1.00  0.00     0.000 A 
ENDBRANCH  32  34
ENDBRANCH  31  32
ENDBRANCH  30  31
ENDBRANCH   8  30
TORSDOF 12
ENDMDL
MODEL 8
REMARK VINA RESULT:    -5.863      2.001      5.328
REMARK INTER + INTRA:         -10.512
REMARK INTER:                  -8.917
REMARK INTRA:                  -1.595
REMARK UNBOUND:                -1.393
REMARK SMILES C[C@@]12C[C@@H](O)[C@H]3C[C@]1(O[C@H]1O[C@@H](CO)[C@@H](O)[C@@H](O)[C@@H]1O)[C@@]3(COC(=O)c1ccccc1)C(=O)O2
REMARK SMILES IDX 1 1 2 2 3 3 4 4 6 5 7 6 8 7 21 8 32 9 33 10 34 11 9 12 10 13
REMARK SMILES IDX 19 14 11 15 17 16 12 17 15 18 20 19 18 21 13 23 14 24 16 26
REMARK SMILES IDX 5 28 22 30 23 31 24 32 25 33 26 34 27 35 31 36 28 37 30 38
REMARK SMILES IDX 29 39
REMARK H PARENT 20 20 18 22 14 25 16 27 5 29
REMARK Flexibility Score: inf
ROOT
ATOM      1  C   UNL     1      59.568  27.669  30.099  1.00  0.00     0.060 C 
ATOM      2  C   UNL     1      58.693  27.684  28.849  1.00  0.00     0.142 C 
ATOM      3  C   UNL     1      57.179  27.473  29.215  1.00  0.00     0.083 C 
ATOM      4  C   UNL     1      56.261  27.803  27.982  1.00  0.00     0.123 C 
ATOM      5  C   UNL     1      56.947  28.864  27.057  1.00  0.00     0.045 C 
ATOM      6  C   UNL     1      57.642  29.897  27.971  1.00  0.00     0.049 C 
ATOM      7  C   UNL     1      58.874  28.968  27.912  1.00  0.00     0.131 C 
ATOM      8  C   UNL     1      58.357  28.367  26.583  1.00  0.00     0.140 C 
ATOM      9  C   UNL     1      58.710  26.918  26.715  1.00  0.00     0.319 C 
ATOM     10  O   UNL     1      58.683  26.070  25.784  1.00  0.00    -0.251 OA
ATOM     11  O   UNL     1      59.035  26.596  28.010  1.00  0.00    -0.456 OA
ENDROOT
BRANCH   7  12
ATOM     12  O   UNL     1      60.215  29.486  27.928  1.00  0.00    -0.338 OA
BRANCH  12  13
ATOM     13  C   UNL     1      60.346  30.869  28.237  1.00  0.00     0.282 C 
ATOM     14  C   UNL     1      60.969  31.638  27.052  1.00  0.00     0.202 C 
ATOM     15  O   UNL     1      61.014  31.078  29.474  1.00  0.00    -0.341 OA
ATOM     16  C   UNL     1      62.460  31.343  26.914  1.00  0.00     0.179 C 
ATOM     17  C   UNL     1      62.428  30.913  29.456  1.00  0.00     0.178 C 
ATOM     18  C   UNL     1      63.160  31.583  28.259  1.00  0.00     0.177 C 
BRANCH  14  19
ATOM     19  O   UNL     1      60.788  33.022  27.232  1.00  0.00    -0.385 OA
ATOM     20  H   UNL     1      60.584  33.406  26.338  1.00  0.00     0.211 HD
ENDBRANCH  14  19
BRANCH  16  21
ATOM     21  O   UNL     1      62.667  30.032  26.460  1.00  0.00    -0.387 OA
ATOM     22  H   UNL     1      63.350  29.623  27.054  1.00  0.00     0.211 HD
ENDBRANCH  16  21
BRANCH  17  23
ATOM     23  C   UNL     1      62.853  29.470  29.800  1.00  0.00     0.191 C 
BRANCH  23  24
ATOM     24  O   UNL     1      62.892  28.649  28.668  1.00  0.00    -0.394 OA
ATOM     25  H   UNL     1      62.360  29.092  27.957  1.00  0.00     0.210 HD
ENDBRANCH  23  24
ENDBRANCH  17  23
BRANCH  18  26
ATOM     26  O   UNL     1      64.501  31.169  28.205  1.00  0.00    -0.387 OA
ATOM     27  H   UNL     1      64.894  31.345  29.099  1.00  0.00     0.211 HD
ENDBRANCH  18  26
ENDBRANCH  12  13
ENDBRANCH   7  12
BRANCH   4  28
ATOM     28  O   UNL     1      54.988  28.230  28.395  1.00  0.00    -0.393 OA
ATOM     29  H   UNL     1      54.408  28.282  27.594  1.00  0.00     0.210 HD
ENDBRANCH   4  28
BRANCH   8  30
ATOM     30  C   UNL     1      58.814  28.986  25.244  1.00  0.00     0.255 C 
BRANCH  30  31
ATOM     31  O   UNL     1      60.156  28.596  24.970  1.00  0.00    -0.461 OA
BRANCH  31  32
ATOM     32  C   UNL     1      60.927  29.179  23.959  1.00  0.00     0.338 C 
ATOM     33  O   UNL     1      62.141  28.864  23.828  1.00  0.00    -0.246 OA
BRANCH  32  34
ATOM     34  C   UNL     1      60.308  30.157  23.037  1.00  0.00     0.060 A 
ATOM     35  C   UNL     1      60.207  31.516  23.392  1.00  0.00     0.015 A 
ATOM     36  C   UNL     1      59.808  29.738  21.790  1.00  0.00     0.015 A 
ATOM     37  C   UNL     1      59.619  32.432  22.515  1.00  0.00     0.001 A 
ATOM     38  C   UNL     1      59.217  30.659  20.919  1.00  0.00     0.001 A 
ATOM     39  C   UNL     1      59.123  32.005  21.281  1.00  0.00     0.000 A 
ENDBRANCH  32  34
ENDBRANCH  31  32
ENDBRANCH  30  31
ENDBRANCH   8  30
TORSDOF 12
ENDMDL
MODEL 9
REMARK VINA RESULT:    -5.777      1.970      3.424
REMARK INTER + INTRA:         -10.379
REMARK INTER:                  -9.224
REMARK INTRA:                  -1.155
REMARK UNBOUND:                -1.393
REMARK SMILES C[C@@]12C[C@@H](O)[C@H]3C[C@]1(O[C@H]1O[C@@H](CO)[C@@H](O)[C@@H](O)[C@@H]1O)[C@@]3(COC(=O)c1ccccc1)C(=O)O2
REMARK SMILES IDX 1 1 2 2 3 3 4 4 6 5 7 6 8 7 21 8 32 9 33 10 34 11 9 12 10 13
REMARK SMILES IDX 19 14 11 15 17 16 12 17 15 18 20 19 18 21 13 23 14 24 16 26
REMARK SMILES IDX 5 28 22 30 23 31 24 32 25 33 26 34 27 35 31 36 28 37 30 38
REMARK SMILES IDX 29 39
REMARK H PARENT 20 20 18 22 14 25 16 27 5 29
REMARK Flexibility Score: inf
ROOT
ATOM      1  C   UNL     1      60.870  30.417  28.900  1.00  0.00     0.060 C 
ATOM      2  C   UNL     1      60.963  30.260  27.386  1.00  0.00     0.142 C 
ATOM      3  C   UNL     1      62.261  29.471  26.977  1.00  0.00     0.083 C 
ATOM      4  C   UNL     1      62.193  29.040  25.467  1.00  0.00     0.123 C 
ATOM      5  C   UNL     1      60.705  28.855  25.016  1.00  0.00     0.045 C 
ATOM      6  C   UNL     1      59.945  28.188  26.183  1.00  0.00     0.049 C 
ATOM      7  C   UNL     1      59.672  29.621  26.690  1.00  0.00     0.131 C 
ATOM      8  C   UNL     1      59.879  30.167  25.257  1.00  0.00     0.140 C 
ATOM      9  C   UNL     1      60.600  31.458  25.495  1.00  0.00     0.319 C 
ATOM     10  O   UNL     1      60.786  32.361  24.638  1.00  0.00    -0.251 OA
ATOM     11  O   UNL     1      61.087  31.533  26.777  1.00  0.00    -0.456 OA
ENDROOT
BRANCH   7  12
ATOM     12  O   UNL     1      58.448  29.968  27.361  1.00  0.00    -0.338 OA
BRANCH  12  13
ATOM     13  C   UNL     1      57.782  28.903  28.031  1.00  0.00     0.282 C 
ATOM     14  C   UNL     1      56.357  28.711  27.471  1.00  0.00     0.202 C 
ATOM     15  O   UNL     1      57.830  29.050  29.444  1.00  0.00    -0.341 OA
ATOM     16  C   UNL     1      55.419  29.826  27.927  1.00  0.00     0.179 C 
ATOM     17  C   UNL     1      56.938  30.008  30.004  1.00  0.00     0.178 C 
ATOM     18  C   UNL     1      55.483  29.959  29.455  1.00  0.00     0.177 C 
BRANCH  14  19
ATOM     19  O   UNL     1      55.839  27.473  27.893  1.00  0.00    -0.385 OA
ATOM     20  H   UNL     1      54.997  27.322  27.387  1.00  0.00     0.211 HD
ENDBRANCH  14  19
BRANCH  16  21
ATOM     21  O   UNL     1      55.743  31.037  27.298  1.00  0.00    -0.387 OA
ATOM     22  H   UNL     1      55.518  30.933  26.335  1.00  0.00     0.211 HD
ENDBRANCH  16  21
BRANCH  17  23
ATOM     23  C   UNL     1      57.580  31.405  30.125  1.00  0.00     0.191 C 
BRANCH  23  24
ATOM     24  O   UNL     1      57.449  32.149  28.948  1.00  0.00    -0.394 OA
ATOM     25  H   UNL     1      58.285  32.668  28.825  1.00  0.00     0.210 HD
ENDBRANCH  23  24
ENDBRANCH  17  23
BRANCH  18  26
ATOM     26  O   UNL     1      54.754  31.079  29.890  1.00  0.00    -0.387 OA
ATOM     27  H   UNL     1      54.355  30.841  30.767  1.00  0.00     0.211 HD
ENDBRANCH  18  26
ENDBRANCH  12  13
ENDBRANCH   7  12
BRANCH   4  28
ATOM     28  O   UNL     1      62.946  27.876  25.236  1.00  0.00    -0.393 OA
ATOM     29  H   UNL     1      62.606  27.452  24.408  1.00  0.00     0.210 HD
ENDBRANCH   4  28
BRANCH   8  30
ATOM     30  C   UNL     1      58.661  30.313  24.320  1.00  0.00     0.255 C 
BRANCH  30  31
ATOM     31  O   UNL     1      58.987  29.805  23.029  1.00  0.00    -0.461 OA
BRANCH  31  32
ATOM     32  C   UNL     1      59.629  30.569  22.050  1.00  0.00     0.338 C 
ATOM     33  O   UNL     1      59.058  31.583  21.562  1.00  0.00    -0.246 OA
BRANCH  32  34
ATOM     34  C   UNL     1      60.986  30.190  21.598  1.00  0.00     0.060 A 
ATOM     35  C   UNL     1      61.191  29.019  20.842  1.00  0.00     0.015 A 
ATOM     36  C   UNL     1      62.092  30.997  21.920  1.00  0.00     0.015 A 
ATOM     37  C   UNL     1      62.478  28.669  20.421  1.00  0.00     0.001 A 
ATOM     38  C   UNL     1      63.377  30.639  21.500  1.00  0.00     0.001 A 
ATOM     39  C   UNL     1      63.570  29.476  20.750  1.00  0.00     0.000 A 
ENDBRANCH  32  34
ENDBRANCH  31  32
ENDBRANCH  30  31
ENDBRANCH   8  30
TORSDOF 12
ENDMDL
