MODEL 1
REMARK VINA RESULT:    -4.574      0.000      0.000
REMARK INTER + INTRA:          -6.096
REMARK INTER:                  -5.644
REMARK INTRA:                  -0.453
REMARK UNBOUND:                -0.453
REMARK SMILES C=CC[C@@H](C)C(=O)CC
REMARK SMILES IDX 4 1 5 2 6 3 7 4 8 5 9 6 3 7 2 8 1 9
REMARK H PARENT
REMARK Flexibility Score: inf
ROOT
ATOM      1  C   UNL     1      34.019  19.829  15.650  1.00  0.00     0.057 C 
ATOM      2  C   UNL     1      35.544  19.998  15.705  1.00  0.00     0.016 C 
ENDROOT
BRANCH   1   3
ATOM      3  C   UNL     1      33.585  18.748  16.616  1.00  0.00     0.135 C 
ATOM      4  O   UNL     1      33.636  18.956  17.821  1.00  0.00    -0.299 OA
BRANCH   3   5
ATOM      5  C   UNL     1      33.090  17.414  16.124  1.00  0.00     0.072 C 
ATOM      6  C   UNL     1      31.571  17.330  16.224  1.00  0.00     0.012 C 
ENDBRANCH   3   5
ENDBRANCH   1   3
BRANCH   1   7
ATOM      7  C   UNL     1      33.287  21.148  15.973  1.00  0.00     0.038 C 
BRANCH   7   8
ATOM      8  C   UNL     1      31.834  21.109  15.580  1.00  0.00    -0.034 C 
ATOM      9  C   UNL     1      31.448  20.795  14.339  1.00  0.00     0.004 C 
ENDBRANCH   7   8
ENDBRANCH   1   7
TORSDOF 4
ENDMDL
MODEL 2
REMARK VINA RESULT:    -4.530      1.752      2.582
REMARK INTER + INTRA:          -6.042
REMARK INTER:                  -5.584
REMARK INTRA:                  -0.458
REMARK UNBOUND:                -0.453
REMARK SMILES C=CC[C@@H](C)C(=O)CC
REMARK SMILES IDX 4 1 5 2 6 3 7 4 8 5 9 6 3 7 2 8 1 9
REMARK H PARENT
REMARK Flexibility Score: inf
ROOT
ATOM      1  C   UNL     1      33.726  20.091  15.524  1.00  0.00     0.057 C 
ATOM      2  C   UNL     1      35.212  19.706  15.467  1.00  0.00     0.016 C 
ENDROOT
BRANCH   1   3
ATOM      3  C   UNL     1      32.936  18.997  16.210  1.00  0.00     0.135 C 
ATOM      4  O   UNL     1      31.924  18.557  15.681  1.00  0.00    -0.299 OA
BRANCH   3   5
ATOM      5  C   UNL     1      33.371  18.436  17.538  1.00  0.00     0.072 C 
ATOM      6  C   UNL     1      32.356  18.773  18.625  1.00  0.00     0.012 C 
ENDBRANCH   3   5
ENDBRANCH   1   3
BRANCH   1   7
ATOM      7  C   UNL     1      33.512  21.432  16.258  1.00  0.00     0.038 C 
BRANCH   7   8
ATOM      8  C   UNL     1      34.742  21.881  17.001  1.00  0.00    -0.034 C 
ATOM      9  C   UNL     1      34.770  21.961  18.335  1.00  0.00     0.004 C 
ENDBRANCH   7   8
ENDBRANCH   1   7
TORSDOF 4
ENDMDL
MODEL 3
REMARK VINA RESULT:    -4.463      1.737      2.824
REMARK INTER + INTRA:          -5.959
REMARK INTER:                  -5.650
REMARK INTRA:                  -0.309
REMARK UNBOUND:                -0.453
REMARK SMILES C=CC[C@@H](C)C(=O)CC
REMARK SMILES IDX 4 1 5 2 6 3 7 4 8 5 9 6 3 7 2 8 1 9
REMARK H PARENT
REMARK Flexibility Score: inf
ROOT
ATOM      1  C   UNL     1      33.126  20.661  16.626  1.00  0.00     0.057 C 
ATOM      2  C   UNL     1      31.997  21.083  15.674  1.00  0.00     0.016 C 
ENDROOT
BRANCH   1   3
ATOM      3  C   UNL     1      33.523  19.226  16.350  1.00  0.00     0.135 C 
ATOM      4  O   UNL     1      34.337  18.982  15.469  1.00  0.00    -0.299 OA
BRANCH   3   5
ATOM      5  C   UNL     1      32.932  18.087  17.138  1.00  0.00     0.072 C 
ATOM      6  C   UNL     1      31.952  17.290  16.284  1.00  0.00     0.012 C 
ENDBRANCH   3   5
ENDBRANCH   1   3
BRANCH   1   7
ATOM      7  C   UNL     1      34.358  21.581  16.494  1.00  0.00     0.038 C 
BRANCH   7   8
ATOM      8  C   UNL     1      34.958  21.929  17.831  1.00  0.00    -0.034 C 
ATOM      9  C   UNL     1      34.293  21.736  18.974  1.00  0.00     0.004 C 
ENDBRANCH   7   8
ENDBRANCH   1   7
TORSDOF 4
ENDMDL
MODEL 4
REMARK VINA RESULT:    -4.441      2.066      2.688
REMARK INTER + INTRA:          -5.933
REMARK INTER:                  -5.474
REMARK INTRA:                  -0.458
REMARK UNBOUND:                -0.453
REMARK SMILES C=CC[C@@H](C)C(=O)CC
REMARK SMILES IDX 4 1 5 2 6 3 7 4 8 5 9 6 3 7 2 8 1 9
REMARK H PARENT
REMARK Flexibility Score: inf
ROOT
ATOM      1  C   UNL     1      33.411  21.304  16.221  1.00  0.00     0.057 C 
ATOM      2  C   UNL     1      34.569  21.655  17.166  1.00  0.00     0.016 C 
ENDROOT
BRANCH   1   3
ATOM      3  C   UNL     1      33.706  20.003  15.505  1.00  0.00     0.135 C 
ATOM      4  O   UNL     1      33.538  19.926  14.296  1.00  0.00    -0.299 OA
BRANCH   3   5
ATOM      5  C   UNL     1      34.201  18.795  16.255  1.00  0.00     0.072 C 
ATOM      6  C   UNL     1      33.151  17.689  16.254  1.00  0.00     0.012 C 
ENDBRANCH   3   5
ENDBRANCH   1   3
BRANCH   1   7
ATOM      7  C   UNL     1      32.070  21.194  16.978  1.00  0.00     0.038 C 
BRANCH   7   8
ATOM      8  C   UNL     1      32.263  20.961  18.454  1.00  0.00    -0.034 C 
ATOM      9  C   UNL     1      31.614  19.990  19.104  1.00  0.00     0.004 C 
ENDBRANCH   7   8
ENDBRANCH   1   7
TORSDOF 4
ENDMDL
MODEL 5
REMARK VINA RESULT:    -4.412     13.106     13.931
REMARK INTER + INTRA:          -5.897
REMARK INTER:                  -5.551
REMARK INTRA:                  -0.346
REMARK UNBOUND:                -0.453
REMARK SMILES C=CC[C@@H](C)C(=O)CC
REMARK SMILES IDX 4 1 5 2 6 3 7 4 8 5 9 6 3 7 2 8 1 9
REMARK H PARENT
REMARK Flexibility Score: inf
ROOT
ATOM      1  C   UNL     1      28.513  18.238  28.758  1.00  0.00     0.057 C 
ATOM      2  C   UNL     1      29.782  17.444  29.102  1.00  0.00     0.016 C 
ENDROOT
BRANCH   1   3
ATOM      3  C   UNL     1      28.407  19.454  29.654  1.00  0.00     0.135 C 
ATOM      4  O   UNL     1      28.375  19.311  30.868  1.00  0.00    -0.299 OA
BRANCH   3   5
ATOM      5  C   UNL     1      28.338  20.843  29.077  1.00  0.00     0.072 C 
ATOM      6  C   UNL     1      26.995  21.494  29.395  1.00  0.00     0.012 C 
ENDBRANCH   3   5
ENDBRANCH   1   3
BRANCH   1   7
ATOM      7  C   UNL     1      28.495  18.672  27.278  1.00  0.00     0.038 C 
BRANCH   7   8
ATOM      8  C   UNL     1      27.138  18.505  26.647  1.00  0.00    -0.034 C 
ATOM      9  C   UNL     1      26.083  18.076  27.349  1.00  0.00     0.004 C 
ENDBRANCH   7   8
ENDBRANCH   1   7
TORSDOF 4
ENDMDL
MODEL 6
REMARK VINA RESULT:    -4.395      2.299      3.744
REMARK INTER + INTRA:          -5.875
REMARK INTER:                  -5.425
REMARK INTRA:                  -0.450
REMARK UNBOUND:                -0.453
REMARK SMILES C=CC[C@@H](C)C(=O)CC
REMARK SMILES IDX 4 1 5 2 6 3 7 4 8 5 9 6 3 7 2 8 1 9
REMARK H PARENT
REMARK Flexibility Score: inf
ROOT
ATOM      1  C   UNL     1      33.759  19.447  16.867  1.00  0.00     0.057 C 
ATOM      2  C   UNL     1      34.317  18.494  15.799  1.00  0.00     0.016 C 
ENDROOT
BRANCH   1   3
ATOM      3  C   UNL     1      33.706  20.858  16.321  1.00  0.00     0.135 C 
ATOM      4  O   UNL     1      32.843  21.161  15.508  1.00  0.00    -0.299 OA
BRANCH   3   5
ATOM      5  C   UNL     1      34.699  21.901  16.758  1.00  0.00     0.072 C 
ATOM      6  C   UNL     1      34.842  21.910  18.277  1.00  0.00     0.012 C 
ENDBRANCH   3   5
ENDBRANCH   1   3
BRANCH   1   7
ATOM      7  C   UNL     1      32.356  19.013  17.341  1.00  0.00     0.038 C 
BRANCH   7   8
ATOM      8  C   UNL     1      32.160  19.225  18.819  1.00  0.00    -0.034 C 
ATOM      9  C   UNL     1      31.547  20.311  19.300  1.00  0.00     0.004 C 
ENDBRANCH   7   8
ENDBRANCH   1   7
TORSDOF 4
ENDMDL
MODEL 7
REMARK VINA RESULT:    -4.391      1.639      3.698
REMARK INTER + INTRA:          -5.871
REMARK INTER:                  -5.543
REMARK INTRA:                  -0.327
REMARK UNBOUND:                -0.453
REMARK SMILES C=CC[C@@H](C)C(=O)CC
REMARK SMILES IDX 4 1 5 2 6 3 7 4 8 5 9 6 3 7 2 8 1 9
REMARK H PARENT
REMARK Flexibility Score: inf
ROOT
ATOM      1  C   UNL     1      33.473  20.350  15.029  1.00  0.00     0.057 C 
ATOM      2  C   UNL     1      32.059  20.320  14.431  1.00  0.00     0.016 C 
ENDROOT
BRANCH   1   3
ATOM      3  C   UNL     1      33.493  21.231  16.260  1.00  0.00     0.135 C 
ATOM      4  O   UNL     1      32.460  21.417  16.889  1.00  0.00    -0.299 OA
BRANCH   3   5
ATOM      5  C   UNL     1      34.764  21.889  16.728  1.00  0.00     0.072 C 
ATOM      6  C   UNL     1      34.825  21.924  18.251  1.00  0.00     0.012 C 
ENDBRANCH   3   5
ENDBRANCH   1   3
BRANCH   1   7
ATOM      7  C   UNL     1      33.971  18.934  15.389  1.00  0.00     0.038 C 
BRANCH   7   8
ATOM      8  C   UNL     1      32.851  18.026  15.825  1.00  0.00    -0.034 C 
ATOM      9  C   UNL     1      32.627  17.753  17.115  1.00  0.00     0.004 C 
ENDBRANCH   7   8
ENDBRANCH   1   7
TORSDOF 4
ENDMDL
MODEL 8
REMARK VINA RESULT:    -4.380     13.160     14.029
REMARK INTER + INTRA:          -5.857
REMARK INTER:                  -5.419
REMARK INTRA:                  -0.438
REMARK UNBOUND:                -0.453
REMARK SMILES C=CC[C@@H](C)C(=O)CC
REMARK SMILES IDX 4 1 5 2 6 3 7 4 8 5 9 6 3 7 2 8 1 9
REMARK H PARENT
REMARK Flexibility Score: inf
ROOT
ATOM      1  C   UNL     1      27.076  18.079  28.535  1.00  0.00     0.057 C 
ATOM      2  C   UNL     1      28.544  17.993  28.979  1.00  0.00     0.016 C 
ENDROOT
BRANCH   1   3
ATOM      3  C   UNL     1      26.326  19.050  29.421  1.00  0.00     0.135 C 
ATOM      4  O   UNL     1      25.113  18.945  29.545  1.00  0.00    -0.299 OA
BRANCH   3   5
ATOM      5  C   UNL     1      27.044  20.151  30.157  1.00  0.00     0.072 C 
ATOM      6  C   UNL     1      27.011  21.448  29.355  1.00  0.00     0.012 C 
ENDBRANCH   3   5
ENDBRANCH   1   3
BRANCH   1   7
ATOM      7  C   UNL     1      26.951  18.511  27.059  1.00  0.00     0.038 C 
BRANCH   7   8
ATOM      8  C   UNL     1      28.283  18.856  26.447  1.00  0.00    -0.034 C 
ATOM      9  C   UNL     1      28.489  20.015  25.814  1.00  0.00     0.004 C 
ENDBRANCH   7   8
ENDBRANCH   1   7
TORSDOF 4
ENDMDL
MODEL 9
REMARK VINA RESULT:    -4.366      2.164      4.009
REMARK INTER + INTRA:          -5.840
REMARK INTER:                  -5.528
REMARK INTRA:                  -0.312
REMARK UNBOUND:                -0.453
REMARK SMILES C=CC[C@@H](C)C(=O)CC
REMARK SMILES IDX 4 1 5 2 6 3 7 4 8 5 9 6 3 7 2 8 1 9
REMARK H PARENT
REMARK Flexibility Score: inf
ROOT
ATOM      1  C   UNL     1      32.188  19.411  17.987  1.00  0.00     0.057 C 
ATOM      2  C   UNL     1      31.972  19.376  19.507  1.00  0.00     0.016 C 
ENDROOT
BRANCH   1   3
ATOM      3  C   UNL     1      32.505  20.823  17.544  1.00  0.00     0.135 C 
ATOM      4  O   UNL     1      31.723  21.420  16.815  1.00  0.00    -0.299 OA
BRANCH   3   5
ATOM      5  C   UNL     1      33.771  21.513  17.980  1.00  0.00     0.072 C 
ATOM      6  C   UNL     1      34.625  21.889  16.774  1.00  0.00     0.012 C 
ENDBRANCH   3   5
ENDBRANCH   1   3
BRANCH   1   7
ATOM      7  C   UNL     1      33.320  18.457  17.550  1.00  0.00     0.038 C 
BRANCH   7   8
ATOM      8  C   UNL     1      32.882  17.507  16.466  1.00  0.00    -0.034 C 
ATOM      9  C   UNL     1      31.593  17.336  16.157  1.00  0.00     0.004 C 
ENDBRANCH   7   8
ENDBRANCH   1   7
TORSDOF 4
ENDMDL
