MODEL 1
REMARK VINA RESULT:    -4.610      0.000      0.000
REMARK INTER + INTRA:          -8.657
REMARK INTER:                  -7.306
REMARK INTRA:                  -1.351
REMARK UNBOUND:                -1.351
REMARK SMILES CCCCCCCCCCCC(=O)[O-]
REMARK SMILES IDX 7 1 8 2 9 3 10 4 11 5 12 6 13 7 14 8 6 9 5 10 4 11 3 12 2 13
REMARK SMILES IDX 1 14
REMARK H PARENT
REMARK Flexibility Score: inf
ROOT
ATOM      1  C   UNL     1     162.338 168.023 159.907  1.00  0.00     0.000 C 
ENDROOT
BRANCH   1   2
ATOM      2  C   UNL     1     161.057 168.018 160.757  1.00  0.00     0.000 C 
BRANCH   2   3
ATOM      3  C   UNL     1     159.929 167.187 160.121  1.00  0.00     0.000 C 
BRANCH   3   4
ATOM      4  C   UNL     1     159.539 165.970 160.974  1.00  0.00     0.006 C 
BRANCH   4   5
ATOM      5  C   UNL     1     160.236 165.956 162.341  1.00  0.00     0.053 C 
BRANCH   5   6
ATOM      6  C   UNL     1     161.009 164.688 162.520  1.00  0.00     0.041 C 
ATOM      7  O   UNL     1     161.469 164.078 161.519  1.00  0.00    -0.550 OA
ATOM      8  O   UNL     1     161.263 164.203 163.797  1.00  0.00    -0.550 OA
ENDBRANCH   5   6
ENDBRANCH   4   5
ENDBRANCH   3   4
ENDBRANCH   2   3
ENDBRANCH   1   2
BRANCH   1   9
ATOM      9  C   UNL     1     163.166 166.739 160.072  1.00  0.00     0.000 C 
BRANCH   9  10
ATOM     10  C   UNL     1     163.539 166.149 158.703  1.00  0.00    -0.000 C 
BRANCH  10  11
ATOM     11  C   UNL     1     162.691 164.920 158.337  1.00  0.00    -0.000 C 
BRANCH  11  12
ATOM     12  C   UNL     1     161.462 165.280 157.488  1.00  0.00    -0.000 C 
BRANCH  12  13
ATOM     13  C   UNL     1     161.745 166.500 156.604  1.00  0.00    -0.003 C 
ATOM     14  C   UNL     1     160.851 166.505 155.368  1.00  0.00     0.004 C 
ENDBRANCH  12  13
ENDBRANCH  11  12
ENDBRANCH  10  11
ENDBRANCH   9  10
ENDBRANCH   1   9
TORSDOF 10
ENDMDL
MODEL 2
REMARK VINA RESULT:    -4.494      2.150      3.248
REMARK INTER + INTRA:          -8.472
REMARK INTER:                  -7.039
REMARK INTRA:                  -1.432
REMARK UNBOUND:                -1.351
REMARK SMILES CCCCCCCCCCCC(=O)[O-]
REMARK SMILES IDX 7 1 8 2 9 3 10 4 11 5 12 6 13 7 14 8 6 9 5 10 4 11 3 12 2 13
REMARK SMILES IDX 1 14
REMARK H PARENT
REMARK Flexibility Score: inf
ROOT
ATOM      1  C   UNL     1     159.931 167.433 159.909  1.00  0.00     0.000 C 
ENDROOT
BRANCH   1   2
ATOM      2  C   UNL     1     158.985 166.374 160.497  1.00  0.00     0.000 C 
BRANCH   2   3
ATOM      3  C   UNL     1     159.737 165.270 161.262  1.00  0.00     0.000 C 
BRANCH   3   4
ATOM      4  C   UNL     1     160.222 164.139 160.340  1.00  0.00     0.006 C 
BRANCH   4   5
ATOM      5  C   UNL     1     159.133 163.653 159.375  1.00  0.00     0.053 C 
BRANCH   5   6
ATOM      6  C   UNL     1     159.751 163.039 158.158  1.00  0.00     0.041 C 
ATOM      7  O   UNL     1     159.071 162.887 157.109  1.00  0.00    -0.550 OA
ATOM      8  O   UNL     1     161.093 162.680 158.167  1.00  0.00    -0.550 OA
ENDBRANCH   5   6
ENDBRANCH   4   5
ENDBRANCH   3   4
ENDBRANCH   2   3
ENDBRANCH   1   2
BRANCH   1   9
ATOM      9  C   UNL     1     161.146 167.710 160.809  1.00  0.00     0.000 C 
BRANCH   9  10
ATOM     10  C   UNL     1     162.421 167.883 159.970  1.00  0.00    -0.000 C 
BRANCH  10  11
ATOM     11  C   UNL     1     163.295 166.618 159.954  1.00  0.00    -0.000 C 
BRANCH  11  12
ATOM     12  C   UNL     1     163.050 165.744 158.715  1.00  0.00    -0.000 C 
BRANCH  12  13
ATOM     13  C   UNL     1     162.836 166.609 157.467  1.00  0.00    -0.003 C 
ATOM     14  C   UNL     1     161.561 166.211 156.732  1.00  0.00     0.004 C 
ENDBRANCH  12  13
ENDBRANCH  11  12
ENDBRANCH  10  11
ENDBRANCH   9  10
ENDBRANCH   1   9
TORSDOF 10
ENDMDL
MODEL 3
REMARK VINA RESULT:    -4.447      2.029      4.556
REMARK INTER + INTRA:          -8.398
REMARK INTER:                  -7.183
REMARK INTRA:                  -1.215
REMARK UNBOUND:                -1.351
REMARK SMILES CCCCCCCCCCCC(=O)[O-]
REMARK SMILES IDX 7 1 8 2 9 3 10 4 11 5 12 6 13 7 14 8 6 9 5 10 4 11 3 12 2 13
REMARK SMILES IDX 1 14
REMARK H PARENT
REMARK Flexibility Score: inf
ROOT
ATOM      1  C   UNL     1     163.055 166.498 159.848  1.00  0.00     0.000 C 
ENDROOT
BRANCH   1   2
ATOM      2  C   UNL     1     163.639 166.145 158.470  1.00  0.00     0.000 C 
BRANCH   2   3
ATOM      3  C   UNL     1     163.069 164.832 157.905  1.00  0.00     0.000 C 
BRANCH   3   4
ATOM      4  C   UNL     1     161.948 164.250 158.781  1.00  0.00     0.006 C 
BRANCH   4   5
ATOM      5  C   UNL     1     161.548 162.828 158.364  1.00  0.00     0.053 C 
BRANCH   5   6
ATOM      6  C   UNL     1     162.472 161.825 158.980  1.00  0.00     0.041 C 
ATOM      7  O   UNL     1     162.177 161.280 160.076  1.00  0.00    -0.550 OA
ATOM      8  O   UNL     1     163.637 161.457 158.319  1.00  0.00    -0.550 OA
ENDBRANCH   5   6
ENDBRANCH   4   5
ENDBRANCH   3   4
ENDBRANCH   2   3
ENDBRANCH   1   2
BRANCH   1   9
ATOM      9  C   UNL     1     162.459 167.913 159.896  1.00  0.00     0.000 C 
BRANCH   9  10
ATOM     10  C   UNL     1     161.173 167.937 160.736  1.00  0.00    -0.000 C 
BRANCH  10  11
ATOM     11  C   UNL     1     160.011 167.191 160.062  1.00  0.00    -0.000 C 
BRANCH  11  12
ATOM     12  C   UNL     1     159.421 166.085 160.950  1.00  0.00    -0.000 C 
BRANCH  12  13
ATOM     13  C   UNL     1     160.158 166.009 162.293  1.00  0.00    -0.003 C 
ATOM     14  C   UNL     1     160.975 164.727 162.403  1.00  0.00     0.004 C 
ENDBRANCH  12  13
ENDBRANCH  11  12
ENDBRANCH  10  11
ENDBRANCH   9  10
ENDBRANCH   1   9
TORSDOF 10
ENDMDL
MODEL 4
REMARK VINA RESULT:    -4.407      3.056      5.790
REMARK INTER + INTRA:          -8.335
REMARK INTER:                  -6.968
REMARK INTRA:                  -1.367
REMARK UNBOUND:                -1.351
REMARK SMILES CCCCCCCCCCCC(=O)[O-]
REMARK SMILES IDX 7 1 8 2 9 3 10 4 11 5 12 6 13 7 14 8 6 9 5 10 4 11 3 12 2 13
REMARK SMILES IDX 1 14
REMARK H PARENT
REMARK Flexibility Score: inf
ROOT
ATOM      1  C   UNL     1     158.533 163.853 159.322  1.00  0.00     0.000 C 
ENDROOT
BRANCH   1   2
ATOM      2  C   UNL     1     159.986 163.350 159.314  1.00  0.00     0.000 C 
BRANCH   2   3
ATOM      3  C   UNL     1     160.811 163.943 158.159  1.00  0.00     0.000 C 
BRANCH   3   4
ATOM      4  C   UNL     1     161.770 165.051 158.626  1.00  0.00     0.006 C 
BRANCH   4   5
ATOM      5  C   UNL     1     161.374 166.437 158.101  1.00  0.00     0.053 C 
BRANCH   5   6
ATOM      6  C   UNL     1     161.891 166.635 156.711  1.00  0.00     0.041 C 
ATOM      7  O   UNL     1     163.103 166.913 156.519  1.00  0.00    -0.550 OA
ATOM      8  O   UNL     1     161.043 166.465 155.624  1.00  0.00    -0.550 OA
ENDBRANCH   5   6
ENDBRANCH   4   5
ENDBRANCH   3   4
ENDBRANCH   2   3
ENDBRANCH   1   2
BRANCH   1   9
ATOM      9  C   UNL     1     158.173 164.607 160.612  1.00  0.00     0.000 C 
BRANCH   9  10
ATOM     10  C   UNL     1     158.561 166.089 160.505  1.00  0.00    -0.000 C 
BRANCH  10  11
ATOM     11  C   UNL     1     159.714 166.469 161.449  1.00  0.00    -0.000 C 
BRANCH  11  12
ATOM     12  C   UNL     1     159.929 165.438 162.566  1.00  0.00    -0.000 C 
BRANCH  12  13
ATOM     13  C   UNL     1     161.298 164.761 162.432  1.00  0.00    -0.003 C 
ATOM     14  C   UNL     1     161.621 163.920 163.662  1.00  0.00     0.004 C 
ENDBRANCH  12  13
ENDBRANCH  11  12
ENDBRANCH  10  11
ENDBRANCH   9  10
ENDBRANCH   1   9
TORSDOF 10
ENDMDL
MODEL 5
REMARK VINA RESULT:    -4.395      3.041      4.835
REMARK INTER + INTRA:          -8.316
REMARK INTER:                  -6.864
REMARK INTRA:                  -1.452
REMARK UNBOUND:                -1.351
REMARK SMILES CCCCCCCCCCCC(=O)[O-]
REMARK SMILES IDX 7 1 8 2 9 3 10 4 11 5 12 6 13 7 14 8 6 9 5 10 4 11 3 12 2 13
REMARK SMILES IDX 1 14
REMARK H PARENT
REMARK Flexibility Score: inf
ROOT
ATOM      1  C   UNL     1     159.061 166.279 160.902  1.00  0.00     0.000 C 
ENDROOT
BRANCH   1   2
ATOM      2  C   UNL     1     159.973 167.197 160.072  1.00  0.00     0.000 C 
BRANCH   2   3
ATOM      3  C   UNL     1     161.459 166.809 160.180  1.00  0.00     0.000 C 
BRANCH   3   4
ATOM      4  C   UNL     1     162.126 166.636 158.806  1.00  0.00     0.006 C 
BRANCH   4   5
ATOM      5  C   UNL     1     161.127 166.248 157.707  1.00  0.00     0.053 C 
BRANCH   5   6
ATOM      6  C   UNL     1     161.671 166.603 156.359  1.00  0.00     0.041 C 
ATOM      7  O   UNL     1     162.878 166.936 156.229  1.00  0.00    -0.550 OA
ATOM      8  O   UNL     1     160.855 166.519 155.238  1.00  0.00    -0.550 OA
ENDBRANCH   5   6
ENDBRANCH   4   5
ENDBRANCH   3   4
ENDBRANCH   2   3
ENDBRANCH   1   2
BRANCH   1   9
ATOM      9  C   UNL     1     159.546 164.821 160.922  1.00  0.00     0.000 C 
BRANCH   9  10
ATOM     10  C   UNL     1     158.928 164.023 159.765  1.00  0.00    -0.000 C 
BRANCH  10  11
ATOM     11  C   UNL     1     159.864 162.924 159.235  1.00  0.00    -0.000 C 
BRANCH  11  12
ATOM     12  C   UNL     1     161.307 163.082 159.739  1.00  0.00    -0.000 C 
BRANCH  12  13
ATOM     13  C   UNL     1     162.280 162.272 158.875  1.00  0.00    -0.003 C 
ATOM     14  C   UNL     1     163.227 163.186 158.104  1.00  0.00     0.004 C 
ENDBRANCH  12  13
ENDBRANCH  11  12
ENDBRANCH  10  11
ENDBRANCH   9  10
ENDBRANCH   1   9
TORSDOF 10
ENDMDL
MODEL 6
REMARK VINA RESULT:    -4.345      1.933      3.155
REMARK INTER + INTRA:          -8.236
REMARK INTER:                  -6.759
REMARK INTRA:                  -1.477
REMARK UNBOUND:                -1.351
REMARK SMILES CCCCCCCCCCCC(=O)[O-]
REMARK SMILES IDX 7 1 8 2 9 3 10 4 11 5 12 6 13 7 14 8 6 9 5 10 4 11 3 12 2 13
REMARK SMILES IDX 1 14
REMARK H PARENT
REMARK Flexibility Score: inf
ROOT
ATOM      1  C   UNL     1     159.982 163.178 158.217  1.00  0.00     0.000 C 
ENDROOT
BRANCH   1   2
ATOM      2  C   UNL     1     158.725 163.365 159.083  1.00  0.00     0.000 C 
BRANCH   2   3
ATOM      3  C   UNL     1     158.995 164.208 160.342  1.00  0.00     0.000 C 
BRANCH   3   4
ATOM      4  C   UNL     1     159.812 165.475 160.040  1.00  0.00     0.006 C 
BRANCH   4   5
ATOM      5  C   UNL     1     161.006 165.650 160.987  1.00  0.00     0.053 C 
BRANCH   5   6
ATOM      6  C   UNL     1     160.566 165.519 162.411  1.00  0.00     0.041 C 
ATOM      7  O   UNL     1     161.028 164.600 163.137  1.00  0.00    -0.550 OA
ATOM      8  O   UNL     1     159.680 166.443 162.952  1.00  0.00    -0.550 OA
ENDBRANCH   5   6
ENDBRANCH   4   5
ENDBRANCH   3   4
ENDBRANCH   2   3
ENDBRANCH   1   2
BRANCH   1   9
ATOM      9  C   UNL     1     161.015 162.243 158.864  1.00  0.00     0.000 C 
BRANCH   9  10
ATOM     10  C   UNL     1     162.424 162.852 158.794  1.00  0.00    -0.000 C 
BRANCH  10  11
ATOM     11  C   UNL     1     162.496 164.071 157.861  1.00  0.00    -0.000 C 
BRANCH  11  12
ATOM     12  C   UNL     1     163.556 165.092 158.301  1.00  0.00    -0.000 C 
BRANCH  12  13
ATOM     13  C   UNL     1     163.161 166.511 157.876  1.00  0.00    -0.003 C 
ATOM     14  C   UNL     1     161.916 166.496 156.995  1.00  0.00     0.004 C 
ENDBRANCH  12  13
ENDBRANCH  11  12
ENDBRANCH  10  11
ENDBRANCH   9  10
ENDBRANCH   1   9
TORSDOF 10
ENDMDL
MODEL 7
REMARK VINA RESULT:    -4.307      2.446      5.287
REMARK INTER + INTRA:          -8.176
REMARK INTER:                  -7.074
REMARK INTRA:                  -1.103
REMARK UNBOUND:                -1.351
REMARK SMILES CCCCCCCCCCCC(=O)[O-]
REMARK SMILES IDX 7 1 8 2 9 3 10 4 11 5 12 6 13 7 14 8 6 9 5 10 4 11 3 12 2 13
REMARK SMILES IDX 1 14
REMARK H PARENT
REMARK Flexibility Score: inf
ROOT
ATOM      1  C   UNL     1     160.547 163.461 158.370  1.00  0.00     0.000 C 
ENDROOT
BRANCH   1   2
ATOM      2  C   UNL     1     161.667 162.428 158.575  1.00  0.00     0.000 C 
BRANCH   2   3
ATOM      3  C   UNL     1     163.055 162.978 158.206  1.00  0.00     0.000 C 
BRANCH   3   4
ATOM      4  C   UNL     1     163.013 164.459 157.795  1.00  0.00     0.006 C 
BRANCH   4   5
ATOM      5  C   UNL     1     163.914 165.343 158.668  1.00  0.00     0.053 C 
BRANCH   5   6
ATOM      6  C   UNL     1     163.137 166.499 159.215  1.00  0.00     0.041 C 
ATOM      7  O   UNL     1     162.113 166.917 158.615  1.00  0.00    -0.550 OA
ATOM      8  O   UNL     1     163.518 167.085 160.416  1.00  0.00    -0.550 OA
ENDBRANCH   5   6
ENDBRANCH   4   5
ENDBRANCH   3   4
ENDBRANCH   2   3
ENDBRANCH   1   2
BRANCH   1   9
ATOM      9  C   UNL     1     159.197 162.995 158.936  1.00  0.00     0.000 C 
BRANCH   9  10
ATOM     10  C   UNL     1     158.605 164.052 159.880  1.00  0.00    -0.000 C 
BRANCH  10  11
ATOM     11  C   UNL     1     159.618 165.148 160.251  1.00  0.00    -0.000 C 
BRANCH  11  12
ATOM     12  C   UNL     1     159.283 165.839 161.581  1.00  0.00    -0.000 C 
BRANCH  12  13
ATOM     13  C   UNL     1     160.313 165.481 162.659  1.00  0.00    -0.003 C 
ATOM     14  C   UNL     1     161.414 164.588 162.096  1.00  0.00     0.004 C 
ENDBRANCH  12  13
ENDBRANCH  11  12
ENDBRANCH  10  11
ENDBRANCH   9  10
ENDBRANCH   1   9
TORSDOF 10
ENDMDL
MODEL 8
REMARK VINA RESULT:    -4.299      2.175      4.621
REMARK INTER + INTRA:          -8.163
REMARK INTER:                  -6.774
REMARK INTRA:                  -1.389
REMARK UNBOUND:                -1.351
REMARK SMILES CCCCCCCCCCCC(=O)[O-]
REMARK SMILES IDX 7 1 8 2 9 3 10 4 11 5 12 6 13 7 14 8 6 9 5 10 4 11 3 12 2 13
REMARK SMILES IDX 1 14
REMARK H PARENT
REMARK Flexibility Score: inf
ROOT
ATOM      1  C   UNL     1     163.619 165.764 158.982  1.00  0.00     0.000 C 
ENDROOT
BRANCH   1   2
ATOM      2  C   UNL     1     163.054 164.835 157.895  1.00  0.00     0.000 C 
BRANCH   2   3
ATOM      3  C   UNL     1     163.383 163.354 158.154  1.00  0.00     0.000 C 
BRANCH   3   4
ATOM      4  C   UNL     1     162.123 162.475 158.231  1.00  0.00     0.006 C 
BRANCH   4   5
ATOM      5  C   UNL     1     161.149 162.930 159.326  1.00  0.00     0.053 C 
BRANCH   5   6
ATOM      6  C   UNL     1     159.795 163.188 158.744  1.00  0.00     0.041 C 
ATOM      7  O   UNL     1     158.760 162.986 159.432  1.00  0.00    -0.550 OA
ATOM      8  O   UNL     1     159.677 163.697 157.457  1.00  0.00    -0.550 OA
ENDBRANCH   5   6
ENDBRANCH   4   5
ENDBRANCH   3   4
ENDBRANCH   2   3
ENDBRANCH   1   2
BRANCH   1   9
ATOM      9  C   UNL     1     162.657 166.905 159.347  1.00  0.00     0.000 C 
BRANCH   9  10
ATOM     10  C   UNL     1     161.245 166.622 158.812  1.00  0.00    -0.000 C 
BRANCH  10  11
ATOM     11  C   UNL     1     160.141 167.156 159.739  1.00  0.00    -0.000 C 
BRANCH  11  12
ATOM     12  C   UNL     1     160.481 166.981 161.227  1.00  0.00    -0.000 C 
BRANCH  12  13
ATOM     13  C   UNL     1     160.055 165.596 161.727  1.00  0.00    -0.003 C 
ATOM     14  C   UNL     1     161.229 164.849 162.350  1.00  0.00     0.004 C 
ENDBRANCH  12  13
ENDBRANCH  11  12
ENDBRANCH  10  11
ENDBRANCH   9  10
ENDBRANCH   1   9
TORSDOF 10
ENDMDL
MODEL 9
REMARK VINA RESULT:    -4.283      3.290      5.469
REMARK INTER + INTRA:          -8.138
REMARK INTER:                  -6.604
REMARK INTRA:                  -1.534
REMARK UNBOUND:                -1.351
REMARK SMILES CCCCCCCCCCCC(=O)[O-]
REMARK SMILES IDX 7 1 8 2 9 3 10 4 11 5 12 6 13 7 14 8 6 9 5 10 4 11 3 12 2 13
REMARK SMILES IDX 1 14
REMARK H PARENT
REMARK Flexibility Score: inf
ROOT
ATOM      1  C   UNL     1     162.463 162.971 158.529  1.00  0.00     0.000 C 
ENDROOT
BRANCH   1   2
ATOM      2  C   UNL     1     163.328 164.127 158.000  1.00  0.00     0.000 C 
BRANCH   2   3
ATOM      3  C   UNL     1     163.087 165.442 158.763  1.00  0.00     0.000 C 
BRANCH   3   4
ATOM      4  C   UNL     1     162.617 166.580 157.842  1.00  0.00     0.006 C 
BRANCH   4   5
ATOM      5  C   UNL     1     161.271 166.280 157.170  1.00  0.00     0.053 C 
BRANCH   5   6
ATOM      6  C   UNL     1     161.335 166.598 155.709  1.00  0.00     0.041 C 
ATOM      7  O   UNL     1     162.414 166.993 155.193  1.00  0.00    -0.550 OA
ATOM      8  O   UNL     1     160.216 166.412 154.908  1.00  0.00    -0.550 OA
ENDBRANCH   5   6
ENDBRANCH   4   5
ENDBRANCH   3   4
ENDBRANCH   2   3
ENDBRANCH   1   2
BRANCH   1   9
ATOM      9  C   UNL     1     161.535 163.400 159.677  1.00  0.00     0.000 C 
BRANCH   9  10
ATOM     10  C   UNL     1     160.062 163.185 159.299  1.00  0.00    -0.000 C 
BRANCH  10  11
ATOM     11  C   UNL     1     159.132 164.241 159.917  1.00  0.00    -0.000 C 
BRANCH  11  12
ATOM     12  C   UNL     1     159.862 165.178 160.891  1.00  0.00    -0.000 C 
BRANCH  12  13
ATOM     13  C   UNL     1     159.643 166.646 160.508  1.00  0.00    -0.003 C 
ATOM     14  C   UNL     1     160.833 167.507 160.919  1.00  0.00     0.004 C 
ENDBRANCH  12  13
ENDBRANCH  11  12
ENDBRANCH  10  11
ENDBRANCH   9  10
ENDBRANCH   1   9
TORSDOF 10
ENDMDL
