MODEL 1
REMARK VINA RESULT:    -5.752      0.000      0.000
REMARK INTER + INTRA:         -16.096
REMARK INTER:                 -14.495
REMARK INTRA:                  -1.601
REMARK UNBOUND:                -1.601
REMARK SMILES CCCCCCCCCCCCCCCCCCCCCCCCCCCC(=O)[O-]
REMARK SMILES IDX 15 1 16 2 17 3 18 4 19 5 20 6 21 7 22 8 23 9 24 10 25 11
REMARK SMILES IDX 26 12 27 13 28 14 29 15 30 16 14 17 13 18 12 19 11 20 10 21
REMARK SMILES IDX 9 22 8 23 7 24 6 25 5 26 4 27 3 28 2 29 1 30
REMARK H PARENT
REMARK Flexibility Score: inf
ROOT
ATOM      1  C   UNL     1      23.604 -17.543  18.949  1.00  0.00     0.000 C 
ENDROOT
BRANCH   1   2
ATOM      2  C   UNL     1      23.071 -17.059  17.590  1.00  0.00     0.000 C 
BRANCH   2   3
ATOM      3  C   UNL     1      22.693 -18.203  16.630  1.00  0.00     0.000 C 
BRANCH   3   4
ATOM      4  C   UNL     1      22.329 -19.500  17.373  1.00  0.00     0.000 C 
BRANCH   4   5
ATOM      5  C   UNL     1      21.148 -20.215  16.700  1.00  0.00     0.000 C 
BRANCH   5   6
ATOM      6  C   UNL     1      20.428 -21.202  17.645  1.00  0.00     0.000 C 
BRANCH   6   7
ATOM      7  C   UNL     1      18.912 -20.959  17.773  1.00  0.00     0.000 C 
BRANCH   7   8
ATOM      8  C   UNL     1      18.023 -22.181  17.482  1.00  0.00     0.000 C 
BRANCH   8   9
ATOM      9  C   UNL     1      18.103 -22.684  16.022  1.00  0.00     0.000 C 
BRANCH   9  10
ATOM     10  C   UNL     1      17.979 -21.549  14.992  1.00  0.00     0.000 C 
BRANCH  10  11
ATOM     11  C   UNL     1      18.997 -21.674  13.845  1.00  0.00     0.000 C 
BRANCH  11  12
ATOM     12  C   UNL     1      18.443 -22.462  12.649  1.00  0.00     0.006 C 
BRANCH  12  13
ATOM     13  C   UNL     1      17.013 -22.018  12.315  1.00  0.00     0.053 C 
BRANCH  13  14
ATOM     14  C   UNL     1      16.883 -21.568  10.890  1.00  0.00     0.041 C 
ATOM     15  O   UNL     1      17.908 -21.382  10.182  1.00  0.00    -0.550 OA
ATOM     16  O   UNL     1      15.622 -21.415  10.324  1.00  0.00    -0.550 OA
ENDBRANCH  13  14
ENDBRANCH  12  13
ENDBRANCH  11  12
ENDBRANCH  10  11
ENDBRANCH   9  10
ENDBRANCH   8   9
ENDBRANCH   7   8
ENDBRANCH   6   7
ENDBRANCH   5   6
ENDBRANCH   4   5
ENDBRANCH   3   4
ENDBRANCH   2   3
ENDBRANCH   1   2
BRANCH   1  17
ATOM     17  C   UNL     1      23.132 -16.652  20.115  1.00  0.00     0.000 C 
BRANCH  17  18
ATOM     18  C   UNL     1      22.652 -15.267  19.651  1.00  0.00     0.000 C 
BRANCH  18  19
ATOM     19  C   UNL     1      22.640 -14.175  20.749  1.00  0.00     0.000 C 
BRANCH  19  20
ATOM     20  C   UNL     1      21.445 -13.200  20.698  1.00  0.00     0.000 C 
BRANCH  20  21
ATOM     21  C   UNL     1      21.589 -11.976  21.626  1.00  0.00     0.000 C 
BRANCH  21  22
ATOM     22  C   UNL     1      20.450 -11.884  22.661  1.00  0.00    -0.000 C 
BRANCH  22  23
ATOM     23  C   UNL     1      20.702 -10.814  23.735  1.00  0.00    -0.000 C 
BRANCH  23  24
ATOM     24  C   UNL     1      21.770  -9.787  23.331  1.00  0.00    -0.000 C 
BRANCH  24  25
ATOM     25  C   UNL     1      21.358  -8.371  23.769  1.00  0.00    -0.000 C 
BRANCH  25  26
ATOM     26  C   UNL     1      20.317  -8.377  24.899  1.00  0.00    -0.000 C 
BRANCH  26  27
ATOM     27  C   UNL     1      20.247  -7.038  25.653  1.00  0.00    -0.000 C 
BRANCH  27  28
ATOM     28  C   UNL     1      19.172  -6.089  25.084  1.00  0.00    -0.000 C 
BRANCH  28  29
ATOM     29  C   UNL     1      19.704  -4.987  24.150  1.00  0.00    -0.003 C 
ATOM     30  C   UNL     1      18.808  -4.743  22.934  1.00  0.00     0.004 C 
ENDBRANCH  28  29
ENDBRANCH  27  28
ENDBRANCH  26  27
ENDBRANCH  25  26
ENDBRANCH  24  25
ENDBRANCH  23  24
ENDBRANCH  22  23
ENDBRANCH  21  22
ENDBRANCH  20  21
ENDBRANCH  19  20
ENDBRANCH  18  19
ENDBRANCH  17  18
ENDBRANCH   1  17
TORSDOF 26
ENDMDL
MODEL 2
REMARK VINA RESULT:    -5.735      1.152      2.063
REMARK INTER + INTRA:         -16.053
REMARK INTER:                 -14.575
REMARK INTRA:                  -1.478
REMARK UNBOUND:                -1.601
REMARK SMILES CCCCCCCCCCCCCCCCCCCCCCCCCCCC(=O)[O-]
REMARK SMILES IDX 15 1 16 2 17 3 18 4 19 5 20 6 21 7 22 8 23 9 24 10 25 11
REMARK SMILES IDX 26 12 27 13 28 14 29 15 30 16 14 17 13 18 12 19 11 20 10 21
REMARK SMILES IDX 9 22 8 23 7 24 6 25 5 26 4 27 3 28 2 29 1 30
REMARK H PARENT
REMARK Flexibility Score: inf
ROOT
ATOM      1  C   UNL     1      22.994 -15.676  19.561  1.00  0.00     0.000 C 
ENDROOT
BRANCH   1   2
ATOM      2  C   UNL     1      22.639 -15.335  18.104  1.00  0.00     0.000 C 
BRANCH   2   3
ATOM      3  C   UNL     1      22.991 -16.452  17.103  1.00  0.00     0.000 C 
BRANCH   3   4
ATOM      4  C   UNL     1      23.330 -17.781  17.798  1.00  0.00     0.000 C 
BRANCH   4   5
ATOM      5  C   UNL     1      23.327 -18.948  16.798  1.00  0.00     0.000 C 
BRANCH   5   6
ATOM      6  C   UNL     1      21.906 -19.330  16.328  1.00  0.00     0.000 C 
BRANCH   6   7
ATOM      7  C   UNL     1      21.419 -20.698  16.843  1.00  0.00     0.000 C 
BRANCH   7   8
ATOM      8  C   UNL     1      20.195 -20.652  17.774  1.00  0.00     0.000 C 
BRANCH   8   9
ATOM      9  C   UNL     1      18.864 -21.025  17.082  1.00  0.00     0.000 C 
BRANCH   9  10
ATOM     10  C   UNL     1      19.070 -21.772  15.753  1.00  0.00     0.000 C 
BRANCH  10  11
ATOM     11  C   UNL     1      17.789 -22.461  15.254  1.00  0.00     0.000 C 
BRANCH  11  12
ATOM     12  C   UNL     1      17.350 -21.957  13.871  1.00  0.00     0.006 C 
BRANCH  12  13
ATOM     13  C   UNL     1      18.252 -20.813  13.393  1.00  0.00     0.053 C 
BRANCH  13  14
ATOM     14  C   UNL     1      18.254 -20.686  11.899  1.00  0.00     0.041 C 
ATOM     15  O   UNL     1      17.412 -21.313  11.202  1.00  0.00    -0.550 OA
ATOM     16  O   UNL     1      19.151 -19.824  11.277  1.00  0.00    -0.550 OA
ENDBRANCH  13  14
ENDBRANCH  12  13
ENDBRANCH  11  12
ENDBRANCH  10  11
ENDBRANCH   9  10
ENDBRANCH   8   9
ENDBRANCH   7   8
ENDBRANCH   6   7
ENDBRANCH   5   6
ENDBRANCH   4   5
ENDBRANCH   3   4
ENDBRANCH   2   3
ENDBRANCH   1   2
BRANCH   1  17
ATOM     17  C   UNL     1      22.759 -14.490  20.516  1.00  0.00     0.000 C 
BRANCH  17  18
ATOM     18  C   UNL     1      21.427 -13.767  20.253  1.00  0.00     0.000 C 
BRANCH  18  19
ATOM     19  C   UNL     1      21.078 -12.646  21.262  1.00  0.00     0.000 C 
BRANCH  19  20
ATOM     20  C   UNL     1      22.287 -11.947  21.918  1.00  0.00     0.000 C 
BRANCH  20  21
ATOM     21  C   UNL     1      21.935 -10.642  22.662  1.00  0.00     0.000 C 
BRANCH  21  22
ATOM     22  C   UNL     1      20.852 -10.851  23.738  1.00  0.00    -0.000 C 
BRANCH  22  23
ATOM     23  C   UNL     1      20.724  -9.658  24.698  1.00  0.00    -0.000 C 
BRANCH  23  24
ATOM     24  C   UNL     1      21.588  -8.456  24.292  1.00  0.00    -0.000 C 
BRANCH  24  25
ATOM     25  C   UNL     1      21.648  -7.419  25.427  1.00  0.00    -0.000 C 
BRANCH  25  26
ATOM     26  C   UNL     1      21.010  -6.076  25.041  1.00  0.00    -0.000 C 
BRANCH  26  27
ATOM     27  C   UNL     1      19.879  -6.227  24.010  1.00  0.00    -0.000 C 
BRANCH  27  28
ATOM     28  C   UNL     1      18.595  -5.476  24.421  1.00  0.00    -0.000 C 
BRANCH  28  29
ATOM     29  C   UNL     1      18.540  -3.996  23.999  1.00  0.00    -0.003 C 
ATOM     30  C   UNL     1      18.410  -3.805  22.487  1.00  0.00     0.004 C 
ENDBRANCH  28  29
ENDBRANCH  27  28
ENDBRANCH  26  27
ENDBRANCH  25  26
ENDBRANCH  24  25
ENDBRANCH  23  24
ENDBRANCH  22  23
ENDBRANCH  21  22
ENDBRANCH  20  21
ENDBRANCH  19  20
ENDBRANCH  18  19
ENDBRANCH  17  18
ENDBRANCH   1  17
TORSDOF 26
ENDMDL
MODEL 3
REMARK VINA RESULT:    -5.702      1.680      3.019
REMARK INTER + INTRA:         -15.970
REMARK INTER:                 -14.347
REMARK INTRA:                  -1.622
REMARK UNBOUND:                -1.601
REMARK SMILES CCCCCCCCCCCCCCCCCCCCCCCCCCCC(=O)[O-]
REMARK SMILES IDX 15 1 16 2 17 3 18 4 19 5 20 6 21 7 22 8 23 9 24 10 25 11
REMARK SMILES IDX 26 12 27 13 28 14 29 15 30 16 14 17 13 18 12 19 11 20 10 21
REMARK SMILES IDX 9 22 8 23 7 24 6 25 5 26 4 27 3 28 2 29 1 30
REMARK H PARENT
REMARK Flexibility Score: inf
ROOT
ATOM      1  C   UNL     1      22.735 -18.159  16.646  1.00  0.00     0.000 C 
ENDROOT
BRANCH   1   2
ATOM      2  C   UNL     1      23.295 -19.528  17.071  1.00  0.00     0.000 C 
BRANCH   2   3
ATOM      3  C   UNL     1      22.267 -20.671  16.988  1.00  0.00     0.000 C 
BRANCH   3   4
ATOM      4  C   UNL     1      20.897 -20.274  17.562  1.00  0.00     0.000 C 
BRANCH   4   5
ATOM      5  C   UNL     1      19.825 -21.318  17.215  1.00  0.00     0.000 C 
BRANCH   5   6
ATOM      6  C   UNL     1      19.930 -21.822  15.758  1.00  0.00     0.000 C 
BRANCH   6   7
ATOM      7  C   UNL     1      19.289 -20.883  14.719  1.00  0.00     0.000 C 
BRANCH   7   8
ATOM      8  C   UNL     1      18.763 -21.571  13.446  1.00  0.00     0.000 C 
BRANCH   8   9
ATOM      9  C   UNL     1      19.037 -20.782  12.146  1.00  0.00     0.000 C 
BRANCH   9  10
ATOM     10  C   UNL     1      18.169 -21.254  10.967  1.00  0.00     0.000 C 
BRANCH  10  11
ATOM     11  C   UNL     1      17.005 -22.158  11.411  1.00  0.00     0.000 C 
BRANCH  11  12
ATOM     12  C   UNL     1      15.646 -21.448  11.331  1.00  0.00     0.006 C 
BRANCH  12  13
ATOM     13  C   UNL     1      15.270 -20.830  12.683  1.00  0.00     0.053 C 
BRANCH  13  14
ATOM     14  C   UNL     1      15.216 -19.332  12.620  1.00  0.00     0.041 C 
ATOM     15  O   UNL     1      16.241 -18.644  12.870  1.00  0.00    -0.550 OA
ATOM     16  O   UNL     1      14.045 -18.696  12.221  1.00  0.00    -0.550 OA
ENDBRANCH  13  14
ENDBRANCH  12  13
ENDBRANCH  11  12
ENDBRANCH  10  11
ENDBRANCH   9  10
ENDBRANCH   8   9
ENDBRANCH   7   8
ENDBRANCH   6   7
ENDBRANCH   5   6
ENDBRANCH   4   5
ENDBRANCH   3   4
ENDBRANCH   2   3
ENDBRANCH   1   2
BRANCH   1  17
ATOM     17  C   UNL     1      23.030 -17.057  17.681  1.00  0.00     0.000 C 
BRANCH  17  18
ATOM     18  C   UNL     1      23.160 -17.603  19.113  1.00  0.00     0.000 C 
BRANCH  18  19
ATOM     19  C   UNL     1      23.192 -16.526  20.226  1.00  0.00     0.000 C 
BRANCH  19  20
ATOM     20  C   UNL     1      22.667 -15.135  19.814  1.00  0.00     0.000 C 
BRANCH  20  21
ATOM     21  C   UNL     1      22.892 -14.036  20.873  1.00  0.00     0.000 C 
BRANCH  21  22
ATOM     22  C   UNL     1      21.722 -13.036  20.944  1.00  0.00    -0.000 C 
BRANCH  22  23
ATOM     23  C   UNL     1      21.940 -11.932  21.991  1.00  0.00    -0.000 C 
BRANCH  23  24
ATOM     24  C   UNL     1      20.657 -11.546  22.742  1.00  0.00    -0.000 C 
BRANCH  24  25
ATOM     25  C   UNL     1      20.950 -10.476  23.808  1.00  0.00    -0.000 C 
BRANCH  25  26
ATOM     26  C   UNL     1      21.455  -9.157  23.203  1.00  0.00    -0.000 C 
BRANCH  26  27
ATOM     27  C   UNL     1      20.999  -7.922  23.998  1.00  0.00    -0.000 C 
BRANCH  27  28
ATOM     28  C   UNL     1      21.736  -7.776  25.346  1.00  0.00    -0.000 C 
BRANCH  28  29
ATOM     29  C   UNL     1      21.239  -6.624  26.240  1.00  0.00    -0.003 C 
ATOM     30  C   UNL     1      21.840  -6.651  27.646  1.00  0.00     0.004 C 
ENDBRANCH  28  29
ENDBRANCH  27  28
ENDBRANCH  26  27
ENDBRANCH  25  26
ENDBRANCH  24  25
ENDBRANCH  23  24
ENDBRANCH  22  23
ENDBRANCH  21  22
ENDBRANCH  20  21
ENDBRANCH  19  20
ENDBRANCH  18  19
ENDBRANCH  17  18
ENDBRANCH   1  17
TORSDOF 26
ENDMDL
MODEL 4
REMARK VINA RESULT:    -5.540      6.596     15.687
REMARK INTER + INTRA:         -15.561
REMARK INTER:                 -14.150
REMARK INTRA:                  -1.411
REMARK UNBOUND:                -1.601
REMARK SMILES CCCCCCCCCCCCCCCCCCCCCCCCCCCC(=O)[O-]
REMARK SMILES IDX 15 1 16 2 17 3 18 4 19 5 20 6 21 7 22 8 23 9 24 10 25 11
REMARK SMILES IDX 26 12 27 13 28 14 29 15 30 16 14 17 13 18 12 19 11 20 10 21
REMARK SMILES IDX 9 22 8 23 7 24 6 25 5 26 4 27 3 28 2 29 1 30
REMARK H PARENT
REMARK Flexibility Score: inf
ROOT
ATOM      1  C   UNL     1      20.796 -11.120  24.307  1.00  0.00     0.000 C 
ENDROOT
BRANCH   1   2
ATOM      2  C   UNL     1      20.377  -9.729  24.814  1.00  0.00     0.000 C 
BRANCH   2   3
ATOM      3  C   UNL     1      21.428  -8.633  24.558  1.00  0.00     0.000 C 
BRANCH   3   4
ATOM      4  C   UNL     1      21.406  -7.532  25.632  1.00  0.00     0.000 C 
BRANCH   4   5
ATOM      5  C   UNL     1      21.234  -6.142  25.000  1.00  0.00     0.000 C 
BRANCH   5   6
ATOM      6  C   UNL     1      20.164  -6.120  23.886  1.00  0.00     0.000 C 
BRANCH   6   7
ATOM      7  C   UNL     1      18.809  -5.534  24.326  1.00  0.00     0.000 C 
BRANCH   7   8
ATOM      8  C   UNL     1      18.312  -4.335  23.500  1.00  0.00     0.000 C 
BRANCH   8   9
ATOM      9  C   UNL     1      17.347  -3.400  24.266  1.00  0.00     0.000 C 
BRANCH   9  10
ATOM     10  C   UNL     1      16.316  -4.168  25.110  1.00  0.00     0.000 C 
BRANCH  10  11
ATOM     11  C   UNL     1      14.894  -4.085  24.531  1.00  0.00     0.000 C 
BRANCH  11  12
ATOM     12  C   UNL     1      13.816  -4.020  25.623  1.00  0.00     0.006 C 
BRANCH  12  13
ATOM     13  C   UNL     1      14.432  -4.224  27.013  1.00  0.00     0.053 C 
BRANCH  13  14
ATOM     14  C   UNL     1      13.633  -5.182  27.846  1.00  0.00     0.041 C 
ATOM     15  O   UNL     1      12.459  -4.895  28.202  1.00  0.00    -0.550 OA
ATOM     16  O   UNL     1      14.165  -6.422  28.179  1.00  0.00    -0.550 OA
ENDBRANCH  13  14
ENDBRANCH  12  13
ENDBRANCH  11  12
ENDBRANCH  10  11
ENDBRANCH   9  10
ENDBRANCH   8   9
ENDBRANCH   7   8
ENDBRANCH   6   7
ENDBRANCH   5   6
ENDBRANCH   4   5
ENDBRANCH   3   4
ENDBRANCH   2   3
ENDBRANCH   1   2
BRANCH   1  17
ATOM     17  C   UNL     1      21.049 -11.139  22.787  1.00  0.00     0.000 C 
BRANCH  17  18
ATOM     18  C   UNL     1      20.277 -12.259  22.069  1.00  0.00     0.000 C 
BRANCH  18  19
ATOM     19  C   UNL     1      21.076 -13.010  20.975  1.00  0.00     0.000 C 
BRANCH  19  20
ATOM     20  C   UNL     1      22.609 -12.997  21.151  1.00  0.00     0.000 C 
BRANCH  20  21
ATOM     21  C   UNL     1      23.250 -14.400  21.195  1.00  0.00     0.000 C 
BRANCH  21  22
ATOM     22  C   UNL     1      22.595 -15.379  20.202  1.00  0.00    -0.000 C 
BRANCH  22  23
ATOM     23  C   UNL     1      22.783 -14.959  18.735  1.00  0.00    -0.000 C 
BRANCH  23  24
ATOM     24  C   UNL     1      22.939 -16.150  17.778  1.00  0.00    -0.000 C 
BRANCH  24  25
ATOM     25  C   UNL     1      23.299 -17.429  18.554  1.00  0.00    -0.000 C 
BRANCH  25  26
ATOM     26  C   UNL     1      23.459 -18.654  17.641  1.00  0.00    -0.000 C 
BRANCH  26  27
ATOM     27  C   UNL     1      22.437 -18.680  16.492  1.00  0.00    -0.000 C 
BRANCH  27  28
ATOM     28  C   UNL     1      21.571 -19.957  16.494  1.00  0.00    -0.000 C 
BRANCH  28  29
ATOM     29  C   UNL     1      20.880 -20.275  17.833  1.00  0.00    -0.003 C 
ATOM     30  C   UNL     1      19.469 -20.840  17.664  1.00  0.00     0.004 C 
ENDBRANCH  28  29
ENDBRANCH  27  28
ENDBRANCH  26  27
ENDBRANCH  25  26
ENDBRANCH  24  25
ENDBRANCH  23  24
ENDBRANCH  22  23
ENDBRANCH  21  22
ENDBRANCH  20  21
ENDBRANCH  19  20
ENDBRANCH  18  19
ENDBRANCH  17  18
ENDBRANCH   1  17
TORSDOF 26
ENDMDL
MODEL 5
REMARK VINA RESULT:    -5.532      5.774     15.037
REMARK INTER + INTRA:         -15.542
REMARK INTER:                 -14.196
REMARK INTRA:                  -1.346
REMARK UNBOUND:                -1.601
REMARK SMILES CCCCCCCCCCCCCCCCCCCCCCCCCCCC(=O)[O-]
REMARK SMILES IDX 15 1 16 2 17 3 18 4 19 5 20 6 21 7 22 8 23 9 24 10 25 11
REMARK SMILES IDX 26 12 27 13 28 14 29 15 30 16 14 17 13 18 12 19 11 20 10 21
REMARK SMILES IDX 9 22 8 23 7 24 6 25 5 26 4 27 3 28 2 29 1 30
REMARK H PARENT
REMARK Flexibility Score: inf
ROOT
ATOM      1  C   UNL     1      22.753 -15.189  19.828  1.00  0.00     0.000 C 
ENDROOT
BRANCH   1   2
ATOM      2  C   UNL     1      23.035 -14.265  21.025  1.00  0.00     0.000 C 
BRANCH   2   3
ATOM      3  C   UNL     1      22.104 -13.040  21.094  1.00  0.00     0.000 C 
BRANCH   3   4
ATOM      4  C   UNL     1      22.664 -11.923  21.992  1.00  0.00     0.000 C 
BRANCH   4   5
ATOM      5  C   UNL     1      21.589 -10.874  22.310  1.00  0.00     0.000 C 
BRANCH   5   6
ATOM      6  C   UNL     1      20.559 -11.368  23.350  1.00  0.00     0.000 C 
BRANCH   6   7
ATOM      7  C   UNL     1      20.441 -10.471  24.596  1.00  0.00     0.000 C 
BRANCH   7   8
ATOM      8  C   UNL     1      20.977  -9.039  24.429  1.00  0.00     0.000 C 
BRANCH   8   9
ATOM      9  C   UNL     1      21.118  -8.259  25.756  1.00  0.00     0.000 C 
BRANCH   9  10
ATOM     10  C   UNL     1      20.978  -6.739  25.574  1.00  0.00     0.000 C 
BRANCH  10  11
ATOM     11  C   UNL     1      19.863  -6.359  24.585  1.00  0.00     0.000 C 
BRANCH  11  12
ATOM     12  C   UNL     1      20.155  -5.045  23.845  1.00  0.00     0.006 C 
BRANCH  12  13
ATOM     13  C   UNL     1      19.271  -3.909  24.375  1.00  0.00     0.053 C 
BRANCH  13  14
ATOM     14  C   UNL     1      17.824  -4.120  24.039  1.00  0.00     0.041 C 
ATOM     15  O   UNL     1      17.027  -4.577  24.901  1.00  0.00    -0.550 OA
ATOM     16  O   UNL     1      17.342  -3.751  22.788  1.00  0.00    -0.550 OA
ENDBRANCH  13  14
ENDBRANCH  12  13
ENDBRANCH  11  12
ENDBRANCH  10  11
ENDBRANCH   9  10
ENDBRANCH   8   9
ENDBRANCH   7   8
ENDBRANCH   6   7
ENDBRANCH   5   6
ENDBRANCH   4   5
ENDBRANCH   3   4
ENDBRANCH   2   3
ENDBRANCH   1   2
BRANCH   1  17
ATOM     17  C   UNL     1      23.016 -16.672  20.157  1.00  0.00     0.000 C 
BRANCH  17  18
ATOM     18  C   UNL     1      23.675 -17.433  18.994  1.00  0.00     0.000 C 
BRANCH  18  19
ATOM     19  C   UNL     1      23.007 -17.226  17.612  1.00  0.00     0.000 C 
BRANCH  19  20
ATOM     20  C   UNL     1      23.286 -18.331  16.572  1.00  0.00     0.000 C 
BRANCH  20  21
ATOM     21  C   UNL     1      22.083 -19.255  16.295  1.00  0.00     0.000 C 
BRANCH  21  22
ATOM     22  C   UNL     1      21.532 -19.906  17.579  1.00  0.00    -0.000 C 
BRANCH  22  23
ATOM     23  C   UNL     1      21.680 -21.436  17.587  1.00  0.00    -0.000 C 
BRANCH  23  24
ATOM     24  C   UNL     1      20.340 -22.176  17.469  1.00  0.00    -0.000 C 
BRANCH  24  25
ATOM     25  C   UNL     1      19.907 -22.288  15.997  1.00  0.00    -0.000 C 
BRANCH  25  26
ATOM     26  C   UNL     1      18.576 -21.575  15.712  1.00  0.00    -0.000 C 
BRANCH  26  27
ATOM     27  C   UNL     1      18.479 -21.044  14.272  1.00  0.00    -0.000 C 
BRANCH  27  28
ATOM     28  C   UNL     1      18.921 -22.085  13.223  1.00  0.00    -0.000 C 
BRANCH  28  29
ATOM     29  C   UNL     1      18.680 -21.677  11.757  1.00  0.00    -0.003 C 
ATOM     30  C   UNL     1      18.949 -20.195  11.492  1.00  0.00     0.004 C 
ENDBRANCH  28  29
ENDBRANCH  27  28
ENDBRANCH  26  27
ENDBRANCH  25  26
ENDBRANCH  24  25
ENDBRANCH  23  24
ENDBRANCH  22  23
ENDBRANCH  21  22
ENDBRANCH  20  21
ENDBRANCH  19  20
ENDBRANCH  18  19
ENDBRANCH  17  18
ENDBRANCH   1  17
TORSDOF 26
ENDMDL
MODEL 6
REMARK VINA RESULT:    -5.513      5.779     14.743
REMARK INTER + INTRA:         -15.494
REMARK INTER:                 -14.081
REMARK INTRA:                  -1.414
REMARK UNBOUND:                -1.601
REMARK SMILES CCCCCCCCCCCCCCCCCCCCCCCCCCCC(=O)[O-]
REMARK SMILES IDX 15 1 16 2 17 3 18 4 19 5 20 6 21 7 22 8 23 9 24 10 25 11
REMARK SMILES IDX 26 12 27 13 28 14 29 15 30 16 14 17 13 18 12 19 11 20 10 21
REMARK SMILES IDX 9 22 8 23 7 24 6 25 5 26 4 27 3 28 2 29 1 30
REMARK H PARENT
REMARK Flexibility Score: inf
ROOT
ATOM      1  C   UNL     1      22.990 -16.043  18.894  1.00  0.00     0.000 C 
ENDROOT
BRANCH   1   2
ATOM      2  C   UNL     1      22.992 -15.744  20.403  1.00  0.00     0.000 C 
BRANCH   2   3
ATOM      3  C   UNL     1      22.581 -14.301  20.750  1.00  0.00     0.000 C 
BRANCH   3   4
ATOM      4  C   UNL     1      23.732 -13.495  21.375  1.00  0.00     0.000 C 
BRANCH   4   5
ATOM      5  C   UNL     1      23.331 -12.027  21.587  1.00  0.00     0.000 C 
BRANCH   5   6
ATOM      6  C   UNL     1      21.833 -11.858  21.925  1.00  0.00     0.000 C 
BRANCH   6   7
ATOM      7  C   UNL     1      21.500 -10.557  22.679  1.00  0.00     0.000 C 
BRANCH   7   8
ATOM      8  C   UNL     1      20.622 -10.729  23.931  1.00  0.00     0.000 C 
BRANCH   8   9
ATOM      9  C   UNL     1      20.769  -9.589  24.965  1.00  0.00     0.000 C 
BRANCH   9  10
ATOM     10  C   UNL     1      21.323  -8.293  24.349  1.00  0.00     0.000 C 
BRANCH  10  11
ATOM     11  C   UNL     1      21.695  -7.243  25.410  1.00  0.00     0.000 C 
BRANCH  11  12
ATOM     12  C   UNL     1      20.781  -6.009  25.363  1.00  0.00     0.006 C 
BRANCH  12  13
ATOM     13  C   UNL     1      19.797  -6.100  24.190  1.00  0.00     0.053 C 
BRANCH  13  14
ATOM     14  C   UNL     1      19.051  -4.816  23.982  1.00  0.00     0.041 C 
ATOM     15  O   UNL     1      19.576  -3.867  23.340  1.00  0.00    -0.550 OA
ATOM     16  O   UNL     1      17.746  -4.690  24.445  1.00  0.00    -0.550 OA
ENDBRANCH  13  14
ENDBRANCH  12  13
ENDBRANCH  11  12
ENDBRANCH  10  11
ENDBRANCH   9  10
ENDBRANCH   8   9
ENDBRANCH   7   8
ENDBRANCH   6   7
ENDBRANCH   5   6
ENDBRANCH   4   5
ENDBRANCH   3   4
ENDBRANCH   2   3
ENDBRANCH   1   2
BRANCH   1  17
ATOM     17  C   UNL     1      23.253 -17.530  18.589  1.00  0.00     0.000 C 
BRANCH  17  18
ATOM     18  C   UNL     1      23.223 -17.845  17.084  1.00  0.00     0.000 C 
BRANCH  18  19
ATOM     19  C   UNL     1      22.283 -19.006  16.675  1.00  0.00     0.000 C 
BRANCH  19  20
ATOM     20  C   UNL     1      22.490 -20.327  17.444  1.00  0.00     0.000 C 
BRANCH  20  21
ATOM     21  C   UNL     1      21.242 -21.232  17.492  1.00  0.00     0.000 C 
BRANCH  21  22
ATOM     22  C   UNL     1      19.952 -20.443  17.784  1.00  0.00    -0.000 C 
BRANCH  22  23
ATOM     23  C   UNL     1      18.698 -21.331  17.807  1.00  0.00    -0.000 C 
BRANCH  23  24
ATOM     24  C   UNL     1      18.588 -22.258  16.587  1.00  0.00    -0.000 C 
BRANCH  24  25
ATOM     25  C   UNL     1      18.294 -21.448  15.312  1.00  0.00    -0.000 C 
BRANCH  25  26
ATOM     26  C   UNL     1      16.979 -21.862  14.634  1.00  0.00    -0.000 C 
BRANCH  26  27
ATOM     27  C   UNL     1      16.973 -21.579  13.122  1.00  0.00    -0.000 C 
BRANCH  27  28
ATOM     28  C   UNL     1      17.413 -20.140  12.783  1.00  0.00    -0.000 C 
BRANCH  28  29
ATOM     29  C   UNL     1      18.648 -20.034  11.869  1.00  0.00    -0.003 C 
ATOM     30  C   UNL     1      18.935 -21.320  11.092  1.00  0.00     0.004 C 
ENDBRANCH  28  29
ENDBRANCH  27  28
ENDBRANCH  26  27
ENDBRANCH  25  26
ENDBRANCH  24  25
ENDBRANCH  23  24
ENDBRANCH  22  23
ENDBRANCH  21  22
ENDBRANCH  20  21
ENDBRANCH  19  20
ENDBRANCH  18  19
ENDBRANCH  17  18
ENDBRANCH   1  17
TORSDOF 26
ENDMDL
MODEL 7
REMARK VINA RESULT:    -5.507      3.455      8.105
REMARK INTER + INTRA:         -15.477
REMARK INTER:                 -14.143
REMARK INTRA:                  -1.334
REMARK UNBOUND:                -1.601
REMARK SMILES CCCCCCCCCCCCCCCCCCCCCCCCCCCC(=O)[O-]
REMARK SMILES IDX 15 1 16 2 17 3 18 4 19 5 20 6 21 7 22 8 23 9 24 10 25 11
REMARK SMILES IDX 26 12 27 13 28 14 29 15 30 16 14 17 13 18 12 19 11 20 10 21
REMARK SMILES IDX 9 22 8 23 7 24 6 25 5 26 4 27 3 28 2 29 1 30
REMARK H PARENT
REMARK Flexibility Score: inf
ROOT
ATOM      1  C   UNL     1      21.080  -9.366  24.144  1.00  0.00     0.000 C 
ENDROOT
BRANCH   1   2
ATOM      2  C   UNL     1      20.757 -10.869  24.196  1.00  0.00     0.000 C 
BRANCH   2   3
ATOM      3  C   UNL     1      20.497 -11.495  22.813  1.00  0.00     0.000 C 
BRANCH   3   4
ATOM      4  C   UNL     1      21.797 -11.777  22.040  1.00  0.00     0.000 C 
BRANCH   4   5
ATOM      5  C   UNL     1      21.605 -12.916  21.027  1.00  0.00     0.000 C 
BRANCH   5   6
ATOM      6  C   UNL     1      22.811 -13.881  20.977  1.00  0.00     0.000 C 
BRANCH   6   7
ATOM      7  C   UNL     1      22.645 -15.045  19.983  1.00  0.00     0.000 C 
BRANCH   7   8
ATOM      8  C   UNL     1      23.182 -16.404  20.466  1.00  0.00     0.000 C 
BRANCH   8   9
ATOM      9  C   UNL     1      23.412 -17.429  19.332  1.00  0.00     0.000 C 
BRANCH   9  10
ATOM     10  C   UNL     1      23.012 -16.889  17.948  1.00  0.00     0.000 C 
BRANCH  10  11
ATOM     11  C   UNL     1      22.676 -18.008  16.948  1.00  0.00     0.000 C 
BRANCH  11  12
ATOM     12  C   UNL     1      22.253 -19.311  17.643  1.00  0.00     0.006 C 
BRANCH  12  13
ATOM     13  C   UNL     1      21.371 -20.162  16.721  1.00  0.00     0.053 C 
BRANCH  13  14
ATOM     14  C   UNL     1      20.426 -21.033  17.494  1.00  0.00     0.041 C 
ATOM     15  O   UNL     1      20.703 -22.244  17.710  1.00  0.00    -0.550 OA
ATOM     16  O   UNL     1      19.265 -20.490  18.032  1.00  0.00    -0.550 OA
ENDBRANCH  13  14
ENDBRANCH  12  13
ENDBRANCH  11  12
ENDBRANCH  10  11
ENDBRANCH   9  10
ENDBRANCH   8   9
ENDBRANCH   7   8
ENDBRANCH   6   7
ENDBRANCH   5   6
ENDBRANCH   4   5
ENDBRANCH   3   4
ENDBRANCH   2   3
ENDBRANCH   1   2
BRANCH   1  17
ATOM     17  C   UNL     1      20.494  -8.598  25.345  1.00  0.00     0.000 C 
BRANCH  17  18
ATOM     18  C   UNL     1      21.381  -7.423  25.791  1.00  0.00     0.000 C 
BRANCH  18  19
ATOM     19  C   UNL     1      21.470  -6.249  24.784  1.00  0.00     0.000 C 
BRANCH  19  20
ATOM     20  C   UNL     1      20.391  -5.158  24.945  1.00  0.00     0.000 C 
BRANCH  20  21
ATOM     21  C   UNL     1      19.079  -5.452  24.188  1.00  0.00     0.000 C 
BRANCH  21  22
ATOM     22  C   UNL     1      18.808  -4.435  23.062  1.00  0.00    -0.000 C 
BRANCH  22  23
ATOM     23  C   UNL     1      17.382  -3.862  23.103  1.00  0.00    -0.000 C 
BRANCH  23  24
ATOM     24  C   UNL     1      16.983  -3.326  24.485  1.00  0.00    -0.000 C 
BRANCH  24  25
ATOM     25  C   UNL     1      15.592  -3.843  24.889  1.00  0.00    -0.000 C 
BRANCH  25  26
ATOM     26  C   UNL     1      15.654  -5.137  25.715  1.00  0.00    -0.000 C 
BRANCH  26  27
ATOM     27  C   UNL     1      14.289  -5.541  26.297  1.00  0.00    -0.000 C 
BRANCH  27  28
ATOM     28  C   UNL     1      13.987  -4.848  27.643  1.00  0.00    -0.000 C 
BRANCH  28  29
ATOM     29  C   UNL     1      12.539  -4.999  28.144  1.00  0.00    -0.003 C 
ATOM     30  C   UNL     1      11.496  -4.792  27.043  1.00  0.00     0.004 C 
ENDBRANCH  28  29
ENDBRANCH  27  28
ENDBRANCH  26  27
ENDBRANCH  25  26
ENDBRANCH  24  25
ENDBRANCH  23  24
ENDBRANCH  22  23
ENDBRANCH  21  22
ENDBRANCH  20  21
ENDBRANCH  19  20
ENDBRANCH  18  19
ENDBRANCH  17  18
ENDBRANCH   1  17
TORSDOF 26
ENDMDL
MODEL 8
REMARK VINA RESULT:    -5.356      6.411     14.861
REMARK INTER + INTRA:         -15.098
REMARK INTER:                 -13.335
REMARK INTRA:                  -1.763
REMARK UNBOUND:                -1.601
REMARK SMILES CCCCCCCCCCCCCCCCCCCCCCCCCCCC(=O)[O-]
REMARK SMILES IDX 15 1 16 2 17 3 18 4 19 5 20 6 21 7 22 8 23 9 24 10 25 11
REMARK SMILES IDX 26 12 27 13 28 14 29 15 30 16 14 17 13 18 12 19 11 20 10 21
REMARK SMILES IDX 9 22 8 23 7 24 6 25 5 26 4 27 3 28 2 29 1 30
REMARK H PARENT
REMARK Flexibility Score: inf
ROOT
ATOM      1  C   UNL     1      22.987 -16.433  19.709  1.00  0.00     0.000 C 
ENDROOT
BRANCH   1   2
ATOM      2  C   UNL     1      23.312 -15.538  20.917  1.00  0.00     0.000 C 
BRANCH   2   3
ATOM      3  C   UNL     1      22.740 -14.113  20.805  1.00  0.00     0.000 C 
BRANCH   3   4
ATOM      4  C   UNL     1      23.395 -13.135  21.796  1.00  0.00     0.000 C 
BRANCH   4   5
ATOM      5  C   UNL     1      22.680 -11.775  21.789  1.00  0.00     0.000 C 
BRANCH   5   6
ATOM      6  C   UNL     1      21.149 -11.904  21.634  1.00  0.00     0.000 C 
BRANCH   6   7
ATOM      7  C   UNL     1      20.355 -11.539  22.902  1.00  0.00     0.000 C 
BRANCH   7   8
ATOM      8  C   UNL     1      21.198 -11.015  24.078  1.00  0.00     0.000 C 
BRANCH   8   9
ATOM      9  C   UNL     1      20.722  -9.655  24.639  1.00  0.00     0.000 C 
BRANCH   9  10
ATOM     10  C   UNL     1      21.094  -8.471  23.730  1.00  0.00     0.000 C 
BRANCH  10  11
ATOM     11  C   UNL     1      21.395  -7.187  24.522  1.00  0.00     0.000 C 
BRANCH  11  12
ATOM     12  C   UNL     1      22.856  -7.114  24.990  1.00  0.00     0.006 C 
BRANCH  12  13
ATOM     13  C   UNL     1      22.945  -7.178  26.520  1.00  0.00     0.053 C 
BRANCH  13  14
ATOM     14  C   UNL     1      22.646  -5.853  27.156  1.00  0.00     0.041 C 
ATOM     15  O   UNL     1      23.100  -4.788  26.660  1.00  0.00    -0.550 OA
ATOM     16  O   UNL     1      21.811  -5.790  28.266  1.00  0.00    -0.550 OA
ENDBRANCH  13  14
ENDBRANCH  12  13
ENDBRANCH  11  12
ENDBRANCH  10  11
ENDBRANCH   9  10
ENDBRANCH   8   9
ENDBRANCH   7   8
ENDBRANCH   6   7
ENDBRANCH   5   6
ENDBRANCH   4   5
ENDBRANCH   3   4
ENDBRANCH   2   3
ENDBRANCH   1   2
BRANCH   1  17
ATOM     17  C   UNL     1      22.729 -15.618  18.427  1.00  0.00     0.000 C 
BRANCH  17  18
ATOM     18  C   UNL     1      22.981 -16.429  17.144  1.00  0.00     0.000 C 
BRANCH  18  19
ATOM     19  C   UNL     1      23.229 -17.942  17.362  1.00  0.00     0.000 C 
BRANCH  19  20
ATOM     20  C   UNL     1      22.646 -18.870  16.276  1.00  0.00     0.000 C 
BRANCH  20  21
ATOM     21  C   UNL     1      22.149 -20.230  16.809  1.00  0.00     0.000 C 
BRANCH  21  22
ATOM     22  C   UNL     1      20.902 -20.093  17.704  1.00  0.00    -0.000 C 
BRANCH  22  23
ATOM     23  C   UNL     1      20.145 -21.418  17.884  1.00  0.00    -0.000 C 
BRANCH  23  24
ATOM     24  C   UNL     1      18.625 -21.278  17.714  1.00  0.00    -0.000 C 
BRANCH  24  25
ATOM     25  C   UNL     1      18.024 -22.557  17.108  1.00  0.00    -0.000 C 
BRANCH  25  26
ATOM     26  C   UNL     1      18.251 -22.662  15.592  1.00  0.00    -0.000 C 
BRANCH  26  27
ATOM     27  C   UNL     1      18.026 -21.328  14.861  1.00  0.00    -0.000 C 
BRANCH  27  28
ATOM     28  C   UNL     1      18.819 -21.231  13.541  1.00  0.00    -0.000 C 
BRANCH  28  29
ATOM     29  C   UNL     1      18.157 -20.379  12.443  1.00  0.00    -0.003 C 
ATOM     30  C   UNL     1      18.997 -20.282  11.167  1.00  0.00     0.004 C 
ENDBRANCH  28  29
ENDBRANCH  27  28
ENDBRANCH  26  27
ENDBRANCH  25  26
ENDBRANCH  24  25
ENDBRANCH  23  24
ENDBRANCH  22  23
ENDBRANCH  21  22
ENDBRANCH  20  21
ENDBRANCH  19  20
ENDBRANCH  18  19
ENDBRANCH  17  18
ENDBRANCH   1  17
TORSDOF 26
ENDMDL
MODEL 9
REMARK VINA RESULT:    -5.251      6.055     15.338
REMARK INTER + INTRA:         -14.833
REMARK INTER:                 -13.241
REMARK INTRA:                  -1.592
REMARK UNBOUND:                -1.601
REMARK SMILES CCCCCCCCCCCCCCCCCCCCCCCCCCCC(=O)[O-]
REMARK SMILES IDX 15 1 16 2 17 3 18 4 19 5 20 6 21 7 22 8 23 9 24 10 25 11
REMARK SMILES IDX 26 12 27 13 28 14 29 15 30 16 14 17 13 18 12 19 11 20 10 21
REMARK SMILES IDX 9 22 8 23 7 24 6 25 5 26 4 27 3 28 2 29 1 30
REMARK H PARENT
REMARK Flexibility Score: inf
ROOT
ATOM      1  C   UNL     1      22.737 -15.551  19.681  1.00  0.00     0.000 C 
ENDROOT
BRANCH   1   2
ATOM      2  C   UNL     1      23.009 -14.514  20.785  1.00  0.00     0.000 C 
BRANCH   2   3
ATOM      3  C   UNL     1      21.927 -13.423  20.891  1.00  0.00     0.000 C 
BRANCH   3   4
ATOM      4  C   UNL     1      22.404 -12.196  21.686  1.00  0.00     0.000 C 
BRANCH   4   5
ATOM      5  C   UNL     1      21.223 -11.469  22.348  1.00  0.00     0.000 C 
BRANCH   5   6
ATOM      6  C   UNL     1      21.674 -10.400  23.368  1.00  0.00     0.000 C 
BRANCH   6   7
ATOM      7  C   UNL     1      21.265  -8.963  22.995  1.00  0.00     0.000 C 
BRANCH   7   8
ATOM      8  C   UNL     1      21.490  -7.909  24.094  1.00  0.00     0.000 C 
BRANCH   8   9
ATOM      9  C   UNL     1      20.513  -8.022  25.286  1.00  0.00     0.000 C 
BRANCH   9  10
ATOM     10  C   UNL     1      21.099  -7.461  26.593  1.00  0.00     0.000 C 
BRANCH  10  11
ATOM     11  C   UNL     1      22.543  -6.958  26.430  1.00  0.00     0.000 C 
BRANCH  11  12
ATOM     12  C   UNL     1      22.768  -5.589  27.089  1.00  0.00     0.006 C 
BRANCH  12  13
ATOM     13  C   UNL     1      21.938  -4.503  26.394  1.00  0.00     0.053 C 
BRANCH  13  14
ATOM     14  C   UNL     1      22.438  -4.215  25.010  1.00  0.00     0.041 C 
ATOM     15  O   UNL     1      23.674  -4.198  24.766  1.00  0.00    -0.550 OA
ATOM     16  O   UNL     1      21.534  -4.025  23.971  1.00  0.00    -0.550 OA
ENDBRANCH  13  14
ENDBRANCH  12  13
ENDBRANCH  11  12
ENDBRANCH  10  11
ENDBRANCH   9  10
ENDBRANCH   8   9
ENDBRANCH   7   8
ENDBRANCH   6   7
ENDBRANCH   5   6
ENDBRANCH   4   5
ENDBRANCH   3   4
ENDBRANCH   2   3
ENDBRANCH   1   2
BRANCH   1  17
ATOM     17  C   UNL     1      23.184 -16.969  20.085  1.00  0.00     0.000 C 
BRANCH  17  18
ATOM     18  C   UNL     1      23.721 -17.786  18.897  1.00  0.00     0.000 C 
BRANCH  18  19
ATOM     19  C   UNL     1      23.088 -17.444  17.526  1.00  0.00     0.000 C 
BRANCH  19  20
ATOM     20  C   UNL     1      23.156 -18.565  16.469  1.00  0.00     0.000 C 
BRANCH  20  21
ATOM     21  C   UNL     1      21.868 -19.407  16.357  1.00  0.00     0.000 C 
BRANCH  21  22
ATOM     22  C   UNL     1      21.463 -20.047  17.699  1.00  0.00    -0.000 C 
BRANCH  22  23
ATOM     23  C   UNL     1      20.597 -21.305  17.526  1.00  0.00    -0.000 C 
BRANCH  23  24
ATOM     24  C   UNL     1      19.090 -21.020  17.610  1.00  0.00    -0.000 C 
BRANCH  24  25
ATOM     25  C   UNL     1      18.326 -21.809  16.533  1.00  0.00    -0.000 C 
BRANCH  25  26
ATOM     26  C   UNL     1      19.254 -22.421  15.472  1.00  0.00    -0.000 C 
BRANCH  26  27
ATOM     27  C   UNL     1      19.111 -21.751  14.095  1.00  0.00    -0.000 C 
BRANCH  27  28
ATOM     28  C   UNL     1      17.863 -20.848  13.998  1.00  0.00    -0.000 C 
BRANCH  28  29
ATOM     29  C   UNL     1      16.713 -21.414  13.145  1.00  0.00    -0.003 C 
ATOM     30  C   UNL     1      15.833 -20.327  12.524  1.00  0.00     0.004 C 
ENDBRANCH  28  29
ENDBRANCH  27  28
ENDBRANCH  26  27
ENDBRANCH  25  26
ENDBRANCH  24  25
ENDBRANCH  23  24
ENDBRANCH  22  23
ENDBRANCH  21  22
ENDBRANCH  20  21
ENDBRANCH  19  20
ENDBRANCH  18  19
ENDBRANCH  17  18
ENDBRANCH   1  17
TORSDOF 26
ENDMDL
