MODEL 1
REMARK VINA RESULT:    -4.889      0.000      0.000
REMARK INTER + INTRA:          -5.878
REMARK INTER:                  -5.747
REMARK INTRA:                  -0.131
REMARK UNBOUND:                -0.131
REMARK SMILES O=C([O-])C=Cc1ccc(O)c(O)c1
REMARK SMILES IDX 6 1 13 2 7 3 11 4 8 5 9 6 5 7 4 8 2 9 1 10 3 11 12 12 10 14
REMARK H PARENT 12 13 10 15
REMARK Flexibility Score: inf
ROOT
ATOM      1  C   UNL     1      11.725  13.737  20.669  1.00  0.00    -0.022 A 
ATOM      2  C   UNL     1      11.122  14.416  19.596  1.00  0.00     0.058 A 
ATOM      3  C   UNL     1      11.232  12.468  21.032  1.00  0.00     0.012 A 
ATOM      4  C   UNL     1      10.066  13.833  18.882  1.00  0.00     0.157 A 
ATOM      5  C   UNL     1      10.178  11.888  20.320  1.00  0.00     0.051 A 
ATOM      6  C   UNL     1       9.595  12.567  19.243  1.00  0.00     0.157 A 
ENDROOT
BRANCH   1   7
ATOM      7  C   UNL     1      12.832  14.402  21.399  1.00  0.00     0.010 C 
ATOM      8  C   UNL     1      13.005  15.730  21.442  1.00  0.00     0.025 C 
BRANCH   8   9
ATOM      9  C   UNL     1      14.112  16.347  22.188  1.00  0.00     0.064 C 
ATOM     10  O   UNL     1      15.123  16.768  21.567  1.00  0.00    -0.545 OA
ATOM     11  O   UNL     1      14.062  16.473  23.572  1.00  0.00    -0.545 OA
ENDBRANCH   8   9
ENDBRANCH   1   7
BRANCH   4  12
ATOM     12  O   UNL     1       9.480  14.509  17.813  1.00  0.00    -0.504 OA
ATOM     13  H   UNL     1       9.529  15.518  17.731  1.00  0.00     0.293 HD
ENDBRANCH   4  12
BRANCH   6  14
ATOM     14  O   UNL     1       8.546  11.989  18.530  1.00  0.00    -0.504 OA
ATOM     15  H   UNL     1       7.584  12.077  18.836  1.00  0.00     0.293 HD
ENDBRANCH   6  14
TORSDOF 4
ENDMDL
MODEL 2
REMARK VINA RESULT:    -4.219      1.252      2.169
REMARK INTER + INTRA:          -5.089
REMARK INTER:                  -4.953
REMARK INTRA:                  -0.137
REMARK UNBOUND:                -0.131
REMARK SMILES O=C([O-])C=Cc1ccc(O)c(O)c1
REMARK SMILES IDX 6 1 13 2 7 3 11 4 8 5 9 6 5 7 4 8 2 9 1 10 3 11 12 12 10 14
REMARK H PARENT 12 13 10 15
REMARK Flexibility Score: inf
ROOT
ATOM      1  C   UNL     1      12.302  14.425  21.034  1.00  0.00    -0.022 A 
ATOM      2  C   UNL     1      11.404  13.389  21.343  1.00  0.00     0.058 A 
ATOM      3  C   UNL     1      12.260  14.999  19.748  1.00  0.00     0.012 A 
ATOM      4  C   UNL     1      10.465  12.949  20.399  1.00  0.00     0.157 A 
ATOM      5  C   UNL     1      11.325  14.560  18.807  1.00  0.00     0.051 A 
ATOM      6  C   UNL     1      10.424  13.537  19.130  1.00  0.00     0.157 A 
ENDROOT
BRANCH   1   7
ATOM      7  C   UNL     1      13.284  14.846  22.065  1.00  0.00     0.010 C 
ATOM      8  C   UNL     1      13.682  16.113  22.240  1.00  0.00     0.025 C 
BRANCH   8   9
ATOM      9  C   UNL     1      14.649  16.487  23.283  1.00  0.00     0.064 C 
ATOM     10  O   UNL     1      15.099  15.604  24.060  1.00  0.00    -0.545 OA
ATOM     11  O   UNL     1      15.076  17.802  23.428  1.00  0.00    -0.545 OA
ENDBRANCH   8   9
ENDBRANCH   1   7
BRANCH   4  12
ATOM     12  O   UNL     1       9.572  11.928  20.716  1.00  0.00    -0.504 OA
ATOM     13  H   UNL     1       8.869  12.041  21.436  1.00  0.00     0.293 HD
ENDBRANCH   4  12
BRANCH   6  14
ATOM     14  O   UNL     1       9.489  13.099  18.194  1.00  0.00    -0.504 OA
ATOM     15  H   UNL     1       8.564  12.792  18.472  1.00  0.00     0.293 HD
ENDBRANCH   6  14
TORSDOF 4
ENDMDL
MODEL 3
REMARK VINA RESULT:    -3.476      1.924      2.294
REMARK INTER + INTRA:          -4.216
REMARK INTER:                  -4.075
REMARK INTRA:                  -0.141
REMARK UNBOUND:                -0.131
REMARK SMILES O=C([O-])C=Cc1ccc(O)c(O)c1
REMARK SMILES IDX 6 1 13 2 7 3 11 4 8 5 9 6 5 7 4 8 2 9 1 10 3 11 12 12 10 14
REMARK H PARENT 12 13 10 15
REMARK Flexibility Score: inf
ROOT
ATOM      1  C   UNL     1      11.798  13.328  20.484  1.00  0.00    -0.022 A 
ATOM      2  C   UNL     1      11.059  14.429  20.018  1.00  0.00     0.058 A 
ATOM      3  C   UNL     1      11.488  12.045  19.991  1.00  0.00     0.012 A 
ATOM      4  C   UNL     1      10.048  14.260  19.061  1.00  0.00     0.157 A 
ATOM      5  C   UNL     1      10.479  11.877  19.038  1.00  0.00     0.051 A 
ATOM      6  C   UNL     1       9.759  12.983  18.569  1.00  0.00     0.157 A 
ENDROOT
BRANCH   1   7
ATOM      7  C   UNL     1      12.851  13.559  21.504  1.00  0.00     0.010 C 
ATOM      8  C   UNL     1      13.394  12.585  22.247  1.00  0.00     0.025 C 
BRANCH   8   9
ATOM      9  C   UNL     1      14.444  12.858  23.240  1.00  0.00     0.064 C 
ATOM     10  O   UNL     1      14.743  11.977  24.087  1.00  0.00    -0.545 OA
ATOM     11  O   UNL     1      15.114  14.077  23.260  1.00  0.00    -0.545 OA
ENDBRANCH   8   9
ENDBRANCH   1   7
BRANCH   4  12
ATOM     12  O   UNL     1       9.325  15.358  18.597  1.00  0.00    -0.504 OA
ATOM     13  H   UNL     1       8.621  15.264  17.876  1.00  0.00     0.293 HD
ENDBRANCH   4  12
BRANCH   6  14
ATOM     14  O   UNL     1       8.755  12.818  17.617  1.00  0.00    -0.504 OA
ATOM     15  H   UNL     1       8.956  12.470  16.687  1.00  0.00     0.293 HD
ENDBRANCH   6  14
TORSDOF 4
ENDMDL
MODEL 4
REMARK VINA RESULT:    -3.334     24.075     26.057
REMARK INTER + INTRA:          -4.050
REMARK INTER:                  -3.919
REMARK INTRA:                  -0.131
REMARK UNBOUND:                -0.131
REMARK SMILES O=C([O-])C=Cc1ccc(O)c(O)c1
REMARK SMILES IDX 6 1 13 2 7 3 11 4 8 5 9 6 5 7 4 8 2 9 1 10 3 11 12 12 10 14
REMARK H PARENT 12 13 10 15
REMARK Flexibility Score: inf
ROOT
ATOM      1  C   UNL     1      -1.587  31.055   6.274  1.00  0.00    -0.022 A 
ATOM      2  C   UNL     1      -1.806  30.804   7.639  1.00  0.00     0.058 A 
ATOM      3  C   UNL     1      -0.392  31.692   5.885  1.00  0.00     0.012 A 
ATOM      4  C   UNL     1      -0.845  31.157   8.597  1.00  0.00     0.157 A 
ATOM      5  C   UNL     1       0.566  32.046   6.840  1.00  0.00     0.051 A 
ATOM      6  C   UNL     1       0.343  31.776   8.196  1.00  0.00     0.157 A 
ENDROOT
BRANCH   1   7
ATOM      7  C   UNL     1      -2.641  30.672   5.302  1.00  0.00     0.010 C 
ATOM      8  C   UNL     1      -3.294  29.503   5.334  1.00  0.00     0.025 C 
BRANCH   8   9
ATOM      9  C   UNL     1      -4.340  29.169   4.356  1.00  0.00     0.064 C 
ATOM     10  O   UNL     1      -5.057  30.085   3.875  1.00  0.00    -0.545 OA
ATOM     11  O   UNL     1      -4.553  27.855   3.953  1.00  0.00    -0.545 OA
ENDBRANCH   8   9
ENDBRANCH   1   7
BRANCH   4  12
ATOM     12  O   UNL     1      -1.066  30.896   9.948  1.00  0.00    -0.504 OA
ATOM     13  H   UNL     1      -0.327  30.553  10.550  1.00  0.00     0.293 HD
ENDBRANCH   4  12
BRANCH   6  14
ATOM     14  O   UNL     1       1.298  32.125   9.150  1.00  0.00    -0.504 OA
ATOM     15  H   UNL     1       1.142  31.970  10.139  1.00  0.00     0.293 HD
ENDBRANCH   6  14
TORSDOF 4
ENDMDL
MODEL 5
REMARK VINA RESULT:    -3.277      1.330      5.937
REMARK INTER + INTRA:          -3.983
REMARK INTER:                  -3.849
REMARK INTRA:                  -0.134
REMARK UNBOUND:                -0.131
REMARK SMILES O=C([O-])C=Cc1ccc(O)c(O)c1
REMARK SMILES IDX 6 1 13 2 7 3 11 4 8 5 9 6 5 7 4 8 2 9 1 10 3 11 12 12 10 14
REMARK H PARENT 12 13 10 15
REMARK Flexibility Score: inf
ROOT
ATOM      1  C   UNL     1      12.524  14.655  22.046  1.00  0.00    -0.022 A 
ATOM      2  C   UNL     1      13.389  15.390  21.216  1.00  0.00     0.058 A 
ATOM      3  C   UNL     1      12.557  14.886  23.436  1.00  0.00     0.012 A 
ATOM      4  C   UNL     1      14.253  16.353  21.756  1.00  0.00     0.157 A 
ATOM      5  C   UNL     1      13.420  15.845  23.973  1.00  0.00     0.051 A 
ATOM      6  C   UNL     1      14.266  16.583  23.136  1.00  0.00     0.157 A 
ENDROOT
BRANCH   1   7
ATOM      7  C   UNL     1      11.636  13.640  21.426  1.00  0.00     0.010 C 
ATOM      8  C   UNL     1      11.244  13.675  20.146  1.00  0.00     0.025 C 
BRANCH   8   9
ATOM      9  C   UNL     1      10.372  12.640  19.570  1.00  0.00     0.064 C 
ATOM     10  O   UNL     1       9.726  11.875  20.334  1.00  0.00    -0.545 OA
ATOM     11  O   UNL     1      10.248  12.490  18.193  1.00  0.00    -0.545 OA
ENDBRANCH   8   9
ENDBRANCH   1   7
BRANCH   4  12
ATOM     12  O   UNL     1      15.101  17.083  20.926  1.00  0.00    -0.504 OA
ATOM     13  H   UNL     1      16.045  16.774  20.726  1.00  0.00     0.293 HD
ENDBRANCH   4  12
BRANCH   6  14
ATOM     14  O   UNL     1      15.125  17.542  23.670  1.00  0.00    -0.504 OA
ATOM     15  H   UNL     1      14.994  17.911  24.604  1.00  0.00     0.293 HD
ENDBRANCH   6  14
TORSDOF 4
ENDMDL
MODEL 6
REMARK VINA RESULT:    -3.236      1.298      5.987
REMARK INTER + INTRA:          -3.935
REMARK INTER:                  -3.804
REMARK INTRA:                  -0.130
REMARK UNBOUND:                -0.131
REMARK SMILES O=C([O-])C=Cc1ccc(O)c(O)c1
REMARK SMILES IDX 6 1 13 2 7 3 11 4 8 5 9 6 5 7 4 8 2 9 1 10 3 11 12 12 10 14
REMARK H PARENT 12 13 10 15
REMARK Flexibility Score: inf
ROOT
ATOM      1  C   UNL     1      12.891  14.748  20.482  1.00  0.00    -0.022 A 
ATOM      2  C   UNL     1      12.570  14.773  21.850  1.00  0.00     0.058 A 
ATOM      3  C   UNL     1      13.908  15.600  20.008  1.00  0.00     0.012 A 
ATOM      4  C   UNL     1      13.264  15.610  22.734  1.00  0.00     0.157 A 
ATOM      5  C   UNL     1      14.599  16.436  20.890  1.00  0.00     0.051 A 
ATOM      6  C   UNL     1      14.282  16.441  22.254  1.00  0.00     0.157 A 
ENDROOT
BRANCH   1   7
ATOM      7  C   UNL     1      12.118  13.852  19.586  1.00  0.00     0.010 C 
ATOM      8  C   UNL     1      10.780  13.834  19.524  1.00  0.00     0.025 C 
BRANCH   8   9
ATOM      9  C   UNL     1      10.056  12.936  18.612  1.00  0.00     0.064 C 
ATOM     10  O   UNL     1      10.607  11.875  18.216  1.00  0.00    -0.545 OA
ATOM     11  O   UNL     1       8.770  13.238  18.177  1.00  0.00    -0.545 OA
ENDBRANCH   8   9
ENDBRANCH   1   7
BRANCH   4  12
ATOM     12  O   UNL     1      12.946  15.622  24.091  1.00  0.00    -0.504 OA
ATOM     13  H   UNL     1      13.600  15.961  24.787  1.00  0.00     0.293 HD
ENDBRANCH   4  12
BRANCH   6  14
ATOM     14  O   UNL     1      14.972  17.272  23.135  1.00  0.00    -0.504 OA
ATOM     15  H   UNL     1      14.939  18.281  23.050  1.00  0.00     0.293 HD
ENDBRANCH   6  14
TORSDOF 4
ENDMDL
