MODEL 1
REMARK VINA RESULT:    -3.707      0.000      0.000
REMARK INTER + INTRA:          -6.531
REMARK INTER:                  -5.657
REMARK INTRA:                  -0.874
REMARK UNBOUND:                -0.874
REMARK SMILES CCCCCCCCCCC(=O)[O-]
REMARK SMILES IDX 7 1 8 2 9 3 10 4 11 5 12 6 13 7 6 8 5 9 4 10 3 11 2 12 1 13
REMARK H PARENT
REMARK Flexibility Score: inf
ROOT
ATOM      1  C   UNL     1      27.100  27.422 -17.895  1.00  0.00     0.000 C 
ENDROOT
BRANCH   1   2
ATOM      2  C   UNL     1      25.780  27.432 -18.687  1.00  0.00     0.000 C 
BRANCH   2   3
ATOM      3  C   UNL     1      24.575  27.834 -17.819  1.00  0.00     0.006 C 
BRANCH   3   4
ATOM      4  C   UNL     1      24.871  27.742 -16.316  1.00  0.00     0.053 C 
BRANCH   4   5
ATOM      5  C   UNL     1      24.932  29.110 -15.713  1.00  0.00     0.041 C 
ATOM      6  O   UNL     1      24.750  30.128 -16.431  1.00  0.00    -0.550 OA
ATOM      7  O   UNL     1      25.142  29.259 -14.349  1.00  0.00    -0.550 OA
ENDBRANCH   4   5
ENDBRANCH   3   4
ENDBRANCH   2   3
ENDBRANCH   1   2
BRANCH   1   8
ATOM      8  C   UNL     1      28.009  28.611 -18.251  1.00  0.00     0.000 C 
BRANCH   8   9
ATOM      9  C   UNL     1      27.568  29.325 -19.541  1.00  0.00    -0.000 C 
BRANCH   9  10
ATOM     10  C   UNL     1      27.336  30.833 -19.339  1.00  0.00    -0.000 C 
BRANCH  10  11
ATOM     11  C   UNL     1      27.677  31.368 -17.932  1.00  0.00    -0.000 C 
BRANCH  11  12
ATOM     12  C   UNL     1      28.839  32.374 -17.884  1.00  0.00    -0.003 C 
ATOM     13  C   UNL     1      30.085  31.813 -17.197  1.00  0.00     0.004 C 
ENDBRANCH  11  12
ENDBRANCH  10  11
ENDBRANCH   9  10
ENDBRANCH   8   9
ENDBRANCH   1   8
TORSDOF 9
ENDMDL
MODEL 2
REMARK VINA RESULT:    -3.590     12.757     14.647
REMARK INTER + INTRA:          -6.353
REMARK INTER:                  -5.446
REMARK INTRA:                  -0.907
REMARK UNBOUND:                -0.874
REMARK SMILES CCCCCCCCCCC(=O)[O-]
REMARK SMILES IDX 7 1 8 2 9 3 10 4 11 5 12 6 13 7 6 8 5 9 4 10 3 11 2 12 1 13
REMARK H PARENT
REMARK Flexibility Score: inf
ROOT
ATOM      1  C   UNL     1      33.501  17.964 -18.537  1.00  0.00     0.000 C 
ENDROOT
BRANCH   1   2
ATOM      2  C   UNL     1      32.358  17.081 -19.069  1.00  0.00     0.000 C 
BRANCH   2   3
ATOM      3  C   UNL     1      30.972  17.702 -18.826  1.00  0.00     0.006 C 
BRANCH   3   4
ATOM      4  C   UNL     1      29.913  16.656 -18.453  1.00  0.00     0.053 C 
BRANCH   4   5
ATOM      5  C   UNL     1      28.860  17.270 -17.585  1.00  0.00     0.041 C 
ATOM      6  O   UNL     1      28.518  18.469 -17.754  1.00  0.00    -0.550 OA
ATOM      7  O   UNL     1      28.221  16.502 -16.619  1.00  0.00    -0.550 OA
ENDBRANCH   4   5
ENDBRANCH   3   4
ENDBRANCH   2   3
ENDBRANCH   1   2
BRANCH   1   8
ATOM      8  C   UNL     1      34.635  17.140 -17.903  1.00  0.00     0.000 C 
BRANCH   8   9
ATOM      9  C   UNL     1      34.347  15.629 -17.921  1.00  0.00    -0.000 C 
BRANCH   9  10
ATOM     10  C   UNL     1      34.653  14.946 -16.576  1.00  0.00    -0.000 C 
BRANCH  10  11
ATOM     11  C   UNL     1      33.563  13.979 -16.066  1.00  0.00    -0.000 C 
BRANCH  11  12
ATOM     12  C   UNL     1      32.191  14.131 -16.744  1.00  0.00    -0.003 C 
ATOM     13  C   UNL     1      31.045  14.281 -15.743  1.00  0.00     0.004 C 
ENDBRANCH  11  12
ENDBRANCH  10  11
ENDBRANCH   9  10
ENDBRANCH   8   9
ENDBRANCH   1   8
TORSDOF 9
ENDMDL
MODEL 3
REMARK VINA RESULT:    -3.588     12.993     14.589
REMARK INTER + INTRA:          -6.350
REMARK INTER:                  -5.623
REMARK INTRA:                  -0.727
REMARK UNBOUND:                -0.874
REMARK SMILES CCCCCCCCCCC(=O)[O-]
REMARK SMILES IDX 7 1 8 2 9 3 10 4 11 5 12 6 13 7 6 8 5 9 4 10 3 11 2 12 1 13
REMARK H PARENT
REMARK Flexibility Score: inf
ROOT
ATOM      1  C   UNL     1      32.113  14.428 -16.572  1.00  0.00     0.000 C 
ENDROOT
BRANCH   1   2
ATOM      2  C   UNL     1      30.999  14.080 -15.568  1.00  0.00     0.000 C 
BRANCH   2   3
ATOM      3  C   UNL     1      29.710  14.881 -15.817  1.00  0.00     0.006 C 
BRANCH   3   4
ATOM      4  C   UNL     1      29.744  15.663 -17.137  1.00  0.00     0.053 C 
BRANCH   4   5
ATOM      5  C   UNL     1      28.517  16.509 -17.273  1.00  0.00     0.041 C 
ATOM      6  O   UNL     1      27.381  16.018 -17.046  1.00  0.00    -0.550 OA
ATOM      7  O   UNL     1      28.633  17.853 -17.604  1.00  0.00    -0.550 OA
ENDBRANCH   4   5
ENDBRANCH   3   4
ENDBRANCH   2   3
ENDBRANCH   1   2
BRANCH   1   8
ATOM      8  C   UNL     1      33.518  14.154 -16.009  1.00  0.00     0.000 C 
BRANCH   8   9
ATOM      9  C   UNL     1      34.609  14.968 -16.727  1.00  0.00    -0.000 C 
BRANCH   9  10
ATOM     10  C   UNL     1      34.057  15.813 -17.889  1.00  0.00    -0.000 C 
BRANCH  10  11
ATOM     11  C   UNL     1      34.651  17.232 -18.010  1.00  0.00    -0.000 C 
BRANCH  11  12
ATOM     12  C   UNL     1      33.638  18.332 -18.369  1.00  0.00    -0.003 C 
ATOM     13  C   UNL     1      32.283  17.775 -18.807  1.00  0.00     0.004 C 
ENDBRANCH  11  12
ENDBRANCH  10  11
ENDBRANCH   9  10
ENDBRANCH   8   9
ENDBRANCH   1   8
TORSDOF 9
ENDMDL
MODEL 4
REMARK VINA RESULT:    -3.534     13.062     14.798
REMARK INTER + INTRA:          -6.267
REMARK INTER:                  -5.291
REMARK INTRA:                  -0.976
REMARK UNBOUND:                -0.874
REMARK SMILES CCCCCCCCCCC(=O)[O-]
REMARK SMILES IDX 7 1 8 2 9 3 10 4 11 5 12 6 13 7 6 8 5 9 4 10 3 11 2 12 1 13
REMARK H PARENT
REMARK Flexibility Score: inf
ROOT
ATOM      1  C   UNL     1      32.365  17.703 -19.389  1.00  0.00     0.000 C 
ENDROOT
BRANCH   1   2
ATOM      2  C   UNL     1      31.069  17.352 -18.635  1.00  0.00     0.000 C 
BRANCH   2   3
ATOM      3  C   UNL     1      31.043  15.890 -18.157  1.00  0.00     0.006 C 
BRANCH   3   4
ATOM      4  C   UNL     1      29.625  15.399 -17.834  1.00  0.00     0.053 C 
BRANCH   4   5
ATOM      5  C   UNL     1      29.378  15.456 -16.359  1.00  0.00     0.041 C 
ATOM      6  O   UNL     1      30.065  14.753 -15.573  1.00  0.00    -0.550 OA
ATOM      7  O   UNL     1      28.420  16.323 -15.849  1.00  0.00    -0.550 OA
ENDBRANCH   4   5
ENDBRANCH   3   4
ENDBRANCH   2   3
ENDBRANCH   1   2
BRANCH   1   8
ATOM      8  C   UNL     1      33.401  18.395 -18.488  1.00  0.00     0.000 C 
BRANCH   8   9
ATOM      9  C   UNL     1      34.552  17.458 -18.084  1.00  0.00    -0.000 C 
BRANCH   9  10
ATOM     10  C   UNL     1      34.656  16.217 -18.988  1.00  0.00    -0.000 C 
BRANCH  10  11
ATOM     11  C   UNL     1      34.515  14.862 -18.262  1.00  0.00    -0.000 C 
BRANCH  11  12
ATOM     12  C   UNL     1      34.534  14.942 -16.727  1.00  0.00    -0.003 C 
ATOM     13  C   UNL     1      33.498  14.030 -16.069  1.00  0.00     0.004 C 
ENDBRANCH  11  12
ENDBRANCH  10  11
ENDBRANCH   9  10
ENDBRANCH   8   9
ENDBRANCH   1   8
TORSDOF 9
ENDMDL
MODEL 5
REMARK VINA RESULT:    -3.526     12.993     14.922
REMARK INTER + INTRA:          -6.255
REMARK INTER:                  -5.391
REMARK INTRA:                  -0.863
REMARK UNBOUND:                -0.874
REMARK SMILES CCCCCCCCCCC(=O)[O-]
REMARK SMILES IDX 7 1 8 2 9 3 10 4 11 5 12 6 13 7 6 8 5 9 4 10 3 11 2 12 1 13
REMARK H PARENT
REMARK Flexibility Score: inf
ROOT
ATOM      1  C   UNL     1      33.204  14.106 -16.097  1.00  0.00     0.000 C 
ENDROOT
BRANCH   1   2
ATOM      2  C   UNL     1      34.461  14.808 -16.639  1.00  0.00     0.000 C 
BRANCH   2   3
ATOM      3  C   UNL     1      34.173  15.645 -17.897  1.00  0.00     0.006 C 
BRANCH   3   4
ATOM      4  C   UNL     1      34.708  17.079 -17.789  1.00  0.00     0.053 C 
BRANCH   4   5
ATOM      5  C   UNL     1      33.896  18.003 -18.641  1.00  0.00     0.041 C 
ATOM      6  O   UNL     1      33.646  17.706 -19.838  1.00  0.00    -0.550 OA
ATOM      7  O   UNL     1      33.374  19.170 -18.098  1.00  0.00    -0.550 OA
ENDBRANCH   4   5
ENDBRANCH   3   4
ENDBRANCH   2   3
ENDBRANCH   1   2
BRANCH   1   8
ATOM      8  C   UNL     1      32.006  14.221 -17.054  1.00  0.00     0.000 C 
BRANCH   8   9
ATOM      9  C   UNL     1      30.739  14.744 -16.354  1.00  0.00    -0.000 C 
BRANCH   9  10
ATOM     10  C   UNL     1      29.828  15.553 -17.294  1.00  0.00    -0.000 C 
BRANCH  10  11
ATOM     11  C   UNL     1      30.556  16.302 -18.431  1.00  0.00    -0.000 C 
BRANCH  11  12
ATOM     12  C   UNL     1      30.059  17.735 -18.687  1.00  0.00    -0.003 C 
ATOM     13  C   UNL     1      28.809  18.085 -17.881  1.00  0.00     0.004 C 
ENDBRANCH  11  12
ENDBRANCH  10  11
ENDBRANCH   9  10
ENDBRANCH   8   9
ENDBRANCH   1   8
TORSDOF 9
ENDMDL
MODEL 6
REMARK VINA RESULT:    -3.516      2.334      4.602
REMARK INTER + INTRA:          -6.240
REMARK INTER:                  -5.135
REMARK INTRA:                  -1.105
REMARK UNBOUND:                -0.874
REMARK SMILES CCCCCCCCCCC(=O)[O-]
REMARK SMILES IDX 7 1 8 2 9 3 10 4 11 5 12 6 13 7 6 8 5 9 4 10 3 11 2 12 1 13
REMARK H PARENT
REMARK Flexibility Score: inf
ROOT
ATOM      1  C   UNL     1      27.124  27.825 -19.501  1.00  0.00     0.000 C 
ENDROOT
BRANCH   1   2
ATOM      2  C   UNL     1      27.834  28.278 -18.213  1.00  0.00     0.000 C 
BRANCH   2   3
ATOM      3  C   UNL     1      28.211  29.769 -18.241  1.00  0.00     0.006 C 
BRANCH   3   4
ATOM      4  C   UNL     1      27.336  30.583 -19.204  1.00  0.00     0.053 C 
BRANCH   4   5
ATOM      5  C   UNL     1      27.511  32.047 -18.954  1.00  0.00     0.041 C 
ATOM      6  O   UNL     1      28.664  32.547 -18.893  1.00  0.00    -0.550 OA
ATOM      7  O   UNL     1      26.398  32.870 -18.837  1.00  0.00    -0.550 OA
ENDBRANCH   4   5
ENDBRANCH   3   4
ENDBRANCH   2   3
ENDBRANCH   1   2
BRANCH   1   8
ATOM      8  C   UNL     1      26.296  26.545 -19.297  1.00  0.00     0.000 C 
BRANCH   8   9
ATOM      9  C   UNL     1      24.782  26.802 -19.388  1.00  0.00    -0.000 C 
BRANCH   9  10
ATOM     10  C   UNL     1      24.155  27.166 -18.030  1.00  0.00    -0.000 C 
BRANCH  10  11
ATOM     11  C   UNL     1      24.098  28.677 -17.716  1.00  0.00    -0.000 C 
BRANCH  11  12
ATOM     12  C   UNL     1      24.802  29.098 -16.415  1.00  0.00    -0.003 C 
ATOM     13  C   UNL     1      25.095  27.918 -15.488  1.00  0.00     0.004 C 
ENDBRANCH  11  12
ENDBRANCH  10  11
ENDBRANCH   9  10
ENDBRANCH   8   9
ENDBRANCH   1   8
TORSDOF 9
ENDMDL
MODEL 7
REMARK VINA RESULT:    -3.496     13.304     14.899
REMARK INTER + INTRA:          -6.209
REMARK INTER:                  -5.268
REMARK INTRA:                  -0.941
REMARK UNBOUND:                -0.874
REMARK SMILES CCCCCCCCCCC(=O)[O-]
REMARK SMILES IDX 7 1 8 2 9 3 10 4 11 5 12 6 13 7 6 8 5 9 4 10 3 11 2 12 1 13
REMARK H PARENT
REMARK Flexibility Score: inf
ROOT
ATOM      1  C   UNL     1      33.492  14.180 -16.317  1.00  0.00     0.000 C 
ENDROOT
BRANCH   1   2
ATOM      2  C   UNL     1      32.330  14.173 -17.326  1.00  0.00     0.000 C 
BRANCH   2   3
ATOM      3  C   UNL     1      31.035  13.595 -16.731  1.00  0.00     0.006 C 
BRANCH   3   4
ATOM      4  C   UNL     1      30.505  14.423 -15.553  1.00  0.00     0.053 C 
BRANCH   4   5
ATOM      5  C   UNL     1      29.291  15.195 -15.965  1.00  0.00     0.041 C 
ATOM      6  O   UNL     1      28.813  16.079 -15.206  1.00  0.00    -0.550 OA
ATOM      7  O   UNL     1      28.714  14.972 -17.209  1.00  0.00    -0.550 OA
ENDBRANCH   4   5
ENDBRANCH   3   4
ENDBRANCH   2   3
ENDBRANCH   1   2
BRANCH   1   8
ATOM      8  C   UNL     1      34.574  15.214 -16.671  1.00  0.00     0.000 C 
BRANCH   8   9
ATOM      9  C   UNL     1      34.337  15.868 -18.044  1.00  0.00    -0.000 C 
BRANCH   9  10
ATOM     10  C   UNL     1      34.552  17.392 -18.025  1.00  0.00    -0.000 C 
BRANCH  10  11
ATOM     11  C   UNL     1      33.318  18.234 -18.414  1.00  0.00    -0.000 C 
BRANCH  11  12
ATOM     12  C   UNL     1      32.293  17.512 -19.304  1.00  0.00    -0.003 C 
ATOM     13  C   UNL     1      30.907  17.422 -18.664  1.00  0.00     0.004 C 
ENDBRANCH  11  12
ENDBRANCH  10  11
ENDBRANCH   9  10
ENDBRANCH   8   9
ENDBRANCH   1   8
TORSDOF 9
ENDMDL
MODEL 8
REMARK VINA RESULT:    -3.388     13.721     15.769
REMARK INTER + INTRA:          -6.045
REMARK INTER:                  -5.488
REMARK INTRA:                  -0.557
REMARK UNBOUND:                -0.874
REMARK SMILES CCCCCCCCCCC(=O)[O-]
REMARK SMILES IDX 7 1 8 2 9 3 10 4 11 5 12 6 13 7 6 8 5 9 4 10 3 11 2 12 1 13
REMARK H PARENT
REMARK Flexibility Score: inf
ROOT
ATOM      1  C   UNL     1      34.443  14.963 -16.810  1.00  0.00     0.000 C 
ENDROOT
BRANCH   1   2
ATOM      2  C   UNL     1      34.276  14.804 -18.331  1.00  0.00     0.000 C 
BRANCH   2   3
ATOM      3  C   UNL     1      34.565  16.108 -19.095  1.00  0.00     0.006 C 
BRANCH   3   4
ATOM      4  C   UNL     1      34.516  17.347 -18.191  1.00  0.00     0.053 C 
BRANCH   4   5
ATOM      5  C   UNL     1      33.316  18.180 -18.515  1.00  0.00     0.041 C 
ATOM      6  O   UNL     1      33.265  19.385 -18.155  1.00  0.00    -0.550 OA
ATOM      7  O   UNL     1      32.273  17.639 -19.256  1.00  0.00    -0.550 OA
ENDBRANCH   4   5
ENDBRANCH   3   4
ENDBRANCH   2   3
ENDBRANCH   1   2
BRANCH   1   8
ATOM      8  C   UNL     1      33.589  13.959 -16.016  1.00  0.00     0.000 C 
BRANCH   8   9
ATOM      9  C   UNL     1      32.207  13.729 -16.651  1.00  0.00    -0.000 C 
BRANCH   9  10
ATOM     10  C   UNL     1      31.225  13.016 -15.704  1.00  0.00    -0.000 C 
BRANCH  10  11
ATOM     11  C   UNL     1      30.004  13.855 -15.272  1.00  0.00    -0.000 C 
BRANCH  11  12
ATOM     12  C   UNL     1      29.762  15.126 -16.102  1.00  0.00    -0.003 C 
ATOM     13  C   UNL     1      28.517  15.897 -15.662  1.00  0.00     0.004 C 
ENDBRANCH  11  12
ENDBRANCH  10  11
ENDBRANCH   9  10
ENDBRANCH   8   9
ENDBRANCH   1   8
TORSDOF 9
ENDMDL
MODEL 9
REMARK VINA RESULT:    -3.372     22.516     23.790
REMARK INTER + INTRA:          -6.019
REMARK INTER:                  -5.319
REMARK INTRA:                  -0.700
REMARK UNBOUND:                -0.874
REMARK SMILES CCCCCCCCCCC(=O)[O-]
REMARK SMILES IDX 7 1 8 2 9 3 10 4 11 5 12 6 13 7 6 8 5 9 4 10 3 11 2 12 1 13
REMARK H PARENT
REMARK Flexibility Score: inf
ROOT
ATOM      1  C   UNL     1      35.755  13.941  -4.964  1.00  0.00     0.000 C 
ENDROOT
BRANCH   1   2
ATOM      2  C   UNL     1      36.901  12.913  -4.967  1.00  0.00     0.000 C 
BRANCH   2   3
ATOM      3  C   UNL     1      37.910  13.151  -3.832  1.00  0.00     0.006 C 
BRANCH   3   4
ATOM      4  C   UNL     1      38.244  14.636  -3.639  1.00  0.00     0.053 C 
BRANCH   4   5
ATOM      5  C   UNL     1      39.665  14.797  -3.197  1.00  0.00     0.041 C 
ATOM      6  O   UNL     1      40.590  14.863  -4.048  1.00  0.00    -0.550 OA
ATOM      7  O   UNL     1      39.963  14.922  -1.846  1.00  0.00    -0.550 OA
ENDBRANCH   4   5
ENDBRANCH   3   4
ENDBRANCH   2   3
ENDBRANCH   1   2
BRANCH   1   8
ATOM      8  C   UNL     1      34.699  13.641  -3.886  1.00  0.00     0.000 C 
BRANCH   8   9
ATOM      9  C   UNL     1      34.645  14.726  -2.796  1.00  0.00    -0.000 C 
BRANCH   9  10
ATOM     10  C   UNL     1      35.069  14.203  -1.412  1.00  0.00    -0.000 C 
BRANCH  10  11
ATOM     11  C   UNL     1      34.036  14.416  -0.285  1.00  0.00    -0.000 C 
BRANCH  11  12
ATOM     12  C   UNL     1      32.704  15.040  -0.733  1.00  0.00    -0.003 C 
ATOM     13  C   UNL     1      31.562  14.025  -0.797  1.00  0.00     0.004 C 
ENDBRANCH  11  12
ENDBRANCH  10  11
ENDBRANCH   9  10
ENDBRANCH   8   9
ENDBRANCH   1   8
TORSDOF 9
ENDMDL
