MODEL 1
REMARK VINA RESULT:    -3.748      0.000      0.000
REMARK INTER + INTRA:          -6.225
REMARK INTER:                  -5.719
REMARK INTRA:                  -0.505
REMARK UNBOUND:                -0.505
REMARK SMILES CC1=CCC[C@@H](C)C(=O)C[C@@H](C(C)C)C(=O)C1
REMARK SMILES IDX 8 1 9 2 6 3 7 4 5 5 4 6 3 7 2 8 1 9 10 11 11 12 15 13 16 14
REMARK SMILES IDX 17 15 12 17 13 18 14 19
REMARK H PARENT
REMARK Flexibility Score: 70.00
ROOT
ATOM      1  C   UNL     1     -10.713 -21.994  23.876  1.00  0.00     0.136 C 
ATOM      2  O   UNL     1      -9.870 -21.458  24.580  1.00  0.00    -0.299 OA
ENDROOT
BRANCH   1   3
ATOM      3  C   UNL     1     -10.308 -23.143  22.967  1.00  0.00     0.053 C 
ATOM      4  C   UNL     1      -9.606 -24.244  23.773  1.00  0.00     0.016 C 
BRANCH   3   5
ATOM      5  C   UNL     1      -9.400 -22.628  21.828  1.00  0.00     0.015 C 
BRANCH   5   6
ATOM      6  C   UNL     1     -10.133 -21.635  20.904  1.00  0.00     0.028 C 
BRANCH   6   7
ATOM      7  C   UNL     1     -11.127 -22.353  20.027  1.00  0.00    -0.028 C 
ATOM      8  C   UNL     1     -12.463 -22.133  20.037  1.00  0.00    -0.070 CG0
ATOM      9  C   UNL     1     -13.311 -22.876  19.035  1.00  0.00     0.039 C 
ATOM     10  G   UNL     1     -13.137 -21.192  21.023  1.00  0.00     0.000 G0
ENDBRANCH   6   7
ENDBRANCH   5   6
ENDBRANCH   3   5
ENDBRANCH   1   3
BRANCH   1  11
ATOM     11  C   UNL     1     -12.141 -21.498  23.916  1.00  0.00     0.087 C 
BRANCH  11  12
ATOM     12  C   UNL     1     -13.201 -22.475  23.318  1.00  0.00     0.066 C 
BRANCH  12  13
ATOM     13  C   UNL     1     -13.936 -21.924  22.097  1.00  0.00     0.140 C 
ATOM     14  O   UNL     1     -15.129 -22.139  21.950  1.00  0.00    -0.299 OA
BRANCH  13  15
ATOM     15  C   UNL     1     -13.184 -21.182  21.018  1.00  0.00     0.106 CG0
ATOM     16  G   UNL     1     -12.491 -22.122  20.044  1.00  0.00     0.000 G0
ENDBRANCH  13  15
ENDBRANCH  12  13
BRANCH  12  17
ATOM     17  C   UNL     1     -14.149 -23.099  24.391  1.00  0.00    -0.006 C 
ATOM     18  C   UNL     1     -13.753 -24.512  24.849  1.00  0.00     0.008 C 
ATOM     19  C   UNL     1     -14.312 -22.173  25.607  1.00  0.00     0.008 C 
ENDBRANCH  12  17
ENDBRANCH  11  12
ENDBRANCH   1  11
TORSDOF 1
ENDMDL
MODEL 2
REMARK VINA RESULT:    -3.557      2.177      5.458
REMARK INTER + INTRA:          -5.934
REMARK INTER:                  -5.759
REMARK INTRA:                  -0.175
REMARK UNBOUND:                -0.505
REMARK SMILES CC1=CCC[C@@H](C)C(=O)C[C@@H](C(C)C)C(=O)C1
REMARK SMILES IDX 8 1 9 2 6 3 7 4 5 5 4 6 3 7 2 8 1 9 10 11 11 12 15 13 16 14
REMARK SMILES IDX 17 15 12 17 13 18 14 19
REMARK H PARENT
REMARK Flexibility Score: 70.00
ROOT
ATOM      1  C   UNL     1     -13.948 -21.608  21.865  1.00  0.00     0.136 C 
ATOM      2  O   UNL     1     -14.200 -21.506  20.673  1.00  0.00    -0.299 OA
ENDROOT
BRANCH   1   3
ATOM      3  C   UNL     1     -15.037 -22.061  22.824  1.00  0.00     0.053 C 
ATOM      4  C   UNL     1     -16.323 -21.255  22.596  1.00  0.00     0.016 C 
BRANCH   3   5
ATOM      5  C   UNL     1     -14.552 -21.926  24.284  1.00  0.00     0.015 C 
BRANCH   5   6
ATOM      6  C   UNL     1     -14.044 -23.265  24.854  1.00  0.00     0.028 C 
BRANCH   6   7
ATOM      7  C   UNL     1     -12.923 -23.038  25.837  1.00  0.00    -0.028 C 
ATOM      8  C   UNL     1     -11.610 -23.224  25.563  1.00  0.00    -0.070 CG0
ATOM      9  C   UNL     1     -10.607 -22.870  26.632  1.00  0.00     0.039 C 
ATOM     10  G   UNL     1     -11.115 -23.792  24.242  1.00  0.00     0.000 G0
ENDBRANCH   6   7
ENDBRANCH   5   6
ENDBRANCH   3   5
ENDBRANCH   1   3
BRANCH   1  11
ATOM     11  C   UNL     1     -12.560 -21.276  22.363  1.00  0.00     0.087 C 
BRANCH  11  12
ATOM     12  C   UNL     1     -11.470 -22.352  22.063  1.00  0.00     0.066 C 
BRANCH  12  13
ATOM     13  C   UNL     1     -10.627 -22.739  23.276  1.00  0.00     0.140 C 
ATOM     14  O   UNL     1      -9.522 -22.244  23.440  1.00  0.00    -0.299 OA
BRANCH  13  15
ATOM     15  C   UNL     1     -11.107 -23.797  24.240  1.00  0.00     0.106 CG0
ATOM     16  G   UNL     1     -11.593 -23.207  25.554  1.00  0.00     0.000 G0
ENDBRANCH  13  15
ENDBRANCH  12  13
BRANCH  12  17
ATOM     17  C   UNL     1     -10.626 -22.045  20.785  1.00  0.00    -0.006 C 
ATOM     18  C   UNL     1     -11.047 -22.835  19.535  1.00  0.00     0.008 C 
ATOM     19  C   UNL     1     -10.597 -20.539  20.477  1.00  0.00     0.008 C 
ENDBRANCH  12  17
ENDBRANCH  11  12
ENDBRANCH   1  11
TORSDOF 1
ENDMDL
MODEL 3
REMARK VINA RESULT:    -3.496      1.615      3.795
REMARK INTER + INTRA:          -5.840
REMARK INTER:                  -5.451
REMARK INTRA:                  -0.389
REMARK UNBOUND:                -0.505
REMARK SMILES CC1=CCC[C@@H](C)C(=O)C[C@@H](C(C)C)C(=O)C1
REMARK SMILES IDX 8 1 9 2 6 3 7 4 5 5 4 6 3 7 2 8 1 9 10 11 11 12 15 13 16 14
REMARK SMILES IDX 17 15 12 17 13 18 14 19
REMARK H PARENT
REMARK Flexibility Score: 70.00
ROOT
ATOM      1  C   UNL     1     -13.519 -23.269  23.804  1.00  0.00     0.136 C 
ATOM      2  O   UNL     1     -14.075 -24.335  24.024  1.00  0.00    -0.299 OA
ENDROOT
BRANCH   1   3
ATOM      3  C   UNL     1     -14.354 -22.013  23.619  1.00  0.00     0.053 C 
ATOM      4  C   UNL     1     -15.157 -21.708  24.891  1.00  0.00     0.016 C 
BRANCH   3   5
ATOM      5  C   UNL     1     -15.290 -22.169  22.400  1.00  0.00     0.015 C 
BRANCH   5   6
ATOM      6  C   UNL     1     -14.840 -21.302  21.207  1.00  0.00     0.028 C 
BRANCH   6   7
ATOM      7  C   UNL     1     -13.895 -22.068  20.315  1.00  0.00    -0.028 C 
ATOM      8  C   UNL     1     -12.550 -21.913  20.305  1.00  0.00    -0.070 CG0
ATOM      9  C   UNL     1     -11.739 -22.819  19.412  1.00  0.00     0.039 C 
ATOM     10  G   UNL     1     -11.834 -20.857  21.132  1.00  0.00     0.000 G0
ENDBRANCH   6   7
ENDBRANCH   5   6
ENDBRANCH   3   5
ENDBRANCH   1   3
BRANCH   1  11
ATOM     11  C   UNL     1     -12.010 -23.222  23.714  1.00  0.00     0.087 C 
BRANCH  11  12
ATOM     12  C   UNL     1     -11.397 -21.796  23.557  1.00  0.00     0.066 C 
BRANCH  12  13
ATOM     13  C   UNL     1     -10.892 -21.487  22.149  1.00  0.00     0.140 C 
ATOM     14  O   UNL     1      -9.720 -21.674  21.862  1.00  0.00    -0.299 OA
BRANCH  13  15
ATOM     15  C   UNL     1     -11.811 -20.868  21.123  1.00  0.00     0.106 CG0
ATOM     16  G   UNL     1     -12.541 -21.912  20.294  1.00  0.00     0.000 G0
ENDBRANCH  13  15
ENDBRANCH  12  13
BRANCH  12  17
ATOM     17  C   UNL     1     -10.379 -21.428  24.683  1.00  0.00    -0.006 C 
ATOM     18  C   UNL     1     -10.412 -19.955  25.120  1.00  0.00     0.008 C 
ATOM     19  C   UNL     1     -10.533 -22.348  25.906  1.00  0.00     0.008 C 
ENDBRANCH  12  17
ENDBRANCH  11  12
ENDBRANCH   1  11
TORSDOF 1
ENDMDL
MODEL 4
REMARK VINA RESULT:    -3.458      2.191      5.180
REMARK INTER + INTRA:          -5.782
REMARK INTER:                  -5.370
REMARK INTRA:                  -0.412
REMARK UNBOUND:                -0.505
REMARK SMILES CC1=CCC[C@@H](C)C(=O)C[C@@H](C(C)C)C(=O)C1
REMARK SMILES IDX 8 1 9 2 6 3 7 4 5 5 4 6 3 7 2 8 1 9 10 11 11 12 15 13 16 14
REMARK SMILES IDX 17 15 12 17 13 18 14 19
REMARK H PARENT
REMARK Flexibility Score: 70.00
ROOT
ATOM      1  C   UNL     1     -12.982 -21.136  23.391  1.00  0.00     0.136 C 
ATOM      2  O   UNL     1     -13.196 -20.350  24.302  1.00  0.00    -0.299 OA
ENDROOT
BRANCH   1   3
ATOM      3  C   UNL     1     -13.992 -22.233  23.096  1.00  0.00     0.053 C 
ATOM      4  C   UNL     1     -15.318 -21.628  22.615  1.00  0.00     0.016 C 
BRANCH   3   5
ATOM      5  C   UNL     1     -14.208 -23.110  24.349  1.00  0.00     0.015 C 
BRANCH   5   6
ATOM      6  C   UNL     1     -13.328 -24.377  24.331  1.00  0.00     0.028 C 
BRANCH   6   7
ATOM      7  C   UNL     1     -12.174 -24.240  25.291  1.00  0.00    -0.028 C 
ATOM      8  C   UNL     1     -10.871 -24.180  24.926  1.00  0.00    -0.070 CG0
ATOM      9  C   UNL     1      -9.843 -23.957  26.007  1.00  0.00     0.039 C 
ATOM     10  G   UNL     1     -10.409 -24.349  23.488  1.00  0.00     0.000 G0
ENDBRANCH   6   7
ENDBRANCH   5   6
ENDBRANCH   3   5
ENDBRANCH   1   3
BRANCH   1  11
ATOM     11  C   UNL     1     -11.712 -21.007  22.579  1.00  0.00     0.087 C 
BRANCH  11  12
ATOM     12  C   UNL     1     -11.177 -22.338  21.965  1.00  0.00     0.066 C 
BRANCH  12  13
ATOM     13  C   UNL     1     -10.105 -23.026  22.807  1.00  0.00     0.140 C 
ATOM     14  O   UNL     1      -8.983 -22.550  22.881  1.00  0.00    -0.299 OA
BRANCH  13  15
ATOM     15  C   UNL     1     -10.392 -24.343  23.489  1.00  0.00     0.106 CG0
ATOM     16  G   UNL     1     -10.860 -24.163  24.924  1.00  0.00     0.000 G0
ENDBRANCH  13  15
ENDBRANCH  12  13
BRANCH  12  17
ATOM     17  C   UNL     1     -10.806 -22.220  20.452  1.00  0.00    -0.006 C 
ATOM     18  C   UNL     1     -11.886 -22.734  19.486  1.00  0.00     0.008 C 
ATOM     19  C   UNL     1     -10.401 -20.784  20.080  1.00  0.00     0.008 C 
ENDBRANCH  12  17
ENDBRANCH  11  12
ENDBRANCH   1  11
TORSDOF 1
ENDMDL
MODEL 5
REMARK VINA RESULT:    -3.446      2.336      3.871
REMARK INTER + INTRA:          -5.765
REMARK INTER:                  -5.493
REMARK INTRA:                  -0.271
REMARK UNBOUND:                -0.505
REMARK SMILES CC1=CCC[C@@H](C)C(=O)C[C@@H](C(C)C)C(=O)C1
REMARK SMILES IDX 8 1 9 2 6 3 7 4 5 5 4 6 3 7 2 8 1 9 10 11 11 12 15 13 16 14
REMARK SMILES IDX 17 15 12 17 13 18 14 19
REMARK H PARENT
REMARK Flexibility Score: 70.00
ROOT
ATOM      1  C   UNL     1     -11.197 -22.720  21.869  1.00  0.00     0.136 C 
ATOM      2  O   UNL     1     -10.062 -23.172  21.906  1.00  0.00    -0.299 OA
ENDROOT
BRANCH   1   3
ATOM      3  C   UNL     1     -11.643 -21.918  20.657  1.00  0.00     0.053 C 
ATOM      4  C   UNL     1     -11.958 -22.852  19.480  1.00  0.00     0.016 C 
BRANCH   3   5
ATOM      5  C   UNL     1     -10.559 -20.888  20.270  1.00  0.00     0.015 C 
BRANCH   5   6
ATOM      6  C   UNL     1     -10.674 -19.588  21.091  1.00  0.00     0.028 C 
BRANCH   6   7
ATOM      7  C   UNL     1      -9.573 -19.505  22.119  1.00  0.00    -0.028 C 
ATOM      8  C   UNL     1      -9.768 -19.523  23.459  1.00  0.00    -0.070 CG0
ATOM      9  C   UNL     1      -8.552 -19.518  24.351  1.00  0.00     0.039 C 
ATOM     10  G   UNL     1     -11.151 -19.526  24.092  1.00  0.00     0.000 G0
ENDBRANCH   6   7
ENDBRANCH   5   6
ENDBRANCH   3   5
ENDBRANCH   1   3
BRANCH   1  11
ATOM     11  C   UNL     1     -12.133 -22.962  23.032  1.00  0.00     0.087 C 
BRANCH  11  12
ATOM     12  C   UNL     1     -12.654 -21.675  23.745  1.00  0.00     0.066 C 
BRANCH  12  13
ATOM     13  C   UNL     1     -11.583 -20.923  24.532  1.00  0.00     0.140 C 
ATOM     14  O   UNL     1     -11.117 -21.406  25.552  1.00  0.00    -0.299 OA
BRANCH  13  15
ATOM     15  C   UNL     1     -11.149 -19.540  24.109  1.00  0.00     0.106 CG0
ATOM     16  G   UNL     1      -9.767 -19.534  23.476  1.00  0.00     0.000 G0
ENDBRANCH  13  15
ENDBRANCH  12  13
BRANCH  12  17
ATOM     17  C   UNL     1     -13.978 -21.898  24.543  1.00  0.00    -0.006 C 
ATOM     18  C   UNL     1     -15.243 -21.378  23.842  1.00  0.00     0.008 C 
ATOM     19  C   UNL     1     -14.158 -23.374  24.936  1.00  0.00     0.008 C 
ENDBRANCH  12  17
ENDBRANCH  11  12
ENDBRANCH   1  11
TORSDOF 1
ENDMDL
MODEL 6
REMARK VINA RESULT:    -3.402      2.087      4.176
REMARK INTER + INTRA:          -5.697
REMARK INTER:                  -5.502
REMARK INTRA:                  -0.195
REMARK UNBOUND:                -0.505
REMARK SMILES CC1=CCC[C@@H](C)C(=O)C[C@@H](C(C)C)C(=O)C1
REMARK SMILES IDX 8 1 9 2 6 3 7 4 5 5 4 6 3 7 2 8 1 9 10 11 11 12 15 13 16 14
REMARK SMILES IDX 17 15 12 17 13 18 14 19
REMARK H PARENT
REMARK Flexibility Score: 70.00
ROOT
ATOM      1  C   UNL     1     -12.163 -25.050  25.061  1.00  0.00     0.136 C 
ATOM      2  O   UNL     1     -11.982 -26.112  25.637  1.00  0.00    -0.299 OA
ENDROOT
BRANCH   1   3
ATOM      3  C   UNL     1     -12.723 -23.866  25.833  1.00  0.00     0.053 C 
ATOM      4  C   UNL     1     -12.786 -24.184  27.334  1.00  0.00     0.016 C 
BRANCH   3   5
ATOM      5  C   UNL     1     -14.119 -23.487  25.291  1.00  0.00     0.015 C 
BRANCH   5   6
ATOM      6  C   UNL     1     -14.177 -22.023  24.809  1.00  0.00     0.028 C 
BRANCH   6   7
ATOM      7  C   UNL     1     -14.717 -21.944  23.403  1.00  0.00    -0.028 C 
ATOM      8  C   UNL     1     -13.955 -21.803  22.292  1.00  0.00    -0.070 CG0
ATOM      9  C   UNL     1     -14.648 -21.826  20.952  1.00  0.00     0.039 C 
ATOM     10  G   UNL     1     -12.449 -21.604  22.344  1.00  0.00     0.000 G0
ENDBRANCH   6   7
ENDBRANCH   5   6
ENDBRANCH   3   5
ENDBRANCH   1   3
BRANCH   1  11
ATOM     11  C   UNL     1     -11.833 -24.934  23.590  1.00  0.00     0.087 C 
BRANCH  11  12
ATOM     12  C   UNL     1     -11.023 -23.662  23.188  1.00  0.00     0.066 C 
BRANCH  12  13
ATOM     13  C   UNL     1     -11.652 -22.858  22.051  1.00  0.00     0.140 C 
ATOM     14  O   UNL     1     -11.480 -23.196  20.891  1.00  0.00    -0.299 OA
BRANCH  13  15
ATOM     15  C   UNL     1     -12.420 -21.590  22.341  1.00  0.00     0.106 CG0
ATOM     16  G   UNL     1     -13.925 -21.801  22.294  1.00  0.00     0.000 G0
ENDBRANCH  13  15
ENDBRANCH  12  13
BRANCH  12  17
ATOM     17  C   UNL     1      -9.496 -23.931  22.996  1.00  0.00    -0.006 C 
ATOM     18  C   UNL     1      -8.578 -22.844  23.576  1.00  0.00     0.008 C 
ATOM     19  C   UNL     1      -9.094 -25.312  23.538  1.00  0.00     0.008 C 
ENDBRANCH  12  17
ENDBRANCH  11  12
ENDBRANCH   1  11
TORSDOF 1
ENDMDL
MODEL 7
REMARK VINA RESULT:    -3.276      1.844      2.880
REMARK INTER + INTRA:          -5.505
REMARK INTER:                  -5.752
REMARK INTRA:                   0.247
REMARK UNBOUND:                -0.505
REMARK SMILES CC1=CCC[C@@H](C)C(=O)C[C@@H](C(C)C)C(=O)C1
REMARK SMILES IDX 8 1 9 2 6 3 7 4 5 5 4 6 3 7 2 8 1 9 10 11 11 12 15 13 16 14
REMARK SMILES IDX 17 15 12 17 13 18 14 19
REMARK H PARENT
REMARK Flexibility Score: 70.00
ROOT
ATOM      1  C   UNL     1     -13.650 -23.714  24.387  1.00  0.00     0.136 C 
ATOM      2  O   UNL     1     -14.400 -24.625  24.070  1.00  0.00    -0.299 OA
ENDROOT
BRANCH   1   3
ATOM      3  C   UNL     1     -12.296 -24.037  24.998  1.00  0.00     0.053 C 
ATOM      4  C   UNL     1     -11.908 -22.976  26.038  1.00  0.00     0.016 C 
BRANCH   3   5
ATOM      5  C   UNL     1     -11.223 -24.144  23.892  1.00  0.00     0.015 C 
BRANCH   5   6
ATOM      6  C   UNL     1     -10.647 -22.766  23.506  1.00  0.00     0.028 C 
BRANCH   6   7
ATOM      7  C   UNL     1     -10.579 -22.616  22.008  1.00  0.00    -0.028 C 
ATOM      8  C   UNL     1     -11.383 -21.808  21.277  1.00  0.00    -0.070 CG0
ATOM      9  C   UNL     1     -11.127 -21.708  19.794  1.00  0.00     0.039 C 
ATOM     10  G   UNL     1     -12.536 -21.024  21.884  1.00  0.00     0.000 G0
ENDBRANCH   6   7
ENDBRANCH   5   6
ENDBRANCH   3   5
ENDBRANCH   1   3
BRANCH   1  11
ATOM     11  C   UNL     1     -14.086 -22.281  24.172  1.00  0.00     0.087 C 
BRANCH  11  12
ATOM     12  C   UNL     1     -14.821 -22.006  22.824  1.00  0.00     0.066 C 
BRANCH  12  13
ATOM     13  C   UNL     1     -13.885 -21.711  21.653  1.00  0.00     0.140 C 
ATOM     14  O   UNL     1     -14.174 -22.085  20.527  1.00  0.00    -0.299 OA
BRANCH  13  15
ATOM     15  C   UNL     1     -12.556 -21.033  21.884  1.00  0.00     0.106 CG0
ATOM     16  G   UNL     1     -11.394 -21.821  21.301  1.00  0.00     0.000 G0
ENDBRANCH  13  15
ENDBRANCH  12  13
BRANCH  12  17
ATOM     17  C   UNL     1     -16.001 -20.990  22.954  1.00  0.00    -0.006 C 
ATOM     18  C   UNL     1     -17.318 -21.453  22.311  1.00  0.00     0.008 C 
ATOM     19  C   UNL     1     -16.238 -20.585  24.418  1.00  0.00     0.008 C 
ENDBRANCH  12  17
ENDBRANCH  11  12
ENDBRANCH   1  11
TORSDOF 1
ENDMDL
MODEL 8
REMARK VINA RESULT:    -3.214      6.805      8.829
REMARK INTER + INTRA:          -5.410
REMARK INTER:                  -5.237
REMARK INTRA:                  -0.173
REMARK UNBOUND:                -0.505
REMARK SMILES CC1=CCC[C@@H](C)C(=O)C[C@@H](C(C)C)C(=O)C1
REMARK SMILES IDX 8 1 9 2 6 3 7 4 5 5 4 6 3 7 2 8 1 9 10 11 11 12 15 13 16 14
REMARK SMILES IDX 17 15 12 17 13 18 14 19
REMARK H PARENT
REMARK Flexibility Score: 70.00
ROOT
ATOM      1  C   UNL     1      -6.046 -15.113  24.564  1.00  0.00     0.136 C 
ATOM      2  O   UNL     1      -5.897 -13.932  24.842  1.00  0.00    -0.299 OA
ENDROOT
BRANCH   1   3
ATOM      3  C   UNL     1      -6.291 -15.517  23.120  1.00  0.00     0.053 C 
ATOM      4  C   UNL     1      -5.484 -14.625  22.167  1.00  0.00     0.016 C 
BRANCH   3   5
ATOM      5  C   UNL     1      -7.800 -15.449  22.796  1.00  0.00     0.015 C 
BRANCH   5   6
ATOM      6  C   UNL     1      -8.422 -16.850  22.627  1.00  0.00     0.028 C 
BRANCH   6   7
ATOM      7  C   UNL     1      -9.307 -17.187  23.801  1.00  0.00    -0.028 C 
ATOM      8  C   UNL     1      -9.023 -18.125  24.735  1.00  0.00    -0.070 CG0
ATOM      9  C   UNL     1      -9.975 -18.280  25.895  1.00  0.00     0.039 C 
ATOM     10  G   UNL     1      -7.807 -19.034  24.649  1.00  0.00     0.000 G0
ENDBRANCH   6   7
ENDBRANCH   5   6
ENDBRANCH   3   5
ENDBRANCH   1   3
BRANCH   1  11
ATOM     11  C   UNL     1      -5.990 -16.149  25.665  1.00  0.00     0.087 C 
BRANCH  11  12
ATOM     12  C   UNL     1      -5.666 -17.601  25.195  1.00  0.00     0.066 C 
BRANCH  12  13
ATOM     13  C   UNL     1      -6.708 -18.637  25.613  1.00  0.00     0.140 C 
ATOM     14  O   UNL     1      -6.622 -19.194  26.696  1.00  0.00    -0.299 OA
BRANCH  13  15
ATOM     15  C   UNL     1      -7.807 -19.048  24.661  1.00  0.00     0.106 CG0
ATOM     16  G   UNL     1      -9.011 -18.123  24.732  1.00  0.00     0.000 G0
ENDBRANCH  13  15
ENDBRANCH  12  13
BRANCH  12  17
ATOM     17  C   UNL     1      -4.196 -18.038  25.489  1.00  0.00    -0.006 C 
ATOM     18  C   UNL     1      -3.133 -17.319  24.642  1.00  0.00     0.008 C 
ATOM     19  C   UNL     1      -3.858 -17.912  26.984  1.00  0.00     0.008 C 
ENDBRANCH  12  17
ENDBRANCH  11  12
ENDBRANCH   1  11
TORSDOF 1
ENDMDL
MODEL 9
REMARK VINA RESULT:    -3.207      2.068      4.676
REMARK INTER + INTRA:          -5.400
REMARK INTER:                  -5.376
REMARK INTRA:                  -0.024
REMARK UNBOUND:                -0.505
REMARK SMILES CC1=CCC[C@@H](C)C(=O)C[C@@H](C(C)C)C(=O)C1
REMARK SMILES IDX 8 1 9 2 6 3 7 4 5 5 4 6 3 7 2 8 1 9 10 11 11 12 15 13 16 14
REMARK SMILES IDX 17 15 12 17 13 18 14 19
REMARK H PARENT
REMARK Flexibility Score: 70.00
ROOT
ATOM      1  C   UNL     1     -14.266 -21.584  22.218  1.00  0.00     0.136 C 
ATOM      2  O   UNL     1     -15.486 -21.659  22.222  1.00  0.00    -0.299 OA
ENDROOT
BRANCH   1   3
ATOM      3  C   UNL     1     -13.470 -22.274  23.314  1.00  0.00     0.053 C 
ATOM      4  C   UNL     1     -14.024 -23.682  23.575  1.00  0.00     0.016 C 
BRANCH   3   5
ATOM      5  C   UNL     1     -13.490 -21.425  24.604  1.00  0.00     0.015 C 
BRANCH   5   6
ATOM      6  C   UNL     1     -12.283 -20.468  24.689  1.00  0.00     0.028 C 
BRANCH   6   7
ATOM      7  C   UNL     1     -11.016 -21.167  24.264  1.00  0.00    -0.028 C 
ATOM      8  C   UNL     1     -10.224 -20.770  23.240  1.00  0.00    -0.070 CG0
ATOM      9  C   UNL     1      -8.944 -21.530  22.999  1.00  0.00     0.039 C 
ATOM     10  G   UNL     1     -10.582 -19.614  22.320  1.00  0.00     0.000 G0
ENDBRANCH   6   7
ENDBRANCH   5   6
ENDBRANCH   3   5
ENDBRANCH   1   3
BRANCH   1  11
ATOM     11  C   UNL     1     -13.573 -20.799  21.127  1.00  0.00     0.087 C 
BRANCH  11  12
ATOM     12  C   UNL     1     -12.087 -21.198  20.863  1.00  0.00     0.066 C 
BRANCH  12  13
ATOM     13  C   UNL     1     -11.101 -20.037  20.980  1.00  0.00     0.140 C 
ATOM     14  O   UNL     1     -10.672 -19.492  19.974  1.00  0.00    -0.299 OA
BRANCH  13  15
ATOM     15  C   UNL     1     -10.579 -19.604  22.329  1.00  0.00     0.106 CG0
ATOM     16  G   UNL     1     -10.245 -20.785  23.227  1.00  0.00     0.000 G0
ENDBRANCH  13  15
ENDBRANCH  12  13
BRANCH  12  17
ATOM     17  C   UNL     1     -11.892 -22.059  19.575  1.00  0.00    -0.006 C 
ATOM     18  C   UNL     1     -10.655 -22.970  19.595  1.00  0.00     0.008 C 
ATOM     19  C   UNL     1     -13.151 -22.880  19.250  1.00  0.00     0.008 C 
ENDBRANCH  12  17
ENDBRANCH  11  12
ENDBRANCH   1  11
TORSDOF 1
ENDMDL
