MODEL 1
REMARK VINA RESULT:    -5.130      0.000      0.000
REMARK INTER + INTRA:         -18.668
REMARK INTER:                 -13.527
REMARK INTRA:                  -5.142
REMARK UNBOUND:                -5.142
REMARK SMILES CCCCCCCCCCCCCCCCCCCCCCCCCCCCCC(=O)[O-]
REMARK SMILES IDX 16 1 17 2 18 3 19 4 20 5 21 6 22 7 23 8 24 9 25 10 26 11
REMARK SMILES IDX 27 12 28 13 29 14 30 15 31 16 32 17 15 18 14 19 13 20 12 21
REMARK SMILES IDX 11 22 10 23 9 24 8 25 7 26 6 27 5 28 4 29 3 30 2 31 1 32
REMARK H PARENT
REMARK Flexibility Score: inf
ROOT
ATOM      1  C   UNL     1      13.936 -29.493  22.319  1.00  0.00     0.000 C 
ENDROOT
BRANCH   1   2
ATOM      2  C   UNL     1      15.251 -29.484  21.513  1.00  0.00     0.000 C 
BRANCH   2   3
ATOM      3  C   UNL     1      16.519 -29.551  22.385  1.00  0.00     0.000 C 
BRANCH   3   4
ATOM      4  C   UNL     1      17.297 -30.879  22.311  1.00  0.00     0.000 C 
BRANCH   4   5
ATOM      5  C   UNL     1      17.870 -31.229  20.923  1.00  0.00     0.000 C 
BRANCH   5   6
ATOM      6  C   UNL     1      19.407 -31.279  20.904  1.00  0.00     0.000 C 
BRANCH   6   7
ATOM      7  C   UNL     1      20.039 -30.620  22.142  1.00  0.00     0.000 C 
BRANCH   7   8
ATOM      8  C   UNL     1      21.111 -29.563  21.801  1.00  0.00     0.000 C 
BRANCH   8   9
ATOM      9  C   UNL     1      20.765 -28.780  20.520  1.00  0.00     0.000 C 
BRANCH   9  10
ATOM     10  C   UNL     1      19.610 -27.779  20.741  1.00  0.00     0.000 C 
BRANCH  10  11
ATOM     11  C   UNL     1      19.940 -26.346  20.289  1.00  0.00     0.000 C 
BRANCH  11  12
ATOM     12  C   UNL     1      20.198 -25.391  21.463  1.00  0.00     0.000 C 
BRANCH  12  13
ATOM     13  C   UNL     1      21.535 -24.657  21.289  1.00  0.00     0.006 C 
BRANCH  13  14
ATOM     14  C   UNL     1      22.718 -25.624  21.169  1.00  0.00     0.053 C 
BRANCH  14  15
ATOM     15  C   UNL     1      23.231 -25.708  19.764  1.00  0.00     0.041 C 
ATOM     16  O   UNL     1      23.471 -26.830  19.245  1.00  0.00    -0.550 OA
ATOM     17  O   UNL     1      23.422 -24.550  19.020  1.00  0.00    -0.550 OA
ENDBRANCH  14  15
ENDBRANCH  13  14
ENDBRANCH  12  13
ENDBRANCH  11  12
ENDBRANCH  10  11
ENDBRANCH   9  10
ENDBRANCH   8   9
ENDBRANCH   7   8
ENDBRANCH   6   7
ENDBRANCH   5   6
ENDBRANCH   4   5
ENDBRANCH   3   4
ENDBRANCH   2   3
ENDBRANCH   1   2
BRANCH   1  18
ATOM     18  C   UNL     1      14.043 -30.304  23.621  1.00  0.00     0.000 C 
BRANCH  18  19
ATOM     19  C   UNL     1      13.496 -31.743  23.463  1.00  0.00     0.000 C 
BRANCH  19  20
ATOM     20  C   UNL     1      14.570 -32.826  23.654  1.00  0.00     0.000 C 
BRANCH  20  21
ATOM     21  C   UNL     1      15.019 -33.509  22.349  1.00  0.00     0.000 C 
BRANCH  21  22
ATOM     22  C   UNL     1      14.349 -32.931  21.082  1.00  0.00     0.000 C 
BRANCH  22  23
ATOM     23  C   UNL     1      14.550 -33.824  19.845  1.00  0.00     0.000 C 
BRANCH  23  24
ATOM     24  C   UNL     1      15.758 -34.766  19.986  1.00  0.00    -0.000 C 
BRANCH  24  25
ATOM     25  C   UNL     1      16.920 -34.375  19.058  1.00  0.00    -0.000 C 
BRANCH  25  26
ATOM     26  C   UNL     1      18.275 -34.689  19.706  1.00  0.00    -0.000 C 
BRANCH  26  27
ATOM     27  C   UNL     1      18.084 -35.224  21.134  1.00  0.00    -0.000 C 
BRANCH  27  28
ATOM     28  C   UNL     1      19.260 -34.877  22.063  1.00  0.00    -0.000 C 
BRANCH  28  29
ATOM     29  C   UNL     1      18.859 -34.869  23.546  1.00  0.00    -0.000 C 
BRANCH  29  30
ATOM     30  C   UNL     1      19.365 -33.597  24.246  1.00  0.00    -0.000 C 
BRANCH  30  31
ATOM     31  C   UNL     1      18.288 -32.936  25.120  1.00  0.00    -0.003 C 
ATOM     32  C   UNL     1      18.743 -31.603  25.712  1.00  0.00     0.004 C 
ENDBRANCH  30  31
ENDBRANCH  29  30
ENDBRANCH  28  29
ENDBRANCH  27  28
ENDBRANCH  26  27
ENDBRANCH  25  26
ENDBRANCH  24  25
ENDBRANCH  23  24
ENDBRANCH  22  23
ENDBRANCH  21  22
ENDBRANCH  20  21
ENDBRANCH  19  20
ENDBRANCH  18  19
ENDBRANCH   1  18
TORSDOF 28
ENDMDL
MODEL 2
REMARK VINA RESULT:    -5.005      1.301      4.677
REMARK INTER + INTRA:         -18.341
REMARK INTER:                 -13.228
REMARK INTRA:                  -5.112
REMARK UNBOUND:                -5.142
REMARK SMILES CCCCCCCCCCCCCCCCCCCCCCCCCCCCCC(=O)[O-]
REMARK SMILES IDX 16 1 17 2 18 3 19 4 20 5 21 6 22 7 23 8 24 9 25 10 26 11
REMARK SMILES IDX 27 12 28 13 29 14 30 15 31 16 32 17 15 18 14 19 13 20 12 21
REMARK SMILES IDX 11 22 10 23 9 24 8 25 7 26 6 27 5 28 4 29 3 30 2 31 1 32
REMARK H PARENT
REMARK Flexibility Score: inf
ROOT
ATOM      1  C   UNL     1      19.469 -31.150  20.976  1.00  0.00     0.000 C 
ENDROOT
BRANCH   1   2
ATOM      2  C   UNL     1      18.742 -32.510  20.915  1.00  0.00     0.000 C 
BRANCH   2   3
ATOM      3  C   UNL     1      19.172 -33.499  22.016  1.00  0.00     0.000 C 
BRANCH   3   4
ATOM      4  C   UNL     1      18.029 -34.318  22.644  1.00  0.00     0.000 C 
BRANCH   4   5
ATOM      5  C   UNL     1      17.797 -34.078  24.149  1.00  0.00     0.000 C 
BRANCH   5   6
ATOM      6  C   UNL     1      17.869 -32.592  24.537  1.00  0.00     0.000 C 
BRANCH   6   7
ATOM      7  C   UNL     1      18.560 -32.363  25.892  1.00  0.00     0.000 C 
BRANCH   7   8
ATOM      8  C   UNL     1      19.557 -31.185  25.886  1.00  0.00     0.000 C 
BRANCH   8   9
ATOM      9  C   UNL     1      20.336 -31.092  24.561  1.00  0.00     0.000 C 
BRANCH   9  10
ATOM     10  C   UNL     1      21.157 -29.788  24.456  1.00  0.00     0.000 C 
BRANCH  10  11
ATOM     11  C   UNL     1      21.908 -29.637  23.122  1.00  0.00     0.000 C 
BRANCH  11  12
ATOM     12  C   UNL     1      21.924 -28.193  22.602  1.00  0.00     0.000 C 
BRANCH  12  13
ATOM     13  C   UNL     1      21.650 -28.151  21.092  1.00  0.00     0.006 C 
BRANCH  13  14
ATOM     14  C   UNL     1      21.196 -26.763  20.623  1.00  0.00     0.053 C 
BRANCH  14  15
ATOM     15  C   UNL     1      22.309 -26.003  19.970  1.00  0.00     0.041 C 
ATOM     16  O   UNL     1      22.088 -24.872  19.461  1.00  0.00    -0.550 OA
ATOM     17  O   UNL     1      23.595 -26.530  19.944  1.00  0.00    -0.550 OA
ENDBRANCH  14  15
ENDBRANCH  13  14
ENDBRANCH  12  13
ENDBRANCH  11  12
ENDBRANCH  10  11
ENDBRANCH   9  10
ENDBRANCH   8   9
ENDBRANCH   7   8
ENDBRANCH   6   7
ENDBRANCH   5   6
ENDBRANCH   4   5
ENDBRANCH   3   4
ENDBRANCH   2   3
ENDBRANCH   1   2
BRANCH   1  18
ATOM     18  C   UNL     1      18.498 -29.961  21.056  1.00  0.00     0.000 C 
BRANCH  18  19
ATOM     19  C   UNL     1      17.041 -30.411  21.315  1.00  0.00     0.000 C 
BRANCH  19  20
ATOM     20  C   UNL     1      16.331 -29.580  22.397  1.00  0.00     0.000 C 
BRANCH  20  21
ATOM     21  C   UNL     1      14.968 -29.010  21.962  1.00  0.00     0.000 C 
BRANCH  21  22
ATOM     22  C   UNL     1      13.969 -28.827  23.127  1.00  0.00     0.000 C 
BRANCH  22  23
ATOM     23  C   UNL     1      12.673 -29.632  22.931  1.00  0.00     0.000 C 
BRANCH  23  24
ATOM     24  C   UNL     1      12.935 -31.055  22.409  1.00  0.00    -0.000 C 
BRANCH  24  25
ATOM     25  C   UNL     1      13.587 -31.959  23.468  1.00  0.00    -0.000 C 
BRANCH  25  26
ATOM     26  C   UNL     1      14.677 -32.842  22.848  1.00  0.00    -0.000 C 
BRANCH  26  27
ATOM     27  C   UNL     1      14.481 -32.961  21.328  1.00  0.00    -0.000 C 
BRANCH  27  28
ATOM     28  C   UNL     1      15.095 -34.247  20.748  1.00  0.00    -0.000 C 
BRANCH  28  29
ATOM     29  C   UNL     1      15.817 -34.005  19.413  1.00  0.00    -0.000 C 
BRANCH  29  30
ATOM     30  C   UNL     1      16.866 -35.097  19.149  1.00  0.00    -0.000 C 
BRANCH  30  31
ATOM     31  C   UNL     1      16.570 -36.397  19.914  1.00  0.00    -0.003 C 
ATOM     32  C   UNL     1      17.833 -37.193  20.238  1.00  0.00     0.004 C 
ENDBRANCH  30  31
ENDBRANCH  29  30
ENDBRANCH  28  29
ENDBRANCH  27  28
ENDBRANCH  26  27
ENDBRANCH  25  26
ENDBRANCH  24  25
ENDBRANCH  23  24
ENDBRANCH  22  23
ENDBRANCH  21  22
ENDBRANCH  20  21
ENDBRANCH  19  20
ENDBRANCH  18  19
ENDBRANCH   1  18
TORSDOF 28
ENDMDL
MODEL 3
REMARK VINA RESULT:    -4.970      1.558      2.553
REMARK INTER + INTRA:         -18.246
REMARK INTER:                 -12.651
REMARK INTRA:                  -5.595
REMARK UNBOUND:                -5.142
REMARK SMILES CCCCCCCCCCCCCCCCCCCCCCCCCCCCCC(=O)[O-]
REMARK SMILES IDX 16 1 17 2 18 3 19 4 20 5 21 6 22 7 23 8 24 9 25 10 26 11
REMARK SMILES IDX 27 12 28 13 29 14 30 15 31 16 32 17 15 18 14 19 13 20 12 21
REMARK SMILES IDX 11 22 10 23 9 24 8 25 7 26 6 27 5 28 4 29 3 30 2 31 1 32
REMARK H PARENT
REMARK Flexibility Score: inf
ROOT
ATOM      1  C   UNL     1      13.254 -29.664  22.928  1.00  0.00     0.000 C 
ENDROOT
BRANCH   1   2
ATOM      2  C   UNL     1      14.700 -29.334  22.501  1.00  0.00     0.000 C 
BRANCH   2   3
ATOM      3  C   UNL     1      15.774 -29.879  23.461  1.00  0.00     0.000 C 
BRANCH   3   4
ATOM      4  C   UNL     1      16.890 -30.706  22.795  1.00  0.00     0.000 C 
BRANCH   4   5
ATOM      5  C   UNL     1      17.041 -30.503  21.275  1.00  0.00     0.000 C 
BRANCH   5   6
ATOM      6  C   UNL     1      17.992 -31.521  20.624  1.00  0.00     0.000 C 
BRANCH   6   7
ATOM      7  C   UNL     1      18.466 -32.605  21.607  1.00  0.00     0.000 C 
BRANCH   7   8
ATOM      8  C   UNL     1      19.989 -32.588  21.859  1.00  0.00     0.000 C 
BRANCH   8   9
ATOM      9  C   UNL     1      20.356 -31.812  23.137  1.00  0.00     0.000 C 
BRANCH   9  10
ATOM     10  C   UNL     1      20.447 -30.290  22.891  1.00  0.00     0.000 C 
BRANCH  10  11
ATOM     11  C   UNL     1      21.435 -29.902  21.779  1.00  0.00     0.000 C 
BRANCH  11  12
ATOM     12  C   UNL     1      20.765 -29.162  20.613  1.00  0.00     0.000 C 
BRANCH  12  13
ATOM     13  C   UNL     1      19.989 -27.935  21.115  1.00  0.00     0.006 C 
BRANCH  13  14
ATOM     14  C   UNL     1      20.421 -26.645  20.408  1.00  0.00     0.053 C 
BRANCH  14  15
ATOM     15  C   UNL     1      20.993 -25.647  21.367  1.00  0.00     0.041 C 
ATOM     16  O   UNL     1      22.241 -25.538  21.496  1.00  0.00    -0.550 OA
ATOM     17  O   UNL     1      20.150 -24.822  22.102  1.00  0.00    -0.550 OA
ENDBRANCH  14  15
ENDBRANCH  13  14
ENDBRANCH  12  13
ENDBRANCH  11  12
ENDBRANCH  10  11
ENDBRANCH   9  10
ENDBRANCH   8   9
ENDBRANCH   7   8
ENDBRANCH   6   7
ENDBRANCH   5   6
ENDBRANCH   4   5
ENDBRANCH   3   4
ENDBRANCH   2   3
ENDBRANCH   1   2
BRANCH   1  18
ATOM     18  C   UNL     1      12.760 -31.007  22.365  1.00  0.00     0.000 C 
BRANCH  18  19
ATOM     19  C   UNL     1      13.123 -31.184  20.871  1.00  0.00     0.000 C 
BRANCH  19  20
ATOM     20  C   UNL     1      13.814 -32.524  20.568  1.00  0.00     0.000 C 
BRANCH  20  21
ATOM     21  C   UNL     1      14.540 -33.147  21.773  1.00  0.00     0.000 C 
BRANCH  21  22
ATOM     22  C   UNL     1      15.523 -34.277  21.393  1.00  0.00     0.000 C 
BRANCH  22  23
ATOM     23  C   UNL     1      15.293 -34.809  19.968  1.00  0.00     0.000 C 
BRANCH  23  24
ATOM     24  C   UNL     1      16.494 -34.555  19.042  1.00  0.00    -0.000 C 
BRANCH  24  25
ATOM     25  C   UNL     1      17.759 -35.298  19.502  1.00  0.00    -0.000 C 
BRANCH  25  26
ATOM     26  C   UNL     1      17.523 -36.813  19.553  1.00  0.00    -0.000 C 
BRANCH  26  27
ATOM     27  C   UNL     1      18.022 -37.397  20.884  1.00  0.00    -0.000 C 
BRANCH  27  28
ATOM     28  C   UNL     1      18.836 -36.386  21.710  1.00  0.00    -0.000 C 
BRANCH  28  29
ATOM     29  C   UNL     1      19.204 -36.922  23.103  1.00  0.00    -0.000 C 
BRANCH  29  30
ATOM     30  C   UNL     1      18.937 -35.865  24.187  1.00  0.00    -0.000 C 
BRANCH  30  31
ATOM     31  C   UNL     1      17.555 -35.209  24.044  1.00  0.00    -0.003 C 
ATOM     32  C   UNL     1      17.370 -34.011  24.974  1.00  0.00     0.004 C 
ENDBRANCH  30  31
ENDBRANCH  29  30
ENDBRANCH  28  29
ENDBRANCH  27  28
ENDBRANCH  26  27
ENDBRANCH  25  26
ENDBRANCH  24  25
ENDBRANCH  23  24
ENDBRANCH  22  23
ENDBRANCH  21  22
ENDBRANCH  20  21
ENDBRANCH  19  20
ENDBRANCH  18  19
ENDBRANCH   1  18
TORSDOF 28
ENDMDL
MODEL 4
REMARK VINA RESULT:    -4.928      1.311      3.248
REMARK INTER + INTRA:         -18.137
REMARK INTER:                 -13.388
REMARK INTRA:                  -4.749
REMARK UNBOUND:                -5.142
REMARK SMILES CCCCCCCCCCCCCCCCCCCCCCCCCCCCCC(=O)[O-]
REMARK SMILES IDX 16 1 17 2 18 3 19 4 20 5 21 6 22 7 23 8 24 9 25 10 26 11
REMARK SMILES IDX 27 12 28 13 29 14 30 15 31 16 32 17 15 18 14 19 13 20 12 21
REMARK SMILES IDX 11 22 10 23 9 24 8 25 7 26 6 27 5 28 4 29 3 30 2 31 1 32
REMARK H PARENT
REMARK Flexibility Score: inf
ROOT
ATOM      1  C   UNL     1      14.713 -32.946  22.573  1.00  0.00     0.000 C 
ENDROOT
BRANCH   1   2
ATOM      2  C   UNL     1      13.938 -32.132  23.630  1.00  0.00     0.000 C 
BRANCH   2   3
ATOM      3  C   UNL     1      14.166 -30.611  23.538  1.00  0.00     0.000 C 
BRANCH   3   4
ATOM      4  C   UNL     1      15.624 -30.181  23.291  1.00  0.00     0.000 C 
BRANCH   4   5
ATOM      5  C   UNL     1      15.868 -29.402  21.983  1.00  0.00     0.000 C 
BRANCH   5   6
ATOM      6  C   UNL     1      17.175 -29.806  21.280  1.00  0.00     0.000 C 
BRANCH   6   7
ATOM      7  C   UNL     1      17.621 -31.236  21.628  1.00  0.00     0.000 C 
BRANCH   7   8
ATOM      8  C   UNL     1      18.986 -31.623  21.020  1.00  0.00     0.000 C 
BRANCH   8   9
ATOM      9  C   UNL     1      20.117 -31.584  22.064  1.00  0.00     0.000 C 
BRANCH   9  10
ATOM     10  C   UNL     1      21.099 -30.417  21.820  1.00  0.00     0.000 C 
BRANCH  10  11
ATOM     11  C   UNL     1      20.655 -29.461  20.700  1.00  0.00     0.000 C 
BRANCH  11  12
ATOM     12  C   UNL     1      21.108 -28.013  20.932  1.00  0.00     0.000 C 
BRANCH  12  13
ATOM     13  C   UNL     1      20.047 -27.020  20.437  1.00  0.00     0.006 C 
BRANCH  13  14
ATOM     14  C   UNL     1      20.256 -25.613  21.009  1.00  0.00     0.053 C 
BRANCH  14  15
ATOM     15  C   UNL     1      21.646 -25.111  20.764  1.00  0.00     0.041 C 
ATOM     16  O   UNL     1      22.414 -24.879  21.734  1.00  0.00    -0.550 OA
ATOM     17  O   UNL     1      22.101 -24.922  19.464  1.00  0.00    -0.550 OA
ENDBRANCH  14  15
ENDBRANCH  13  14
ENDBRANCH  12  13
ENDBRANCH  11  12
ENDBRANCH  10  11
ENDBRANCH   9  10
ENDBRANCH   8   9
ENDBRANCH   7   8
ENDBRANCH   6   7
ENDBRANCH   5   6
ENDBRANCH   4   5
ENDBRANCH   3   4
ENDBRANCH   2   3
ENDBRANCH   1   2
BRANCH   1  18
ATOM     18  C   UNL     1      14.212 -32.690  21.142  1.00  0.00     0.000 C 
BRANCH  18  19
ATOM     19  C   UNL     1      14.795 -33.702  20.127  1.00  0.00     0.000 C 
BRANCH  19  20
ATOM     20  C   UNL     1      15.749 -34.724  20.767  1.00  0.00     0.000 C 
BRANCH  20  21
ATOM     21  C   UNL     1      16.153 -35.881  19.835  1.00  0.00     0.000 C 
BRANCH  21  22
ATOM     22  C   UNL     1      17.614 -36.350  20.021  1.00  0.00     0.000 C 
BRANCH  22  23
ATOM     23  C   UNL     1      18.496 -35.290  20.703  1.00  0.00     0.000 C 
BRANCH  23  24
ATOM     24  C   UNL     1      19.362 -35.878  21.830  1.00  0.00    -0.000 C 
BRANCH  24  25
ATOM     25  C   UNL     1      18.963 -37.320  22.186  1.00  0.00    -0.000 C 
BRANCH  25  26
ATOM     26  C   UNL     1      19.148 -37.591  23.685  1.00  0.00    -0.000 C 
BRANCH  26  27
ATOM     27  C   UNL     1      19.621 -36.323  24.413  1.00  0.00    -0.000 C 
BRANCH  27  28
ATOM     28  C   UNL     1      18.590 -35.796  25.425  1.00  0.00    -0.000 C 
BRANCH  28  29
ATOM     29  C   UNL     1      17.352 -35.190  24.746  1.00  0.00    -0.000 C 
BRANCH  29  30
ATOM     30  C   UNL     1      17.583 -33.710  24.402  1.00  0.00    -0.000 C 
BRANCH  30  31
ATOM     31  C   UNL     1      18.001 -32.878  25.626  1.00  0.00    -0.003 C 
ATOM     32  C   UNL     1      18.484 -31.478  25.251  1.00  0.00     0.004 C 
ENDBRANCH  30  31
ENDBRANCH  29  30
ENDBRANCH  28  29
ENDBRANCH  27  28
ENDBRANCH  26  27
ENDBRANCH  25  26
ENDBRANCH  24  25
ENDBRANCH  23  24
ENDBRANCH  22  23
ENDBRANCH  21  22
ENDBRANCH  20  21
ENDBRANCH  19  20
ENDBRANCH  18  19
ENDBRANCH   1  18
TORSDOF 28
ENDMDL
MODEL 5
REMARK VINA RESULT:    -4.926      1.290      2.130
REMARK INTER + INTRA:         -18.132
REMARK INTER:                 -13.201
REMARK INTRA:                  -4.931
REMARK UNBOUND:                -5.142
REMARK SMILES CCCCCCCCCCCCCCCCCCCCCCCCCCCCCC(=O)[O-]
REMARK SMILES IDX 16 1 17 2 18 3 19 4 20 5 21 6 22 7 23 8 24 9 25 10 26 11
REMARK SMILES IDX 27 12 28 13 29 14 30 15 31 16 32 17 15 18 14 19 13 20 12 21
REMARK SMILES IDX 11 22 10 23 9 24 8 25 7 26 6 27 5 28 4 29 3 30 2 31 1 32
REMARK H PARENT
REMARK Flexibility Score: inf
ROOT
ATOM      1  C   UNL     1      17.044 -30.551  22.375  1.00  0.00     0.000 C 
ENDROOT
BRANCH   1   2
ATOM      2  C   UNL     1      17.676 -30.651  20.971  1.00  0.00     0.000 C 
BRANCH   2   3
ATOM      3  C   UNL     1      18.115 -32.077  20.584  1.00  0.00     0.000 C 
BRANCH   3   4
ATOM      4  C   UNL     1      18.425 -33.011  21.769  1.00  0.00     0.000 C 
BRANCH   4   5
ATOM      5  C   UNL     1      19.923 -33.242  22.050  1.00  0.00     0.000 C 
BRANCH   5   6
ATOM      6  C   UNL     1      20.335 -32.838  23.475  1.00  0.00     0.000 C 
BRANCH   6   7
ATOM      7  C   UNL     1      20.843 -31.388  23.560  1.00  0.00     0.000 C 
BRANCH   7   8
ATOM      8  C   UNL     1      21.245 -30.793  22.193  1.00  0.00     0.000 C 
BRANCH   8   9
ATOM      9  C   UNL     1      21.069 -29.264  22.153  1.00  0.00     0.000 C 
BRANCH   9  10
ATOM     10  C   UNL     1      21.045 -28.716  20.709  1.00  0.00     0.000 C 
BRANCH  10  11
ATOM     11  C   UNL     1      19.786 -27.898  20.379  1.00  0.00     0.000 C 
BRANCH  11  12
ATOM     12  C   UNL     1      19.824 -26.478  20.960  1.00  0.00     0.000 C 
BRANCH  12  13
ATOM     13  C   UNL     1      21.260 -25.934  20.988  1.00  0.00     0.006 C 
BRANCH  13  14
ATOM     14  C   UNL     1      21.579 -25.074  19.760  1.00  0.00     0.053 C 
BRANCH  14  15
ATOM     15  C   UNL     1      22.961 -25.331  19.242  1.00  0.00     0.041 C 
ATOM     16  O   UNL     1      23.398 -26.510  19.165  1.00  0.00    -0.550 OA
ATOM     17  O   UNL     1      23.758 -24.272  18.825  1.00  0.00    -0.550 OA
ENDBRANCH  14  15
ENDBRANCH  13  14
ENDBRANCH  12  13
ENDBRANCH  11  12
ENDBRANCH  10  11
ENDBRANCH   9  10
ENDBRANCH   8   9
ENDBRANCH   7   8
ENDBRANCH   6   7
ENDBRANCH   5   6
ENDBRANCH   4   5
ENDBRANCH   3   4
ENDBRANCH   2   3
ENDBRANCH   1   2
BRANCH   1  18
ATOM     18  C   UNL     1      15.928 -29.496  22.450  1.00  0.00     0.000 C 
BRANCH  18  19
ATOM     19  C   UNL     1      14.770 -29.797  21.468  1.00  0.00     0.000 C 
BRANCH  19  20
ATOM     20  C   UNL     1      13.813 -30.889  21.973  1.00  0.00     0.000 C 
BRANCH  20  21
ATOM     21  C   UNL     1      13.633 -32.070  21.002  1.00  0.00     0.000 C 
BRANCH  21  22
ATOM     22  C   UNL     1      14.662 -33.204  21.202  1.00  0.00     0.000 C 
BRANCH  22  23
ATOM     23  C   UNL     1      14.935 -33.993  19.909  1.00  0.00     0.000 C 
BRANCH  23  24
ATOM     24  C   UNL     1      15.835 -35.218  20.144  1.00  0.00    -0.000 C 
BRANCH  24  25
ATOM     25  C   UNL     1      16.969 -35.322  19.111  1.00  0.00    -0.000 C 
BRANCH  25  26
ATOM     26  C   UNL     1      17.883 -36.517  19.409  1.00  0.00    -0.000 C 
BRANCH  26  27
ATOM     27  C   UNL     1      17.694 -36.998  20.857  1.00  0.00    -0.000 C 
BRANCH  27  28
ATOM     28  C   UNL     1      18.925 -36.727  21.739  1.00  0.00    -0.000 C 
BRANCH  28  29
ATOM     29  C   UNL     1      18.746 -37.242  23.175  1.00  0.00    -0.000 C 
BRANCH  29  30
ATOM     30  C   UNL     1      18.839 -36.090  24.189  1.00  0.00    -0.000 C 
BRANCH  30  31
ATOM     31  C   UNL     1      17.482 -35.414  24.441  1.00  0.00    -0.003 C 
ATOM     32  C   UNL     1      17.573 -34.258  25.435  1.00  0.00     0.004 C 
ENDBRANCH  30  31
ENDBRANCH  29  30
ENDBRANCH  28  29
ENDBRANCH  27  28
ENDBRANCH  26  27
ENDBRANCH  25  26
ENDBRANCH  24  25
ENDBRANCH  23  24
ENDBRANCH  22  23
ENDBRANCH  21  22
ENDBRANCH  20  21
ENDBRANCH  19  20
ENDBRANCH  18  19
ENDBRANCH   1  18
TORSDOF 28
ENDMDL
MODEL 6
REMARK VINA RESULT:    -4.898      3.679      6.713
REMARK INTER + INTRA:         -18.058
REMARK INTER:                 -12.550
REMARK INTRA:                  -5.508
REMARK UNBOUND:                -5.142
REMARK SMILES CCCCCCCCCCCCCCCCCCCCCCCCCCCCCC(=O)[O-]
REMARK SMILES IDX 16 1 17 2 18 3 19 4 20 5 21 6 22 7 23 8 24 9 25 10 26 11
REMARK SMILES IDX 27 12 28 13 29 14 30 15 31 16 32 17 15 18 14 19 13 20 12 21
REMARK SMILES IDX 11 22 10 23 9 24 8 25 7 26 6 27 5 28 4 29 3 30 2 31 1 32
REMARK H PARENT
REMARK Flexibility Score: inf
ROOT
ATOM      1  C   UNL     1      19.269 -33.310  21.695  1.00  0.00     0.000 C 
ENDROOT
BRANCH   1   2
ATOM      2  C   UNL     1      20.423 -32.634  22.466  1.00  0.00     0.000 C 
BRANCH   2   3
ATOM      3  C   UNL     1      21.554 -33.599  22.870  1.00  0.00     0.000 C 
BRANCH   3   4
ATOM      4  C   UNL     1      21.279 -34.441  24.130  1.00  0.00     0.000 C 
BRANCH   4   5
ATOM      5  C   UNL     1      21.199 -35.963  23.900  1.00  0.00     0.000 C 
BRANCH   5   6
ATOM      6  C   UNL     1      19.809 -36.544  24.208  1.00  0.00     0.000 C 
BRANCH   6   7
ATOM      7  C   UNL     1      19.456 -36.484  25.704  1.00  0.00     0.000 C 
BRANCH   7   8
ATOM      8  C   UNL     1      17.944 -36.338  25.977  1.00  0.00     0.000 C 
BRANCH   8   9
ATOM      9  C   UNL     1      17.250 -35.448  24.930  1.00  0.00     0.000 C 
BRANCH   9  10
ATOM     10  C   UNL     1      16.906 -34.049  25.488  1.00  0.00     0.000 C 
BRANCH  10  11
ATOM     11  C   UNL     1      17.804 -32.928  24.940  1.00  0.00     0.000 C 
BRANCH  11  12
ATOM     12  C   UNL     1      18.792 -32.387  25.982  1.00  0.00     0.000 C 
BRANCH  12  13
ATOM     13  C   UNL     1      18.917 -30.860  25.881  1.00  0.00     0.006 C 
BRANCH  13  14
ATOM     14  C   UNL     1      20.058 -30.311  26.745  1.00  0.00     0.053 C 
BRANCH  14  15
ATOM     15  C   UNL     1      19.703 -28.999  27.373  1.00  0.00     0.041 C 
ATOM     16  O   UNL     1      18.723 -28.921  28.161  1.00  0.00    -0.550 OA
ATOM     17  O   UNL     1      20.465 -27.868  27.107  1.00  0.00    -0.550 OA
ENDBRANCH  14  15
ENDBRANCH  13  14
ENDBRANCH  12  13
ENDBRANCH  11  12
ENDBRANCH  10  11
ENDBRANCH   9  10
ENDBRANCH   8   9
ENDBRANCH   7   8
ENDBRANCH   6   7
ENDBRANCH   5   6
ENDBRANCH   4   5
ENDBRANCH   3   4
ENDBRANCH   2   3
ENDBRANCH   1   2
BRANCH   1  18
ATOM     18  C   UNL     1      18.368 -32.298  20.969  1.00  0.00     0.000 C 
BRANCH  18  19
ATOM     19  C   UNL     1      18.361 -30.915  21.664  1.00  0.00     0.000 C 
BRANCH  19  20
ATOM     20  C   UNL     1      17.015 -30.182  21.547  1.00  0.00     0.000 C 
BRANCH  20  21
ATOM     21  C   UNL     1      16.319 -29.922  22.895  1.00  0.00     0.000 C 
BRANCH  21  22
ATOM     22  C   UNL     1      14.887 -29.356  22.759  1.00  0.00     0.000 C 
BRANCH  22  23
ATOM     23  C   UNL     1      13.862 -30.124  23.612  1.00  0.00     0.000 C 
BRANCH  23  24
ATOM     24  C   UNL     1      13.421 -31.444  22.959  1.00  0.00    -0.000 C 
BRANCH  24  25
ATOM     25  C   UNL     1      14.165 -32.662  23.533  1.00  0.00    -0.000 C 
BRANCH  25  26
ATOM     26  C   UNL     1      15.069 -33.307  22.476  1.00  0.00    -0.000 C 
BRANCH  26  27
ATOM     27  C   UNL     1      14.561 -32.993  21.060  1.00  0.00    -0.000 C 
BRANCH  27  28
ATOM     28  C   UNL     1      15.014 -34.031  20.020  1.00  0.00    -0.000 C 
BRANCH  28  29
ATOM     29  C   UNL     1      15.929 -35.109  20.622  1.00  0.00    -0.000 C 
BRANCH  29  30
ATOM     30  C   UNL     1      16.304 -36.164  19.569  1.00  0.00    -0.000 C 
BRANCH  30  31
ATOM     31  C   UNL     1      17.781 -36.581  19.651  1.00  0.00    -0.003 C 
ATOM     32  C   UNL     1      18.189 -37.035  21.051  1.00  0.00     0.004 C 
ENDBRANCH  30  31
ENDBRANCH  29  30
ENDBRANCH  28  29
ENDBRANCH  27  28
ENDBRANCH  26  27
ENDBRANCH  25  26
ENDBRANCH  24  25
ENDBRANCH  23  24
ENDBRANCH  22  23
ENDBRANCH  21  22
ENDBRANCH  20  21
ENDBRANCH  19  20
ENDBRANCH  18  19
ENDBRANCH   1  18
TORSDOF 28
ENDMDL
MODEL 7
REMARK VINA RESULT:    -4.836      1.301      3.681
REMARK INTER + INTRA:         -17.894
REMARK INTER:                 -13.076
REMARK INTRA:                  -4.818
REMARK UNBOUND:                -5.142
REMARK SMILES CCCCCCCCCCCCCCCCCCCCCCCCCCCCCC(=O)[O-]
REMARK SMILES IDX 16 1 17 2 18 3 19 4 20 5 21 6 22 7 23 8 24 9 25 10 26 11
REMARK SMILES IDX 27 12 28 13 29 14 30 15 31 16 32 17 15 18 14 19 13 20 12 21
REMARK SMILES IDX 11 22 10 23 9 24 8 25 7 26 6 27 5 28 4 29 3 30 2 31 1 32
REMARK H PARENT
REMARK Flexibility Score: inf
ROOT
ATOM      1  C   UNL     1      14.554 -32.638  23.626  1.00  0.00     0.000 C 
ENDROOT
BRANCH   1   2
ATOM      2  C   UNL     1      13.506 -31.646  23.077  1.00  0.00     0.000 C 
BRANCH   2   3
ATOM      3  C   UNL     1      13.625 -30.225  23.662  1.00  0.00     0.000 C 
BRANCH   3   4
ATOM      4  C   UNL     1      13.969 -29.124  22.641  1.00  0.00     0.000 C 
BRANCH   4   5
ATOM      5  C   UNL     1      14.923 -29.551  21.508  1.00  0.00     0.000 C 
BRANCH   5   6
ATOM      6  C   UNL     1      16.404 -29.500  21.919  1.00  0.00     0.000 C 
BRANCH   6   7
ATOM      7  C   UNL     1      17.249 -30.590  21.239  1.00  0.00     0.000 C 
BRANCH   7   8
ATOM      8  C   UNL     1      17.888 -31.586  22.231  1.00  0.00     0.000 C 
BRANCH   8   9
ATOM      9  C   UNL     1      19.246 -32.110  21.730  1.00  0.00     0.000 C 
BRANCH   9  10
ATOM     10  C   UNL     1      20.130 -30.984  21.150  1.00  0.00     0.000 C 
BRANCH  10  11
ATOM     11  C   UNL     1      21.180 -30.451  22.138  1.00  0.00     0.000 C 
BRANCH  11  12
ATOM     12  C   UNL     1      21.325 -28.924  22.096  1.00  0.00     0.000 C 
BRANCH  12  13
ATOM     13  C   UNL     1      20.999 -28.380  20.697  1.00  0.00     0.006 C 
BRANCH  13  14
ATOM     14  C   UNL     1      21.026 -26.848  20.649  1.00  0.00     0.053 C 
BRANCH  14  15
ATOM     15  C   UNL     1      22.425 -26.314  20.649  1.00  0.00     0.041 C 
ATOM     16  O   UNL     1      22.908 -25.807  21.696  1.00  0.00    -0.550 OA
ATOM     17  O   UNL     1      23.205 -26.396  19.501  1.00  0.00    -0.550 OA
ENDBRANCH  14  15
ENDBRANCH  13  14
ENDBRANCH  12  13
ENDBRANCH  11  12
ENDBRANCH  10  11
ENDBRANCH   9  10
ENDBRANCH   8   9
ENDBRANCH   7   8
ENDBRANCH   6   7
ENDBRANCH   5   6
ENDBRANCH   4   5
ENDBRANCH   3   4
ENDBRANCH   2   3
ENDBRANCH   1   2
BRANCH   1  18
ATOM     18  C   UNL     1      15.107 -33.577  22.541  1.00  0.00     0.000 C 
BRANCH  18  19
ATOM     19  C   UNL     1      14.587 -33.212  21.130  1.00  0.00     0.000 C 
BRANCH  19  20
ATOM     20  C   UNL     1      15.142 -34.124  20.023  1.00  0.00     0.000 C 
BRANCH  20  21
ATOM     21  C   UNL     1      16.619 -34.518  20.211  1.00  0.00     0.000 C 
BRANCH  21  22
ATOM     22  C   UNL     1      16.847 -36.042  20.329  1.00  0.00     0.000 C 
BRANCH  22  23
ATOM     23  C   UNL     1      17.994 -36.397  21.291  1.00  0.00     0.000 C 
BRANCH  23  24
ATOM     24  C   UNL     1      18.205 -35.331  22.378  1.00  0.00    -0.000 C 
BRANCH  24  25
ATOM     25  C   UNL     1      18.000 -35.888  23.797  1.00  0.00    -0.000 C 
BRANCH  25  26
ATOM     26  C   UNL     1      17.622 -34.773  24.780  1.00  0.00    -0.000 C 
BRANCH  26  27
ATOM     27  C   UNL     1      18.870 -33.994  25.226  1.00  0.00    -0.000 C 
BRANCH  27  28
ATOM     28  C   UNL     1      18.532 -32.612  25.810  1.00  0.00    -0.000 C 
BRANCH  28  29
ATOM     29  C   UNL     1      19.541 -31.532  25.390  1.00  0.00    -0.000 C 
BRANCH  29  30
ATOM     30  C   UNL     1      19.154 -30.162  25.970  1.00  0.00    -0.000 C 
BRANCH  30  31
ATOM     31  C   UNL     1      19.763 -29.915  27.359  1.00  0.00    -0.003 C 
ATOM     32  C   UNL     1      19.083 -28.770  28.108  1.00  0.00     0.004 C 
ENDBRANCH  30  31
ENDBRANCH  29  30
ENDBRANCH  28  29
ENDBRANCH  27  28
ENDBRANCH  26  27
ENDBRANCH  25  26
ENDBRANCH  24  25
ENDBRANCH  23  24
ENDBRANCH  22  23
ENDBRANCH  21  22
ENDBRANCH  20  21
ENDBRANCH  19  20
ENDBRANCH  18  19
ENDBRANCH   1  18
TORSDOF 28
ENDMDL
MODEL 8
REMARK VINA RESULT:    -4.785      4.118      6.286
REMARK INTER + INTRA:         -17.759
REMARK INTER:                 -12.337
REMARK INTRA:                  -5.422
REMARK UNBOUND:                -5.142
REMARK SMILES CCCCCCCCCCCCCCCCCCCCCCCCCCCCCC(=O)[O-]
REMARK SMILES IDX 16 1 17 2 18 3 19 4 20 5 21 6 22 7 23 8 24 9 25 10 26 11
REMARK SMILES IDX 27 12 28 13 29 14 30 15 31 16 32 17 15 18 14 19 13 20 12 21
REMARK SMILES IDX 11 22 10 23 9 24 8 25 7 26 6 27 5 28 4 29 3 30 2 31 1 32
REMARK H PARENT
REMARK Flexibility Score: inf
ROOT
ATOM      1  C   UNL     1      15.233 -32.754  22.058  1.00  0.00     0.000 C 
ENDROOT
BRANCH   1   2
ATOM      2  C   UNL     1      14.255 -33.040  20.899  1.00  0.00     0.000 C 
BRANCH   2   3
ATOM      3  C   UNL     1      14.831 -33.963  19.808  1.00  0.00     0.000 C 
BRANCH   3   4
ATOM      4  C   UNL     1      15.881 -34.978  20.297  1.00  0.00     0.000 C 
BRANCH   4   5
ATOM      5  C   UNL     1      17.149 -35.083  19.427  1.00  0.00     0.000 C 
BRANCH   5   6
ATOM      6  C   UNL     1      17.752 -33.712  19.078  1.00  0.00     0.000 C 
BRANCH   6   7
ATOM      7  C   UNL     1      18.350 -32.996  20.301  1.00  0.00     0.000 C 
BRANCH   7   8
ATOM      8  C   UNL     1      18.046 -31.482  20.341  1.00  0.00     0.000 C 
BRANCH   8   9
ATOM      9  C   UNL     1      18.442 -30.848  21.687  1.00  0.00     0.000 C 
BRANCH   9  10
ATOM     10  C   UNL     1      17.228 -30.248  22.430  1.00  0.00     0.000 C 
BRANCH  10  11
ATOM     11  C   UNL     1      16.539 -29.106  21.665  1.00  0.00     0.000 C 
BRANCH  11  12
ATOM     12  C   UNL     1      15.018 -29.079  21.868  1.00  0.00     0.000 C 
BRANCH  12  13
ATOM     13  C   UNL     1      14.650 -29.453  23.312  1.00  0.00     0.006 C 
BRANCH  13  14
ATOM     14  C   UNL     1      13.156 -29.756  23.470  1.00  0.00     0.053 C 
BRANCH  14  15
ATOM     15  C   UNL     1      12.377 -28.535  23.853  1.00  0.00     0.041 C 
ATOM     16  O   UNL     1      11.193 -28.388  23.448  1.00  0.00    -0.550 OA
ATOM     17  O   UNL     1      12.948 -27.571  24.675  1.00  0.00    -0.550 OA
ENDBRANCH  14  15
ENDBRANCH  13  14
ENDBRANCH  12  13
ENDBRANCH  11  12
ENDBRANCH  10  11
ENDBRANCH   9  10
ENDBRANCH   8   9
ENDBRANCH   7   8
ENDBRANCH   6   7
ENDBRANCH   5   6
ENDBRANCH   4   5
ENDBRANCH   3   4
ENDBRANCH   2   3
ENDBRANCH   1   2
BRANCH   1  18
ATOM     18  C   UNL     1      14.662 -33.155  23.429  1.00  0.00     0.000 C 
BRANCH  18  19
ATOM     19  C   UNL     1      15.762 -33.644  24.400  1.00  0.00     0.000 C 
BRANCH  19  20
ATOM     20  C   UNL     1      17.135 -33.814  23.730  1.00  0.00     0.000 C 
BRANCH  20  21
ATOM     21  C   UNL     1      17.628 -35.271  23.659  1.00  0.00     0.000 C 
BRANCH  21  22
ATOM     22  C   UNL     1      18.936 -35.449  22.855  1.00  0.00     0.000 C 
BRANCH  22  23
ATOM     23  C   UNL     1      20.162 -34.870  23.582  1.00  0.00     0.000 C 
BRANCH  23  24
ATOM     24  C   UNL     1      20.795 -33.690  22.824  1.00  0.00    -0.000 C 
BRANCH  24  25
ATOM     25  C   UNL     1      21.976 -33.068  23.586  1.00  0.00    -0.000 C 
BRANCH  25  26
ATOM     26  C   UNL     1      21.517 -32.459  24.917  1.00  0.00    -0.000 C 
BRANCH  26  27
ATOM     27  C   UNL     1      20.571 -31.273  24.676  1.00  0.00    -0.000 C 
BRANCH  27  28
ATOM     28  C   UNL     1      19.211 -31.444  25.374  1.00  0.00    -0.000 C 
BRANCH  28  29
ATOM     29  C   UNL     1      18.913 -30.312  26.370  1.00  0.00    -0.000 C 
BRANCH  29  30
ATOM     30  C   UNL     1      20.214 -29.686  26.897  1.00  0.00    -0.000 C 
BRANCH  30  31
ATOM     31  C   UNL     1      20.685 -30.325  28.213  1.00  0.00    -0.003 C 
ATOM     32  C   UNL     1      22.193 -30.576  28.241  1.00  0.00     0.004 C 
ENDBRANCH  30  31
ENDBRANCH  29  30
ENDBRANCH  28  29
ENDBRANCH  27  28
ENDBRANCH  26  27
ENDBRANCH  25  26
ENDBRANCH  24  25
ENDBRANCH  23  24
ENDBRANCH  22  23
ENDBRANCH  21  22
ENDBRANCH  20  21
ENDBRANCH  19  20
ENDBRANCH  18  19
ENDBRANCH   1  18
TORSDOF 28
ENDMDL
MODEL 9
REMARK VINA RESULT:    -4.780      4.088      6.770
REMARK INTER + INTRA:         -17.746
REMARK INTER:                 -11.704
REMARK INTRA:                  -6.042
REMARK UNBOUND:                -5.142
REMARK SMILES CCCCCCCCCCCCCCCCCCCCCCCCCCCCCC(=O)[O-]
REMARK SMILES IDX 16 1 17 2 18 3 19 4 20 5 21 6 22 7 23 8 24 9 25 10 26 11
REMARK SMILES IDX 27 12 28 13 29 14 30 15 31 16 32 17 15 18 14 19 13 20 12 21
REMARK SMILES IDX 11 22 10 23 9 24 8 25 7 26 6 27 5 28 4 29 3 30 2 31 1 32
REMARK H PARENT
REMARK Flexibility Score: inf
ROOT
ATOM      1  C   UNL     1      16.867 -34.880  25.837  1.00  0.00     0.000 C 
ENDROOT
BRANCH   1   2
ATOM      2  C   UNL     1      17.950 -34.014  25.159  1.00  0.00     0.000 C 
BRANCH   2   3
ATOM      3  C   UNL     1      17.445 -33.229  23.933  1.00  0.00     0.000 C 
BRANCH   3   4
ATOM      4  C   UNL     1      16.461 -33.993  23.026  1.00  0.00     0.000 C 
BRANCH   4   5
ATOM      5  C   UNL     1      15.250 -33.176  22.535  1.00  0.00     0.000 C 
BRANCH   5   6
ATOM      6  C   UNL     1      14.816 -32.088  23.532  1.00  0.00     0.000 C 
BRANCH   6   7
ATOM      7  C   UNL     1      14.834 -30.678  22.918  1.00  0.00     0.000 C 
BRANCH   7   8
ATOM      8  C   UNL     1      16.170 -29.931  23.124  1.00  0.00     0.000 C 
BRANCH   8   9
ATOM      9  C   UNL     1      16.983 -29.829  21.820  1.00  0.00     0.000 C 
BRANCH   9  10
ATOM     10  C   UNL     1      18.443 -30.300  22.003  1.00  0.00     0.000 C 
BRANCH  10  11
ATOM     11  C   UNL     1      18.900 -31.316  20.943  1.00  0.00     0.000 C 
BRANCH  11  12
ATOM     12  C   UNL     1      17.734 -31.935  20.161  1.00  0.00     0.000 C 
BRANCH  12  13
ATOM     13  C   UNL     1      18.070 -33.365  19.713  1.00  0.00     0.006 C 
BRANCH  13  14
ATOM     14  C   UNL     1      16.871 -34.068  19.066  1.00  0.00     0.053 C 
BRANCH  14  15
ATOM     15  C   UNL     1      16.878 -35.542  19.332  1.00  0.00     0.041 C 
ATOM     16  O   UNL     1      17.914 -36.221  19.100  1.00  0.00    -0.550 OA
ATOM     17  O   UNL     1      15.751 -36.163  19.857  1.00  0.00    -0.550 OA
ENDBRANCH  14  15
ENDBRANCH  13  14
ENDBRANCH  12  13
ENDBRANCH  11  12
ENDBRANCH  10  11
ENDBRANCH   9  10
ENDBRANCH   8   9
ENDBRANCH   7   8
ENDBRANCH   6   7
ENDBRANCH   5   6
ENDBRANCH   4   5
ENDBRANCH   3   4
ENDBRANCH   2   3
ENDBRANCH   1   2
BRANCH   1  18
ATOM     18  C   UNL     1      17.235 -36.373  25.868  1.00  0.00     0.000 C 
BRANCH  18  19
ATOM     19  C   UNL     1      18.752 -36.607  25.671  1.00  0.00     0.000 C 
BRANCH  19  20
ATOM     20  C   UNL     1      19.070 -37.821  24.783  1.00  0.00     0.000 C 
BRANCH  20  21
ATOM     21  C   UNL     1      20.053 -37.524  23.635  1.00  0.00     0.000 C 
BRANCH  21  22
ATOM     22  C   UNL     1      19.368 -37.039  22.338  1.00  0.00     0.000 C 
BRANCH  22  23
ATOM     23  C   UNL     1      19.645 -35.555  22.040  1.00  0.00     0.000 C 
BRANCH  23  24
ATOM     24  C   UNL     1      20.910 -35.037  22.743  1.00  0.00    -0.000 C 
BRANCH  24  25
ATOM     25  C   UNL     1      20.906 -33.509  22.912  1.00  0.00    -0.000 C 
BRANCH  25  26
ATOM     26  C   UNL     1      22.299 -32.990  23.293  1.00  0.00    -0.000 C 
BRANCH  26  27
ATOM     27  C   UNL     1      22.205 -31.977  24.445  1.00  0.00    -0.000 C 
BRANCH  27  28
ATOM     28  C   UNL     1      20.853 -32.030  25.176  1.00  0.00    -0.000 C 
BRANCH  28  29
ATOM     29  C   UNL     1      20.080 -30.704  25.084  1.00  0.00    -0.000 C 
BRANCH  29  30
ATOM     30  C   UNL     1      19.074 -30.572  26.238  1.00  0.00    -0.000 C 
BRANCH  30  31
ATOM     31  C   UNL     1      19.281 -29.288  27.057  1.00  0.00    -0.003 C 
ATOM     32  C   UNL     1      20.746 -28.861  27.128  1.00  0.00     0.004 C 
ENDBRANCH  30  31
ENDBRANCH  29  30
ENDBRANCH  28  29
ENDBRANCH  27  28
ENDBRANCH  26  27
ENDBRANCH  25  26
ENDBRANCH  24  25
ENDBRANCH  23  24
ENDBRANCH  22  23
ENDBRANCH  21  22
ENDBRANCH  20  21
ENDBRANCH  19  20
ENDBRANCH  18  19
ENDBRANCH   1  18
TORSDOF 28
ENDMDL
