MODEL 1
REMARK VINA RESULT:    -1.716      0.000      0.000
REMARK INTER + INTRA:          -5.761
REMARK INTER:                  -3.221
REMARK INTRA:                  -2.540
REMARK UNBOUND:                -2.540
REMARK SMILES CCCCCCCCC=CCCCCCCCC(=O)[O-]
REMARK SMILES IDX 10 1 9 2 11 3 12 4 13 5 14 6 15 7 16 8 17 9 18 10 19 11
REMARK SMILES IDX 20 12 8 13 7 14 6 15 5 16 4 17 3 18 2 19 1 20
REMARK H PARENT
REMARK Flexibility Score: inf
ROOT
ATOM      1  C   UNL     1     173.126 178.214 196.199  1.00  0.00    -0.031 C 
ATOM      2  C   UNL     1     174.162 179.064 196.122  1.00  0.00    -0.031 C 
ENDROOT
BRANCH   1   3
ATOM      3  C   UNL     1     173.122 177.063 197.165  1.00  0.00     0.027 C 
BRANCH   3   4
ATOM      4  C   UNL     1     174.169 177.267 198.270  1.00  0.00     0.004 C 
BRANCH   4   5
ATOM      5  C   UNL     1     173.556 177.235 199.678  1.00  0.00     0.000 C 
BRANCH   5   6
ATOM      6  C   UNL     1     172.070 177.630 199.684  1.00  0.00     0.000 C 
BRANCH   6   7
ATOM      7  C   UNL     1     171.737 178.679 200.757  1.00  0.00     0.000 C 
BRANCH   7   8
ATOM      8  C   UNL     1     171.283 180.036 200.175  1.00  0.00     0.006 C 
BRANCH   8   9
ATOM      9  C   UNL     1     172.037 180.432 198.895  1.00  0.00     0.053 C 
BRANCH   9  10
ATOM     10  C   UNL     1     173.250 181.256 199.201  1.00  0.00     0.041 C 
ATOM     11  O   UNL     1     173.151 182.503 199.348  1.00  0.00    -0.550 OA
ATOM     12  O   UNL     1     174.496 180.649 199.302  1.00  0.00    -0.550 OA
ENDBRANCH   9  10
ENDBRANCH   8   9
ENDBRANCH   7   8
ENDBRANCH   6   7
ENDBRANCH   5   6
ENDBRANCH   4   5
ENDBRANCH   3   4
ENDBRANCH   1   3
BRANCH   2  13
ATOM     13  C   UNL     1     174.170 180.205 195.143  1.00  0.00     0.027 C 
BRANCH  13  14
ATOM     14  C   UNL     1     172.917 181.078 195.306  1.00  0.00     0.004 C 
BRANCH  14  15
ATOM     15  C   UNL     1     172.130 181.244 193.994  1.00  0.00     0.000 C 
BRANCH  15  16
ATOM     16  C   UNL     1     172.997 181.371 192.724  1.00  0.00     0.000 C 
BRANCH  16  17
ATOM     17  C   UNL     1     172.810 180.244 191.693  1.00  0.00    -0.000 C 
BRANCH  17  18
ATOM     18  C   UNL     1     171.802 179.177 192.153  1.00  0.00    -0.000 C 
BRANCH  18  19
ATOM     19  C   UNL     1     172.472 177.829 192.458  1.00  0.00    -0.003 C 
ATOM     20  C   UNL     1     171.555 176.876 193.226  1.00  0.00     0.004 C 
ENDBRANCH  18  19
ENDBRANCH  17  18
ENDBRANCH  16  17
ENDBRANCH  15  16
ENDBRANCH  14  15
ENDBRANCH  13  14
ENDBRANCH   2  13
TORSDOF 15
ENDMDL
MODEL 2
REMARK VINA RESULT:    -1.652      1.775      5.920
REMARK INTER + INTRA:          -5.641
REMARK INTER:                  -3.317
REMARK INTRA:                  -2.324
REMARK UNBOUND:                -2.540
REMARK SMILES CCCCCCCCC=CCCCCCCCC(=O)[O-]
REMARK SMILES IDX 10 1 9 2 11 3 12 4 13 5 14 6 15 7 16 8 17 9 18 10 19 11
REMARK SMILES IDX 20 12 8 13 7 14 6 15 5 16 4 17 3 18 2 19 1 20
REMARK H PARENT
REMARK Flexibility Score: inf
ROOT
ATOM      1  C   UNL     1     172.626 177.280 193.822  1.00  0.00    -0.031 C 
ATOM      2  C   UNL     1     172.325 176.876 195.067  1.00  0.00    -0.031 C 
ENDROOT
BRANCH   1   3
ATOM      3  C   UNL     1     171.748 176.940 192.651  1.00  0.00     0.027 C 
BRANCH   3   4
ATOM      4  C   UNL     1     172.018 177.883 191.468  1.00  0.00     0.004 C 
BRANCH   4   5
ATOM      5  C   UNL     1     172.364 179.310 191.918  1.00  0.00     0.000 C 
BRANCH   5   6
ATOM      6  C   UNL     1     171.144 180.246 191.906  1.00  0.00     0.000 C 
BRANCH   6   7
ATOM      7  C   UNL     1     171.263 181.391 192.925  1.00  0.00     0.000 C 
BRANCH   7   8
ATOM      8  C   UNL     1     172.259 181.100 194.069  1.00  0.00     0.006 C 
BRANCH   8   9
ATOM      9  C   UNL     1     173.149 182.304 194.422  1.00  0.00     0.053 C 
BRANCH   9  10
ATOM     10  C   UNL     1     172.410 183.312 195.249  1.00  0.00     0.041 C 
ATOM     11  O   UNL     1     172.017 184.391 194.733  1.00  0.00    -0.550 OA
ATOM     12  O   UNL     1     172.176 183.069 196.596  1.00  0.00    -0.550 OA
ENDBRANCH   9  10
ENDBRANCH   8   9
ENDBRANCH   7   8
ENDBRANCH   6   7
ENDBRANCH   5   6
ENDBRANCH   4   5
ENDBRANCH   3   4
ENDBRANCH   1   3
BRANCH   2  13
ATOM     13  C   UNL     1     173.214 177.202 196.234  1.00  0.00     0.027 C 
BRANCH  13  14
ATOM     14  C   UNL     1     174.335 178.166 195.818  1.00  0.00     0.004 C 
BRANCH  14  15
ATOM     15  C   UNL     1     174.362 179.452 196.661  1.00  0.00     0.000 C 
BRANCH  15  16
ATOM     16  C   UNL     1     173.048 179.774 197.404  1.00  0.00     0.000 C 
BRANCH  16  17
ATOM     17  C   UNL     1     173.161 179.817 198.938  1.00  0.00    -0.000 C 
BRANCH  17  18
ATOM     18  C   UNL     1     172.088 178.966 199.638  1.00  0.00    -0.000 C 
BRANCH  18  19
ATOM     19  C   UNL     1     172.548 177.520 199.876  1.00  0.00    -0.003 C 
ATOM     20  C   UNL     1     174.064 177.403 200.041  1.00  0.00     0.004 C 
ENDBRANCH  18  19
ENDBRANCH  17  18
ENDBRANCH  16  17
ENDBRANCH  15  16
ENDBRANCH  14  15
ENDBRANCH  13  14
ENDBRANCH   2  13
TORSDOF 15
ENDMDL
MODEL 3
REMARK VINA RESULT:    -1.618      2.306      6.244
REMARK INTER + INTRA:          -5.577
REMARK INTER:                  -2.558
REMARK INTRA:                  -3.019
REMARK UNBOUND:                -2.540
REMARK SMILES CCCCCCCCC=CCCCCCCCC(=O)[O-]
REMARK SMILES IDX 10 1 9 2 11 3 12 4 13 5 14 6 15 7 16 8 17 9 18 10 19 11
REMARK SMILES IDX 20 12 8 13 7 14 6 15 5 16 4 17 3 18 2 19 1 20
REMARK H PARENT
REMARK Flexibility Score: inf
ROOT
ATOM      1  C   UNL     1     173.661 177.482 196.411  1.00  0.00    -0.031 C 
ATOM      2  C   UNL     1     173.378 176.878 197.576  1.00  0.00    -0.031 C 
ENDROOT
BRANCH   1   3
ATOM      3  C   UNL     1     172.714 177.428 195.245  1.00  0.00     0.027 C 
BRANCH   3   4
ATOM      4  C   UNL     1     172.950 178.607 194.288  1.00  0.00     0.004 C 
BRANCH   4   5
ATOM      5  C   UNL     1     173.229 179.923 195.030  1.00  0.00     0.000 C 
BRANCH   5   6
ATOM      6  C   UNL     1     174.545 180.583 194.587  1.00  0.00     0.000 C 
BRANCH   6   7
ATOM      7  C   UNL     1     175.269 179.789 193.488  1.00  0.00     0.000 C 
BRANCH   7   8
ATOM      8  C   UNL     1     176.733 179.440 193.841  1.00  0.00     0.006 C 
BRANCH   8   9
ATOM      9  C   UNL     1     176.866 178.179 194.711  1.00  0.00     0.053 C 
BRANCH   9  10
ATOM     10  C   UNL     1     177.428 178.498 196.062  1.00  0.00     0.041 C 
ATOM     11  O   UNL     1     177.926 179.632 196.292  1.00  0.00    -0.550 OA
ATOM     12  O   UNL     1     177.423 177.534 197.063  1.00  0.00    -0.550 OA
ENDBRANCH   9  10
ENDBRANCH   8   9
ENDBRANCH   7   8
ENDBRANCH   6   7
ENDBRANCH   5   6
ENDBRANCH   4   5
ENDBRANCH   3   4
ENDBRANCH   1   3
BRANCH   2  13
ATOM     13  C   UNL     1     174.334 176.919 198.734  1.00  0.00     0.027 C 
BRANCH  13  14
ATOM     14  C   UNL     1     173.578 177.030 200.067  1.00  0.00     0.004 C 
BRANCH  14  15
ATOM     15  C   UNL     1     172.145 177.563 199.899  1.00  0.00     0.000 C 
BRANCH  15  16
ATOM     16  C   UNL     1     171.863 178.911 200.595  1.00  0.00     0.000 C 
BRANCH  16  17
ATOM     17  C   UNL     1     171.478 180.064 199.651  1.00  0.00    -0.000 C 
BRANCH  17  18
ATOM     18  C   UNL     1     172.559 180.356 198.596  1.00  0.00    -0.000 C 
BRANCH  18  19
ATOM     19  C   UNL     1     173.898 180.768 199.226  1.00  0.00    -0.003 C 
ATOM     20  C   UNL     1     175.091 180.485 198.311  1.00  0.00     0.004 C 
ENDBRANCH  18  19
ENDBRANCH  17  18
ENDBRANCH  16  17
ENDBRANCH  15  16
ENDBRANCH  14  15
ENDBRANCH  13  14
ENDBRANCH   2  13
TORSDOF 15
ENDMDL
MODEL 4
REMARK VINA RESULT:    -1.528      2.169      3.740
REMARK INTER + INTRA:          -5.408
REMARK INTER:                  -2.410
REMARK INTRA:                  -2.998
REMARK UNBOUND:                -2.540
REMARK SMILES CCCCCCCCC=CCCCCCCCC(=O)[O-]
REMARK SMILES IDX 10 1 9 2 11 3 12 4 13 5 14 6 15 7 16 8 17 9 18 10 19 11
REMARK SMILES IDX 20 12 8 13 7 14 6 15 5 16 4 17 3 18 2 19 1 20
REMARK H PARENT
REMARK Flexibility Score: inf
ROOT
ATOM      1  C   UNL     1     173.110 178.251 196.382  1.00  0.00    -0.031 C 
ATOM      2  C   UNL     1     174.183 179.028 196.168  1.00  0.00    -0.031 C 
ENDROOT
BRANCH   1   3
ATOM      3  C   UNL     1     173.146 177.110 197.359  1.00  0.00     0.027 C 
BRANCH   3   4
ATOM      4  C   UNL     1     174.381 177.201 198.268  1.00  0.00     0.004 C 
BRANCH   4   5
ATOM      5  C   UNL     1     174.042 176.978 199.749  1.00  0.00     0.000 C 
BRANCH   5   6
ATOM      6  C   UNL     1     172.620 177.442 200.106  1.00  0.00     0.000 C 
BRANCH   6   7
ATOM      7  C   UNL     1     172.568 178.912 200.552  1.00  0.00     0.000 C 
BRANCH   7   8
ATOM      8  C   UNL     1     171.597 179.777 199.717  1.00  0.00     0.006 C 
BRANCH   8   9
ATOM      9  C   UNL     1     172.290 180.945 198.996  1.00  0.00     0.053 C 
BRANCH   9  10
ATOM     10  C   UNL     1     171.576 182.241 199.234  1.00  0.00     0.041 C 
ATOM     11  O   UNL     1     171.163 182.537 200.387  1.00  0.00    -0.550 OA
ATOM     12  O   UNL     1     171.347 183.113 198.178  1.00  0.00    -0.550 OA
ENDBRANCH   9  10
ENDBRANCH   8   9
ENDBRANCH   7   8
ENDBRANCH   6   7
ENDBRANCH   5   6
ENDBRANCH   4   5
ENDBRANCH   3   4
ENDBRANCH   1   3
BRANCH   2  13
ATOM     13  C   UNL     1     174.150 180.158 195.178  1.00  0.00     0.027 C 
BRANCH  13  14
ATOM     14  C   UNL     1     172.952 181.083 195.440  1.00  0.00     0.004 C 
BRANCH  14  15
ATOM     15  C   UNL     1     173.307 182.574 195.307  1.00  0.00     0.000 C 
BRANCH  15  16
ATOM     16  C   UNL     1     174.755 182.939 195.699  1.00  0.00     0.000 C 
BRANCH  16  17
ATOM     17  C   UNL     1     174.892 183.767 196.988  1.00  0.00    -0.000 C 
BRANCH  17  18
ATOM     18  C   UNL     1     175.154 182.898 198.230  1.00  0.00    -0.000 C 
BRANCH  18  19
ATOM     19  C   UNL     1     176.159 181.770 197.956  1.00  0.00    -0.003 C 
ATOM     20  C   UNL     1     175.992 180.588 198.912  1.00  0.00     0.004 C 
ENDBRANCH  18  19
ENDBRANCH  17  18
ENDBRANCH  16  17
ENDBRANCH  15  16
ENDBRANCH  14  15
ENDBRANCH  13  14
ENDBRANCH   2  13
TORSDOF 15
ENDMDL
MODEL 5
REMARK VINA RESULT:    -1.526      2.606      6.064
REMARK INTER + INTRA:          -5.404
REMARK INTER:                  -2.696
REMARK INTRA:                  -2.708
REMARK UNBOUND:                -2.540
REMARK SMILES CCCCCCCCC=CCCCCCCCC(=O)[O-]
REMARK SMILES IDX 10 1 9 2 11 3 12 4 13 5 14 6 15 7 16 8 17 9 18 10 19 11
REMARK SMILES IDX 20 12 8 13 7 14 6 15 5 16 4 17 3 18 2 19 1 20
REMARK H PARENT
REMARK Flexibility Score: inf
ROOT
ATOM      1  C   UNL     1     173.117 177.244 197.796  1.00  0.00    -0.031 C 
ATOM      2  C   UNL     1     173.773 177.368 198.961  1.00  0.00    -0.031 C 
ENDROOT
BRANCH   1   3
ATOM      3  C   UNL     1     173.820 177.391 196.476  1.00  0.00     0.027 C 
BRANCH   3   4
ATOM      4  C   UNL     1     173.170 178.492 195.624  1.00  0.00     0.004 C 
BRANCH   4   5
ATOM      5  C   UNL     1     174.168 179.581 195.205  1.00  0.00     0.000 C 
BRANCH   5   6
ATOM      6  C   UNL     1     175.088 180.015 196.358  1.00  0.00     0.000 C 
BRANCH   6   7
ATOM      7  C   UNL     1     175.354 181.529 196.370  1.00  0.00     0.000 C 
BRANCH   7   8
ATOM      8  C   UNL     1     174.502 182.315 195.348  1.00  0.00     0.006 C 
BRANCH   8   9
ATOM      9  C   UNL     1     173.239 182.941 195.962  1.00  0.00     0.053 C 
BRANCH   9  10
ATOM     10  C   UNL     1     172.185 183.187 194.925  1.00  0.00     0.041 C 
ATOM     11  O   UNL     1     171.522 182.226 194.454  1.00  0.00    -0.550 OA
ATOM     12  O   UNL     1     171.952 184.476 194.464  1.00  0.00    -0.550 OA
ENDBRANCH   9  10
ENDBRANCH   8   9
ENDBRANCH   7   8
ENDBRANCH   6   7
ENDBRANCH   5   6
ENDBRANCH   4   5
ENDBRANCH   3   4
ENDBRANCH   1   3
BRANCH   2  13
ATOM     13  C   UNL     1     173.064 177.237 200.279  1.00  0.00     0.027 C 
BRANCH  13  14
ATOM     14  C   UNL     1     171.547 177.409 200.107  1.00  0.00     0.004 C 
BRANCH  14  15
ATOM     15  C   UNL     1     170.939 178.394 201.120  1.00  0.00     0.000 C 
BRANCH  15  16
ATOM     16  C   UNL     1     171.511 179.826 201.063  1.00  0.00     0.000 C 
BRANCH  16  17
ATOM     17  C   UNL     1     171.183 180.608 199.779  1.00  0.00    -0.000 C 
BRANCH  17  18
ATOM     18  C   UNL     1     172.397 180.756 198.846  1.00  0.00    -0.000 C 
BRANCH  18  19
ATOM     19  C   UNL     1     173.700 181.023 199.615  1.00  0.00    -0.003 C 
ATOM     20  C   UNL     1     173.995 182.515 199.773  1.00  0.00     0.004 C 
ENDBRANCH  18  19
ENDBRANCH  17  18
ENDBRANCH  16  17
ENDBRANCH  15  16
ENDBRANCH  14  15
ENDBRANCH  13  14
ENDBRANCH   2  13
TORSDOF 15
ENDMDL
MODEL 6
REMARK VINA RESULT:    -1.514      2.218      5.573
REMARK INTER + INTRA:          -5.382
REMARK INTER:                  -2.650
REMARK INTRA:                  -2.732
REMARK UNBOUND:                -2.540
REMARK SMILES CCCCCCCCC=CCCCCCCCC(=O)[O-]
REMARK SMILES IDX 10 1 9 2 11 3 12 4 13 5 14 6 15 7 16 8 17 9 18 10 19 11
REMARK SMILES IDX 20 12 8 13 7 14 6 15 5 16 4 17 3 18 2 19 1 20
REMARK H PARENT
REMARK Flexibility Score: inf
ROOT
ATOM      1  C   UNL     1     173.797 177.496 198.320  1.00  0.00    -0.031 C 
ATOM      2  C   UNL     1     172.571 177.432 198.864  1.00  0.00    -0.031 C 
ENDROOT
BRANCH   1   3
ATOM      3  C   UNL     1     174.039 177.141 196.880  1.00  0.00     0.027 C 
BRANCH   3   4
ATOM      4  C   UNL     1     172.722 177.126 196.087  1.00  0.00     0.004 C 
BRANCH   4   5
ATOM      5  C   UNL     1     172.908 177.563 194.626  1.00  0.00     0.000 C 
BRANCH   5   6
ATOM      6  C   UNL     1     174.205 178.358 194.408  1.00  0.00     0.000 C 
BRANCH   6   7
ATOM      7  C   UNL     1     173.960 179.730 193.760  1.00  0.00     0.000 C 
BRANCH   7   8
ATOM      8  C   UNL     1     172.746 180.483 194.347  1.00  0.00     0.006 C 
BRANCH   8   9
ATOM      9  C   UNL     1     172.314 181.694 193.503  1.00  0.00     0.053 C 
BRANCH   9  10
ATOM     10  C   UNL     1     172.018 182.887 194.361  1.00  0.00     0.041 C 
ATOM     11  O   UNL     1     170.875 183.038 194.867  1.00  0.00    -0.550 OA
ATOM     12  O   UNL     1     173.000 183.844 194.583  1.00  0.00    -0.550 OA
ENDBRANCH   9  10
ENDBRANCH   8   9
ENDBRANCH   7   8
ENDBRANCH   6   7
ENDBRANCH   5   6
ENDBRANCH   4   5
ENDBRANCH   3   4
ENDBRANCH   1   3
BRANCH   2  13
ATOM     13  C   UNL     1     172.335 177.771 200.309  1.00  0.00     0.027 C 
BRANCH  13  14
ATOM     14  C   UNL     1     172.727 179.227 200.603  1.00  0.00     0.004 C 
BRANCH  14  15
ATOM     15  C   UNL     1     171.671 180.239 200.124  1.00  0.00     0.000 C 
BRANCH  15  16
ATOM     16  C   UNL     1     172.215 181.381 199.240  1.00  0.00     0.000 C 
BRANCH  16  17
ATOM     17  C   UNL     1     172.768 180.941 197.873  1.00  0.00    -0.000 C 
BRANCH  17  18
ATOM     18  C   UNL     1     174.028 181.721 197.462  1.00  0.00    -0.000 C 
BRANCH  18  19
ATOM     19  C   UNL     1     175.234 180.803 197.216  1.00  0.00    -0.003 C 
ATOM     20  C   UNL     1     175.931 180.386 198.512  1.00  0.00     0.004 C 
ENDBRANCH  18  19
ENDBRANCH  17  18
ENDBRANCH  16  17
ENDBRANCH  15  16
ENDBRANCH  14  15
ENDBRANCH  13  14
ENDBRANCH   2  13
TORSDOF 15
ENDMDL
MODEL 7
REMARK VINA RESULT:    -1.508      2.276      6.196
REMARK INTER + INTRA:          -5.371
REMARK INTER:                  -2.907
REMARK INTRA:                  -2.464
REMARK UNBOUND:                -2.540
REMARK SMILES CCCCCCCCC=CCCCCCCCC(=O)[O-]
REMARK SMILES IDX 10 1 9 2 11 3 12 4 13 5 14 6 15 7 16 8 17 9 18 10 19 11
REMARK SMILES IDX 20 12 8 13 7 14 6 15 5 16 4 17 3 18 2 19 1 20
REMARK H PARENT
REMARK Flexibility Score: inf
ROOT
ATOM      1  C   UNL     1     173.923 178.478 195.776  1.00  0.00    -0.031 C 
ATOM      2  C   UNL     1     173.197 179.054 196.747  1.00  0.00    -0.031 C 
ENDROOT
BRANCH   1   3
ATOM      3  C   UNL     1     173.712 177.044 195.381  1.00  0.00     0.027 C 
BRANCH   3   4
ATOM      4  C   UNL     1     172.404 176.875 194.593  1.00  0.00     0.004 C 
BRANCH   4   5
ATOM      5  C   UNL     1     172.609 176.997 193.076  1.00  0.00     0.000 C 
BRANCH   5   6
ATOM      6  C   UNL     1     171.784 178.138 192.458  1.00  0.00     0.000 C 
BRANCH   6   7
ATOM      7  C   UNL     1     172.565 179.460 192.376  1.00  0.00     0.000 C 
BRANCH   7   8
ATOM      8  C   UNL     1     171.726 180.698 192.762  1.00  0.00     0.006 C 
BRANCH   8   9
ATOM      9  C   UNL     1     172.411 181.597 193.804  1.00  0.00     0.053 C 
BRANCH   9  10
ATOM     10  C   UNL     1     173.806 181.957 193.392  1.00  0.00     0.041 C 
ATOM     11  O   UNL     1     174.788 181.597 194.093  1.00  0.00    -0.550 OA
ATOM     12  O   UNL     1     174.019 182.709 192.243  1.00  0.00    -0.550 OA
ENDBRANCH   9  10
ENDBRANCH   8   9
ENDBRANCH   7   8
ENDBRANCH   6   7
ENDBRANCH   5   6
ENDBRANCH   4   5
ENDBRANCH   3   4
ENDBRANCH   1   3
BRANCH   2  13
ATOM     13  C   UNL     1     173.421 180.484 197.152  1.00  0.00     0.027 C 
BRANCH  13  14
ATOM     14  C   UNL     1     173.239 180.662 198.667  1.00  0.00     0.004 C 
BRANCH  14  15
ATOM     15  C   UNL     1     172.051 179.858 199.224  1.00  0.00     0.000 C 
BRANCH  15  16
ATOM     16  C   UNL     1     172.344 179.071 200.519  1.00  0.00     0.000 C 
BRANCH  16  17
ATOM     17  C   UNL     1     172.561 177.560 200.327  1.00  0.00    -0.000 C 
BRANCH  17  18
ATOM     18  C   UNL     1     174.039 177.151 200.445  1.00  0.00    -0.000 C 
BRANCH  18  19
ATOM     19  C   UNL     1     174.684 176.875 199.079  1.00  0.00    -0.003 C 
ATOM     20  C   UNL     1     175.997 177.635 198.884  1.00  0.00     0.004 C 
ENDBRANCH  18  19
ENDBRANCH  17  18
ENDBRANCH  16  17
ENDBRANCH  15  16
ENDBRANCH  14  15
ENDBRANCH  13  14
ENDBRANCH   2  13
TORSDOF 15
ENDMDL
MODEL 8
REMARK VINA RESULT:    -1.491      1.316      2.544
REMARK INTER + INTRA:          -5.339
REMARK INTER:                  -2.316
REMARK INTRA:                  -3.023
REMARK UNBOUND:                -2.540
REMARK SMILES CCCCCCCCC=CCCCCCCCC(=O)[O-]
REMARK SMILES IDX 10 1 9 2 11 3 12 4 13 5 14 6 15 7 16 8 17 9 18 10 19 11
REMARK SMILES IDX 20 12 8 13 7 14 6 15 5 16 4 17 3 18 2 19 1 20
REMARK H PARENT
REMARK Flexibility Score: inf
ROOT
ATOM      1  C   UNL     1     174.625 179.980 195.380  1.00  0.00    -0.031 C 
ATOM      2  C   UNL     1     174.686 181.258 194.976  1.00  0.00    -0.031 C 
ENDROOT
BRANCH   1   3
ATOM      3  C   UNL     1     175.755 179.337 196.134  1.00  0.00     0.027 C 
BRANCH   3   4
ATOM      4  C   UNL     1     175.403 177.896 196.533  1.00  0.00     0.004 C 
BRANCH   4   5
ATOM      5  C   UNL     1     174.023 177.461 196.017  1.00  0.00     0.000 C 
BRANCH   5   6
ATOM      6  C   UNL     1     173.120 176.913 197.134  1.00  0.00     0.000 C 
BRANCH   6   7
ATOM      7  C   UNL     1     173.495 177.456 198.522  1.00  0.00     0.000 C 
BRANCH   7   8
ATOM      8  C   UNL     1     172.481 178.478 199.082  1.00  0.00     0.006 C 
BRANCH   8   9
ATOM      9  C   UNL     1     172.758 179.921 198.630  1.00  0.00     0.053 C 
BRANCH   9  10
ATOM     10  C   UNL     1     173.915 180.519 199.370  1.00  0.00     0.041 C 
ATOM     11  O   UNL     1     174.714 181.293 198.781  1.00  0.00    -0.550 OA
ATOM     12  O   UNL     1     174.124 180.202 200.706  1.00  0.00    -0.550 OA
ENDBRANCH   9  10
ENDBRANCH   8   9
ENDBRANCH   7   8
ENDBRANCH   6   7
ENDBRANCH   5   6
ENDBRANCH   4   5
ENDBRANCH   3   4
ENDBRANCH   1   3
BRANCH   2  13
ATOM     13  C   UNL     1     173.561 181.893 194.207  1.00  0.00     0.027 C 
BRANCH  13  14
ATOM     14  C   UNL     1     172.385 180.918 194.048  1.00  0.00     0.004 C 
BRANCH  14  15
ATOM     15  C   UNL     1     171.869 180.836 192.601  1.00  0.00     0.000 C 
BRANCH  15  16
ATOM     16  C   UNL     1     171.558 179.411 192.098  1.00  0.00     0.000 C 
BRANCH  16  17
ATOM     17  C   UNL     1     172.359 178.289 192.783  1.00  0.00    -0.000 C 
BRANCH  17  18
ATOM     18  C   UNL     1     173.493 177.742 191.899  1.00  0.00    -0.000 C 
BRANCH  18  19
ATOM     19  C   UNL     1     174.883 178.154 192.403  1.00  0.00    -0.003 C 
ATOM     20  C   UNL     1     175.392 179.438 191.746  1.00  0.00     0.004 C 
ENDBRANCH  18  19
ENDBRANCH  17  18
ENDBRANCH  16  17
ENDBRANCH  15  16
ENDBRANCH  14  15
ENDBRANCH  13  14
ENDBRANCH   2  13
TORSDOF 15
ENDMDL
MODEL 9
REMARK VINA RESULT:    -1.457      2.089      3.702
REMARK INTER + INTRA:          -5.275
REMARK INTER:                  -2.495
REMARK INTRA:                  -2.781
REMARK UNBOUND:                -2.540
REMARK SMILES CCCCCCCCC=CCCCCCCCC(=O)[O-]
REMARK SMILES IDX 10 1 9 2 11 3 12 4 13 5 14 6 15 7 16 8 17 9 18 10 19 11
REMARK SMILES IDX 20 12 8 13 7 14 6 15 5 16 4 17 3 18 2 19 1 20
REMARK H PARENT
REMARK Flexibility Score: inf
ROOT
ATOM      1  C   UNL     1     174.340 177.086 193.693  1.00  0.00    -0.031 C 
ATOM      2  C   UNL     1     173.286 177.561 193.012  1.00  0.00    -0.031 C 
ENDROOT
BRANCH   1   3
ATOM      3  C   UNL     1     174.484 177.301 195.173  1.00  0.00     0.027 C 
BRANCH   3   4
ATOM      4  C   UNL     1     173.141 177.698 195.806  1.00  0.00     0.004 C 
BRANCH   4   5
ATOM      5  C   UNL     1     173.102 177.437 197.319  1.00  0.00     0.000 C 
BRANCH   5   6
ATOM      6  C   UNL     1     172.810 178.709 198.131  1.00  0.00     0.000 C 
BRANCH   6   7
ATOM      7  C   UNL     1     173.289 179.988 197.426  1.00  0.00     0.000 C 
BRANCH   7   8
ATOM      8  C   UNL     1     174.616 180.545 197.990  1.00  0.00     0.006 C 
BRANCH   8   9
ATOM      9  C   UNL     1     175.862 179.945 197.319  1.00  0.00     0.053 C 
BRANCH   9  10
ATOM     10  C   UNL     1     176.581 179.001 198.233  1.00  0.00     0.041 C 
ATOM     11  O   UNL     1     177.178 179.436 199.254  1.00  0.00    -0.550 OA
ATOM     12  O   UNL     1     176.612 177.642 197.946  1.00  0.00    -0.550 OA
ENDBRANCH   9  10
ENDBRANCH   8   9
ENDBRANCH   7   8
ENDBRANCH   6   7
ENDBRANCH   5   6
ENDBRANCH   4   5
ENDBRANCH   3   4
ENDBRANCH   1   3
BRANCH   2  13
ATOM     13  C   UNL     1     173.153 177.359 191.529  1.00  0.00     0.027 C 
BRANCH  13  14
ATOM     14  C   UNL     1     171.976 178.170 190.967  1.00  0.00     0.004 C 
BRANCH  14  15
ATOM     15  C   UNL     1     171.314 179.073 192.022  1.00  0.00     0.000 C 
BRANCH  15  16
ATOM     16  C   UNL     1     171.464 180.589 191.772  1.00  0.00     0.000 C 
BRANCH  16  17
ATOM     17  C   UNL     1     171.514 181.456 193.042  1.00  0.00    -0.000 C 
BRANCH  17  18
ATOM     18  C   UNL     1     172.499 180.917 194.093  1.00  0.00    -0.000 C 
BRANCH  18  19
ATOM     19  C   UNL     1     173.837 181.671 194.088  1.00  0.00    -0.003 C 
ATOM     20  C   UNL     1     175.021 180.768 193.744  1.00  0.00     0.004 C 
ENDBRANCH  18  19
ENDBRANCH  17  18
ENDBRANCH  16  17
ENDBRANCH  15  16
ENDBRANCH  14  15
ENDBRANCH  13  14
ENDBRANCH   2  13
TORSDOF 15
ENDMDL
