MODEL 1
REMARK VINA RESULT:    -4.381      0.000      0.000
REMARK INTER + INTRA:          -6.835
REMARK INTER:                  -6.687
REMARK INTRA:                  -0.149
REMARK UNBOUND:                -0.149
REMARK SMILES CC1=CCC[C@@H](C)C(=O)C[C@@H](C(C)C)C(=O)C1
REMARK SMILES IDX 8 1 9 2 6 3 7 4 5 5 4 6 3 7 2 8 1 9 10 11 11 12 15 13 16 14
REMARK SMILES IDX 17 15 12 17 13 18 14 19
REMARK H PARENT
REMARK Flexibility Score: 70.00
ROOT
ATOM      1  C   UNL     1     -12.902  11.287 -29.448  1.00  0.00     0.136 C 
ATOM      2  O   UNL     1     -12.001  10.490 -29.675  1.00  0.00    -0.299 OA
ENDROOT
BRANCH   1   3
ATOM      3  C   UNL     1     -13.349  11.538 -28.016  1.00  0.00     0.053 C 
ATOM      4  C   UNL     1     -12.256  11.181 -26.995  1.00  0.00     0.016 C 
BRANCH   3   5
ATOM      5  C   UNL     1     -14.675  10.817 -27.684  1.00  0.00     0.015 C 
BRANCH   5   6
ATOM      6  C   UNL     1     -15.850  11.765 -27.340  1.00  0.00     0.028 C 
BRANCH   6   7
ATOM      7  C   UNL     1     -17.016  11.538 -28.274  1.00  0.00    -0.028 C 
ATOM      8  C   UNL     1     -17.438  12.399 -29.232  1.00  0.00    -0.070 CG0
ATOM      9  C   UNL     1     -18.709  12.066 -29.971  1.00  0.00     0.039 C 
ATOM     10  G   UNL     1     -16.695  13.676 -29.599  1.00  0.00     0.000 G0
ENDBRANCH   6   7
ENDBRANCH   5   6
ENDBRANCH   3   5
ENDBRANCH   1   3
BRANCH   1  11
ATOM     11  C   UNL     1     -13.574  11.973 -30.617  1.00  0.00     0.087 C 
BRANCH  11  12
ATOM     12  C   UNL     1     -14.107  13.385 -30.255  1.00  0.00     0.066 C 
BRANCH  12  13
ATOM     13  C   UNL     1     -15.579  13.544 -30.621  1.00  0.00     0.140 C 
ATOM     14  O   UNL     1     -15.894  13.538 -31.802  1.00  0.00    -0.299 OA
BRANCH  13  15
ATOM     15  C   UNL     1     -16.698  13.684 -29.604  1.00  0.00     0.106 CG0
ATOM     16  G   UNL     1     -17.417  12.397 -29.229  1.00  0.00     0.000 G0
ENDBRANCH  13  15
ENDBRANCH  12  13
BRANCH  12  17
ATOM     17  C   UNL     1     -13.251  14.555 -30.836  1.00  0.00    -0.006 C 
ATOM     18  C   UNL     1     -13.962  15.921 -30.843  1.00  0.00     0.008 C 
ATOM     19  C   UNL     1     -12.734  14.232 -32.247  1.00  0.00     0.008 C 
ENDBRANCH  12  17
ENDBRANCH  11  12
ENDBRANCH   1  11
TORSDOF 1
ENDMDL
MODEL 2
REMARK VINA RESULT:    -4.149      1.646      3.801
REMARK INTER + INTRA:          -6.481
REMARK INTER:                  -6.221
REMARK INTRA:                  -0.260
REMARK UNBOUND:                -0.149
REMARK SMILES CC1=CCC[C@@H](C)C(=O)C[C@@H](C(C)C)C(=O)C1
REMARK SMILES IDX 8 1 9 2 6 3 7 4 5 5 4 6 3 7 2 8 1 9 10 11 11 12 15 13 16 14
REMARK SMILES IDX 17 15 12 17 13 18 14 19
REMARK H PARENT
REMARK Flexibility Score: 70.00
ROOT
ATOM      1  C   UNL     1     -13.829  13.792 -30.586  1.00  0.00     0.136 C 
ATOM      2  O   UNL     1     -13.676  14.999 -30.721  1.00  0.00    -0.299 OA
ENDROOT
BRANCH   1   3
ATOM      3  C   UNL     1     -13.877  12.891 -31.811  1.00  0.00     0.053 C 
ATOM      4  C   UNL     1     -12.786  13.245 -32.835  1.00  0.00     0.016 C 
BRANCH   3   5
ATOM      5  C   UNL     1     -15.275  12.879 -32.470  1.00  0.00     0.015 C 
BRANCH   5   6
ATOM      6  C   UNL     1     -16.339  13.726 -31.729  1.00  0.00     0.028 C 
BRANCH   6   7
ATOM      7  C   UNL     1     -17.553  12.891 -31.393  1.00  0.00    -0.028 C 
ATOM      8  C   UNL     1     -17.776  12.263 -30.213  1.00  0.00    -0.070 CG0
ATOM      9  C   UNL     1     -18.975  11.356 -30.112  1.00  0.00     0.039 C 
ATOM     10  G   UNL     1     -16.882  12.428 -28.993  1.00  0.00     0.000 G0
ENDBRANCH   6   7
ENDBRANCH   5   6
ENDBRANCH   3   5
ENDBRANCH   1   3
BRANCH   1  11
ATOM     11  C   UNL     1     -14.003  13.236 -29.190  1.00  0.00     0.087 C 
BRANCH  11  12
ATOM     12  C   UNL     1     -14.307  11.714 -29.187  1.00  0.00     0.066 C 
BRANCH  12  13
ATOM     13  C   UNL     1     -15.759  11.428 -28.815  1.00  0.00     0.140 C 
ATOM     14  O   UNL     1     -16.040  10.335 -28.346  1.00  0.00    -0.299 OA
BRANCH  13  15
ATOM     15  C   UNL     1     -16.888  12.432 -28.963  1.00  0.00     0.106 CG0
ATOM     16  G   UNL     1     -17.775  12.255 -30.186  1.00  0.00     0.000 G0
ENDBRANCH  13  15
ENDBRANCH  12  13
BRANCH  12  17
ATOM     17  C   UNL     1     -13.325  10.872 -28.312  1.00  0.00    -0.006 C 
ATOM     18  C   UNL     1     -12.886  11.560 -27.006  1.00  0.00     0.008 C 
ATOM     19  C   UNL     1     -12.086  10.437 -29.111  1.00  0.00     0.008 C 
ENDBRANCH  12  17
ENDBRANCH  11  12
ENDBRANCH   1  11
TORSDOF 1
ENDMDL
MODEL 3
REMARK VINA RESULT:    -3.819      2.035      4.303
REMARK INTER + INTRA:          -5.977
REMARK INTER:                  -5.853
REMARK INTRA:                  -0.123
REMARK UNBOUND:                -0.149
REMARK SMILES CC1=CCC[C@@H](C)C(=O)C[C@@H](C(C)C)C(=O)C1
REMARK SMILES IDX 8 1 9 2 6 3 7 4 5 5 4 6 3 7 2 8 1 9 10 11 11 12 15 13 16 14
REMARK SMILES IDX 17 15 12 17 13 18 14 19
REMARK H PARENT
REMARK Flexibility Score: 70.00
ROOT
ATOM      1  C   UNL     1     -15.789  11.827 -27.450  1.00  0.00     0.136 C 
ATOM      2  O   UNL     1     -15.914  12.032 -26.250  1.00  0.00    -0.299 OA
ENDROOT
BRANCH   1   3
ATOM      3  C   UNL     1     -14.709  10.880 -27.950  1.00  0.00     0.053 C 
ATOM      4  C   UNL     1     -14.227   9.919 -26.851  1.00  0.00     0.016 C 
BRANCH   3   5
ATOM      5  C   UNL     1     -13.521  11.635 -28.588  1.00  0.00     0.015 C 
BRANCH   5   6
ATOM      6  C   UNL     1     -13.205  11.216 -30.045  1.00  0.00     0.028 C 
BRANCH   6   7
ATOM      7  C   UNL     1     -12.918  12.426 -30.903  1.00  0.00    -0.028 C 
ATOM      8  C   UNL     1     -13.769  12.973 -31.806  1.00  0.00    -0.070 CG0
ATOM      9  C   UNL     1     -13.253  14.092 -32.674  1.00  0.00     0.039 C 
ATOM     10  G   UNL     1     -15.209  12.517 -31.983  1.00  0.00     0.000 G0
ENDBRANCH   6   7
ENDBRANCH   5   6
ENDBRANCH   3   5
ENDBRANCH   1   3
BRANCH   1  11
ATOM     11  C   UNL     1     -16.700  12.562 -28.408  1.00  0.00     0.087 C 
BRANCH  11  12
ATOM     12  C   UNL     1     -16.707  11.933 -29.827  1.00  0.00     0.066 C 
BRANCH  12  13
ATOM     13  C   UNL     1     -16.190  12.907 -30.881  1.00  0.00     0.140 C 
ATOM     14  O   UNL     1     -16.550  14.074 -30.828  1.00  0.00    -0.299 OA
BRANCH  13  15
ATOM     15  C   UNL     1     -15.224  12.527 -31.988  1.00  0.00     0.106 CG0
ATOM     16  G   UNL     1     -13.781  12.968 -31.789  1.00  0.00     0.000 G0
ENDBRANCH  13  15
ENDBRANCH  12  13
BRANCH  12  17
ATOM     17  C   UNL     1     -18.085  11.328 -30.246  1.00  0.00    -0.006 C 
ATOM     18  C   UNL     1     -19.294  12.233 -29.947  1.00  0.00     0.008 C 
ATOM     19  C   UNL     1     -18.308   9.941 -29.623  1.00  0.00     0.008 C 
ENDBRANCH  12  17
ENDBRANCH  11  12
ENDBRANCH   1  11
TORSDOF 1
ENDMDL
MODEL 4
REMARK VINA RESULT:    -3.786      1.564      3.645
REMARK INTER + INTRA:          -5.927
REMARK INTER:                  -6.125
REMARK INTRA:                   0.198
REMARK UNBOUND:                -0.149
REMARK SMILES CC1=CCC[C@@H](C)C(=O)C[C@@H](C(C)C)C(=O)C1
REMARK SMILES IDX 8 1 9 2 6 3 7 4 5 5 4 6 3 7 2 8 1 9 10 11 11 12 15 13 16 14
REMARK SMILES IDX 17 15 12 17 13 18 14 19
REMARK H PARENT
REMARK Flexibility Score: 70.00
ROOT
ATOM      1  C   UNL     1     -16.506  13.149 -30.981  1.00  0.00     0.136 C 
ATOM      2  O   UNL     1     -16.820  12.885 -32.135  1.00  0.00    -0.299 OA
ENDROOT
BRANCH   1   3
ATOM      3  C   UNL     1     -17.451  12.805 -29.840  1.00  0.00     0.053 C 
ATOM      4  C   UNL     1     -17.109  13.571 -28.552  1.00  0.00     0.016 C 
BRANCH   3   5
ATOM      5  C   UNL     1     -17.521  11.283 -29.580  1.00  0.00     0.015 C 
BRANCH   5   6
ATOM      6  C   UNL     1     -16.175  10.540 -29.768  1.00  0.00     0.028 C 
BRANCH   6   7
ATOM      7  C   UNL     1     -15.503  10.299 -28.436  1.00  0.00    -0.028 C 
ATOM      8  C   UNL     1     -14.449  10.997 -27.947  1.00  0.00    -0.070 CG0
ATOM      9  C   UNL     1     -13.820  10.519 -26.663  1.00  0.00     0.039 C 
ATOM     10  G   UNL     1     -13.875  12.233 -28.623  1.00  0.00     0.000 G0
ENDBRANCH   6   7
ENDBRANCH   5   6
ENDBRANCH   3   5
ENDBRANCH   1   3
BRANCH   1  11
ATOM     11  C   UNL     1     -15.190  13.852 -30.732  1.00  0.00     0.087 C 
BRANCH  11  12
ATOM     12  C   UNL     1     -13.968  13.008 -31.185  1.00  0.00     0.066 C 
BRANCH  12  13
ATOM     13  C   UNL     1     -13.457  12.108 -30.065  1.00  0.00     0.140 C 
ATOM     14  O   UNL     1     -12.654  11.227 -30.340  1.00  0.00    -0.299 OA
BRANCH  13  15
ATOM     15  C   UNL     1     -13.860  12.250 -28.608  1.00  0.00     0.106 CG0
ATOM     16  G   UNL     1     -14.454  11.007 -27.962  1.00  0.00     0.000 G0
ENDBRANCH  13  15
ENDBRANCH  12  13
BRANCH  12  17
ATOM     17  C   UNL     1     -12.809  13.852 -31.804  1.00  0.00    -0.006 C 
ATOM     18  C   UNL     1     -13.114  15.356 -31.932  1.00  0.00     0.008 C 
ATOM     19  C   UNL     1     -12.367  13.294 -33.166  1.00  0.00     0.008 C 
ENDBRANCH  12  17
ENDBRANCH  11  12
ENDBRANCH   1  11
TORSDOF 1
ENDMDL
MODEL 5
REMARK VINA RESULT:    -3.668      1.933      4.959
REMARK INTER + INTRA:          -5.746
REMARK INTER:                  -6.262
REMARK INTRA:                   0.515
REMARK UNBOUND:                -0.149
REMARK SMILES CC1=CCC[C@@H](C)C(=O)C[C@@H](C(C)C)C(=O)C1
REMARK SMILES IDX 8 1 9 2 6 3 7 4 5 5 4 6 3 7 2 8 1 9 10 11 11 12 15 13 16 14
REMARK SMILES IDX 17 15 12 17 13 18 14 19
REMARK H PARENT
REMARK Flexibility Score: 70.00
ROOT
ATOM      1  C   UNL     1     -15.577  13.341 -30.966  1.00  0.00     0.136 C 
ATOM      2  O   UNL     1     -16.360  14.049 -31.587  1.00  0.00    -0.299 OA
ENDROOT
BRANCH   1   3
ATOM      3  C   UNL     1     -14.144  13.802 -30.751  1.00  0.00     0.053 C 
ATOM      4  C   UNL     1     -13.865  15.159 -31.417  1.00  0.00     0.016 C 
BRANCH   3   5
ATOM      5  C   UNL     1     -13.117  12.739 -31.202  1.00  0.00     0.015 C 
BRANCH   5   6
ATOM      6  C   UNL     1     -13.278  11.361 -30.515  1.00  0.00     0.028 C 
BRANCH   6   7
ATOM      7  C   UNL     1     -12.758  11.403 -29.096  1.00  0.00    -0.028 C 
ATOM      8  C   UNL     1     -13.484  11.138 -27.982  1.00  0.00    -0.070 CG0
ATOM      9  C   UNL     1     -12.833  11.372 -26.643  1.00  0.00     0.039 C 
ATOM     10  G   UNL     1     -14.912  10.617 -28.017  1.00  0.00     0.000 G0
ENDBRANCH   6   7
ENDBRANCH   5   6
ENDBRANCH   3   5
ENDBRANCH   1   3
BRANCH   1  11
ATOM     11  C   UNL     1     -16.060  11.999 -30.461  1.00  0.00     0.087 C 
BRANCH  11  12
ATOM     12  C   UNL     1     -16.849  12.111 -29.130  1.00  0.00     0.066 C 
BRANCH  12  13
ATOM     13  C   UNL     1     -16.009  11.667 -27.936  1.00  0.00     0.140 C 
ATOM     14  O   UNL     1     -16.234  12.166 -26.843  1.00  0.00    -0.299 OA
BRANCH  13  15
ATOM     15  C   UNL     1     -14.917  10.615 -28.009  1.00  0.00     0.106 CG0
ATOM     16  G   UNL     1     -13.489  11.139 -27.976  1.00  0.00     0.000 G0
ENDBRANCH  13  15
ENDBRANCH  12  13
BRANCH  12  17
ATOM     17  C   UNL     1     -18.231  11.384 -29.147  1.00  0.00    -0.006 C 
ATOM     18  C   UNL     1     -18.168   9.906 -29.574  1.00  0.00     0.008 C 
ATOM     19  C   UNL     1     -19.253  12.132 -30.018  1.00  0.00     0.008 C 
ENDBRANCH  12  17
ENDBRANCH  11  12
ENDBRANCH   1  11
TORSDOF 1
ENDMDL
MODEL 6
REMARK VINA RESULT:    -3.639      9.681     11.449
REMARK INTER + INTRA:          -5.702
REMARK INTER:                  -5.727
REMARK INTRA:                   0.024
REMARK UNBOUND:                -0.149
REMARK SMILES CC1=CCC[C@@H](C)C(=O)C[C@@H](C(C)C)C(=O)C1
REMARK SMILES IDX 8 1 9 2 6 3 7 4 5 5 4 6 3 7 2 8 1 9 10 11 11 12 15 13 16 14
REMARK SMILES IDX 17 15 12 17 13 18 14 19
REMARK H PARENT
REMARK Flexibility Score: 70.00
ROOT
ATOM      1  C   UNL     1     -24.551  10.904 -29.452  1.00  0.00     0.136 C 
ATOM      2  O   UNL     1     -24.784   9.983 -30.224  1.00  0.00    -0.299 OA
ENDROOT
BRANCH   1   3
ATOM      3  C   UNL     1     -24.496  10.645 -27.955  1.00  0.00     0.053 C 
ATOM      4  C   UNL     1     -23.198   9.934 -27.536  1.00  0.00     0.016 C 
BRANCH   3   5
ATOM      5  C   UNL     1     -25.738   9.876 -27.450  1.00  0.00     0.015 C 
BRANCH   5   6
ATOM      6  C   UNL     1     -27.066  10.666 -27.558  1.00  0.00     0.028 C 
BRANCH   6   7
ATOM      7  C   UNL     1     -27.940  10.102 -28.654  1.00  0.00    -0.028 C 
ATOM      8  C   UNL     1     -28.479  10.812 -29.676  1.00  0.00    -0.070 CG0
ATOM      9  C   UNL     1     -29.444  10.105 -30.594  1.00  0.00     0.039 C 
ATOM     10  G   UNL     1     -28.161  12.276 -29.940  1.00  0.00     0.000 G0
ENDBRANCH   6   7
ENDBRANCH   5   6
ENDBRANCH   3   5
ENDBRANCH   1   3
BRANCH   1  11
ATOM     11  C   UNL     1     -24.361  12.293 -30.020  1.00  0.00     0.087 C 
BRANCH  11  12
ATOM     12  C   UNL     1     -25.634  13.172 -29.889  1.00  0.00     0.066 C 
BRANCH  12  13
ATOM     13  C   UNL     1     -26.827  12.550 -30.609  1.00  0.00     0.140 C 
ATOM     14  O   UNL     1     -26.701  12.228 -31.781  1.00  0.00    -0.299 OA
BRANCH  13  15
ATOM     15  C   UNL     1     -28.168  12.276 -29.953  1.00  0.00     0.106 CG0
ATOM     16  G   UNL     1     -28.480  10.815 -29.670  1.00  0.00     0.000 G0
ENDBRANCH  13  15
ENDBRANCH  12  13
BRANCH  12  17
ATOM     17  C   UNL     1     -25.427  14.658 -30.320  1.00  0.00    -0.006 C 
ATOM     18  C   UNL     1     -26.595  15.257 -31.124  1.00  0.00     0.008 C 
ATOM     19  C   UNL     1     -24.113  14.845 -31.096  1.00  0.00     0.008 C 
ENDBRANCH  12  17
ENDBRANCH  11  12
ENDBRANCH   1  11
TORSDOF 1
ENDMDL
MODEL 7
REMARK VINA RESULT:    -2.817      9.560     12.820
REMARK INTER + INTRA:          -4.447
REMARK INTER:                  -5.002
REMARK INTRA:                   0.555
REMARK UNBOUND:                -0.149
REMARK SMILES CC1=CCC[C@@H](C)C(=O)C[C@@H](C(C)C)C(=O)C1
REMARK SMILES IDX 8 1 9 2 6 3 7 4 5 5 4 6 3 7 2 8 1 9 10 11 11 12 15 13 16 14
REMARK SMILES IDX 17 15 12 17 13 18 14 19
REMARK H PARENT
REMARK Flexibility Score: 70.00
ROOT
ATOM      1  C   UNL     1     -28.205  12.502 -28.773  1.00  0.00     0.136 C 
ATOM      2  O   UNL     1     -28.782  12.523 -27.694  1.00  0.00    -0.299 OA
ENDROOT
BRANCH   1   3
ATOM      3  C   UNL     1     -29.005  12.347 -30.058  1.00  0.00     0.053 C 
ATOM      4  C   UNL     1     -29.839  13.599 -30.377  1.00  0.00     0.016 C 
BRANCH   3   5
ATOM      5  C   UNL     1     -29.888  11.079 -30.045  1.00  0.00     0.015 C 
BRANCH   5   6
ATOM      6  C   UNL     1     -29.293   9.877 -30.818  1.00  0.00     0.028 C 
BRANCH   6   7
ATOM      7  C   UNL     1     -28.592  10.339 -32.075  1.00  0.00    -0.028 C 
ATOM      8  C   UNL     1     -27.250  10.409 -32.249  1.00  0.00    -0.070 CG0
ATOM      9  C   UNL     1     -26.734  11.032 -33.521  1.00  0.00     0.039 C 
ATOM     10  G   UNL     1     -26.244   9.892 -31.231  1.00  0.00     0.000 G0
ENDBRANCH   6   7
ENDBRANCH   5   6
ENDBRANCH   3   5
ENDBRANCH   1   3
BRANCH   1  11
ATOM     11  C   UNL     1     -26.695  12.593 -28.789  1.00  0.00     0.087 C 
BRANCH  11  12
ATOM     12  C   UNL     1     -26.098  12.358 -30.202  1.00  0.00     0.066 C 
BRANCH  12  13
ATOM     13  C   UNL     1     -25.580  10.932 -30.367  1.00  0.00     0.140 C 
ATOM     14  O   UNL     1     -24.589  10.591 -29.738  1.00  0.00    -0.299 OA
BRANCH  13  15
ATOM     15  C   UNL     1     -26.238   9.886 -31.249  1.00  0.00     0.106 CG0
ATOM     16  G   UNL     1     -27.230  10.413 -32.274  1.00  0.00     0.000 G0
ENDBRANCH  13  15
ENDBRANCH  12  13
BRANCH  12  17
ATOM     17  C   UNL     1     -25.012  13.402 -30.614  1.00  0.00    -0.006 C 
ATOM     18  C   UNL     1     -23.631  13.171 -29.975  1.00  0.00     0.008 C 
ATOM     19  C   UNL     1     -25.477  14.841 -30.338  1.00  0.00     0.008 C 
ENDBRANCH  12  17
ENDBRANCH  11  12
ENDBRANCH   1  11
TORSDOF 1
ENDMDL
MODEL 8
REMARK VINA RESULT:    -2.768      8.640     11.890
REMARK INTER + INTRA:          -4.372
REMARK INTER:                  -5.084
REMARK INTRA:                   0.712
REMARK UNBOUND:                -0.149
REMARK SMILES CC1=CCC[C@@H](C)C(=O)C[C@@H](C(C)C)C(=O)C1
REMARK SMILES IDX 8 1 9 2 6 3 7 4 5 5 4 6 3 7 2 8 1 9 10 11 11 12 15 13 16 14
REMARK SMILES IDX 17 15 12 17 13 18 14 19
REMARK H PARENT
REMARK Flexibility Score: 70.00
ROOT
ATOM      1  C   UNL     1     -24.468  10.939 -29.530  1.00  0.00     0.136 C 
ATOM      2  O   UNL     1     -24.165  10.591 -28.396  1.00  0.00    -0.299 OA
ENDROOT
BRANCH   1   3
ATOM      3  C   UNL     1     -23.863  12.203 -30.122  1.00  0.00     0.053 C 
ATOM      4  C   UNL     1     -22.338  12.260 -29.934  1.00  0.00     0.016 C 
BRANCH   3   5
ATOM      5  C   UNL     1     -24.538  13.482 -29.579  1.00  0.00     0.015 C 
BRANCH   5   6
ATOM      6  C   UNL     1     -24.882  14.534 -30.662  1.00  0.00     0.028 C 
BRANCH   6   7
ATOM      7  C   UNL     1     -26.375  14.746 -30.752  1.00  0.00    -0.028 C 
ATOM      8  C   UNL     1     -27.266  13.873 -31.284  1.00  0.00    -0.070 CG0
ATOM      9  C   UNL     1     -28.699  14.320 -31.417  1.00  0.00     0.039 C 
ATOM     10  G   UNL     1     -26.893  12.473 -31.748  1.00  0.00     0.000 G0
ENDBRANCH   6   7
ENDBRANCH   5   6
ENDBRANCH   3   5
ENDBRANCH   1   3
BRANCH   1  11
ATOM     11  C   UNL     1     -25.474  10.111 -30.296  1.00  0.00     0.087 C 
BRANCH  11  12
ATOM     12  C   UNL     1     -26.941  10.479 -29.947  1.00  0.00     0.066 C 
BRANCH  12  13
ATOM     13  C   UNL     1     -27.590  11.317 -31.044  1.00  0.00     0.140 C 
ATOM     14  O   UNL     1     -28.745  11.073 -31.362  1.00  0.00    -0.299 OA
BRANCH  13  15
ATOM     15  C   UNL     1     -26.901  12.466 -31.757  1.00  0.00     0.106 CG0
ATOM     16  G   UNL     1     -27.269  13.861 -31.274  1.00  0.00     0.000 G0
ENDBRANCH  13  15
ENDBRANCH  12  13
BRANCH  12  17
ATOM     17  C   UNL     1     -27.110  11.153 -28.548  1.00  0.00    -0.006 C 
ATOM     18  C   UNL     1     -27.226  10.164 -27.374  1.00  0.00     0.008 C 
ATOM     19  C   UNL     1     -28.301  12.124 -28.528  1.00  0.00     0.008 C 
ENDBRANCH  12  17
ENDBRANCH  11  12
ENDBRANCH   1  11
TORSDOF 1
ENDMDL
MODEL 9
REMARK VINA RESULT:    -2.697      8.773     12.009
REMARK INTER + INTRA:          -4.265
REMARK INTER:                  -4.345
REMARK INTRA:                   0.080
REMARK UNBOUND:                -0.149
REMARK SMILES CC1=CCC[C@@H](C)C(=O)C[C@@H](C(C)C)C(=O)C1
REMARK SMILES IDX 8 1 9 2 6 3 7 4 5 5 4 6 3 7 2 8 1 9 10 11 11 12 15 13 16 14
REMARK SMILES IDX 17 15 12 17 13 18 14 19
REMARK H PARENT
REMARK Flexibility Score: 70.00
ROOT
ATOM      1  C   UNL     1     -27.080  13.871 -31.305  1.00  0.00     0.136 C 
ATOM      2  O   UNL     1     -27.828  14.556 -31.992  1.00  0.00    -0.299 OA
ENDROOT
BRANCH   1   3
ATOM      3  C   UNL     1     -25.945  14.527 -30.535  1.00  0.00     0.053 C 
ATOM      4  C   UNL     1     -25.989  16.061 -30.630  1.00  0.00     0.016 C 
BRANCH   3   5
ATOM      5  C   UNL     1     -24.562  13.983 -30.961  1.00  0.00     0.015 C 
BRANCH   5   6
ATOM      6  C   UNL     1     -23.605  13.678 -29.783  1.00  0.00     0.028 C 
BRANCH   6   7
ATOM      7  C   UNL     1     -22.930  12.339 -29.972  1.00  0.00    -0.028 C 
ATOM      8  C   UNL     1     -23.385  11.152 -29.501  1.00  0.00    -0.070 CG0
ATOM      9  C   UNL     1     -22.502   9.942 -29.664  1.00  0.00     0.039 C 
ATOM     10  G   UNL     1     -24.737  10.982 -28.823  1.00  0.00     0.000 G0
ENDBRANCH   6   7
ENDBRANCH   5   6
ENDBRANCH   3   5
ENDBRANCH   1   3
BRANCH   1  11
ATOM     11  C   UNL     1     -27.293  12.374 -31.276  1.00  0.00     0.087 C 
BRANCH  11  12
ATOM     12  C   UNL     1     -27.110  11.772 -29.858  1.00  0.00     0.066 C 
BRANCH  12  13
ATOM     13  C   UNL     1     -25.922  10.817 -29.798  1.00  0.00     0.140 C 
ATOM     14  O   UNL     1     -25.886   9.876 -30.577  1.00  0.00    -0.299 OA
BRANCH  13  15
ATOM     15  C   UNL     1     -24.753  10.974 -28.842  1.00  0.00     0.106 CG0
ATOM     16  G   UNL     1     -23.389  11.161 -29.490  1.00  0.00     0.000 G0
ENDBRANCH  13  15
ENDBRANCH  12  13
BRANCH  12  17
ATOM     17  C   UNL     1     -28.399  11.105 -29.280  1.00  0.00    -0.006 C 
ATOM     18  C   UNL     1     -29.064  10.084 -30.220  1.00  0.00     0.008 C 
ATOM     19  C   UNL     1     -29.432  12.156 -28.841  1.00  0.00     0.008 C 
ENDBRANCH  12  17
ENDBRANCH  11  12
ENDBRANCH   1  11
TORSDOF 1
ENDMDL
