MODEL 1
REMARK VINA RESULT:    -5.319      0.000      0.000
REMARK INTER + INTRA:          -9.569
REMARK INTER:                  -8.428
REMARK INTRA:                  -1.141
REMARK UNBOUND:                -1.141
REMARK SMILES CCCCCCCCCCCC(=O)[O-]
REMARK SMILES IDX 7 1 8 2 9 3 10 4 11 5 12 6 13 7 14 8 6 9 5 10 4 11 3 12 2 13
REMARK SMILES IDX 1 14
REMARK H PARENT
REMARK Flexibility Score: inf
ROOT
ATOM      1  C   UNL     1      -5.448 -30.248 -53.722  1.00  0.00     0.000 C 
ENDROOT
BRANCH   1   2
ATOM      2  C   UNL     1      -5.089 -31.715 -53.431  1.00  0.00     0.000 C 
BRANCH   2   3
ATOM      3  C   UNL     1      -5.557 -32.173 -52.038  1.00  0.00     0.000 C 
BRANCH   3   4
ATOM      4  C   UNL     1      -4.384 -32.453 -51.085  1.00  0.00     0.006 C 
BRANCH   4   5
ATOM      5  C   UNL     1      -3.070 -32.726 -51.828  1.00  0.00     0.053 C 
BRANCH   5   6
ATOM      6  C   UNL     1      -1.924 -32.763 -50.865  1.00  0.00     0.041 C 
ATOM      7  O   UNL     1      -1.093 -31.818 -50.833  1.00  0.00    -0.550 OA
ATOM      8  O   UNL     1      -1.803 -33.818 -49.969  1.00  0.00    -0.550 OA
ENDBRANCH   5   6
ENDBRANCH   4   5
ENDBRANCH   3   4
ENDBRANCH   2   3
ENDBRANCH   1   2
BRANCH   1   9
ATOM      9  C   UNL     1      -4.280 -29.286 -53.439  1.00  0.00     0.000 C 
BRANCH   9  10
ATOM     10  C   UNL     1      -4.382 -28.625 -52.054  1.00  0.00    -0.000 C 
BRANCH  10  11
ATOM     11  C   UNL     1      -5.597 -27.691 -51.932  1.00  0.00    -0.000 C 
BRANCH  11  12
ATOM     12  C   UNL     1      -6.248 -27.747 -50.540  1.00  0.00    -0.000 C 
BRANCH  12  13
ATOM     13  C   UNL     1      -6.432 -29.184 -50.029  1.00  0.00    -0.003 C 
ATOM     14  C   UNL     1      -6.482 -29.221 -48.504  1.00  0.00     0.004 C 
ENDBRANCH  12  13
ENDBRANCH  11  12
ENDBRANCH  10  11
ENDBRANCH   9  10
ENDBRANCH   1   9
TORSDOF 10
ENDMDL
MODEL 2
REMARK VINA RESULT:    -5.239      2.774      5.396
REMARK INTER + INTRA:          -9.443
REMARK INTER:                  -8.401
REMARK INTRA:                  -1.042
REMARK UNBOUND:                -1.141
REMARK SMILES CCCCCCCCCCCC(=O)[O-]
REMARK SMILES IDX 7 1 8 2 9 3 10 4 11 5 12 6 13 7 14 8 6 9 5 10 4 11 3 12 2 13
REMARK SMILES IDX 1 14
REMARK H PARENT
REMARK Flexibility Score: inf
ROOT
ATOM      1  C   UNL     1      -7.092 -29.618 -49.681  1.00  0.00     0.000 C 
ENDROOT
BRANCH   1   2
ATOM      2  C   UNL     1      -5.855 -28.886 -50.228  1.00  0.00     0.000 C 
BRANCH   2   3
ATOM      3  C   UNL     1      -6.209 -27.545 -50.896  1.00  0.00     0.000 C 
BRANCH   3   4
ATOM      4  C   UNL     1      -5.802 -27.499 -52.377  1.00  0.00     0.006 C 
BRANCH   4   5
ATOM      5  C   UNL     1      -5.208 -28.824 -52.870  1.00  0.00     0.053 C 
BRANCH   5   6
ATOM      6  C   UNL     1      -5.532 -29.036 -54.316  1.00  0.00     0.041 C 
ATOM      7  O   UNL     1      -6.139 -28.144 -54.966  1.00  0.00    -0.550 OA
ATOM      8  O   UNL     1      -5.120 -30.196 -54.958  1.00  0.00    -0.550 OA
ENDBRANCH   5   6
ENDBRANCH   4   5
ENDBRANCH   3   4
ENDBRANCH   2   3
ENDBRANCH   1   2
BRANCH   1   9
ATOM      9  C   UNL     1      -6.997 -31.146 -49.849  1.00  0.00     0.000 C 
BRANCH   9  10
ATOM     10  C   UNL     1      -5.593 -31.607 -50.271  1.00  0.00    -0.000 C 
BRANCH  10  11
ATOM     11  C   UNL     1      -5.585 -32.294 -51.648  1.00  0.00    -0.000 C 
BRANCH  11  12
ATOM     12  C   UNL     1      -4.174 -32.393 -52.250  1.00  0.00    -0.000 C 
BRANCH  12  13
ATOM     13  C   UNL     1      -3.075 -32.463 -51.179  1.00  0.00    -0.003 C 
ATOM     14  C   UNL     1      -2.642 -33.905 -50.930  1.00  0.00     0.004 C 
ENDBRANCH  12  13
ENDBRANCH  11  12
ENDBRANCH  10  11
ENDBRANCH   9  10
ENDBRANCH   1   9
TORSDOF 10
ENDMDL
MODEL 3
REMARK VINA RESULT:    -5.167      2.977      5.323
REMARK INTER + INTRA:          -9.329
REMARK INTER:                  -8.056
REMARK INTRA:                  -1.273
REMARK UNBOUND:                -1.141
REMARK SMILES CCCCCCCCCCCC(=O)[O-]
REMARK SMILES IDX 7 1 8 2 9 3 10 4 11 5 12 6 13 7 14 8 6 9 5 10 4 11 3 12 2 13
REMARK SMILES IDX 1 14
REMARK H PARENT
REMARK Flexibility Score: inf
ROOT
ATOM      1  C   UNL     1      -4.631 -32.368 -51.993  1.00  0.00     0.000 C 
ENDROOT
BRANCH   1   2
ATOM      2  C   UNL     1      -5.561 -31.448 -51.184  1.00  0.00     0.000 C 
BRANCH   2   3
ATOM      3  C   UNL     1      -5.543 -29.995 -51.689  1.00  0.00     0.000 C 
BRANCH   3   4
ATOM      4  C   UNL     1      -4.160 -29.568 -52.205  1.00  0.00     0.006 C 
BRANCH   4   5
ATOM      5  C   UNL     1      -4.239 -28.713 -53.476  1.00  0.00     0.053 C 
BRANCH   5   6
ATOM      6  C   UNL     1      -5.231 -29.295 -54.435  1.00  0.00     0.041 C 
ATOM      7  O   UNL     1      -6.256 -28.640 -54.761  1.00  0.00    -0.550 OA
ATOM      8  O   UNL     1      -4.997 -30.538 -55.007  1.00  0.00    -0.550 OA
ENDBRANCH   5   6
ENDBRANCH   4   5
ENDBRANCH   3   4
ENDBRANCH   2   3
ENDBRANCH   1   2
BRANCH   1   9
ATOM      9  C   UNL     1      -3.635 -33.132 -51.102  1.00  0.00     0.000 C 
BRANCH   9  10
ATOM     10  C   UNL     1      -2.270 -33.334 -51.781  1.00  0.00    -0.000 C 
BRANCH  10  11
ATOM     11  C   UNL     1      -2.066 -32.402 -52.988  1.00  0.00    -0.000 C 
BRANCH  11  12
ATOM     12  C   UNL     1      -0.826 -31.505 -52.837  1.00  0.00    -0.000 C 
BRANCH  12  13
ATOM     13  C   UNL     1      -0.636 -30.991 -51.403  1.00  0.00    -0.003 C 
ATOM     14  C   UNL     1      -0.539 -29.468 -51.374  1.00  0.00     0.004 C 
ENDBRANCH  12  13
ENDBRANCH  11  12
ENDBRANCH  10  11
ENDBRANCH   9  10
ENDBRANCH   1   9
TORSDOF 10
ENDMDL
MODEL 4
REMARK VINA RESULT:    -5.049      3.254      5.347
REMARK INTER + INTRA:          -9.142
REMARK INTER:                  -7.930
REMARK INTRA:                  -1.212
REMARK UNBOUND:                -1.141
REMARK SMILES CCCCCCCCCCCC(=O)[O-]
REMARK SMILES IDX 7 1 8 2 9 3 10 4 11 5 12 6 13 7 14 8 6 9 5 10 4 11 3 12 2 13
REMARK SMILES IDX 1 14
REMARK H PARENT
REMARK Flexibility Score: inf
ROOT
ATOM      1  C   UNL     1      -2.637 -32.719 -53.124  1.00  0.00     0.000 C 
ENDROOT
BRANCH   1   2
ATOM      2  C   UNL     1      -3.096 -32.860 -51.663  1.00  0.00     0.000 C 
BRANCH   2   3
ATOM      3  C   UNL     1      -4.473 -32.219 -51.412  1.00  0.00     0.000 C 
BRANCH   3   4
ATOM      4  C   UNL     1      -5.209 -31.874 -52.716  1.00  0.00     0.006 C 
BRANCH   4   5
ATOM      5  C   UNL     1      -5.301 -30.363 -52.962  1.00  0.00     0.053 C 
BRANCH   5   6
ATOM      6  C   UNL     1      -5.312 -30.073 -54.431  1.00  0.00     0.041 C 
ATOM      7  O   UNL     1      -5.576 -28.914 -54.846  1.00  0.00    -0.550 OA
ATOM      8  O   UNL     1      -4.981 -31.071 -55.338  1.00  0.00    -0.550 OA
ENDBRANCH   5   6
ENDBRANCH   4   5
ENDBRANCH   3   4
ENDBRANCH   2   3
ENDBRANCH   1   2
BRANCH   1   9
ATOM      9  C   UNL     1      -1.180 -33.173 -53.333  1.00  0.00     0.000 C 
BRANCH   9  10
ATOM     10  C   UNL     1      -0.259 -32.747 -52.178  1.00  0.00    -0.000 C 
BRANCH  10  11
ATOM     11  C   UNL     1       0.786 -31.703 -52.608  1.00  0.00    -0.000 C 
BRANCH  11  12
ATOM     12  C   UNL     1       0.179 -30.303 -52.793  1.00  0.00    -0.000 C 
BRANCH  12  13
ATOM     13  C   UNL     1      -0.766 -29.909 -51.647  1.00  0.00    -0.003 C 
ATOM     14  C   UNL     1      -1.986 -29.159 -52.175  1.00  0.00     0.004 C 
ENDBRANCH  12  13
ENDBRANCH  11  12
ENDBRANCH  10  11
ENDBRANCH   9  10
ENDBRANCH   1   9
TORSDOF 10
ENDMDL
MODEL 5
REMARK VINA RESULT:    -5.041      3.252      5.417
REMARK INTER + INTRA:          -9.128
REMARK INTER:                  -8.086
REMARK INTRA:                  -1.042
REMARK UNBOUND:                -1.141
REMARK SMILES CCCCCCCCCCCC(=O)[O-]
REMARK SMILES IDX 7 1 8 2 9 3 10 4 11 5 12 6 13 7 14 8 6 9 5 10 4 11 3 12 2 13
REMARK SMILES IDX 1 14
REMARK H PARENT
REMARK Flexibility Score: inf
ROOT
ATOM      1  C   UNL     1      -2.298 -33.741 -51.702  1.00  0.00     0.000 C 
ENDROOT
BRANCH   1   2
ATOM      2  C   UNL     1      -3.394 -33.027 -50.893  1.00  0.00     0.000 C 
BRANCH   2   3
ATOM      3  C   UNL     1      -4.305 -32.152 -51.774  1.00  0.00     0.000 C 
BRANCH   3   4
ATOM      4  C   UNL     1      -5.691 -31.930 -51.149  1.00  0.00     0.006 C 
BRANCH   4   5
ATOM      5  C   UNL     1      -5.916 -30.478 -50.707  1.00  0.00     0.053 C 
BRANCH   5   6
ATOM      6  C   UNL     1      -7.068 -30.395 -49.756  1.00  0.00     0.041 C 
ATOM      7  O   UNL     1      -7.484 -29.273 -49.361  1.00  0.00    -0.550 OA
ATOM      8  O   UNL     1      -7.715 -31.553 -49.344  1.00  0.00    -0.550 OA
ENDBRANCH   5   6
ENDBRANCH   4   5
ENDBRANCH   3   4
ENDBRANCH   2   3
ENDBRANCH   1   2
BRANCH   1   9
ATOM      9  C   UNL     1      -2.101 -33.129 -53.100  1.00  0.00     0.000 C 
BRANCH   9  10
ATOM     10  C   UNL     1      -0.619 -32.927 -53.453  1.00  0.00    -0.000 C 
BRANCH  10  11
ATOM     11  C   UNL     1      -0.168 -31.464 -53.300  1.00  0.00    -0.000 C 
BRANCH  11  12
ATOM     12  C   UNL     1       0.356 -31.152 -51.889  1.00  0.00    -0.000 C 
BRANCH  12  13
ATOM     13  C   UNL     1      -0.388 -29.985 -51.224  1.00  0.00    -0.003 C 
ATOM     14  C   UNL     1      -1.586 -29.549 -52.062  1.00  0.00     0.004 C 
ENDBRANCH  12  13
ENDBRANCH  11  12
ENDBRANCH  10  11
ENDBRANCH   9  10
ENDBRANCH   1   9
TORSDOF 10
ENDMDL
MODEL 6
REMARK VINA RESULT:    -5.030      1.055      1.786
REMARK INTER + INTRA:          -9.111
REMARK INTER:                  -7.721
REMARK INTRA:                  -1.390
REMARK UNBOUND:                -1.141
REMARK SMILES CCCCCCCCCCCC(=O)[O-]
REMARK SMILES IDX 7 1 8 2 9 3 10 4 11 5 12 6 13 7 14 8 6 9 5 10 4 11 3 12 2 13
REMARK SMILES IDX 1 14
REMARK H PARENT
REMARK Flexibility Score: inf
ROOT
ATOM      1  C   UNL     1      -5.160 -31.619 -53.765  1.00  0.00     0.000 C 
ENDROOT
BRANCH   1   2
ATOM      2  C   UNL     1      -5.437 -32.100 -52.331  1.00  0.00     0.000 C 
BRANCH   2   3
ATOM      3  C   UNL     1      -4.145 -32.353 -51.532  1.00  0.00     0.000 C 
BRANCH   3   4
ATOM      4  C   UNL     1      -2.890 -32.326 -52.418  1.00  0.00     0.006 C 
BRANCH   4   5
ATOM      5  C   UNL     1      -1.908 -31.216 -52.021  1.00  0.00     0.053 C 
BRANCH   5   6
ATOM      6  C   UNL     1      -0.670 -31.804 -51.422  1.00  0.00     0.041 C 
ATOM      7  O   UNL     1      -0.610 -33.038 -51.174  1.00  0.00    -0.550 OA
ATOM      8  O   UNL     1       0.437 -31.000 -51.184  1.00  0.00    -0.550 OA
ENDBRANCH   5   6
ENDBRANCH   4   5
ENDBRANCH   3   4
ENDBRANCH   2   3
ENDBRANCH   1   2
BRANCH   1   9
ATOM      9  C   UNL     1      -5.635 -30.175 -54.007  1.00  0.00     0.000 C 
BRANCH   9  10
ATOM     10  C   UNL     1      -4.553 -29.134 -53.679  1.00  0.00    -0.000 C 
BRANCH  10  11
ATOM     11  C   UNL     1      -5.042 -28.064 -52.688  1.00  0.00    -0.000 C 
BRANCH  11  12
ATOM     12  C   UNL     1      -4.945 -28.526 -51.225  1.00  0.00    -0.000 C 
BRANCH  12  13
ATOM     13  C   UNL     1      -6.274 -28.387 -50.469  1.00  0.00    -0.003 C 
ATOM     14  C   UNL     1      -6.608 -29.667 -49.706  1.00  0.00     0.004 C 
ENDBRANCH  12  13
ENDBRANCH  11  12
ENDBRANCH  10  11
ENDBRANCH   9  10
ENDBRANCH   1   9
TORSDOF 10
ENDMDL
MODEL 7
REMARK VINA RESULT:    -5.010      3.115      5.789
REMARK INTER + INTRA:          -9.079
REMARK INTER:                  -7.814
REMARK INTRA:                  -1.265
REMARK UNBOUND:                -1.141
REMARK SMILES CCCCCCCCCCCC(=O)[O-]
REMARK SMILES IDX 7 1 8 2 9 3 10 4 11 5 12 6 13 7 14 8 6 9 5 10 4 11 3 12 2 13
REMARK SMILES IDX 1 14
REMARK H PARENT
REMARK Flexibility Score: inf
ROOT
ATOM      1  C   UNL     1      -0.519 -29.755 -51.313  1.00  0.00     0.000 C 
ENDROOT
BRANCH   1   2
ATOM      2  C   UNL     1      -0.740 -28.841 -52.530  1.00  0.00     0.000 C 
BRANCH   2   3
ATOM      3  C   UNL     1      -2.223 -28.489 -52.744  1.00  0.00     0.000 C 
BRANCH   3   4
ATOM      4  C   UNL     1      -3.158 -29.671 -52.443  1.00  0.00     0.006 C 
BRANCH   4   5
ATOM      5  C   UNL     1      -4.628 -29.355 -52.746  1.00  0.00     0.053 C 
BRANCH   5   6
ATOM      6  C   UNL     1      -5.003 -29.864 -54.102  1.00  0.00     0.041 C 
ATOM      7  O   UNL     1      -4.820 -31.075 -54.397  1.00  0.00    -0.550 OA
ATOM      8  O   UNL     1      -5.601 -29.014 -55.023  1.00  0.00    -0.550 OA
ENDBRANCH   5   6
ENDBRANCH   4   5
ENDBRANCH   3   4
ENDBRANCH   2   3
ENDBRANCH   1   2
BRANCH   1   9
ATOM      9  C   UNL     1       0.418 -30.937 -51.622  1.00  0.00     0.000 C 
BRANCH   9  10
ATOM     10  C   UNL     1       0.111 -31.594 -52.978  1.00  0.00    -0.000 C 
BRANCH  10  11
ATOM     11  C   UNL     1      -0.507 -32.995 -52.829  1.00  0.00    -0.000 C 
BRANCH  11  12
ATOM     12  C   UNL     1      -1.989 -33.033 -53.236  1.00  0.00    -0.000 C 
BRANCH  12  13
ATOM     13  C   UNL     1      -2.930 -33.198 -52.034  1.00  0.00    -0.003 C 
ATOM     14  C   UNL     1      -2.154 -33.579 -50.777  1.00  0.00     0.004 C 
ENDBRANCH  12  13
ENDBRANCH  11  12
ENDBRANCH  10  11
ENDBRANCH   9  10
ENDBRANCH   1   9
TORSDOF 10
ENDMDL
MODEL 8
REMARK VINA RESULT:    -4.981      3.009      5.294
REMARK INTER + INTRA:          -9.034
REMARK INTER:                  -7.878
REMARK INTRA:                  -1.156
REMARK UNBOUND:                -1.141
REMARK SMILES CCCCCCCCCCCC(=O)[O-]
REMARK SMILES IDX 7 1 8 2 9 3 10 4 11 5 12 6 13 7 14 8 6 9 5 10 4 11 3 12 2 13
REMARK SMILES IDX 1 14
REMARK H PARENT
REMARK Flexibility Score: inf
ROOT
ATOM      1  C   UNL     1      -5.016 -31.609 -53.771  1.00  0.00     0.000 C 
ENDROOT
BRANCH   1   2
ATOM      2  C   UNL     1      -5.425 -30.126 -53.806  1.00  0.00     0.000 C 
BRANCH   2   3
ATOM      3  C   UNL     1      -4.384 -29.210 -53.139  1.00  0.00     0.000 C 
BRANCH   3   4
ATOM      4  C   UNL     1      -5.014 -28.247 -52.120  1.00  0.00     0.006 C 
BRANCH   4   5
ATOM      5  C   UNL     1      -5.541 -28.967 -50.872  1.00  0.00     0.053 C 
BRANCH   5   6
ATOM      6  C   UNL     1      -6.297 -28.015 -50.000  1.00  0.00     0.041 C 
ATOM      7  O   UNL     1      -6.610 -26.873 -50.431  1.00  0.00    -0.550 OA
ATOM      8  O   UNL     1      -6.700 -28.405 -48.730  1.00  0.00    -0.550 OA
ENDBRANCH   5   6
ENDBRANCH   4   5
ENDBRANCH   3   4
ENDBRANCH   2   3
ENDBRANCH   1   2
BRANCH   1   9
ATOM      9  C   UNL     1      -4.995 -32.183 -52.344  1.00  0.00     0.000 C 
BRANCH   9  10
ATOM     10  C   UNL     1      -3.604 -32.690 -51.931  1.00  0.00    -0.000 C 
BRANCH  10  11
ATOM     11  C   UNL     1      -2.603 -32.688 -53.100  1.00  0.00    -0.000 C 
BRANCH  11  12
ATOM     12  C   UNL     1      -1.391 -31.779 -52.837  1.00  0.00    -0.000 C 
BRANCH  12  13
ATOM     13  C   UNL     1      -1.553 -30.924 -51.572  1.00  0.00    -0.003 C 
ATOM     14  C   UNL     1      -0.328 -30.043 -51.343  1.00  0.00     0.004 C 
ENDBRANCH  12  13
ENDBRANCH  11  12
ENDBRANCH  10  11
ENDBRANCH   9  10
ENDBRANCH   1   9
TORSDOF 10
ENDMDL
MODEL 9
REMARK VINA RESULT:    -4.935      3.188      5.610
REMARK INTER + INTRA:          -8.961
REMARK INTER:                  -7.665
REMARK INTRA:                  -1.296
REMARK UNBOUND:                -1.141
REMARK SMILES CCCCCCCCCCCC(=O)[O-]
REMARK SMILES IDX 7 1 8 2 9 3 10 4 11 5 12 6 13 7 14 8 6 9 5 10 4 11 3 12 2 13
REMARK SMILES IDX 1 14
REMARK H PARENT
REMARK Flexibility Score: inf
ROOT
ATOM      1  C   UNL     1      -5.009 -32.331 -52.376  1.00  0.00     0.000 C 
ENDROOT
BRANCH   1   2
ATOM      2  C   UNL     1      -5.552 -30.898 -52.504  1.00  0.00     0.000 C 
BRANCH   2   3
ATOM      3  C   UNL     1      -4.455 -29.878 -52.854  1.00  0.00     0.000 C 
BRANCH   3   4
ATOM      4  C   UNL     1      -4.360 -28.738 -51.828  1.00  0.00     0.006 C 
BRANCH   4   5
ATOM      5  C   UNL     1      -5.524 -28.742 -50.829  1.00  0.00     0.053 C 
BRANCH   5   6
ATOM      6  C   UNL     1      -6.208 -27.411 -50.819  1.00  0.00     0.041 C 
ATOM      7  O   UNL     1      -6.653 -26.935 -49.742  1.00  0.00    -0.550 OA
ATOM      8  O   UNL     1      -6.308 -26.672 -51.991  1.00  0.00    -0.550 OA
ENDBRANCH   5   6
ENDBRANCH   4   5
ENDBRANCH   3   4
ENDBRANCH   2   3
ENDBRANCH   1   2
BRANCH   1   9
ATOM      9  C   UNL     1      -4.129 -32.521 -51.128  1.00  0.00     0.000 C 
BRANCH   9  10
ATOM     10  C   UNL     1      -2.750 -33.114 -51.462  1.00  0.00    -0.000 C 
BRANCH  10  11
ATOM     11  C   UNL     1      -2.315 -32.822 -52.908  1.00  0.00    -0.000 C 
BRANCH  11  12
ATOM     12  C   UNL     1      -1.094 -31.890 -52.980  1.00  0.00    -0.000 C 
BRANCH  12  13
ATOM     13  C   UNL     1      -0.625 -31.418 -51.596  1.00  0.00    -0.003 C 
ATOM     14  C   UNL     1      -0.763 -29.904 -51.456  1.00  0.00     0.004 C 
ENDBRANCH  12  13
ENDBRANCH  11  12
ENDBRANCH  10  11
ENDBRANCH   9  10
ENDBRANCH   1   9
TORSDOF 10
ENDMDL
