MODEL 1
REMARK VINA RESULT:    -5.175      0.000      0.000
REMARK INTER + INTRA:         -11.945
REMARK INTER:                 -10.015
REMARK INTRA:                  -1.930
REMARK UNBOUND:                -1.930
REMARK SMILES CCCCCCCCCCCCCCCCCC(=O)[O-]
REMARK SMILES IDX 10 1 11 2 12 3 13 4 14 5 15 6 16 7 17 8 18 9 19 10 20 11
REMARK SMILES IDX 9 12 8 13 7 14 6 15 5 16 4 17 3 18 2 19 1 20
REMARK H PARENT
REMARK Flexibility Score: inf
ROOT
ATOM      1  C   UNL     1      61.892  28.604  12.827  1.00  0.00     0.000 C 
ENDROOT
BRANCH   1   2
ATOM      2  C   UNL     1      62.711  29.781  13.382  1.00  0.00     0.000 C 
BRANCH   2   3
ATOM      3  C   UNL     1      62.588  31.046  12.515  1.00  0.00     0.000 C 
BRANCH   3   4
ATOM      4  C   UNL     1      62.337  32.311  13.352  1.00  0.00     0.000 C 
BRANCH   4   5
ATOM      5  C   UNL     1      60.848  32.703  13.402  1.00  0.00     0.000 C 
BRANCH   5   6
ATOM      6  C   UNL     1      60.378  33.058  14.821  1.00  0.00     0.000 C 
BRANCH   6   7
ATOM      7  C   UNL     1      61.547  33.395  15.763  1.00  0.00     0.006 C 
BRANCH   7   8
ATOM      8  C   UNL     1      61.139  34.385  16.862  1.00  0.00     0.053 C 
BRANCH   8   9
ATOM      9  C   UNL     1      61.765  34.045  18.180  1.00  0.00     0.041 C 
ATOM     10  O   UNL     1      61.263  33.149  18.908  1.00  0.00    -0.550 OA
ATOM     11  O   UNL     1      62.922  34.697  18.591  1.00  0.00    -0.550 OA
ENDBRANCH   8   9
ENDBRANCH   7   8
ENDBRANCH   6   7
ENDBRANCH   5   6
ENDBRANCH   4   5
ENDBRANCH   3   4
ENDBRANCH   2   3
ENDBRANCH   1   2
BRANCH   1  12
ATOM     12  C   UNL     1      60.453  28.574  13.372  1.00  0.00     0.000 C 
BRANCH  12  13
ATOM     13  C   UNL     1      59.399  28.694  12.260  1.00  0.00    -0.000 C 
BRANCH  13  14
ATOM     14  C   UNL     1      59.929  29.420  11.014  1.00  0.00    -0.000 C 
BRANCH  14  15
ATOM     15  C   UNL     1      59.684  28.583   9.749  1.00  0.00    -0.000 C 
BRANCH  15  16
ATOM     16  C   UNL     1      60.990  28.154   9.059  1.00  0.00    -0.000 C 
BRANCH  16  17
ATOM     17  C   UNL     1      61.994  29.313   8.926  1.00  0.00    -0.000 C 
BRANCH  17  18
ATOM     18  C   UNL     1      63.371  28.985   9.531  1.00  0.00    -0.000 C 
BRANCH  18  19
ATOM     19  C   UNL     1      64.544  29.805   8.965  1.00  0.00    -0.003 C 
ATOM     20  C   UNL     1      64.521  31.267   9.409  1.00  0.00     0.004 C 
ENDBRANCH  18  19
ENDBRANCH  17  18
ENDBRANCH  16  17
ENDBRANCH  15  16
ENDBRANCH  14  15
ENDBRANCH  13  14
ENDBRANCH  12  13
ENDBRANCH   1  12
TORSDOF 16
ENDMDL
MODEL 2
REMARK VINA RESULT:    -5.043      1.203      2.912
REMARK INTER + INTRA:         -11.690
REMARK INTER:                  -9.256
REMARK INTRA:                  -2.434
REMARK UNBOUND:                -1.930
REMARK SMILES CCCCCCCCCCCCCCCCCC(=O)[O-]
REMARK SMILES IDX 10 1 11 2 12 3 13 4 14 5 15 6 16 7 17 8 18 9 19 10 20 11
REMARK SMILES IDX 9 12 8 13 7 14 6 15 5 16 4 17 3 18 2 19 1 20
REMARK H PARENT
REMARK Flexibility Score: inf
ROOT
ATOM      1  C   UNL     1      60.491  28.421  12.211  1.00  0.00     0.000 C 
ENDROOT
BRANCH   1   2
ATOM      2  C   UNL     1      60.648  29.451  13.342  1.00  0.00     0.000 C 
BRANCH   2   3
ATOM      3  C   UNL     1      60.118  30.841  12.952  1.00  0.00     0.000 C 
BRANCH   3   4
ATOM      4  C   UNL     1      59.864  31.739  14.173  1.00  0.00     0.000 C 
BRANCH   4   5
ATOM      5  C   UNL     1      60.519  33.126  14.037  1.00  0.00     0.000 C 
BRANCH   5   6
ATOM      6  C   UNL     1      60.587  33.882  15.373  1.00  0.00     0.000 C 
BRANCH   6   7
ATOM      7  C   UNL     1      62.003  33.888  15.976  1.00  0.00     0.006 C 
BRANCH   7   8
ATOM      8  C   UNL     1      62.091  33.050  17.258  1.00  0.00     0.053 C 
BRANCH   8   9
ATOM      9  C   UNL     1      62.100  33.908  18.486  1.00  0.00     0.041 C 
ATOM     10  O   UNL     1      63.190  34.312  18.970  1.00  0.00    -0.550 OA
ATOM     11  O   UNL     1      60.901  34.290  19.079  1.00  0.00    -0.550 OA
ENDBRANCH   8   9
ENDBRANCH   7   8
ENDBRANCH   6   7
ENDBRANCH   5   6
ENDBRANCH   4   5
ENDBRANCH   3   4
ENDBRANCH   2   3
ENDBRANCH   1   2
BRANCH   1  12
ATOM     12  C   UNL     1      60.212  29.076  10.847  1.00  0.00     0.000 C 
BRANCH  12  13
ATOM     13  C   UNL     1      60.849  28.303   9.681  1.00  0.00    -0.000 C 
BRANCH  13  14
ATOM     14  C   UNL     1      61.936  29.111   8.956  1.00  0.00    -0.000 C 
BRANCH  14  15
ATOM     15  C   UNL     1      63.283  28.991   9.685  1.00  0.00    -0.000 C 
BRANCH  15  16
ATOM     16  C   UNL     1      63.804  30.345  10.196  1.00  0.00    -0.000 C 
BRANCH  16  17
ATOM     17  C   UNL     1      63.775  30.447  11.731  1.00  0.00    -0.000 C 
BRANCH  17  18
ATOM     18  C   UNL     1      63.651  31.897  12.232  1.00  0.00    -0.000 C 
BRANCH  18  19
ATOM     19  C   UNL     1      64.069  32.118  13.697  1.00  0.00    -0.003 C 
ATOM     20  C   UNL     1      63.825  30.895  14.579  1.00  0.00     0.004 C 
ENDBRANCH  18  19
ENDBRANCH  17  18
ENDBRANCH  16  17
ENDBRANCH  15  16
ENDBRANCH  14  15
ENDBRANCH  13  14
ENDBRANCH  12  13
ENDBRANCH   1  12
TORSDOF 16
ENDMDL
MODEL 3
REMARK VINA RESULT:    -5.037      1.021      3.309
REMARK INTER + INTRA:         -11.679
REMARK INTER:                  -9.594
REMARK INTRA:                  -2.085
REMARK UNBOUND:                -1.930
REMARK SMILES CCCCCCCCCCCCCCCCCC(=O)[O-]
REMARK SMILES IDX 10 1 11 2 12 3 13 4 14 5 15 6 16 7 17 8 18 9 19 10 20 11
REMARK SMILES IDX 9 12 8 13 7 14 6 15 5 16 4 17 3 18 2 19 1 20
REMARK H PARENT
REMARK Flexibility Score: inf
ROOT
ATOM      1  C   UNL     1      64.105  30.970  11.327  1.00  0.00     0.000 C 
ENDROOT
BRANCH   1   2
ATOM      2  C   UNL     1      64.245  32.406  11.860  1.00  0.00     0.000 C 
BRANCH   2   3
ATOM      3  C   UNL     1      64.136  32.480  13.393  1.00  0.00     0.000 C 
BRANCH   3   4
ATOM      4  C   UNL     1      62.800  31.928  13.915  1.00  0.00     0.000 C 
BRANCH   4   5
ATOM      5  C   UNL     1      61.587  32.722  13.396  1.00  0.00     0.000 C 
BRANCH   5   6
ATOM      6  C   UNL     1      60.432  32.766  14.409  1.00  0.00     0.000 C 
BRANCH   6   7
ATOM      7  C   UNL     1      60.924  32.737  15.866  1.00  0.00     0.006 C 
BRANCH   7   8
ATOM      8  C   UNL     1      61.054  34.145  16.463  1.00  0.00     0.053 C 
BRANCH   8   9
ATOM      9  C   UNL     1      61.726  34.125  17.801  1.00  0.00     0.041 C 
ATOM     10  O   UNL     1      62.614  34.972  18.078  1.00  0.00    -0.550 OA
ATOM     11  O   UNL     1      61.348  33.188  18.756  1.00  0.00    -0.550 OA
ENDBRANCH   8   9
ENDBRANCH   7   8
ENDBRANCH   6   7
ENDBRANCH   5   6
ENDBRANCH   4   5
ENDBRANCH   3   4
ENDBRANCH   2   3
ENDBRANCH   1   2
BRANCH   1  12
ATOM     12  C   UNL     1      64.449  30.857   9.832  1.00  0.00     0.000 C 
BRANCH  12  13
ATOM     13  C   UNL     1      63.876  29.582   9.191  1.00  0.00    -0.000 C 
BRANCH  13  14
ATOM     14  C   UNL     1      62.851  28.874  10.089  1.00  0.00    -0.000 C 
BRANCH  14  15
ATOM     15  C   UNL     1      61.532  28.642   9.335  1.00  0.00    -0.000 C 
BRANCH  15  16
ATOM     16  C   UNL     1      60.428  29.627   9.754  1.00  0.00    -0.000 C 
BRANCH  16  17
ATOM     17  C   UNL     1      60.527  30.029  11.237  1.00  0.00    -0.000 C 
BRANCH  17  18
ATOM     18  C   UNL     1      59.655  29.152  12.154  1.00  0.00    -0.000 C 
BRANCH  18  19
ATOM     19  C   UNL     1      60.417  28.062  12.929  1.00  0.00    -0.003 C 
ATOM     20  C   UNL     1      61.766  28.539  13.463  1.00  0.00     0.004 C 
ENDBRANCH  18  19
ENDBRANCH  17  18
ENDBRANCH  16  17
ENDBRANCH  15  16
ENDBRANCH  14  15
ENDBRANCH  13  14
ENDBRANCH  12  13
ENDBRANCH   1  12
TORSDOF 16
ENDMDL
MODEL 4
REMARK VINA RESULT:    -4.995      1.504      3.827
REMARK INTER + INTRA:         -11.597
REMARK INTER:                  -9.041
REMARK INTRA:                  -2.556
REMARK UNBOUND:                -1.930
REMARK SMILES CCCCCCCCCCCCCCCCCC(=O)[O-]
REMARK SMILES IDX 10 1 11 2 12 3 13 4 14 5 15 6 16 7 17 8 18 9 19 10 20 11
REMARK SMILES IDX 9 12 8 13 7 14 6 15 5 16 4 17 3 18 2 19 1 20
REMARK H PARENT
REMARK Flexibility Score: inf
ROOT
ATOM      1  C   UNL     1      63.340  29.103   9.962  1.00  0.00     0.000 C 
ENDROOT
BRANCH   1   2
ATOM      2  C   UNL     1      63.783  30.438   9.340  1.00  0.00     0.000 C 
BRANCH   2   3
ATOM      3  C   UNL     1      64.510  31.345  10.347  1.00  0.00     0.000 C 
BRANCH   3   4
ATOM      4  C   UNL     1      63.792  31.413  11.705  1.00  0.00     0.000 C 
BRANCH   4   5
ATOM      5  C   UNL     1      64.198  32.648  12.530  1.00  0.00     0.000 C 
BRANCH   5   6
ATOM      6  C   UNL     1      64.105  32.404  14.044  1.00  0.00     0.000 C 
BRANCH   6   7
ATOM      7  C   UNL     1      63.483  33.593  14.797  1.00  0.00     0.006 C 
BRANCH   7   8
ATOM      8  C   UNL     1      63.351  33.322  16.302  1.00  0.00     0.053 C 
BRANCH   8   9
ATOM      9  C   UNL     1      62.264  34.145  16.924  1.00  0.00     0.041 C 
ATOM     10  O   UNL     1      62.477  34.771  17.995  1.00  0.00    -0.550 OA
ATOM     11  O   UNL     1      61.025  34.246  16.303  1.00  0.00    -0.550 OA
ENDBRANCH   8   9
ENDBRANCH   7   8
ENDBRANCH   6   7
ENDBRANCH   5   6
ENDBRANCH   4   5
ENDBRANCH   3   4
ENDBRANCH   2   3
ENDBRANCH   1   2
BRANCH   1  12
ATOM     12  C   UNL     1      61.901  28.718   9.575  1.00  0.00     0.000 C 
BRANCH  12  13
ATOM     13  C   UNL     1      60.881  29.811   9.938  1.00  0.00    -0.000 C 
BRANCH  13  14
ATOM     14  C   UNL     1      59.951  29.397  11.088  1.00  0.00    -0.000 C 
BRANCH  14  15
ATOM     15  C   UNL     1      60.594  28.292  11.940  1.00  0.00    -0.000 C 
BRANCH  15  16
ATOM     16  C   UNL     1      60.556  28.606  13.446  1.00  0.00    -0.000 C 
BRANCH  16  17
ATOM     17  C   UNL     1      61.528  29.734  13.838  1.00  0.00    -0.000 C 
BRANCH  17  18
ATOM     18  C   UNL     1      60.920  30.723  14.848  1.00  0.00    -0.000 C 
BRANCH  18  19
ATOM     19  C   UNL     1      59.920  31.730  14.252  1.00  0.00    -0.003 C 
ATOM     20  C   UNL     1      60.464  32.458  13.025  1.00  0.00     0.004 C 
ENDBRANCH  18  19
ENDBRANCH  17  18
ENDBRANCH  16  17
ENDBRANCH  15  16
ENDBRANCH  14  15
ENDBRANCH  13  14
ENDBRANCH  12  13
ENDBRANCH   1  12
TORSDOF 16
ENDMDL
MODEL 5
REMARK VINA RESULT:    -4.974      2.824      6.801
REMARK INTER + INTRA:         -11.557
REMARK INTER:                  -8.997
REMARK INTRA:                  -2.560
REMARK UNBOUND:                -1.930
REMARK SMILES CCCCCCCCCCCCCCCCCC(=O)[O-]
REMARK SMILES IDX 10 1 11 2 12 3 13 4 14 5 15 6 16 7 17 8 18 9 19 10 20 11
REMARK SMILES IDX 9 12 8 13 7 14 6 15 5 16 4 17 3 18 2 19 1 20
REMARK H PARENT
REMARK Flexibility Score: inf
ROOT
ATOM      1  C   UNL     1      63.574  30.473  12.982  1.00  0.00     0.000 C 
ENDROOT
BRANCH   1   2
ATOM      2  C   UNL     1      63.563  29.414  11.867  1.00  0.00     0.000 C 
BRANCH   2   3
ATOM      3  C   UNL     1      63.622  30.036  10.462  1.00  0.00     0.000 C 
BRANCH   3   4
ATOM      4  C   UNL     1      63.504  28.984   9.347  1.00  0.00     0.000 C 
BRANCH   4   5
ATOM      5  C   UNL     1      62.042  28.634   9.014  1.00  0.00     0.000 C 
BRANCH   5   6
ATOM      6  C   UNL     1      61.062  29.748   9.412  1.00  0.00     0.000 C 
BRANCH   6   7
ATOM      7  C   UNL     1      59.887  29.227  10.257  1.00  0.00     0.006 C 
BRANCH   7   8
ATOM      8  C   UNL     1      59.900  29.797  11.682  1.00  0.00     0.053 C 
BRANCH   8   9
ATOM      9  C   UNL     1      59.693  28.729  12.712  1.00  0.00     0.041 C 
ATOM     10  O   UNL     1      60.593  28.478  13.555  1.00  0.00    -0.550 OA
ATOM     11  O   UNL     1      58.491  28.033  12.762  1.00  0.00    -0.550 OA
ENDBRANCH   8   9
ENDBRANCH   7   8
ENDBRANCH   6   7
ENDBRANCH   5   6
ENDBRANCH   4   5
ENDBRANCH   3   4
ENDBRANCH   2   3
ENDBRANCH   1   2
BRANCH   1  12
ATOM     12  C   UNL     1      63.241  31.883  12.464  1.00  0.00     0.000 C 
BRANCH  12  13
ATOM     13  C   UNL     1      64.188  32.956  13.026  1.00  0.00    -0.000 C 
BRANCH  13  14
ATOM     14  C   UNL     1      64.547  32.718  14.500  1.00  0.00    -0.000 C 
BRANCH  14  15
ATOM     15  C   UNL     1      63.821  33.723  15.408  1.00  0.00    -0.000 C 
BRANCH  15  16
ATOM     16  C   UNL     1      63.266  33.074  16.687  1.00  0.00    -0.000 C 
BRANCH  16  17
ATOM     17  C   UNL     1      61.738  32.896  16.643  1.00  0.00    -0.000 C 
BRANCH  17  18
ATOM     18  C   UNL     1      61.306  31.620  15.898  1.00  0.00    -0.000 C 
BRANCH  18  19
ATOM     19  C   UNL     1      60.293  31.842  14.761  1.00  0.00    -0.003 C 
ATOM     20  C   UNL     1      60.403  33.225  14.123  1.00  0.00     0.004 C 
ENDBRANCH  18  19
ENDBRANCH  17  18
ENDBRANCH  16  17
ENDBRANCH  15  16
ENDBRANCH  14  15
ENDBRANCH  13  14
ENDBRANCH  12  13
ENDBRANCH   1  12
TORSDOF 16
ENDMDL
MODEL 6
REMARK VINA RESULT:    -4.939      1.199      2.388
REMARK INTER + INTRA:         -11.490
REMARK INTER:                  -9.292
REMARK INTRA:                  -2.197
REMARK UNBOUND:                -1.930
REMARK SMILES CCCCCCCCCCCCCCCCCC(=O)[O-]
REMARK SMILES IDX 10 1 11 2 12 3 13 4 14 5 15 6 16 7 17 8 18 9 19 10 20 11
REMARK SMILES IDX 9 12 8 13 7 14 6 15 5 16 4 17 3 18 2 19 1 20
REMARK H PARENT
REMARK Flexibility Score: inf
ROOT
ATOM      1  C   UNL     1      59.746  28.818  12.248  1.00  0.00     0.000 C 
ENDROOT
BRANCH   1   2
ATOM      2  C   UNL     1      60.496  28.862  13.590  1.00  0.00     0.000 C 
BRANCH   2   3
ATOM      3  C   UNL     1      60.903  30.290  13.992  1.00  0.00     0.000 C 
BRANCH   3   4
ATOM      4  C   UNL     1      59.981  31.358  13.383  1.00  0.00     0.000 C 
BRANCH   4   5
ATOM      5  C   UNL     1      60.641  32.749  13.326  1.00  0.00     0.000 C 
BRANCH   5   6
ATOM      6  C   UNL     1      61.694  32.949  14.427  1.00  0.00     0.000 C 
BRANCH   6   7
ATOM      7  C   UNL     1      61.125  33.667  15.663  1.00  0.00     0.006 C 
BRANCH   7   8
ATOM      8  C   UNL     1      61.548  32.990  16.974  1.00  0.00     0.053 C 
BRANCH   8   9
ATOM      9  C   UNL     1      62.715  33.682  17.609  1.00  0.00     0.041 C 
ATOM     10  O   UNL     1      63.839  33.117  17.655  1.00  0.00    -0.550 OA
ATOM     11  O   UNL     1      62.569  34.966  18.122  1.00  0.00    -0.550 OA
ENDBRANCH   8   9
ENDBRANCH   7   8
ENDBRANCH   6   7
ENDBRANCH   5   6
ENDBRANCH   4   5
ENDBRANCH   3   4
ENDBRANCH   2   3
ENDBRANCH   1   2
BRANCH   1  12
ATOM     12  C   UNL     1      60.692  28.667  11.045  1.00  0.00     0.000 C 
BRANCH  12  13
ATOM     13  C   UNL     1      60.403  29.692   9.936  1.00  0.00    -0.000 C 
BRANCH  13  14
ATOM     14  C   UNL     1      61.563  29.832   8.939  1.00  0.00    -0.000 C 
BRANCH  14  15
ATOM     15  C   UNL     1      62.655  28.790   9.222  1.00  0.00    -0.000 C 
BRANCH  15  16
ATOM     16  C   UNL     1      64.074  29.344   9.009  1.00  0.00    -0.000 C 
BRANCH  16  17
ATOM     17  C   UNL     1      64.126  30.880   9.094  1.00  0.00    -0.000 C 
BRANCH  17  18
ATOM     18  C   UNL     1      64.740  31.386  10.412  1.00  0.00    -0.000 C 
BRANCH  18  19
ATOM     19  C   UNL     1      63.771  31.431  11.606  1.00  0.00    -0.003 C 
ATOM     20  C   UNL     1      63.854  30.190  12.492  1.00  0.00     0.004 C 
ENDBRANCH  18  19
ENDBRANCH  17  18
ENDBRANCH  16  17
ENDBRANCH  15  16
ENDBRANCH  14  15
ENDBRANCH  13  14
ENDBRANCH  12  13
ENDBRANCH   1  12
TORSDOF 16
ENDMDL
MODEL 7
REMARK VINA RESULT:    -4.921      1.420      2.878
REMARK INTER + INTRA:         -11.455
REMARK INTER:                  -8.657
REMARK INTRA:                  -2.798
REMARK UNBOUND:                -1.930
REMARK SMILES CCCCCCCCCCCCCCCCCC(=O)[O-]
REMARK SMILES IDX 10 1 11 2 12 3 13 4 14 5 15 6 16 7 17 8 18 9 19 10 20 11
REMARK SMILES IDX 9 12 8 13 7 14 6 15 5 16 4 17 3 18 2 19 1 20
REMARK H PARENT
REMARK Flexibility Score: inf
ROOT
ATOM      1  C   UNL     1      59.764  31.283  13.159  1.00  0.00     0.000 C 
ENDROOT
BRANCH   1   2
ATOM      2  C   UNL     1      60.702  32.392  12.653  1.00  0.00     0.000 C 
BRANCH   2   3
ATOM      3  C   UNL     1      61.653  32.905  13.747  1.00  0.00     0.000 C 
BRANCH   3   4
ATOM      4  C   UNL     1      61.534  32.105  15.054  1.00  0.00     0.000 C 
BRANCH   4   5
ATOM      5  C   UNL     1      62.900  31.837  15.713  1.00  0.00     0.000 C 
BRANCH   5   6
ATOM      6  C   UNL     1      63.878  33.010  15.541  1.00  0.00     0.000 C 
BRANCH   6   7
ATOM      7  C   UNL     1      63.620  34.146  16.546  1.00  0.00     0.006 C 
BRANCH   7   8
ATOM      8  C   UNL     1      63.226  33.616  17.931  1.00  0.00     0.053 C 
BRANCH   8   9
ATOM      9  C   UNL     1      61.924  34.191  18.399  1.00  0.00     0.041 C 
ATOM     10  O   UNL     1      61.690  34.312  19.630  1.00  0.00    -0.550 OA
ATOM     11  O   UNL     1      60.981  34.623  17.473  1.00  0.00    -0.550 OA
ENDBRANCH   8   9
ENDBRANCH   7   8
ENDBRANCH   6   7
ENDBRANCH   5   6
ENDBRANCH   4   5
ENDBRANCH   3   4
ENDBRANCH   2   3
ENDBRANCH   1   2
BRANCH   1  12
ATOM     12  C   UNL     1      59.797  30.028  12.269  1.00  0.00     0.000 C 
BRANCH  12  13
ATOM     13  C   UNL     1      60.194  28.764  13.049  1.00  0.00    -0.000 C 
BRANCH  13  14
ATOM     14  C   UNL     1      61.562  28.894  13.736  1.00  0.00    -0.000 C 
BRANCH  14  15
ATOM     15  C   UNL     1      62.701  28.677  12.728  1.00  0.00    -0.000 C 
BRANCH  15  16
ATOM     16  C   UNL     1      63.599  29.916  12.573  1.00  0.00    -0.000 C 
BRANCH  16  17
ATOM     17  C   UNL     1      63.569  30.491  11.145  1.00  0.00    -0.000 C 
BRANCH  17  18
ATOM     18  C   UNL     1      63.384  29.407  10.068  1.00  0.00    -0.000 C 
BRANCH  18  19
ATOM     19  C   UNL     1      62.072  29.502   9.268  1.00  0.00    -0.003 C 
ATOM     20  C   UNL     1      61.260  28.208   9.295  1.00  0.00     0.004 C 
ENDBRANCH  18  19
ENDBRANCH  17  18
ENDBRANCH  16  17
ENDBRANCH  15  16
ENDBRANCH  14  15
ENDBRANCH  13  14
ENDBRANCH  12  13
ENDBRANCH   1  12
TORSDOF 16
ENDMDL
MODEL 8
REMARK VINA RESULT:    -4.894     11.270     14.354
REMARK INTER + INTRA:         -11.403
REMARK INTER:                  -8.853
REMARK INTRA:                  -2.549
REMARK UNBOUND:                -1.930
REMARK SMILES CCCCCCCCCCCCCCCCCC(=O)[O-]
REMARK SMILES IDX 10 1 11 2 12 3 13 4 14 5 15 6 16 7 17 8 18 9 19 10 20 11
REMARK SMILES IDX 9 12 8 13 7 14 6 15 5 16 4 17 3 18 2 19 1 20
REMARK H PARENT
REMARK Flexibility Score: inf
ROOT
ATOM      1  C   UNL     1      60.770  27.396  27.008  1.00  0.00     0.000 C 
ENDROOT
BRANCH   1   2
ATOM      2  C   UNL     1      60.862  27.364  25.474  1.00  0.00     0.000 C 
BRANCH   2   3
ATOM      3  C   UNL     1      61.490  28.643  24.893  1.00  0.00     0.000 C 
BRANCH   3   4
ATOM      4  C   UNL     1      62.887  28.397  24.301  1.00  0.00     0.000 C 
BRANCH   4   5
ATOM      5  C   UNL     1      63.173  26.903  24.058  1.00  0.00     0.000 C 
BRANCH   5   6
ATOM      6  C   UNL     1      64.438  26.418  24.784  1.00  0.00     0.000 C 
BRANCH   6   7
ATOM      7  C   UNL     1      65.502  25.874  23.816  1.00  0.00     0.006 C 
BRANCH   7   8
ATOM      8  C   UNL     1      65.161  26.175  22.350  1.00  0.00     0.053 C 
BRANCH   8   9
ATOM      9  C   UNL     1      66.332  26.743  21.610  1.00  0.00     0.041 C 
ATOM     10  O   UNL     1      66.674  26.261  20.498  1.00  0.00    -0.550 OA
ATOM     11  O   UNL     1      67.028  27.827  22.133  1.00  0.00    -0.550 OA
ENDBRANCH   8   9
ENDBRANCH   7   8
ENDBRANCH   6   7
ENDBRANCH   5   6
ENDBRANCH   4   5
ENDBRANCH   3   4
ENDBRANCH   2   3
ENDBRANCH   1   2
BRANCH   1  12
ATOM     12  C   UNL     1      62.125  27.138  27.689  1.00  0.00     0.000 C 
BRANCH  12  13
ATOM     13  C   UNL     1      62.443  28.174  28.779  1.00  0.00    -0.000 C 
BRANCH  13  14
ATOM     14  C   UNL     1      61.818  29.548  28.495  1.00  0.00    -0.000 C 
BRANCH  14  15
ATOM     15  C   UNL     1      62.873  30.660  28.599  1.00  0.00    -0.000 C 
BRANCH  15  16
ATOM     16  C   UNL     1      64.298  30.155  28.317  1.00  0.00    -0.000 C 
BRANCH  16  17
ATOM     17  C   UNL     1      64.717  30.362  26.850  1.00  0.00    -0.000 C 
BRANCH  17  18
ATOM     18  C   UNL     1      65.812  29.378  26.397  1.00  0.00    -0.000 C 
BRANCH  18  19
ATOM     19  C   UNL     1      66.607  29.817  25.155  1.00  0.00    -0.003 C 
ATOM     20  C   UNL     1      65.729  30.434  24.068  1.00  0.00     0.004 C 
ENDBRANCH  18  19
ENDBRANCH  17  18
ENDBRANCH  16  17
ENDBRANCH  15  16
ENDBRANCH  14  15
ENDBRANCH  13  14
ENDBRANCH  12  13
ENDBRANCH   1  12
TORSDOF 16
ENDMDL
MODEL 9
REMARK VINA RESULT:    -4.870      3.438      6.988
REMARK INTER + INTRA:         -11.356
REMARK INTER:                  -9.093
REMARK INTRA:                  -2.264
REMARK UNBOUND:                -1.930
REMARK SMILES CCCCCCCCCCCCCCCCCC(=O)[O-]
REMARK SMILES IDX 10 1 11 2 12 3 13 4 14 5 15 6 16 7 17 8 18 9 19 10 20 11
REMARK SMILES IDX 9 12 8 13 7 14 6 15 5 16 4 17 3 18 2 19 1 20
REMARK H PARENT
REMARK Flexibility Score: inf
ROOT
ATOM      1  C   UNL     1      61.654  29.839  14.162  1.00  0.00     0.000 C 
ENDROOT
BRANCH   1   2
ATOM      2  C   UNL     1      61.957  28.605  13.296  1.00  0.00     0.000 C 
BRANCH   2   3
ATOM      3  C   UNL     1      60.687  27.981  12.692  1.00  0.00     0.000 C 
BRANCH   3   4
ATOM      4  C   UNL     1      59.599  29.027  12.401  1.00  0.00     0.000 C 
BRANCH   4   5
ATOM      5  C   UNL     1      59.737  29.652  11.000  1.00  0.00     0.000 C 
BRANCH   5   6
ATOM      6  C   UNL     1      59.804  28.596   9.886  1.00  0.00     0.000 C 
BRANCH   6   7
ATOM      7  C   UNL     1      61.156  28.597   9.152  1.00  0.00     0.006 C 
BRANCH   7   8
ATOM      8  C   UNL     1      61.996  29.838   9.486  1.00  0.00     0.053 C 
BRANCH   8   9
ATOM      9  C   UNL     1      63.417  29.482   9.798  1.00  0.00     0.041 C 
ATOM     10  O   UNL     1      64.049  28.685   9.056  1.00  0.00    -0.550 OA
ATOM     11  O   UNL     1      64.056  30.056  10.891  1.00  0.00    -0.550 OA
ENDBRANCH   8   9
ENDBRANCH   7   8
ENDBRANCH   6   7
ENDBRANCH   5   6
ENDBRANCH   4   5
ENDBRANCH   3   4
ENDBRANCH   2   3
ENDBRANCH   1   2
BRANCH   1  12
ATOM     12  C   UNL     1      62.645  30.991  13.918  1.00  0.00     0.000 C 
BRANCH  12  13
ATOM     13  C   UNL     1      61.952  32.265  13.406  1.00  0.00    -0.000 C 
BRANCH  13  14
ATOM     14  C   UNL     1      60.426  32.221  13.577  1.00  0.00    -0.000 C 
BRANCH  14  15
ATOM     15  C   UNL     1      60.007  32.870  14.905  1.00  0.00    -0.000 C 
BRANCH  15  16
ATOM     16  C   UNL     1      61.070  33.834  15.456  1.00  0.00    -0.000 C 
BRANCH  16  17
ATOM     17  C   UNL     1      61.557  33.435  16.861  1.00  0.00    -0.000 C 
BRANCH  17  18
ATOM     18  C   UNL     1      63.066  33.137  16.909  1.00  0.00    -0.000 C 
BRANCH  18  19
ATOM     19  C   UNL     1      63.975  34.309  16.497  1.00  0.00    -0.003 C 
ATOM     20  C   UNL     1      64.689  34.075  15.168  1.00  0.00     0.004 C 
ENDBRANCH  18  19
ENDBRANCH  17  18
ENDBRANCH  16  17
ENDBRANCH  15  16
ENDBRANCH  14  15
ENDBRANCH  13  14
ENDBRANCH  12  13
ENDBRANCH   1  12
TORSDOF 16
ENDMDL
