MODEL 1
REMARK VINA RESULT:    -5.091      0.000      0.000
REMARK INTER + INTRA:         -10.803
REMARK INTER:                  -9.257
REMARK INTRA:                  -1.546
REMARK UNBOUND:                -1.546
REMARK SMILES CCCCCCCCCCCCCC[C@@H](C)C(=O)[O-]
REMARK SMILES IDX 9 1 10 2 11 3 12 4 13 5 14 6 15 7 16 8 17 9 18 10 19 11 8 12
REMARK SMILES IDX 7 13 6 14 5 15 4 16 3 17 2 18 1 19
REMARK H PARENT
REMARK Flexibility Score: inf
ROOT
ATOM      1  C   UNL     1     -15.292  35.658  15.500  1.00  0.00     0.000 C 
ENDROOT
BRANCH   1   2
ATOM      2  C   UNL     1     -15.899  35.970  16.873  1.00  0.00     0.000 C 
BRANCH   2   3
ATOM      3  C   UNL     1     -16.572  37.351  16.878  1.00  0.00     0.000 C 
BRANCH   3   4
ATOM      4  C   UNL     1     -17.020  37.775  18.294  1.00  0.00     0.000 C 
BRANCH   4   5
ATOM      5  C   UNL     1     -17.065  39.299  18.496  1.00  0.00     0.001 C 
BRANCH   5   6
ATOM      6  C   UNL     1     -17.508  39.700  19.913  1.00  0.00     0.009 C 
BRANCH   6   7
ATOM      7  C   UNL     1     -17.566  41.231  20.109  1.00  0.00     0.032 C 
ATOM      8  C   UNL     1     -18.970  41.802  19.856  1.00  0.00     0.014 C 
BRANCH   7   9
ATOM      9  C   UNL     1     -17.122  41.588  21.502  1.00  0.00     0.044 C 
ATOM     10  O   UNL     1     -16.926  40.688  22.362  1.00  0.00    -0.550 OA
ATOM     11  O   UNL     1     -16.929  42.919  21.850  1.00  0.00    -0.550 OA
ENDBRANCH   7   9
ENDBRANCH   6   7
ENDBRANCH   5   6
ENDBRANCH   4   5
ENDBRANCH   3   4
ENDBRANCH   2   3
ENDBRANCH   1   2
BRANCH   1  12
ATOM     12  C   UNL     1     -14.349  36.784  15.047  1.00  0.00     0.000 C 
BRANCH  12  13
ATOM     13  C   UNL     1     -14.456  37.080  13.543  1.00  0.00    -0.000 C 
BRANCH  13  14
ATOM     14  C   UNL     1     -15.147  38.425  13.254  1.00  0.00    -0.000 C 
BRANCH  14  15
ATOM     15  C   UNL     1     -16.680  38.305  13.225  1.00  0.00    -0.000 C 
BRANCH  15  16
ATOM     16  C   UNL     1     -17.156  36.915  12.770  1.00  0.00    -0.000 C 
BRANCH  16  17
ATOM     17  C   UNL     1     -18.365  36.412  13.576  1.00  0.00    -0.000 C 
BRANCH  17  18
ATOM     18  C   UNL     1     -18.291  34.908  13.879  1.00  0.00    -0.003 C 
ATOM     19  C   UNL     1     -17.398  34.190  12.872  1.00  0.00     0.004 C 
ENDBRANCH  17  18
ENDBRANCH  16  17
ENDBRANCH  15  16
ENDBRANCH  14  15
ENDBRANCH  13  14
ENDBRANCH  12  13
ENDBRANCH   1  12
TORSDOF 14
ENDMDL
MODEL 2
REMARK VINA RESULT:    -4.925      1.192      2.290
REMARK INTER + INTRA:         -10.502
REMARK INTER:                  -9.586
REMARK INTRA:                  -0.916
REMARK UNBOUND:                -1.546
REMARK SMILES CCCCCCCCCCCCCC[C@@H](C)C(=O)[O-]
REMARK SMILES IDX 9 1 10 2 11 3 12 4 13 5 14 6 15 7 16 8 17 9 18 10 19 11 8 12
REMARK SMILES IDX 7 13 6 14 5 15 4 16 3 17 2 18 1 19
REMARK H PARENT
REMARK Flexibility Score: inf
ROOT
ATOM      1  C   UNL     1     -16.156  36.472  17.125  1.00  0.00     0.000 C 
ENDROOT
BRANCH   1   2
ATOM      2  C   UNL     1     -16.894  37.814  17.192  1.00  0.00     0.000 C 
BRANCH   2   3
ATOM      3  C   UNL     1     -16.956  38.338  18.635  1.00  0.00     0.000 C 
BRANCH   3   4
ATOM      4  C   UNL     1     -17.397  39.817  18.700  1.00  0.00     0.000 C 
BRANCH   4   5
ATOM      5  C   UNL     1     -17.956  40.235  20.070  1.00  0.00     0.001 C 
BRANCH   5   6
ATOM      6  C   UNL     1     -17.484  41.633  20.506  1.00  0.00     0.009 C 
BRANCH   6   7
ATOM      7  C   UNL     1     -16.961  41.658  21.959  1.00  0.00     0.032 C 
ATOM      8  C   UNL     1     -16.505  40.274  22.443  1.00  0.00     0.014 C 
BRANCH   7   9
ATOM      9  C   UNL     1     -15.821  42.634  22.077  1.00  0.00     0.044 C 
ATOM     10  O   UNL     1     -15.954  43.825  21.685  1.00  0.00    -0.550 OA
ATOM     11  O   UNL     1     -14.609  42.223  22.617  1.00  0.00    -0.550 OA
ENDBRANCH   7   9
ENDBRANCH   6   7
ENDBRANCH   5   6
ENDBRANCH   4   5
ENDBRANCH   3   4
ENDBRANCH   2   3
ENDBRANCH   1   2
BRANCH   1  12
ATOM     12  C   UNL     1     -15.867  36.076  15.668  1.00  0.00     0.000 C 
BRANCH  12  13
ATOM     13  C   UNL     1     -14.386  36.237  15.291  1.00  0.00    -0.000 C 
BRANCH  13  14
ATOM     14  C   UNL     1     -14.192  36.626  13.814  1.00  0.00    -0.000 C 
BRANCH  14  15
ATOM     15  C   UNL     1     -15.217  37.669  13.340  1.00  0.00    -0.000 C 
BRANCH  15  16
ATOM     16  C   UNL     1     -16.345  37.048  12.498  1.00  0.00    -0.000 C 
BRANCH  16  17
ATOM     17  C   UNL     1     -15.825  36.018  11.482  1.00  0.00    -0.000 C 
BRANCH  17  18
ATOM     18  C   UNL     1     -16.610  34.698  11.523  1.00  0.00    -0.003 C 
ATOM     19  C   UNL     1     -17.362  34.548  12.842  1.00  0.00     0.004 C 
ENDBRANCH  17  18
ENDBRANCH  16  17
ENDBRANCH  15  16
ENDBRANCH  14  15
ENDBRANCH  13  14
ENDBRANCH  12  13
ENDBRANCH   1  12
TORSDOF 14
ENDMDL
MODEL 3
REMARK VINA RESULT:    -4.920      5.861      8.841
REMARK INTER + INTRA:         -10.494
REMARK INTER:                  -8.753
REMARK INTRA:                  -1.740
REMARK UNBOUND:                -1.546
REMARK SMILES CCCCCCCCCCCCCC[C@@H](C)C(=O)[O-]
REMARK SMILES IDX 9 1 10 2 11 3 12 4 13 5 14 6 15 7 16 8 17 9 18 10 19 11 8 12
REMARK SMILES IDX 7 13 6 14 5 15 4 16 3 17 2 18 1 19
REMARK H PARENT
REMARK Flexibility Score: inf
ROOT
ATOM      1  C   UNL     1     -17.766  41.682  10.311  1.00  0.00     0.000 C 
ENDROOT
BRANCH   1   2
ATOM      2  C   UNL     1     -16.592  40.696  10.293  1.00  0.00     0.000 C 
BRANCH   2   3
ATOM      3  C   UNL     1     -16.168  40.315  11.719  1.00  0.00     0.000 C 
BRANCH   3   4
ATOM      4  C   UNL     1     -17.284  39.564  12.478  1.00  0.00     0.000 C 
BRANCH   4   5
ATOM      5  C   UNL     1     -16.797  38.292  13.193  1.00  0.00     0.001 C 
BRANCH   5   6
ATOM      6  C   UNL     1     -17.861  37.182  13.227  1.00  0.00     0.009 C 
BRANCH   6   7
ATOM      7  C   UNL     1     -17.339  35.840  12.668  1.00  0.00     0.032 C 
ATOM      8  C   UNL     1     -15.982  35.985  11.965  1.00  0.00     0.014 C 
BRANCH   7   9
ATOM      9  C   UNL     1     -17.225  34.831  13.779  1.00  0.00     0.044 C 
ATOM     10  O   UNL     1     -16.569  35.098  14.822  1.00  0.00    -0.550 OA
ATOM     11  O   UNL     1     -17.842  33.592  13.659  1.00  0.00    -0.550 OA
ENDBRANCH   7   9
ENDBRANCH   6   7
ENDBRANCH   5   6
ENDBRANCH   4   5
ENDBRANCH   3   4
ENDBRANCH   2   3
ENDBRANCH   1   2
BRANCH   1  12
ATOM     12  C   UNL     1     -17.739  42.592   9.074  1.00  0.00     0.000 C 
BRANCH  12  13
ATOM     13  C   UNL     1     -16.686  42.161   8.040  1.00  0.00    -0.000 C 
BRANCH  13  14
ATOM     14  C   UNL     1     -15.862  43.346   7.506  1.00  0.00    -0.000 C 
BRANCH  14  15
ATOM     15  C   UNL     1     -16.284  44.687   8.131  1.00  0.00    -0.000 C 
BRANCH  15  16
ATOM     16  C   UNL     1     -15.233  45.241   9.108  1.00  0.00    -0.000 C 
BRANCH  16  17
ATOM     17  C   UNL     1     -14.166  44.198   9.481  1.00  0.00    -0.000 C 
BRANCH  17  18
ATOM     18  C   UNL     1     -14.351  43.645  10.902  1.00  0.00    -0.003 C 
ATOM     19  C   UNL     1     -15.432  44.416  11.654  1.00  0.00     0.004 C 
ENDBRANCH  17  18
ENDBRANCH  16  17
ENDBRANCH  15  16
ENDBRANCH  14  15
ENDBRANCH  13  14
ENDBRANCH  12  13
ENDBRANCH   1  12
TORSDOF 14
ENDMDL
MODEL 4
REMARK VINA RESULT:    -4.888      4.029      8.802
REMARK INTER + INTRA:         -10.435
REMARK INTER:                  -9.409
REMARK INTRA:                  -1.026
REMARK UNBOUND:                -1.546
REMARK SMILES CCCCCCCCCCCCCC[C@@H](C)C(=O)[O-]
REMARK SMILES IDX 9 1 10 2 11 3 12 4 13 5 14 6 15 7 16 8 17 9 18 10 19 11 8 12
REMARK SMILES IDX 7 13 6 14 5 15 4 16 3 17 2 18 1 19
REMARK H PARENT
REMARK Flexibility Score: inf
ROOT
ATOM      1  C   UNL     1     -17.061  38.049  19.044  1.00  0.00     0.000 C 
ENDROOT
BRANCH   1   2
ATOM      2  C   UNL     1     -16.757  37.842  17.555  1.00  0.00     0.000 C 
BRANCH   2   3
ATOM      3  C   UNL     1     -16.257  36.415  17.287  1.00  0.00     0.000 C 
BRANCH   3   4
ATOM      4  C   UNL     1     -15.693  36.253  15.859  1.00  0.00     0.000 C 
BRANCH   4   5
ATOM      5  C   UNL     1     -16.248  37.280  14.856  1.00  0.00     0.001 C 
BRANCH   5   6
ATOM      6  C   UNL     1     -17.539  36.806  14.169  1.00  0.00     0.009 C 
BRANCH   6   7
ATOM      7  C   UNL     1     -17.288  36.235  12.756  1.00  0.00     0.032 C 
ATOM      8  C   UNL     1     -15.947  36.695  12.168  1.00  0.00     0.014 C 
BRANCH   7   9
ATOM      9  C   UNL     1     -17.331  34.731  12.796  1.00  0.00     0.044 C 
ATOM     10  O   UNL     1     -16.963  34.053  11.798  1.00  0.00    -0.550 OA
ATOM     11  O   UNL     1     -17.784  34.079  13.936  1.00  0.00    -0.550 OA
ENDBRANCH   7   9
ENDBRANCH   6   7
ENDBRANCH   5   6
ENDBRANCH   4   5
ENDBRANCH   3   4
ENDBRANCH   2   3
ENDBRANCH   1   2
BRANCH   1  12
ATOM     12  C   UNL     1     -18.135  39.129  19.241  1.00  0.00     0.000 C 
BRANCH  12  13
ATOM     13  C   UNL     1     -17.735  40.484  18.637  1.00  0.00    -0.000 C 
BRANCH  13  14
ATOM     14  C   UNL     1     -18.107  41.669  19.546  1.00  0.00    -0.000 C 
BRANCH  14  15
ATOM     15  C   UNL     1     -18.232  41.263  21.023  1.00  0.00    -0.000 C 
BRANCH  15  16
ATOM     16  C   UNL     1     -16.919  41.457  21.803  1.00  0.00    -0.000 C 
BRANCH  16  17
ATOM     17  C   UNL     1     -16.178  42.742  21.400  1.00  0.00    -0.000 C 
BRANCH  17  18
ATOM     18  C   UNL     1     -16.349  43.871  22.428  1.00  0.00    -0.003 C 
ATOM     19  C   UNL     1     -16.770  45.171  21.749  1.00  0.00     0.004 C 
ENDBRANCH  17  18
ENDBRANCH  16  17
ENDBRANCH  15  16
ENDBRANCH  14  15
ENDBRANCH  13  14
ENDBRANCH  12  13
ENDBRANCH   1  12
TORSDOF 14
ENDMDL
MODEL 5
REMARK VINA RESULT:    -4.839      4.392      9.521
REMARK INTER + INTRA:         -10.346
REMARK INTER:                  -9.659
REMARK INTRA:                  -0.686
REMARK UNBOUND:                -1.546
REMARK SMILES CCCCCCCCCCCCCC[C@@H](C)C(=O)[O-]
REMARK SMILES IDX 9 1 10 2 11 3 12 4 13 5 14 6 15 7 16 8 17 9 18 10 19 11 8 12
REMARK SMILES IDX 7 13 6 14 5 15 4 16 3 17 2 18 1 19
REMARK H PARENT
REMARK Flexibility Score: inf
ROOT
ATOM      1  C   UNL     1     -17.061  39.227  18.636  1.00  0.00     0.000 C 
ENDROOT
BRANCH   1   2
ATOM      2  C   UNL     1     -17.011  37.723  18.345  1.00  0.00     0.000 C 
BRANCH   2   3
ATOM      3  C   UNL     1     -16.591  37.455  16.891  1.00  0.00     0.000 C 
BRANCH   3   4
ATOM      4  C   UNL     1     -15.959  36.058  16.715  1.00  0.00     0.000 C 
BRANCH   4   5
ATOM      5  C   UNL     1     -15.907  35.583  15.253  1.00  0.00     0.001 C 
BRANCH   5   6
ATOM      6  C   UNL     1     -16.921  36.309  14.353  1.00  0.00     0.009 C 
BRANCH   6   7
ATOM      7  C   UNL     1     -16.300  36.787  13.022  1.00  0.00     0.032 C 
ATOM      8  C   UNL     1     -14.821  37.173  13.170  1.00  0.00     0.014 C 
BRANCH   7   9
ATOM      9  C   UNL     1     -16.438  35.714  11.976  1.00  0.00     0.044 C 
ATOM     10  O   UNL     1     -17.111  34.674  12.211  1.00  0.00    -0.550 OA
ATOM     11  O   UNL     1     -15.817  35.862  10.743  1.00  0.00    -0.550 OA
ENDBRANCH   7   9
ENDBRANCH   6   7
ENDBRANCH   5   6
ENDBRANCH   4   5
ENDBRANCH   3   4
ENDBRANCH   2   3
ENDBRANCH   1   2
BRANCH   1  12
ATOM     12  C   UNL     1     -17.689  39.501  20.011  1.00  0.00     0.000 C 
BRANCH  12  13
ATOM     13  C   UNL     1     -17.439  40.935  20.505  1.00  0.00    -0.000 C 
BRANCH  13  14
ATOM     14  C   UNL     1     -16.661  40.975  21.833  1.00  0.00    -0.000 C 
BRANCH  14  15
ATOM     15  C   UNL     1     -16.227  42.399  22.219  1.00  0.00    -0.000 C 
BRANCH  15  16
ATOM     16  C   UNL     1     -17.085  43.482  21.542  1.00  0.00    -0.000 C 
BRANCH  16  17
ATOM     17  C   UNL     1     -16.626  44.906  21.898  1.00  0.00    -0.000 C 
BRANCH  17  18
ATOM     18  C   UNL     1     -16.946  45.284  23.352  1.00  0.00    -0.003 C 
ATOM     19  C   UNL     1     -15.681  45.692  24.103  1.00  0.00     0.004 C 
ENDBRANCH  17  18
ENDBRANCH  16  17
ENDBRANCH  15  16
ENDBRANCH  14  15
ENDBRANCH  13  14
ENDBRANCH  12  13
ENDBRANCH   1  12
TORSDOF 14
ENDMDL
MODEL 6
REMARK VINA RESULT:    -4.823      6.211      8.763
REMARK INTER + INTRA:         -10.317
REMARK INTER:                  -8.494
REMARK INTRA:                  -1.824
REMARK UNBOUND:                -1.546
REMARK SMILES CCCCCCCCCCCCCC[C@@H](C)C(=O)[O-]
REMARK SMILES IDX 9 1 10 2 11 3 12 4 13 5 14 6 15 7 16 8 17 9 18 10 19 11 8 12
REMARK SMILES IDX 7 13 6 14 5 15 4 16 3 17 2 18 1 19
REMARK H PARENT
REMARK Flexibility Score: inf
ROOT
ATOM      1  C   UNL     1     -17.394  41.122   9.904  1.00  0.00     0.000 C 
ENDROOT
BRANCH   1   2
ATOM      2  C   UNL     1     -16.204  40.475   9.185  1.00  0.00     0.000 C 
BRANCH   2   3
ATOM      3  C   UNL     1     -15.898  41.196   7.863  1.00  0.00     0.000 C 
BRANCH   3   4
ATOM      4  C   UNL     1     -14.508  41.867   7.874  1.00  0.00     0.000 C 
BRANCH   4   5
ATOM      5  C   UNL     1     -13.903  42.013   9.281  1.00  0.00     0.001 C 
BRANCH   5   6
ATOM      6  C   UNL     1     -13.820  43.477   9.746  1.00  0.00     0.009 C 
BRANCH   6   7
ATOM      7  C   UNL     1     -15.205  44.077  10.078  1.00  0.00     0.032 C 
ATOM      8  C   UNL     1     -15.283  44.608  11.517  1.00  0.00     0.014 C 
BRANCH   7   9
ATOM      9  C   UNL     1     -15.529  45.185   9.113  1.00  0.00     0.044 C 
ATOM     10  O   UNL     1     -15.105  46.355   9.316  1.00  0.00    -0.550 OA
ATOM     11  O   UNL     1     -16.304  44.924   7.991  1.00  0.00    -0.550 OA
ENDBRANCH   7   9
ENDBRANCH   6   7
ENDBRANCH   5   6
ENDBRANCH   4   5
ENDBRANCH   3   4
ENDBRANCH   2   3
ENDBRANCH   1   2
BRANCH   1  12
ATOM     12  C   UNL     1     -17.391  40.769  11.399  1.00  0.00     0.000 C 
BRANCH  12  13
ATOM     13  C   UNL     1     -15.998  40.375  11.915  1.00  0.00    -0.000 C 
BRANCH  13  14
ATOM     14  C   UNL     1     -15.982  38.980  12.565  1.00  0.00    -0.000 C 
BRANCH  14  15
ATOM     15  C   UNL     1     -17.288  38.663  13.313  1.00  0.00    -0.000 C 
BRANCH  15  16
ATOM     16  C   UNL     1     -17.827  37.258  12.992  1.00  0.00    -0.000 C 
BRANCH  16  17
ATOM     17  C   UNL     1     -16.747  36.170  13.115  1.00  0.00    -0.000 C 
BRANCH  17  18
ATOM     18  C   UNL     1     -16.711  35.232  11.898  1.00  0.00    -0.003 C 
ATOM     19  C   UNL     1     -15.832  35.806  10.790  1.00  0.00     0.004 C 
ENDBRANCH  17  18
ENDBRANCH  16  17
ENDBRANCH  15  16
ENDBRANCH  14  15
ENDBRANCH  13  14
ENDBRANCH  12  13
ENDBRANCH   1  12
TORSDOF 14
ENDMDL
MODEL 7
REMARK VINA RESULT:    -4.772      5.868      8.382
REMARK INTER + INTRA:         -10.224
REMARK INTER:                  -8.741
REMARK INTRA:                  -1.483
REMARK UNBOUND:                -1.546
REMARK SMILES CCCCCCCCCCCCCC[C@@H](C)C(=O)[O-]
REMARK SMILES IDX 9 1 10 2 11 3 12 4 13 5 14 6 15 7 16 8 17 9 18 10 19 11 8 12
REMARK SMILES IDX 7 13 6 14 5 15 4 16 3 17 2 18 1 19
REMARK H PARENT
REMARK Flexibility Score: inf
ROOT
ATOM      1  C   UNL     1     -15.729  38.873  12.466  1.00  0.00     0.000 C 
ENDROOT
BRANCH   1   2
ATOM      2  C   UNL     1     -15.624  40.342  12.039  1.00  0.00     0.000 C 
BRANCH   2   3
ATOM      3  C   UNL     1     -16.998  40.901  11.641  1.00  0.00     0.000 C 
BRANCH   3   4
ATOM      4  C   UNL     1     -17.257  40.783  10.123  1.00  0.00     0.000 C 
BRANCH   4   5
ATOM      5  C   UNL     1     -17.580  42.125   9.445  1.00  0.00     0.001 C 
BRANCH   5   6
ATOM      6  C   UNL     1     -16.891  42.285   8.079  1.00  0.00     0.009 C 
BRANCH   6   7
ATOM      7  C   UNL     1     -15.696  43.263   8.126  1.00  0.00     0.032 C 
ATOM      8  C   UNL     1     -15.735  44.178   9.358  1.00  0.00     0.014 C 
BRANCH   7   9
ATOM      9  C   UNL     1     -14.403  42.493   8.111  1.00  0.00     0.044 C 
ATOM     10  O   UNL     1     -13.750  42.356   7.041  1.00  0.00    -0.550 OA
ATOM     11  O   UNL     1     -13.922  41.921   9.282  1.00  0.00    -0.550 OA
ENDBRANCH   7   9
ENDBRANCH   6   7
ENDBRANCH   5   6
ENDBRANCH   4   5
ENDBRANCH   3   4
ENDBRANCH   2   3
ENDBRANCH   1   2
BRANCH   1  12
ATOM     12  C   UNL     1     -14.677  38.534  13.534  1.00  0.00     0.000 C 
BRANCH  12  13
ATOM     13  C   UNL     1     -14.081  37.128  13.357  1.00  0.00    -0.000 C 
BRANCH  13  14
ATOM     14  C   UNL     1     -14.277  36.243  14.601  1.00  0.00    -0.000 C 
BRANCH  14  15
ATOM     15  C   UNL     1     -15.661  36.430  15.246  1.00  0.00    -0.000 C 
BRANCH  15  16
ATOM     16  C   UNL     1     -16.637  35.295  14.892  1.00  0.00    -0.000 C 
BRANCH  16  17
ATOM     17  C   UNL     1     -17.451  35.591  13.622  1.00  0.00    -0.000 C 
BRANCH  17  18
ATOM     18  C   UNL     1     -17.139  34.614  12.478  1.00  0.00    -0.003 C 
ATOM     19  C   UNL     1     -16.375  35.311  11.355  1.00  0.00     0.004 C 
ENDBRANCH  17  18
ENDBRANCH  16  17
ENDBRANCH  15  16
ENDBRANCH  14  15
ENDBRANCH  13  14
ENDBRANCH  12  13
ENDBRANCH   1  12
TORSDOF 14
ENDMDL
MODEL 8
REMARK VINA RESULT:    -4.754      5.443      8.554
REMARK INTER + INTRA:         -10.192
REMARK INTER:                  -8.222
REMARK INTRA:                  -1.969
REMARK UNBOUND:                -1.546
REMARK SMILES CCCCCCCCCCCCCC[C@@H](C)C(=O)[O-]
REMARK SMILES IDX 9 1 10 2 11 3 12 4 13 5 14 6 15 7 16 8 17 9 18 10 19 11 8 12
REMARK SMILES IDX 7 13 6 14 5 15 4 16 3 17 2 18 1 19
REMARK H PARENT
REMARK Flexibility Score: inf
ROOT
ATOM      1  C   UNL     1     -17.434  41.405   9.900  1.00  0.00     0.000 C 
ENDROOT
BRANCH   1   2
ATOM      2  C   UNL     1     -17.224  41.280  11.414  1.00  0.00     0.000 C 
BRANCH   2   3
ATOM      3  C   UNL     1     -16.100  40.282  11.734  1.00  0.00     0.000 C 
BRANCH   3   4
ATOM      4  C   UNL     1     -16.619  39.047  12.501  1.00  0.00     0.000 C 
BRANCH   4   5
ATOM      5  C   UNL     1     -15.513  38.256  13.220  1.00  0.00     0.001 C 
BRANCH   5   6
ATOM      6  C   UNL     1     -15.368  36.819  12.693  1.00  0.00     0.009 C 
BRANCH   6   7
ATOM      7  C   UNL     1     -16.730  36.124  12.473  1.00  0.00     0.032 C 
ATOM      8  C   UNL     1     -16.630  34.927  11.515  1.00  0.00     0.014 C 
BRANCH   7   9
ATOM      9  C   UNL     1     -17.292  35.667  13.793  1.00  0.00     0.044 C 
ATOM     10  O   UNL     1     -18.532  35.717  14.012  1.00  0.00    -0.550 OA
ATOM     11  O   UNL     1     -16.441  35.191  14.782  1.00  0.00    -0.550 OA
ENDBRANCH   7   9
ENDBRANCH   6   7
ENDBRANCH   5   6
ENDBRANCH   4   5
ENDBRANCH   3   4
ENDBRANCH   2   3
ENDBRANCH   1   2
BRANCH   1  12
ATOM     12  C   UNL     1     -16.261  40.784   9.128  1.00  0.00     0.000 C 
BRANCH  12  13
ATOM     13  C   UNL     1     -15.984  41.493   7.793  1.00  0.00    -0.000 C 
BRANCH  13  14
ATOM     14  C   UNL     1     -14.499  41.859   7.615  1.00  0.00    -0.000 C 
BRANCH  14  15
ATOM     15  C   UNL     1     -13.740  41.907   8.951  1.00  0.00    -0.000 C 
BRANCH  15  16
ATOM     16  C   UNL     1     -13.507  43.345   9.447  1.00  0.00    -0.000 C 
BRANCH  16  17
ATOM     17  C   UNL     1     -14.277  43.655  10.741  1.00  0.00    -0.000 C 
BRANCH  17  18
ATOM     18  C   UNL     1     -15.537  44.498  10.493  1.00  0.00    -0.003 C 
ATOM     19  C   UNL     1     -15.485  45.171   9.124  1.00  0.00     0.004 C 
ENDBRANCH  17  18
ENDBRANCH  16  17
ENDBRANCH  15  16
ENDBRANCH  14  15
ENDBRANCH  13  14
ENDBRANCH  12  13
ENDBRANCH   1  12
TORSDOF 14
ENDMDL
MODEL 9
REMARK VINA RESULT:    -4.719      5.198      8.191
REMARK INTER + INTRA:         -10.128
REMARK INTER:                  -7.928
REMARK INTRA:                  -2.200
REMARK UNBOUND:                -1.546
REMARK SMILES CCCCCCCCCCCCCC[C@@H](C)C(=O)[O-]
REMARK SMILES IDX 9 1 10 2 11 3 12 4 13 5 14 6 15 7 16 8 17 9 18 10 19 11 8 12
REMARK SMILES IDX 7 13 6 14 5 15 4 16 3 17 2 18 1 19
REMARK H PARENT
REMARK Flexibility Score: inf
ROOT
ATOM      1  C   UNL     1     -17.428  41.715   9.674  1.00  0.00     0.000 C 
ENDROOT
BRANCH   1   2
ATOM      2  C   UNL     1     -17.948  42.080  11.069  1.00  0.00     0.000 C 
BRANCH   2   3
ATOM      3  C   UNL     1     -17.374  41.136  12.137  1.00  0.00     0.000 C 
BRANCH   3   4
ATOM      4  C   UNL     1     -16.599  39.955  11.514  1.00  0.00     0.000 C 
BRANCH   4   5
ATOM      5  C   UNL     1     -16.324  38.807  12.501  1.00  0.00     0.001 C 
BRANCH   5   6
ATOM      6  C   UNL     1     -17.603  38.274  13.168  1.00  0.00     0.009 C 
BRANCH   6   7
ATOM      7  C   UNL     1     -17.475  36.800  13.610  1.00  0.00     0.032 C 
ATOM      8  C   UNL     1     -17.098  35.870  12.448  1.00  0.00     0.014 C 
BRANCH   7   9
ATOM      9  C   UNL     1     -16.449  36.680  14.704  1.00  0.00     0.044 C 
ATOM     10  O   UNL     1     -15.411  35.984  14.535  1.00  0.00    -0.550 OA
ATOM     11  O   UNL     1     -16.643  37.334  15.914  1.00  0.00    -0.550 OA
ENDBRANCH   7   9
ENDBRANCH   6   7
ENDBRANCH   5   6
ENDBRANCH   4   5
ENDBRANCH   3   4
ENDBRANCH   2   3
ENDBRANCH   1   2
BRANCH   1  12
ATOM     12  C   UNL     1     -17.463  42.932   8.737  1.00  0.00     0.000 C 
BRANCH  12  13
ATOM     13  C   UNL     1     -16.477  42.810   7.565  1.00  0.00    -0.000 C 
BRANCH  13  14
ATOM     14  C   UNL     1     -15.529  41.607   7.714  1.00  0.00    -0.000 C 
BRANCH  14  15
ATOM     15  C   UNL     1     -14.051  41.994   7.537  1.00  0.00    -0.000 C 
BRANCH  15  16
ATOM     16  C   UNL     1     -13.452  42.634   8.801  1.00  0.00    -0.000 C 
BRANCH  16  17
ATOM     17  C   UNL     1     -13.805  41.857  10.080  1.00  0.00    -0.000 C 
BRANCH  17  18
ATOM     18  C   UNL     1     -13.991  42.774  11.298  1.00  0.00    -0.003 C 
ATOM     19  C   UNL     1     -14.756  44.039  10.920  1.00  0.00     0.004 C 
ENDBRANCH  17  18
ENDBRANCH  16  17
ENDBRANCH  15  16
ENDBRANCH  14  15
ENDBRANCH  13  14
ENDBRANCH  12  13
ENDBRANCH   1  12
TORSDOF 14
ENDMDL
