MODEL 1
REMARK VINA RESULT:    -4.140      0.000      0.000
REMARK INTER + INTRA:          -6.300
REMARK INTER:                  -6.077
REMARK INTRA:                  -0.223
REMARK UNBOUND:                -0.223
REMARK SMILES O=C([O-])CCCCCCCC(=O)[O-]
REMARK SMILES IDX 7 1 6 2 5 3 4 4 2 5 1 6 3 7 8 8 9 9 10 10 11 11 12 12 13 13
REMARK H PARENT
REMARK Flexibility Score: inf
ROOT
ATOM      1  C   UNL     1      35.735  28.689  29.443  1.00  0.00     0.000 C 
ENDROOT
BRANCH   1   2
ATOM      2  C   UNL     1      34.375  28.677  28.715  1.00  0.00     0.000 C 
BRANCH   2   3
ATOM      3  C   UNL     1      33.543  27.393  28.908  1.00  0.00     0.006 C 
BRANCH   3   4
ATOM      4  C   UNL     1      32.212  27.378  28.139  1.00  0.00     0.053 C 
BRANCH   4   5
ATOM      5  C   UNL     1      32.347  26.726  26.797  1.00  0.00     0.041 C 
ATOM      6  O   UNL     1      32.167  25.486  26.674  1.00  0.00    -0.550 OA
ATOM      7  O   UNL     1      32.705  27.483  25.688  1.00  0.00    -0.550 OA
ENDBRANCH   4   5
ENDBRANCH   3   4
ENDBRANCH   2   3
ENDBRANCH   1   2
BRANCH   1   8
ATOM      8  C   UNL     1      36.417  30.069  29.531  1.00  0.00     0.000 C 
BRANCH   8   9
ATOM      9  C   UNL     1      37.223  30.478  28.282  1.00  0.00     0.006 C 
BRANCH   9  10
ATOM     10  C   UNL     1      37.545  31.978  28.196  1.00  0.00     0.053 C 
BRANCH  10  11
ATOM     11  C   UNL     1      38.802  32.325  28.935  1.00  0.00     0.041 C 
ATOM     12  O   UNL     1      39.064  33.526  29.209  1.00  0.00    -0.550 OA
ATOM     13  O   UNL     1      39.699  31.326  29.292  1.00  0.00    -0.550 OA
ENDBRANCH  10  11
ENDBRANCH   9  10
ENDBRANCH   8   9
ENDBRANCH   1   8
TORSDOF 8
ENDMDL
MODEL 2
REMARK VINA RESULT:    -4.116     11.011     13.175
REMARK INTER + INTRA:          -6.265
REMARK INTER:                  -5.970
REMARK INTRA:                  -0.295
REMARK UNBOUND:                -0.223
REMARK SMILES O=C([O-])CCCCCCCC(=O)[O-]
REMARK SMILES IDX 7 1 6 2 5 3 4 4 2 5 1 6 3 7 8 8 9 9 10 10 11 11 12 12 13 13
REMARK H PARENT
REMARK Flexibility Score: inf
ROOT
ATOM      1  C   UNL     1      39.081  26.282  17.138  1.00  0.00     0.000 C 
ENDROOT
BRANCH   1   2
ATOM      2  C   UNL     1      40.496  26.551  16.587  1.00  0.00     0.000 C 
BRANCH   2   3
ATOM      3  C   UNL     1      41.589  26.734  17.660  1.00  0.00     0.006 C 
BRANCH   3   4
ATOM      4  C   UNL     1      41.316  27.872  18.657  1.00  0.00     0.053 C 
BRANCH   4   5
ATOM      5  C   UNL     1      40.975  27.352  20.021  1.00  0.00     0.041 C 
ATOM      6  O   UNL     1      41.337  26.197  20.367  1.00  0.00    -0.550 OA
ATOM      7  O   UNL     1      40.228  28.131  20.896  1.00  0.00    -0.550 OA
ENDBRANCH   4   5
ENDBRANCH   3   4
ENDBRANCH   2   3
ENDBRANCH   1   2
BRANCH   1   8
ATOM      8  C   UNL     1      37.957  26.287  16.083  1.00  0.00     0.000 C 
BRANCH   8   9
ATOM      9  C   UNL     1      36.606  25.723  16.567  1.00  0.00     0.006 C 
BRANCH   9  10
ATOM     10  C   UNL     1      35.415  26.057  15.655  1.00  0.00     0.053 C 
BRANCH  10  11
ATOM     11  C   UNL     1      34.941  27.466  15.846  1.00  0.00     0.041 C 
ATOM     12  O   UNL     1      34.360  27.800  16.913  1.00  0.00    -0.550 OA
ATOM     13  O   UNL     1      35.111  28.402  14.834  1.00  0.00    -0.550 OA
ENDBRANCH  10  11
ENDBRANCH   9  10
ENDBRANCH   8   9
ENDBRANCH   1   8
TORSDOF 8
ENDMDL
MODEL 3
REMARK VINA RESULT:    -4.111     11.023     11.868
REMARK INTER + INTRA:          -6.256
REMARK INTER:                  -5.962
REMARK INTRA:                  -0.294
REMARK UNBOUND:                -0.223
REMARK SMILES O=C([O-])CCCCCCCC(=O)[O-]
REMARK SMILES IDX 7 1 6 2 5 3 4 4 2 5 1 6 3 7 8 8 9 9 10 10 11 11 12 12 13 13
REMARK H PARENT
REMARK Flexibility Score: inf
ROOT
ATOM      1  C   UNL     1      39.074  26.266  17.126  1.00  0.00     0.000 C 
ENDROOT
BRANCH   1   2
ATOM      2  C   UNL     1      37.937  26.293  16.085  1.00  0.00     0.000 C 
BRANCH   2   3
ATOM      3  C   UNL     1      36.581  25.755  16.585  1.00  0.00     0.006 C 
BRANCH   3   4
ATOM      4  C   UNL     1      35.394  26.068  15.660  1.00  0.00     0.053 C 
BRANCH   4   5
ATOM      5  C   UNL     1      34.921  27.482  15.813  1.00  0.00     0.041 C 
ATOM      6  O   UNL     1      34.353  27.848  16.875  1.00  0.00    -0.550 OA
ATOM      7  O   UNL     1      35.078  28.385  14.769  1.00  0.00    -0.550 OA
ENDBRANCH   4   5
ENDBRANCH   3   4
ENDBRANCH   2   3
ENDBRANCH   1   2
BRANCH   1   8
ATOM      8  C   UNL     1      40.479  26.567  16.568  1.00  0.00     0.000 C 
BRANCH   8   9
ATOM      9  C   UNL     1      41.577  26.758  17.634  1.00  0.00     0.006 C 
BRANCH   9  10
ATOM     10  C   UNL     1      41.298  27.886  18.639  1.00  0.00     0.053 C 
BRANCH  10  11
ATOM     11  C   UNL     1      40.984  27.355  20.004  1.00  0.00     0.041 C 
ATOM     12  O   UNL     1      41.347  26.195  20.332  1.00  0.00    -0.550 OA
ATOM     13  O   UNL     1      40.260  28.129  20.904  1.00  0.00    -0.550 OA
ENDBRANCH  10  11
ENDBRANCH   9  10
ENDBRANCH   8   9
ENDBRANCH   1   8
TORSDOF 8
ENDMDL
MODEL 4
REMARK VINA RESULT:    -3.987     12.408     14.372
REMARK INTER + INTRA:          -6.075
REMARK INTER:                  -5.775
REMARK INTRA:                  -0.300
REMARK UNBOUND:                -0.223
REMARK SMILES O=C([O-])CCCCCCCC(=O)[O-]
REMARK SMILES IDX 7 1 6 2 5 3 4 4 2 5 1 6 3 7 8 8 9 9 10 10 11 11 12 12 13 13
REMARK H PARENT
REMARK Flexibility Score: inf
ROOT
ATOM      1  C   UNL     1      41.761  28.878  17.032  1.00  0.00     0.000 C 
ENDROOT
BRANCH   1   2
ATOM      2  C   UNL     1      42.507  29.702  15.963  1.00  0.00     0.000 C 
BRANCH   2   3
ATOM      3  C   UNL     1      42.697  31.194  16.306  1.00  0.00     0.006 C 
BRANCH   3   4
ATOM      4  C   UNL     1      43.845  31.878  15.545  1.00  0.00     0.053 C 
BRANCH   4   5
ATOM      5  C   UNL     1      45.184  31.538  16.126  1.00  0.00     0.041 C 
ATOM      6  O   UNL     1      45.500  31.950  17.273  1.00  0.00    -0.550 OA
ATOM      7  O   UNL     1      46.094  30.793  15.387  1.00  0.00    -0.550 OA
ENDBRANCH   4   5
ENDBRANCH   3   4
ENDBRANCH   2   3
ENDBRANCH   1   2
BRANCH   1   8
ATOM      8  C   UNL     1      41.384  27.445  16.606  1.00  0.00     0.000 C 
BRANCH   8   9
ATOM      9  C   UNL     1      41.333  26.416  17.754  1.00  0.00     0.006 C 
BRANCH   9  10
ATOM     10  C   UNL     1      40.171  26.618  18.738  1.00  0.00     0.053 C 
BRANCH  10  11
ATOM     11  C   UNL     1      40.655  26.929  20.122  1.00  0.00     0.041 C 
ATOM     12  O   UNL     1      41.485  27.858  20.308  1.00  0.00    -0.550 OA
ATOM     13  O   UNL     1      40.214  26.173  21.201  1.00  0.00    -0.550 OA
ENDBRANCH  10  11
ENDBRANCH   9  10
ENDBRANCH   8   9
ENDBRANCH   1   8
TORSDOF 8
ENDMDL
MODEL 5
REMARK VINA RESULT:    -3.982     12.425     13.242
REMARK INTER + INTRA:          -6.067
REMARK INTER:                  -5.780
REMARK INTRA:                  -0.287
REMARK UNBOUND:                -0.223
REMARK SMILES O=C([O-])CCCCCCCC(=O)[O-]
REMARK SMILES IDX 7 1 6 2 5 3 4 4 2 5 1 6 3 7 8 8 9 9 10 10 11 11 12 12 13 13
REMARK H PARENT
REMARK Flexibility Score: inf
ROOT
ATOM      1  C   UNL     1      41.757  28.887  17.042  1.00  0.00     0.000 C 
ENDROOT
BRANCH   1   2
ATOM      2  C   UNL     1      41.396  27.443  16.639  1.00  0.00     0.000 C 
BRANCH   2   3
ATOM      3  C   UNL     1      40.553  26.669  17.672  1.00  0.00     0.006 C 
BRANCH   3   4
ATOM      4  C   UNL     1      41.345  26.170  18.892  1.00  0.00     0.053 C 
BRANCH   4   5
ATOM      5  C   UNL     1      40.914  26.848  20.157  1.00  0.00     0.041 C 
ATOM      6  O   UNL     1      41.009  28.098  20.269  1.00  0.00    -0.550 OA
ATOM      7  O   UNL     1      40.440  26.095  21.223  1.00  0.00    -0.550 OA
ENDBRANCH   4   5
ENDBRANCH   3   4
ENDBRANCH   2   3
ENDBRANCH   1   2
BRANCH   1   8
ATOM      8  C   UNL     1      42.504  29.699  15.965  1.00  0.00     0.000 C 
BRANCH   8   9
ATOM      9  C   UNL     1      42.696  31.194  16.293  1.00  0.00     0.006 C 
BRANCH   9  10
ATOM     10  C   UNL     1      43.846  31.869  15.528  1.00  0.00     0.053 C 
BRANCH  10  11
ATOM     11  C   UNL     1      45.182  31.545  16.125  1.00  0.00     0.041 C 
ATOM     12  O   UNL     1      45.484  31.971  17.271  1.00  0.00    -0.550 OA
ATOM     13  O   UNL     1      46.107  30.801  15.402  1.00  0.00    -0.550 OA
ENDBRANCH  10  11
ENDBRANCH   9  10
ENDBRANCH   8   9
ENDBRANCH   1   8
TORSDOF 8
ENDMDL
MODEL 6
REMARK VINA RESULT:    -3.944     12.945     15.268
REMARK INTER + INTRA:          -6.012
REMARK INTER:                  -5.764
REMARK INTRA:                  -0.248
REMARK UNBOUND:                -0.223
REMARK SMILES O=C([O-])CCCCCCCC(=O)[O-]
REMARK SMILES IDX 7 1 6 2 5 3 4 4 2 5 1 6 3 7 8 8 9 9 10 10 11 11 12 12 13 13
REMARK H PARENT
REMARK Flexibility Score: inf
ROOT
ATOM      1  C   UNL     1      42.453  29.548  16.236  1.00  0.00     0.000 C 
ENDROOT
BRANCH   1   2
ATOM      2  C   UNL     1      42.185  31.065  16.147  1.00  0.00     0.000 C 
BRANCH   2   3
ATOM      3  C   UNL     1      43.446  31.944  16.025  1.00  0.00     0.006 C 
BRANCH   3   4
ATOM      4  C   UNL     1      44.648  31.242  15.372  1.00  0.00     0.053 C 
BRANCH   4   5
ATOM      5  C   UNL     1      45.844  31.220  16.276  1.00  0.00     0.041 C 
ATOM      6  O   UNL     1      45.836  31.872  17.352  1.00  0.00    -0.550 OA
ATOM      7  O   UNL     1      46.978  30.506  15.911  1.00  0.00    -0.550 OA
ENDBRANCH   4   5
ENDBRANCH   3   4
ENDBRANCH   2   3
ENDBRANCH   1   2
BRANCH   1   8
ATOM      8  C   UNL     1      41.709  28.818  17.371  1.00  0.00     0.000 C 
BRANCH   8   9
ATOM      9  C   UNL     1      41.783  27.279  17.315  1.00  0.00     0.006 C 
BRANCH   9  10
ATOM     10  C   UNL     1      40.690  26.621  16.460  1.00  0.00     0.053 C 
BRANCH  10  11
ATOM     11  C   UNL     1      39.410  26.449  17.221  1.00  0.00     0.041 C 
ATOM     12  O   UNL     1      39.389  26.614  18.469  1.00  0.00    -0.550 OA
ATOM     13  O   UNL     1      38.249  26.075  16.557  1.00  0.00    -0.550 OA
ENDBRANCH  10  11
ENDBRANCH   9  10
ENDBRANCH   8   9
ENDBRANCH   1   8
TORSDOF 8
ENDMDL
MODEL 7
REMARK VINA RESULT:    -3.781      4.786      7.505
REMARK INTER + INTRA:          -5.773
REMARK INTER:                  -5.372
REMARK INTRA:                  -0.401
REMARK UNBOUND:                -0.223
REMARK SMILES O=C([O-])CCCCCCCC(=O)[O-]
REMARK SMILES IDX 7 1 6 2 5 3 4 4 2 5 1 6 3 7 8 8 9 9 10 10 11 11 12 12 13 13
REMARK H PARENT
REMARK Flexibility Score: inf
ROOT
ATOM      1  C   UNL     1      42.391  32.855  29.326  1.00  0.00     0.000 C 
ENDROOT
BRANCH   1   2
ATOM      2  C   UNL     1      41.059  32.703  30.089  1.00  0.00     0.000 C 
BRANCH   2   3
ATOM      3  C   UNL     1      40.271  31.415  29.776  1.00  0.00     0.006 C 
BRANCH   3   4
ATOM      4  C   UNL     1      38.744  31.591  29.769  1.00  0.00     0.053 C 
BRANCH   4   5
ATOM      5  C   UNL     1      38.176  31.506  28.385  1.00  0.00     0.041 C 
ATOM      6  O   UNL     1      38.699  32.160  27.445  1.00  0.00    -0.550 OA
ATOM      7  O   UNL     1      37.049  30.732  28.141  1.00  0.00    -0.550 OA
ENDBRANCH   4   5
ENDBRANCH   3   4
ENDBRANCH   2   3
ENDBRANCH   1   2
BRANCH   1   8
ATOM      8  C   UNL     1      43.542  31.967  29.838  1.00  0.00     0.000 C 
BRANCH   8   9
ATOM      9  C   UNL     1      43.761  30.662  29.046  1.00  0.00     0.006 C 
BRANCH   9  10
ATOM     10  C   UNL     1      43.422  29.381  29.826  1.00  0.00     0.053 C 
BRANCH  10  11
ATOM     11  C   UNL     1      44.395  28.278  29.542  1.00  0.00     0.041 C 
ATOM     12  O   UNL     1      44.012  27.078  29.555  1.00  0.00    -0.550 OA
ATOM     13  O   UNL     1      45.730  28.572  29.296  1.00  0.00    -0.550 OA
ENDBRANCH  10  11
ENDBRANCH   9  10
ENDBRANCH   8   9
ENDBRANCH   1   8
TORSDOF 8
ENDMDL
MODEL 8
REMARK VINA RESULT:    -3.557      5.415      9.880
REMARK INTER + INTRA:          -5.444
REMARK INTER:                  -5.035
REMARK INTRA:                  -0.408
REMARK UNBOUND:                -0.223
REMARK SMILES O=C([O-])CCCCCCCC(=O)[O-]
REMARK SMILES IDX 7 1 6 2 5 3 4 4 2 5 1 6 3 7 8 8 9 9 10 10 11 11 12 12 13 13
REMARK H PARENT
REMARK Flexibility Score: inf
ROOT
ATOM      1  C   UNL     1      43.542  32.415  29.612  1.00  0.00     0.000 C 
ENDROOT
BRANCH   1   2
ATOM      2  C   UNL     1      43.627  33.883  30.076  1.00  0.00     0.000 C 
BRANCH   2   3
ATOM      3  C   UNL     1      43.935  34.902  28.961  1.00  0.00     0.006 C 
BRANCH   3   4
ATOM      4  C   UNL     1      43.682  34.381  27.537  1.00  0.00     0.053 C 
BRANCH   4   5
ATOM      5  C   UNL     1      43.847  35.458  26.508  1.00  0.00     0.041 C 
ATOM      6  O   UNL     1      43.786  35.177  25.282  1.00  0.00    -0.550 OA
ATOM      7  O   UNL     1      44.102  36.765  26.903  1.00  0.00    -0.550 OA
ENDBRANCH   4   5
ENDBRANCH   3   4
ENDBRANCH   2   3
ENDBRANCH   1   2
BRANCH   1   8
ATOM      8  C   UNL     1      42.197  31.717  29.895  1.00  0.00     0.000 C 
BRANCH   8   9
ATOM      9  C   UNL     1      40.948  32.498  29.439  1.00  0.00     0.006 C 
BRANCH   9  10
ATOM     10  C   UNL     1      39.647  31.680  29.448  1.00  0.00     0.053 C 
BRANCH  10  11
ATOM     11  C   UNL     1      38.656  32.191  28.448  1.00  0.00     0.041 C 
ATOM     12  O   UNL     1      38.052  31.389  27.687  1.00  0.00    -0.550 OA
ATOM     13  O   UNL     1      38.423  33.556  28.333  1.00  0.00    -0.550 OA
ENDBRANCH  10  11
ENDBRANCH   9  10
ENDBRANCH   8   9
ENDBRANCH   1   8
TORSDOF 8
ENDMDL
