MODEL 1
REMARK VINA RESULT:    -4.737      0.000      0.000
REMARK INTER + INTRA:         -10.250
REMARK INTER:                  -8.890
REMARK INTRA:                  -1.360
REMARK UNBOUND:                -1.360
REMARK SMILES CCCCCCCCC=CCCCCCCCC(=O)[O-]
REMARK SMILES IDX 10 1 9 2 11 3 12 4 13 5 14 6 15 7 16 8 17 9 18 10 19 11
REMARK SMILES IDX 20 12 8 13 7 14 6 15 5 16 4 17 3 18 2 19 1 20
REMARK H PARENT
REMARK Flexibility Score: inf
ROOT
ATOM      1  C   UNL     1      17.872   5.637  18.787  1.00  0.00    -0.031 C 
ATOM      2  C   UNL     1      16.693   6.000  19.310  1.00  0.00    -0.031 C 
ENDROOT
BRANCH   1   3
ATOM      3  C   UNL     1      17.950   5.039  17.409  1.00  0.00     0.027 C 
BRANCH   3   4
ATOM      4  C   UNL     1      16.814   5.552  16.518  1.00  0.00     0.004 C 
BRANCH   4   5
ATOM      5  C   UNL     1      16.929   4.982  15.097  1.00  0.00     0.000 C 
BRANCH   5   6
ATOM      6  C   UNL     1      17.658   3.626  15.054  1.00  0.00     0.000 C 
BRANCH   6   7
ATOM      7  C   UNL     1      17.450   2.812  13.761  1.00  0.00     0.000 C 
BRANCH   7   8
ATOM      8  C   UNL     1      16.920   1.381  13.970  1.00  0.00     0.006 C 
BRANCH   8   9
ATOM      9  C   UNL     1      17.808   0.316  13.316  1.00  0.00     0.053 C 
BRANCH   9  10
ATOM     10  C   UNL     1      18.593  -0.419  14.356  1.00  0.00     0.041 C 
ATOM     11  O   UNL     1      19.117  -1.532  14.087  1.00  0.00    -0.550 OA
ATOM     12  O   UNL     1      18.704   0.101  15.639  1.00  0.00    -0.550 OA
ENDBRANCH   9  10
ENDBRANCH   8   9
ENDBRANCH   7   8
ENDBRANCH   6   7
ENDBRANCH   5   6
ENDBRANCH   4   5
ENDBRANCH   3   4
ENDBRANCH   1   3
BRANCH   2  13
ATOM     13  C   UNL     1      16.589   6.596  20.689  1.00  0.00     0.027 C 
BRANCH  13  14
ATOM     14  C   UNL     1      16.148   5.566  21.740  1.00  0.00     0.004 C 
BRANCH  14  15
ATOM     15  C   UNL     1      17.049   5.589  22.987  1.00  0.00     0.000 C 
BRANCH  15  16
ATOM     16  C   UNL     1      17.006   6.939  23.722  1.00  0.00     0.000 C 
BRANCH  16  17
ATOM     17  C   UNL     1      18.405   7.527  23.961  1.00  0.00    -0.000 C 
BRANCH  17  18
ATOM     18  C   UNL     1      19.496   6.523  23.572  1.00  0.00    -0.000 C 
BRANCH  18  19
ATOM     19  C   UNL     1      20.563   7.182  22.689  1.00  0.00    -0.003 C 
ATOM     20  C   UNL     1      20.339   6.854  21.215  1.00  0.00     0.004 C 
ENDBRANCH  18  19
ENDBRANCH  17  18
ENDBRANCH  16  17
ENDBRANCH  15  16
ENDBRANCH  14  15
ENDBRANCH  13  14
ENDBRANCH   2  13
TORSDOF 15
ENDMDL
MODEL 2
REMARK VINA RESULT:    -4.708      1.496      2.172
REMARK INTER + INTRA:         -10.197
REMARK INTER:                  -9.069
REMARK INTRA:                  -1.127
REMARK UNBOUND:                -1.360
REMARK SMILES CCCCCCCCC=CCCCCCCCC(=O)[O-]
REMARK SMILES IDX 10 1 9 2 11 3 12 4 13 5 14 6 15 7 16 8 17 9 18 10 19 11
REMARK SMILES IDX 20 12 8 13 7 14 6 15 5 16 4 17 3 18 2 19 1 20
REMARK H PARENT
REMARK Flexibility Score: inf
ROOT
ATOM      1  C   UNL     1      18.769   5.480  17.392  1.00  0.00    -0.031 C 
ATOM      2  C   UNL     1      17.646   5.548  18.121  1.00  0.00    -0.031 C 
ENDROOT
BRANCH   1   3
ATOM      3  C   UNL     1      18.717   5.125  15.932  1.00  0.00     0.027 C 
BRANCH   3   4
ATOM      4  C   UNL     1      17.326   4.624  15.532  1.00  0.00     0.004 C 
BRANCH   4   5
ATOM      5  C   UNL     1      17.414   3.270  14.814  1.00  0.00     0.000 C 
BRANCH   5   6
ATOM      6  C   UNL     1      18.772   2.574  15.012  1.00  0.00     0.000 C 
BRANCH   6   7
ATOM      7  C   UNL     1      18.710   1.207  15.724  1.00  0.00     0.000 C 
BRANCH   7   8
ATOM      8  C   UNL     1      18.681  -0.015  14.787  1.00  0.00     0.006 C 
BRANCH   8   9
ATOM      9  C   UNL     1      18.658   0.373  13.303  1.00  0.00     0.053 C 
BRANCH   9  10
ATOM     10  C   UNL     1      17.351  -0.010  12.685  1.00  0.00     0.041 C 
ATOM     11  O   UNL     1      16.285   0.075  13.350  1.00  0.00    -0.550 OA
ATOM     12  O   UNL     1      17.314  -0.508  11.389  1.00  0.00    -0.550 OA
ENDBRANCH   9  10
ENDBRANCH   8   9
ENDBRANCH   7   8
ENDBRANCH   6   7
ENDBRANCH   5   6
ENDBRANCH   4   5
ENDBRANCH   3   4
ENDBRANCH   1   3
BRANCH   2  13
ATOM     13  C   UNL     1      17.673   5.897  19.585  1.00  0.00     0.027 C 
BRANCH  13  14
ATOM     14  C   UNL     1      16.262   6.021  20.183  1.00  0.00     0.004 C 
BRANCH  14  15
ATOM     15  C   UNL     1      16.197   5.490  21.625  1.00  0.00     0.000 C 
BRANCH  15  16
ATOM     16  C   UNL     1      16.005   6.610  22.660  1.00  0.00     0.000 C 
BRANCH  16  17
ATOM     17  C   UNL     1      16.955   6.477  23.859  1.00  0.00    -0.000 C 
BRANCH  17  18
ATOM     18  C   UNL     1      17.663   7.806  24.147  1.00  0.00    -0.000 C 
BRANCH  18  19
ATOM     19  C   UNL     1      19.145   7.736  23.758  1.00  0.00    -0.003 C 
ATOM     20  C   UNL     1      19.559   6.307  23.417  1.00  0.00     0.004 C 
ENDBRANCH  18  19
ENDBRANCH  17  18
ENDBRANCH  16  17
ENDBRANCH  15  16
ENDBRANCH  14  15
ENDBRANCH  13  14
ENDBRANCH   2  13
TORSDOF 15
ENDMDL
MODEL 3
REMARK VINA RESULT:    -4.633      1.986      4.479
REMARK INTER + INTRA:         -10.055
REMARK INTER:                  -8.595
REMARK INTRA:                  -1.461
REMARK UNBOUND:                -1.360
REMARK SMILES CCCCCCCCC=CCCCCCCCC(=O)[O-]
REMARK SMILES IDX 10 1 9 2 11 3 12 4 13 5 14 6 15 7 16 8 17 9 18 10 19 11
REMARK SMILES IDX 20 12 8 13 7 14 6 15 5 16 4 17 3 18 2 19 1 20
REMARK H PARENT
REMARK Flexibility Score: inf
ROOT
ATOM      1  C   UNL     1      18.920   3.380  14.819  1.00  0.00    -0.031 C 
ATOM      2  C   UNL     1      17.784   3.598  15.496  1.00  0.00    -0.031 C 
ENDROOT
BRANCH   1   3
ATOM      3  C   UNL     1      19.695   2.104  15.011  1.00  0.00     0.027 C 
BRANCH   3   4
ATOM      4  C   UNL     1      18.844   1.038  15.707  1.00  0.00     0.004 C 
BRANCH   4   5
ATOM      5  C   UNL     1      18.414  -0.055  14.717  1.00  0.00     0.000 C 
BRANCH   5   6
ATOM      6  C   UNL     1      17.123   0.299  13.958  1.00  0.00     0.000 C 
BRANCH   6   7
ATOM      7  C   UNL     1      17.201   0.145  12.425  1.00  0.00     0.000 C 
BRANCH   7   8
ATOM      8  C   UNL     1      18.606   0.328  11.823  1.00  0.00     0.006 C 
BRANCH   8   9
ATOM      9  C   UNL     1      18.885  -0.631  10.659  1.00  0.00     0.053 C 
BRANCH   9  10
ATOM     10  C   UNL     1      18.818  -2.050  11.125  1.00  0.00     0.041 C 
ATOM     11  O   UNL     1      17.932  -2.825  10.676  1.00  0.00    -0.550 OA
ATOM     12  O   UNL     1      19.702  -2.507  12.094  1.00  0.00    -0.550 OA
ENDBRANCH   9  10
ENDBRANCH   8   9
ENDBRANCH   7   8
ENDBRANCH   6   7
ENDBRANCH   5   6
ENDBRANCH   4   5
ENDBRANCH   3   4
ENDBRANCH   1   3
BRANCH   2  13
ATOM     13  C   UNL     1      16.993   4.867  15.325  1.00  0.00     0.027 C 
BRANCH  13  14
ATOM     14  C   UNL     1      16.799   5.619  16.651  1.00  0.00     0.004 C 
BRANCH  14  15
ATOM     15  C   UNL     1      17.908   5.294  17.667  1.00  0.00     0.000 C 
BRANCH  15  16
ATOM     16  C   UNL     1      17.486   5.588  19.116  1.00  0.00     0.000 C 
BRANCH  16  17
ATOM     17  C   UNL     1      16.132   6.306  19.204  1.00  0.00    -0.000 C 
BRANCH  17  18
ATOM     18  C   UNL     1      15.649   6.389  20.657  1.00  0.00    -0.000 C 
BRANCH  18  19
ATOM     19  C   UNL     1      16.495   5.493  21.571  1.00  0.00    -0.003 C 
ATOM     20  C   UNL     1      16.761   6.169  22.912  1.00  0.00     0.004 C 
ENDBRANCH  18  19
ENDBRANCH  17  18
ENDBRANCH  16  17
ENDBRANCH  15  16
ENDBRANCH  14  15
ENDBRANCH  13  14
ENDBRANCH   2  13
TORSDOF 15
ENDMDL
MODEL 4
REMARK VINA RESULT:    -4.500      1.161      2.776
REMARK INTER + INTRA:          -9.805
REMARK INTER:                  -7.912
REMARK INTRA:                  -1.893
REMARK UNBOUND:                -1.360
REMARK SMILES CCCCCCCCC=CCCCCCCCC(=O)[O-]
REMARK SMILES IDX 10 1 9 2 11 3 12 4 13 5 14 6 15 7 16 8 17 9 18 10 19 11
REMARK SMILES IDX 20 12 8 13 7 14 6 15 5 16 4 17 3 18 2 19 1 20
REMARK H PARENT
REMARK Flexibility Score: inf
ROOT
ATOM      1  C   UNL     1      18.549   6.806  19.564  1.00  0.00    -0.031 C 
ATOM      2  C   UNL     1      19.644   6.630  20.317  1.00  0.00    -0.031 C 
ENDROOT
BRANCH   1   3
ATOM      3  C   UNL     1      18.154   5.782  18.535  1.00  0.00     0.027 C 
BRANCH   3   4
ATOM      4  C   UNL     1      16.727   6.024  18.032  1.00  0.00     0.004 C 
BRANCH   4   5
ATOM      5  C   UNL     1      16.611   5.709  16.534  1.00  0.00     0.000 C 
BRANCH   5   6
ATOM      6  C   UNL     1      17.754   4.816  16.020  1.00  0.00     0.000 C 
BRANCH   6   7
ATOM      7  C   UNL     1      17.537   4.217  14.615  1.00  0.00     0.000 C 
BRANCH   7   8
ATOM      8  C   UNL     1      17.715   2.690  14.523  1.00  0.00     0.006 C 
BRANCH   8   9
ATOM      9  C   UNL     1      18.470   2.105  15.724  1.00  0.00     0.053 C 
BRANCH   9  10
ATOM     10  C   UNL     1      19.092   0.795  15.361  1.00  0.00     0.041 C 
ATOM     11  O   UNL     1      18.399  -0.257  15.356  1.00  0.00    -0.550 OA
ATOM     12  O   UNL     1      20.450   0.725  15.076  1.00  0.00    -0.550 OA
ENDBRANCH   9  10
ENDBRANCH   8   9
ENDBRANCH   7   8
ENDBRANCH   6   7
ENDBRANCH   5   6
ENDBRANCH   4   5
ENDBRANCH   3   4
ENDBRANCH   1   3
BRANCH   2  13
ATOM     13  C   UNL     1      20.063   7.642  21.351  1.00  0.00     0.027 C 
BRANCH  13  14
ATOM     14  C   UNL     1      20.570   6.983  22.643  1.00  0.00     0.004 C 
BRANCH  14  15
ATOM     15  C   UNL     1      19.429   6.341  23.451  1.00  0.00     0.000 C 
BRANCH  15  16
ATOM     16  C   UNL     1      18.363   7.361  23.881  1.00  0.00     0.000 C 
BRANCH  16  17
ATOM     17  C   UNL     1      16.932   6.824  23.722  1.00  0.00    -0.000 C 
BRANCH  17  18
ATOM     18  C   UNL     1      16.234   7.474  22.521  1.00  0.00    -0.000 C 
BRANCH  18  19
ATOM     19  C   UNL     1      15.522   6.421  21.662  1.00  0.00    -0.003 C 
ATOM     20  C   UNL     1      16.238   5.076  21.733  1.00  0.00     0.004 C 
ENDBRANCH  18  19
ENDBRANCH  17  18
ENDBRANCH  16  17
ENDBRANCH  15  16
ENDBRANCH  14  15
ENDBRANCH  13  14
ENDBRANCH   2  13
TORSDOF 15
ENDMDL
MODEL 5
REMARK VINA RESULT:    -4.473     10.323     11.828
REMARK INTER + INTRA:          -9.755
REMARK INTER:                  -8.683
REMARK INTRA:                  -1.073
REMARK UNBOUND:                -1.360
REMARK SMILES CCCCCCCCC=CCCCCCCCC(=O)[O-]
REMARK SMILES IDX 10 1 9 2 11 3 12 4 13 5 14 6 15 7 16 8 17 9 18 10 19 11
REMARK SMILES IDX 20 12 8 13 7 14 6 15 5 16 4 17 3 18 2 19 1 20
REMARK H PARENT
REMARK Flexibility Score: inf
ROOT
ATOM      1  C   UNL     1       9.849  -4.272  18.807  1.00  0.00    -0.031 C 
ATOM      2  C   UNL     1      10.625  -4.488  19.879  1.00  0.00    -0.031 C 
ENDROOT
BRANCH   1   3
ATOM      3  C   UNL     1       9.527  -2.872  18.361  1.00  0.00     0.027 C 
BRANCH   3   4
ATOM      4  C   UNL     1       9.798  -2.690  16.865  1.00  0.00     0.004 C 
BRANCH   4   5
ATOM      5  C   UNL     1      11.009  -3.523  16.420  1.00  0.00     0.000 C 
BRANCH   5   6
ATOM      6  C   UNL     1      10.643  -4.609  15.393  1.00  0.00     0.000 C 
BRANCH   6   7
ATOM      7  C   UNL     1       9.132  -4.871  15.227  1.00  0.00     0.000 C 
BRANCH   7   8
ATOM      8  C   UNL     1       8.726  -5.515  13.888  1.00  0.00     0.006 C 
BRANCH   8   9
ATOM      9  C   UNL     1       7.597  -4.754  13.180  1.00  0.00     0.053 C 
BRANCH   9  10
ATOM     10  C   UNL     1       8.094  -3.438  12.673  1.00  0.00     0.041 C 
ATOM     11  O   UNL     1       7.636  -2.363  13.143  1.00  0.00    -0.550 OA
ATOM     12  O   UNL     1       9.027  -3.397  11.644  1.00  0.00    -0.550 OA
ENDBRANCH   9  10
ENDBRANCH   8   9
ENDBRANCH   7   8
ENDBRANCH   6   7
ENDBRANCH   5   6
ENDBRANCH   4   5
ENDBRANCH   3   4
ENDBRANCH   1   3
BRANCH   2  13
ATOM     13  C   UNL     1      10.959  -5.879  20.346  1.00  0.00     0.027 C 
BRANCH  13  14
ATOM     14  C   UNL     1      11.260  -5.934  21.852  1.00  0.00     0.004 C 
BRANCH  14  15
ATOM     15  C   UNL     1      10.342  -4.999  22.660  1.00  0.00     0.000 C 
BRANCH  15  16
ATOM     16  C   UNL     1      11.056  -4.366  23.864  1.00  0.00     0.000 C 
BRANCH  16  17
ATOM     17  C   UNL     1      12.570  -4.222  23.647  1.00  0.00    -0.000 C 
BRANCH  17  18
ATOM     18  C   UNL     1      13.280  -3.858  24.956  1.00  0.00    -0.000 C 
BRANCH  18  19
ATOM     19  C   UNL     1      14.227  -2.668  24.757  1.00  0.00    -0.003 C 
ATOM     20  C   UNL     1      15.621  -3.135  24.352  1.00  0.00     0.004 C 
ENDBRANCH  18  19
ENDBRANCH  17  18
ENDBRANCH  16  17
ENDBRANCH  15  16
ENDBRANCH  14  15
ENDBRANCH  13  14
ENDBRANCH   2  13
TORSDOF 15
ENDMDL
MODEL 6
REMARK VINA RESULT:    -4.439      1.768      3.388
REMARK INTER + INTRA:          -9.692
REMARK INTER:                  -8.644
REMARK INTRA:                  -1.048
REMARK UNBOUND:                -1.360
REMARK SMILES CCCCCCCCC=CCCCCCCCC(=O)[O-]
REMARK SMILES IDX 10 1 9 2 11 3 12 4 13 5 14 6 15 7 16 8 17 9 18 10 19 11
REMARK SMILES IDX 20 12 8 13 7 14 6 15 5 16 4 17 3 18 2 19 1 20
REMARK H PARENT
REMARK Flexibility Score: inf
ROOT
ATOM      1  C   UNL     1      17.430   4.503  15.700  1.00  0.00    -0.031 C 
ATOM      2  C   UNL     1      18.286   4.687  16.715  1.00  0.00    -0.031 C 
ENDROOT
BRANCH   1   3
ATOM      3  C   UNL     1      17.603   3.351  14.749  1.00  0.00     0.027 C 
BRANCH   3   4
ATOM      4  C   UNL     1      18.889   2.574  15.046  1.00  0.00     0.004 C 
BRANCH   4   5
ATOM      5  C   UNL     1      18.572   1.171  15.582  1.00  0.00     0.000 C 
BRANCH   5   6
ATOM      6  C   UNL     1      18.317   0.146  14.462  1.00  0.00     0.000 C 
BRANCH   6   7
ATOM      7  C   UNL     1      16.863   0.083  13.951  1.00  0.00     0.000 C 
BRANCH   7   8
ATOM      8  C   UNL     1      16.684   0.389  12.453  1.00  0.00     0.006 C 
BRANCH   8   9
ATOM      9  C   UNL     1      18.019   0.544  11.713  1.00  0.00     0.053 C 
BRANCH   9  10
ATOM     10  C   UNL     1      18.190  -0.552  10.712  1.00  0.00     0.041 C 
ATOM     11  O   UNL     1      18.118  -1.757  11.071  1.00  0.00    -0.550 OA
ATOM     12  O   UNL     1      18.481  -0.246   9.388  1.00  0.00    -0.550 OA
ENDBRANCH   9  10
ENDBRANCH   8   9
ENDBRANCH   7   8
ENDBRANCH   6   7
ENDBRANCH   5   6
ENDBRANCH   4   5
ENDBRANCH   3   4
ENDBRANCH   1   3
BRANCH   2  13
ATOM     13  C   UNL     1      18.137   5.834  17.678  1.00  0.00     0.027 C 
BRANCH  13  14
ATOM     14  C   UNL     1      16.962   5.634  18.649  1.00  0.00     0.004 C 
BRANCH  14  15
ATOM     15  C   UNL     1      17.175   6.382  19.977  1.00  0.00     0.000 C 
BRANCH  15  16
ATOM     16  C   UNL     1      16.472   5.698  21.160  1.00  0.00     0.000 C 
BRANCH  16  17
ATOM     17  C   UNL     1      15.823   6.703  22.124  1.00  0.00    -0.000 C 
BRANCH  17  18
ATOM     18  C   UNL     1      16.827   7.172  23.184  1.00  0.00    -0.000 C 
BRANCH  18  19
ATOM     19  C   UNL     1      17.791   6.043  23.568  1.00  0.00    -0.003 C 
ATOM     20  C   UNL     1      19.241   6.516  23.523  1.00  0.00     0.004 C 
ENDBRANCH  18  19
ENDBRANCH  17  18
ENDBRANCH  16  17
ENDBRANCH  15  16
ENDBRANCH  14  15
ENDBRANCH  13  14
ENDBRANCH   2  13
TORSDOF 15
ENDMDL
MODEL 7
REMARK VINA RESULT:    -4.434      4.944      6.993
REMARK INTER + INTRA:          -9.682
REMARK INTER:                  -7.158
REMARK INTRA:                  -2.524
REMARK UNBOUND:                -1.360
REMARK SMILES CCCCCCCCC=CCCCCCCCC(=O)[O-]
REMARK SMILES IDX 10 1 9 2 11 3 12 4 13 5 14 6 15 7 16 8 17 9 18 10 19 11
REMARK SMILES IDX 20 12 8 13 7 14 6 15 5 16 4 17 3 18 2 19 1 20
REMARK H PARENT
REMARK Flexibility Score: inf
ROOT
ATOM      1  C   UNL     1      19.221   6.637  23.277  1.00  0.00    -0.031 C 
ATOM      2  C   UNL     1      19.555   7.785  23.883  1.00  0.00    -0.031 C 
ENDROOT
BRANCH   1   3
ATOM      3  C   UNL     1      17.980   5.889  23.680  1.00  0.00     0.027 C 
BRANCH   3   4
ATOM      4  C   UNL     1      16.834   6.851  24.007  1.00  0.00     0.004 C 
BRANCH   4   5
ATOM      5  C   UNL     1      15.848   6.950  22.834  1.00  0.00     0.000 C 
BRANCH   5   6
ATOM      6  C   UNL     1      15.968   5.773  21.850  1.00  0.00     0.000 C 
BRANCH   6   7
ATOM      7  C   UNL     1      15.378   6.028  20.448  1.00  0.00     0.000 C 
BRANCH   7   8
ATOM      8  C   UNL     1      16.413   6.119  19.312  1.00  0.00     0.006 C 
BRANCH   8   9
ATOM      9  C   UNL     1      17.850   6.274  19.826  1.00  0.00     0.053 C 
BRANCH   9  10
ATOM     10  C   UNL     1      18.309   7.689  19.675  1.00  0.00     0.041 C 
ATOM     11  O   UNL     1      17.950   8.565  20.505  1.00  0.00    -0.550 OA
ATOM     12  O   UNL     1      19.093   8.053  18.587  1.00  0.00    -0.550 OA
ENDBRANCH   9  10
ENDBRANCH   8   9
ENDBRANCH   7   8
ENDBRANCH   6   7
ENDBRANCH   5   6
ENDBRANCH   4   5
ENDBRANCH   3   4
ENDBRANCH   1   3
BRANCH   2  13
ATOM     13  C   UNL     1      20.794   8.550  23.499  1.00  0.00     0.027 C 
BRANCH  13  14
ATOM     14  C   UNL     1      21.983   8.239  24.422  1.00  0.00     0.004 C 
BRANCH  14  15
ATOM     15  C   UNL     1      23.047   7.375  23.723  1.00  0.00     0.000 C 
BRANCH  15  16
ATOM     16  C   UNL     1      22.824   5.870  23.943  1.00  0.00     0.000 C 
BRANCH  16  17
ATOM     17  C   UNL     1      22.478   5.127  22.643  1.00  0.00    -0.000 C 
BRANCH  17  18
ATOM     18  C   UNL     1      22.734   6.014  21.420  1.00  0.00    -0.000 C 
BRANCH  18  19
ATOM     19  C   UNL     1      21.502   6.064  20.508  1.00  0.00    -0.003 C 
ATOM     20  C   UNL     1      21.772   5.364  19.179  1.00  0.00     0.004 C 
ENDBRANCH  18  19
ENDBRANCH  17  18
ENDBRANCH  16  17
ENDBRANCH  15  16
ENDBRANCH  14  15
ENDBRANCH  13  14
ENDBRANCH   2  13
TORSDOF 15
ENDMDL
MODEL 8
REMARK VINA RESULT:    -4.434     10.201     11.517
REMARK INTER + INTRA:          -9.682
REMARK INTER:                  -7.651
REMARK INTRA:                  -2.031
REMARK UNBOUND:                -1.360
REMARK SMILES CCCCCCCCC=CCCCCCCCC(=O)[O-]
REMARK SMILES IDX 10 1 9 2 11 3 12 4 13 5 14 6 15 7 16 8 17 9 18 10 19 11
REMARK SMILES IDX 20 12 8 13 7 14 6 15 5 16 4 17 3 18 2 19 1 20
REMARK H PARENT
REMARK Flexibility Score: inf
ROOT
ATOM      1  C   UNL     1      11.454  -4.205  24.503  1.00  0.00    -0.031 C 
ATOM      2  C   UNL     1      12.028  -4.912  25.487  1.00  0.00    -0.031 C 
ENDROOT
BRANCH   1   3
ATOM      3  C   UNL     1      11.919  -4.354  23.080  1.00  0.00     0.027 C 
BRANCH   3   4
ATOM      4  C   UNL     1      12.641  -5.689  22.869  1.00  0.00     0.004 C 
BRANCH   4   5
ATOM      5  C   UNL     1      12.663  -6.072  21.382  1.00  0.00     0.000 C 
BRANCH   5   6
ATOM      6  C   UNL     1      11.371  -5.680  20.643  1.00  0.00     0.000 C 
BRANCH   6   7
ATOM      7  C   UNL     1      11.476  -5.663  19.105  1.00  0.00     0.000 C 
BRANCH   7   8
ATOM      8  C   UNL     1      10.233  -5.123  18.373  1.00  0.00     0.006 C 
BRANCH   8   9
ATOM      9  C   UNL     1      10.407  -5.090  16.849  1.00  0.00     0.053 C 
BRANCH   9  10
ATOM     10  C   UNL     1      10.963  -3.772  16.416  1.00  0.00     0.041 C 
ATOM     11  O   UNL     1      10.336  -2.707  16.660  1.00  0.00    -0.550 OA
ATOM     12  O   UNL     1      12.151  -3.720  15.698  1.00  0.00    -0.550 OA
ENDBRANCH   9  10
ENDBRANCH   8   9
ENDBRANCH   7   8
ENDBRANCH   6   7
ENDBRANCH   5   6
ENDBRANCH   4   5
ENDBRANCH   3   4
ENDBRANCH   1   3
BRANCH   2  13
ATOM     13  C   UNL     1      11.583  -4.778  26.919  1.00  0.00     0.027 C 
BRANCH  13  14
ATOM     14  C   UNL     1      12.605  -4.018  27.780  1.00  0.00     0.004 C 
BRANCH  14  15
ATOM     15  C   UNL     1      12.188  -2.557  28.018  1.00  0.00     0.000 C 
BRANCH  15  16
ATOM     16  C   UNL     1      12.969  -1.568  27.137  1.00  0.00     0.000 C 
BRANCH  16  17
ATOM     17  C   UNL     1      14.250  -2.182  26.552  1.00  0.00    -0.000 C 
BRANCH  17  18
ATOM     18  C   UNL     1      14.273  -2.048  25.024  1.00  0.00    -0.000 C 
BRANCH  18  19
ATOM     19  C   UNL     1      15.182  -3.109  24.392  1.00  0.00    -0.003 C 
ATOM     20  C   UNL     1      15.616  -4.148  25.421  1.00  0.00     0.004 C 
ENDBRANCH  18  19
ENDBRANCH  17  18
ENDBRANCH  16  17
ENDBRANCH  15  16
ENDBRANCH  14  15
ENDBRANCH  13  14
ENDBRANCH   2  13
TORSDOF 15
ENDMDL
MODEL 9
REMARK VINA RESULT:    -4.405     10.239     11.455
REMARK INTER + INTRA:          -9.629
REMARK INTER:                  -8.496
REMARK INTRA:                  -1.133
REMARK UNBOUND:                -1.360
REMARK SMILES CCCCCCCCC=CCCCCCCCC(=O)[O-]
REMARK SMILES IDX 10 1 9 2 11 3 12 4 13 5 14 6 15 7 16 8 17 9 18 10 19 11
REMARK SMILES IDX 20 12 8 13 7 14 6 15 5 16 4 17 3 18 2 19 1 20
REMARK H PARENT
REMARK Flexibility Score: inf
ROOT
ATOM      1  C   UNL     1      11.959  -5.788  21.248  1.00  0.00    -0.031 C 
ATOM      2  C   UNL     1      11.595  -4.907  22.190  1.00  0.00    -0.031 C 
ENDROOT
BRANCH   1   3
ATOM      3  C   UNL     1      11.397  -5.698  19.855  1.00  0.00     0.027 C 
BRANCH   3   4
ATOM      4  C   UNL     1       9.904  -6.042  19.837  1.00  0.00     0.004 C 
BRANCH   4   5
ATOM      5  C   UNL     1       9.056  -4.799  19.530  1.00  0.00     0.000 C 
BRANCH   5   6
ATOM      6  C   UNL     1       9.904  -3.587  19.103  1.00  0.00     0.000 C 
BRANCH   6   7
ATOM      7  C   UNL     1       9.244  -2.661  18.062  1.00  0.00     0.000 C 
BRANCH   7   8
ATOM      8  C   UNL     1       9.797  -2.790  16.631  1.00  0.00     0.006 C 
BRANCH   8   9
ATOM      9  C   UNL     1       8.923  -3.674  15.732  1.00  0.00     0.053 C 
BRANCH   9  10
ATOM     10  C   UNL     1       9.764  -4.374  14.713  1.00  0.00     0.041 C 
ATOM     11  O   UNL     1      10.952  -4.694  14.981  1.00  0.00    -0.550 OA
ATOM     12  O   UNL     1       9.253  -4.631  13.447  1.00  0.00    -0.550 OA
ENDBRANCH   9  10
ENDBRANCH   8   9
ENDBRANCH   7   8
ENDBRANCH   6   7
ENDBRANCH   5   6
ENDBRANCH   4   5
ENDBRANCH   3   4
ENDBRANCH   1   3
BRANCH   2  13
ATOM     13  C   UNL     1      12.141  -4.979  23.592  1.00  0.00     0.027 C 
BRANCH  13  14
ATOM     14  C   UNL     1      12.838  -3.676  24.015  1.00  0.00     0.004 C 
BRANCH  14  15
ATOM     15  C   UNL     1      14.348  -3.875  24.237  1.00  0.00     0.000 C 
BRANCH  15  16
ATOM     16  C   UNL     1      14.930  -2.886  25.259  1.00  0.00     0.000 C 
BRANCH  16  17
ATOM     17  C   UNL     1      15.056  -3.493  26.665  1.00  0.00    -0.000 C 
BRANCH  17  18
ATOM     18  C   UNL     1      14.385  -2.595  27.712  1.00  0.00    -0.000 C 
BRANCH  18  19
ATOM     19  C   UNL     1      13.490  -1.544  27.044  1.00  0.00    -0.003 C 
ATOM     20  C   UNL     1      12.087  -1.553  27.643  1.00  0.00     0.004 C 
ENDBRANCH  18  19
ENDBRANCH  17  18
ENDBRANCH  16  17
ENDBRANCH  15  16
ENDBRANCH  14  15
ENDBRANCH  13  14
ENDBRANCH   2  13
TORSDOF 15
ENDMDL
