MODEL 1
REMARK VINA RESULT:    -2.036      0.000      0.000
REMARK INTER + INTRA:          -8.239
REMARK INTER:                  -5.370
REMARK INTRA:                  -2.870
REMARK UNBOUND:                -2.870
REMARK SMILES CCCCCCCCCCCCCCCCCCCCCCCCCCCCCC(=O)[O-]
REMARK SMILES IDX 16 1 17 2 18 3 19 4 20 5 21 6 22 7 23 8 24 9 25 10 26 11
REMARK SMILES IDX 27 12 28 13 29 14 30 15 31 16 32 17 15 18 14 19 13 20 12 21
REMARK SMILES IDX 11 22 10 23 9 24 8 25 7 26 6 27 5 28 4 29 3 30 2 31 1 32
REMARK H PARENT
REMARK Flexibility Score: inf
ROOT
ATOM      1  C   UNL     1      49.821  47.053  25.065  1.00  0.00     0.000 C 
ENDROOT
BRANCH   1   2
ATOM      2  C   UNL     1      48.342  47.036  24.649  1.00  0.00     0.000 C 
BRANCH   2   3
ATOM      3  C   UNL     1      47.377  46.875  25.842  1.00  0.00     0.000 C 
BRANCH   3   4
ATOM      4  C   UNL     1      46.589  48.145  26.225  1.00  0.00     0.000 C 
BRANCH   4   5
ATOM      5  C   UNL     1      46.798  49.336  25.264  1.00  0.00     0.000 C 
BRANCH   5   6
ATOM      6  C   UNL     1      45.941  50.570  25.600  1.00  0.00     0.000 C 
BRANCH   6   7
ATOM      7  C   UNL     1      46.062  51.714  24.573  1.00  0.00     0.000 C 
BRANCH   7   8
ATOM      8  C   UNL     1      46.181  53.093  25.239  1.00  0.00     0.000 C 
BRANCH   8   9
ATOM      9  C   UNL     1      47.004  53.005  26.531  1.00  0.00     0.000 C 
BRANCH   9  10
ATOM     10  C   UNL     1      48.451  52.581  26.237  1.00  0.00     0.000 C 
BRANCH  10  11
ATOM     11  C   UNL     1      49.332  53.756  25.782  1.00  0.00     0.000 C 
BRANCH  11  12
ATOM     12  C   UNL     1      49.928  53.537  24.380  1.00  0.00     0.000 C 
BRANCH  12  13
ATOM     13  C   UNL     1      51.402  53.973  24.281  1.00  0.00     0.006 C 
BRANCH  13  14
ATOM     14  C   UNL     1      52.406  52.879  24.684  1.00  0.00     0.053 C 
BRANCH  14  15
ATOM     15  C   UNL     1      53.772  53.119  24.123  1.00  0.00     0.041 C 
ATOM     16  O   UNL     1      54.702  52.297  24.342  1.00  0.00    -0.550 OA
ATOM     17  O   UNL     1      54.021  54.243  23.347  1.00  0.00    -0.550 OA
ENDBRANCH  14  15
ENDBRANCH  13  14
ENDBRANCH  12  13
ENDBRANCH  11  12
ENDBRANCH  10  11
ENDBRANCH   9  10
ENDBRANCH   8   9
ENDBRANCH   7   8
ENDBRANCH   6   7
ENDBRANCH   5   6
ENDBRANCH   4   5
ENDBRANCH   3   4
ENDBRANCH   2   3
ENDBRANCH   1   2
BRANCH   1  18
ATOM     18  C   UNL     1      50.742  47.034  23.836  1.00  0.00     0.000 C 
BRANCH  18  19
ATOM     19  C   UNL     1      50.664  48.331  23.013  1.00  0.00     0.000 C 
BRANCH  19  20
ATOM     20  C   UNL     1      50.020  49.528  23.741  1.00  0.00     0.000 C 
BRANCH  20  21
ATOM     21  C   UNL     1      48.825  50.150  22.989  1.00  0.00     0.000 C 
BRANCH  21  22
ATOM     22  C   UNL     1      49.183  51.470  22.280  1.00  0.00     0.000 C 
BRANCH  22  23
ATOM     23  C   UNL     1      49.452  51.295  20.774  1.00  0.00     0.000 C 
BRANCH  23  24
ATOM     24  C   UNL     1      50.796  50.634  20.416  1.00  0.00    -0.000 C 
BRANCH  24  25
ATOM     25  C   UNL     1      51.934  51.015  21.378  1.00  0.00    -0.000 C 
BRANCH  25  26
ATOM     26  C   UNL     1      52.796  52.178  20.854  1.00  0.00    -0.000 C 
BRANCH  26  27
ATOM     27  C   UNL     1      52.083  53.541  20.774  1.00  0.00    -0.000 C 
BRANCH  27  28
ATOM     28  C   UNL     1      52.125  54.157  19.367  1.00  0.00    -0.000 C 
BRANCH  28  29
ATOM     29  C   UNL     1      52.256  55.684  19.440  1.00  0.00    -0.000 C 
BRANCH  29  30
ATOM     30  C   UNL     1      52.316  56.212  20.885  1.00  0.00    -0.000 C 
BRANCH  30  31
ATOM     31  C   UNL     1      53.680  56.825  21.265  1.00  0.00    -0.003 C 
ATOM     32  C   UNL     1      53.592  57.720  22.501  1.00  0.00     0.004 C 
ENDBRANCH  30  31
ENDBRANCH  29  30
ENDBRANCH  28  29
ENDBRANCH  27  28
ENDBRANCH  26  27
ENDBRANCH  25  26
ENDBRANCH  24  25
ENDBRANCH  23  24
ENDBRANCH  22  23
ENDBRANCH  21  22
ENDBRANCH  20  21
ENDBRANCH  19  20
ENDBRANCH  18  19
ENDBRANCH   1  18
TORSDOF 28
ENDMDL
MODEL 2
REMARK VINA RESULT:    -1.736      1.735      4.754
REMARK INTER + INTRA:          -7.447
REMARK INTER:                  -3.028
REMARK INTRA:                  -4.419
REMARK UNBOUND:                -2.870
REMARK SMILES CCCCCCCCCCCCCCCCCCCCCCCCCCCCCC(=O)[O-]
REMARK SMILES IDX 16 1 17 2 18 3 19 4 20 5 21 6 22 7 23 8 24 9 25 10 26 11
REMARK SMILES IDX 27 12 28 13 29 14 30 15 31 16 32 17 15 18 14 19 13 20 12 21
REMARK SMILES IDX 11 22 10 23 9 24 8 25 7 26 6 27 5 28 4 29 3 30 2 31 1 32
REMARK H PARENT
REMARK Flexibility Score: inf
ROOT
ATOM      1  C   UNL     1      47.901  54.004  26.374  1.00  0.00     0.000 C 
ENDROOT
BRANCH   1   2
ATOM      2  C   UNL     1      46.423  54.066  25.961  1.00  0.00     0.000 C 
BRANCH   2   3
ATOM      3  C   UNL     1      45.876  52.715  25.455  1.00  0.00     0.000 C 
BRANCH   3   4
ATOM      4  C   UNL     1      46.150  52.410  23.968  1.00  0.00     0.000 C 
BRANCH   4   5
ATOM      5  C   UNL     1      46.394  50.916  23.660  1.00  0.00     0.000 C 
BRANCH   5   6
ATOM      6  C   UNL     1      46.255  49.995  24.885  1.00  0.00     0.000 C 
BRANCH   6   7
ATOM      7  C   UNL     1      47.545  49.224  25.237  1.00  0.00     0.000 C 
BRANCH   7   8
ATOM      8  C   UNL     1      47.306  47.715  25.389  1.00  0.00     0.000 C 
BRANCH   8   9
ATOM      9  C   UNL     1      48.276  46.917  24.509  1.00  0.00     0.000 C 
BRANCH   9  10
ATOM     10  C   UNL     1      49.706  46.977  25.067  1.00  0.00     0.000 C 
BRANCH  10  11
ATOM     11  C   UNL     1      50.764  47.168  23.968  1.00  0.00     0.000 C 
BRANCH  11  12
ATOM     12  C   UNL     1      51.075  48.652  23.703  1.00  0.00     0.000 C 
BRANCH  12  13
ATOM     13  C   UNL     1      50.784  49.074  22.250  1.00  0.00     0.006 C 
BRANCH  13  14
ATOM     14  C   UNL     1      49.428  49.775  22.062  1.00  0.00     0.053 C 
BRANCH  14  15
ATOM     15  C   UNL     1      49.543  51.052  21.291  1.00  0.00     0.041 C 
ATOM     16  O   UNL     1      49.085  52.125  21.767  1.00  0.00    -0.550 OA
ATOM     17  O   UNL     1      50.169  51.064  20.051  1.00  0.00    -0.550 OA
ENDBRANCH  14  15
ENDBRANCH  13  14
ENDBRANCH  12  13
ENDBRANCH  11  12
ENDBRANCH  10  11
ENDBRANCH   9  10
ENDBRANCH   8   9
ENDBRANCH   7   8
ENDBRANCH   6   7
ENDBRANCH   5   6
ENDBRANCH   4   5
ENDBRANCH   3   4
ENDBRANCH   2   3
ENDBRANCH   1   2
BRANCH   1  18
ATOM     18  C   UNL     1      48.420  52.558  26.361  1.00  0.00     0.000 C 
BRANCH  18  19
ATOM     19  C   UNL     1      49.531  52.333  25.322  1.00  0.00     0.000 C 
BRANCH  19  20
ATOM     20  C   UNL     1      49.952  53.590  24.534  1.00  0.00     0.000 C 
BRANCH  20  21
ATOM     21  C   UNL     1      51.092  54.393  25.197  1.00  0.00     0.000 C 
BRANCH  21  22
ATOM     22  C   UNL     1      52.329  54.538  24.290  1.00  0.00     0.000 C 
BRANCH  22  23
ATOM     23  C   UNL     1      53.415  53.484  24.575  1.00  0.00     0.000 C 
BRANCH  23  24
ATOM     24  C   UNL     1      53.997  52.784  23.331  1.00  0.00    -0.000 C 
BRANCH  24  25
ATOM     25  C   UNL     1      52.927  52.086  22.473  1.00  0.00    -0.000 C 
BRANCH  25  26
ATOM     26  C   UNL     1      53.336  51.962  20.994  1.00  0.00    -0.000 C 
BRANCH  26  27
ATOM     27  C   UNL     1      52.678  52.977  20.041  1.00  0.00    -0.000 C 
BRANCH  27  28
ATOM     28  C   UNL     1      51.876  54.059  20.781  1.00  0.00    -0.000 C 
BRANCH  28  29
ATOM     29  C   UNL     1      51.915  55.389  20.017  1.00  0.00    -0.000 C 
BRANCH  29  30
ATOM     30  C   UNL     1      52.132  56.602  20.938  1.00  0.00    -0.000 C 
BRANCH  30  31
ATOM     31  C   UNL     1      53.461  56.555  21.723  1.00  0.00    -0.003 C 
ATOM     32  C   UNL     1      53.737  57.855  22.478  1.00  0.00     0.004 C 
ENDBRANCH  30  31
ENDBRANCH  29  30
ENDBRANCH  28  29
ENDBRANCH  27  28
ENDBRANCH  26  27
ENDBRANCH  25  26
ENDBRANCH  24  25
ENDBRANCH  23  24
ENDBRANCH  22  23
ENDBRANCH  21  22
ENDBRANCH  20  21
ENDBRANCH  19  20
ENDBRANCH  18  19
ENDBRANCH   1  18
TORSDOF 28
ENDMDL
MODEL 3
REMARK VINA RESULT:    -1.352      1.384      6.559
REMARK INTER + INTRA:          -6.435
REMARK INTER:                  -3.130
REMARK INTRA:                  -3.304
REMARK UNBOUND:                -2.870
REMARK SMILES CCCCCCCCCCCCCCCCCCCCCCCCCCCCCC(=O)[O-]
REMARK SMILES IDX 16 1 17 2 18 3 19 4 20 5 21 6 22 7 23 8 24 9 25 10 26 11
REMARK SMILES IDX 27 12 28 13 29 14 30 15 31 16 32 17 15 18 14 19 13 20 12 21
REMARK SMILES IDX 11 22 10 23 9 24 8 25 7 26 6 27 5 28 4 29 3 30 2 31 1 32
REMARK H PARENT
REMARK Flexibility Score: inf
ROOT
ATOM      1  C   UNL     1      47.527  53.719  26.198  1.00  0.00     0.000 C 
ENDROOT
BRANCH   1   2
ATOM      2  C   UNL     1      48.688  52.820  25.745  1.00  0.00     0.000 C 
BRANCH   2   3
ATOM      3  C   UNL     1      50.057  53.528  25.789  1.00  0.00     0.000 C 
BRANCH   3   4
ATOM      4  C   UNL     1      50.613  53.970  24.420  1.00  0.00     0.000 C 
BRANCH   4   5
ATOM      5  C   UNL     1      52.113  54.338  24.432  1.00  0.00     0.000 C 
BRANCH   5   6
ATOM      6  C   UNL     1      53.020  53.246  25.026  1.00  0.00     0.000 C 
BRANCH   6   7
ATOM      7  C   UNL     1      54.192  52.839  24.109  1.00  0.00     0.000 C 
BRANCH   7   8
ATOM      8  C   UNL     1      53.993  53.305  22.659  1.00  0.00     0.000 C 
BRANCH   8   9
ATOM      9  C   UNL     1      53.713  52.112  21.736  1.00  0.00     0.000 C 
BRANCH   9  10
ATOM     10  C   UNL     1      52.203  51.885  21.567  1.00  0.00     0.000 C 
BRANCH  10  11
ATOM     11  C   UNL     1      51.559  52.887  20.593  1.00  0.00     0.000 C 
BRANCH  11  12
ATOM     12  C   UNL     1      52.605  53.691  19.800  1.00  0.00     0.000 C 
BRANCH  12  13
ATOM     13  C   UNL     1      52.199  55.164  19.598  1.00  0.00     0.006 C 
BRANCH  13  14
ATOM     14  C   UNL     1      51.832  55.895  20.901  1.00  0.00     0.053 C 
BRANCH  14  15
ATOM     15  C   UNL     1      52.915  56.816  21.367  1.00  0.00     0.041 C 
ATOM     16  O   UNL     1      52.632  57.834  22.054  1.00  0.00    -0.550 OA
ATOM     17  O   UNL     1      54.242  56.547  21.058  1.00  0.00    -0.550 OA
ENDBRANCH  14  15
ENDBRANCH  13  14
ENDBRANCH  12  13
ENDBRANCH  11  12
ENDBRANCH  10  11
ENDBRANCH   9  10
ENDBRANCH   8   9
ENDBRANCH   7   8
ENDBRANCH   6   7
ENDBRANCH   5   6
ENDBRANCH   4   5
ENDBRANCH   3   4
ENDBRANCH   2   3
ENDBRANCH   1   2
BRANCH   1  18
ATOM     18  C   UNL     1      46.187  53.221  25.635  1.00  0.00     0.000 C 
BRANCH  18  19
ATOM     19  C   UNL     1      46.361  52.263  24.444  1.00  0.00     0.000 C 
BRANCH  19  20
ATOM     20  C   UNL     1      46.033  50.786  24.740  1.00  0.00     0.000 C 
BRANCH  20  21
ATOM     21  C   UNL     1      45.875  50.468  26.242  1.00  0.00     0.000 C 
BRANCH  21  22
ATOM     22  C   UNL     1      46.421  49.078  26.620  1.00  0.00     0.000 C 
BRANCH  22  23
ATOM     23  C   UNL     1      46.686  48.178  25.398  1.00  0.00     0.000 C 
BRANCH  23  24
ATOM     24  C   UNL     1      47.723  47.060  25.615  1.00  0.00    -0.000 C 
BRANCH  24  25
ATOM     25  C   UNL     1      48.711  46.913  24.445  1.00  0.00    -0.000 C 
BRANCH  25  26
ATOM     26  C   UNL     1      50.182  47.021  24.887  1.00  0.00    -0.000 C 
BRANCH  26  27
ATOM     27  C   UNL     1      51.172  47.434  23.783  1.00  0.00    -0.000 C 
BRANCH  27  28
ATOM     28  C   UNL     1      50.574  48.440  22.788  1.00  0.00    -0.000 C 
BRANCH  28  29
ATOM     29  C   UNL     1      50.037  49.680  23.517  1.00  0.00    -0.000 C 
BRANCH  29  30
ATOM     30  C   UNL     1      48.718  50.201  22.919  1.00  0.00    -0.000 C 
BRANCH  30  31
ATOM     31  C   UNL     1      48.914  51.185  21.747  1.00  0.00    -0.003 C 
ATOM     32  C   UNL     1      48.634  52.633  22.150  1.00  0.00     0.004 C 
ENDBRANCH  30  31
ENDBRANCH  29  30
ENDBRANCH  28  29
ENDBRANCH  27  28
ENDBRANCH  26  27
ENDBRANCH  25  26
ENDBRANCH  24  25
ENDBRANCH  23  24
ENDBRANCH  22  23
ENDBRANCH  21  22
ENDBRANCH  20  21
ENDBRANCH  19  20
ENDBRANCH  18  19
ENDBRANCH   1  18
TORSDOF 28
ENDMDL
MODEL 4
REMARK VINA RESULT:    -1.245      1.191      3.692
REMARK INTER + INTRA:          -6.154
REMARK INTER:                  -3.355
REMARK INTRA:                  -2.799
REMARK UNBOUND:                -2.870
REMARK SMILES CCCCCCCCCCCCCCCCCCCCCCCCCCCCCC(=O)[O-]
REMARK SMILES IDX 16 1 17 2 18 3 19 4 20 5 21 6 22 7 23 8 24 9 25 10 26 11
REMARK SMILES IDX 27 12 28 13 29 14 30 15 31 16 32 17 15 18 14 19 13 20 12 21
REMARK SMILES IDX 11 22 10 23 9 24 8 25 7 26 6 27 5 28 4 29 3 30 2 31 1 32
REMARK H PARENT
REMARK Flexibility Score: inf
ROOT
ATOM      1  C   UNL     1      47.156  51.369  23.456  1.00  0.00     0.000 C 
ENDROOT
BRANCH   1   2
ATOM      2  C   UNL     1      45.875  52.165  23.745  1.00  0.00     0.000 C 
BRANCH   2   3
ATOM      3  C   UNL     1      46.150  53.612  24.205  1.00  0.00     0.000 C 
BRANCH   3   4
ATOM      4  C   UNL     1      46.002  53.858  25.721  1.00  0.00     0.000 C 
BRANCH   4   5
ATOM      5  C   UNL     1      46.223  52.602  26.593  1.00  0.00     0.000 C 
BRANCH   5   6
ATOM      6  C   UNL     1      47.550  52.607  27.373  1.00  0.00     0.000 C 
BRANCH   6   7
ATOM      7  C   UNL     1      48.681  53.392  26.678  1.00  0.00     0.000 C 
BRANCH   7   8
ATOM      8  C   UNL     1      49.516  52.510  25.736  1.00  0.00     0.000 C 
BRANCH   8   9
ATOM      9  C   UNL     1      49.806  53.242  24.419  1.00  0.00     0.000 C 
BRANCH   9  10
ATOM     10  C   UNL     1      50.495  54.591  24.676  1.00  0.00     0.000 C 
BRANCH  10  11
ATOM     11  C   UNL     1      52.002  54.445  24.943  1.00  0.00     0.000 C 
BRANCH  11  12
ATOM     12  C   UNL     1      52.859  54.950  23.768  1.00  0.00     0.000 C 
BRANCH  12  13
ATOM     13  C   UNL     1      54.224  54.241  23.675  1.00  0.00     0.006 C 
BRANCH  13  14
ATOM     14  C   UNL     1      54.127  52.739  23.359  1.00  0.00     0.053 C 
BRANCH  14  15
ATOM     15  C   UNL     1      53.444  51.967  24.444  1.00  0.00     0.041 C 
ATOM     16  O   UNL     1      52.349  51.385  24.217  1.00  0.00    -0.550 OA
ATOM     17  O   UNL     1      54.019  51.876  25.705  1.00  0.00    -0.550 OA
ENDBRANCH  14  15
ENDBRANCH  13  14
ENDBRANCH  12  13
ENDBRANCH  11  12
ENDBRANCH  10  11
ENDBRANCH   9  10
ENDBRANCH   8   9
ENDBRANCH   7   8
ENDBRANCH   6   7
ENDBRANCH   5   6
ENDBRANCH   4   5
ENDBRANCH   3   4
ENDBRANCH   2   3
ENDBRANCH   1   2
BRANCH   1  18
ATOM     18  C   UNL     1      46.972  49.881  23.792  1.00  0.00     0.000 C 
BRANCH  18  19
ATOM     19  C   UNL     1      47.368  49.543  25.239  1.00  0.00     0.000 C 
BRANCH  19  20
ATOM     20  C   UNL     1      47.377  48.040  25.580  1.00  0.00     0.000 C 
BRANCH  20  21
ATOM     21  C   UNL     1      48.166  47.174  24.574  1.00  0.00     0.000 C 
BRANCH  21  22
ATOM     22  C   UNL     1      49.657  47.043  24.937  1.00  0.00     0.000 C 
BRANCH  22  23
ATOM     23  C   UNL     1      50.595  47.617  23.858  1.00  0.00     0.000 C 
BRANCH  23  24
ATOM     24  C   UNL     1      50.350  49.092  23.489  1.00  0.00    -0.000 C 
BRANCH  24  25
ATOM     25  C   UNL     1      50.253  49.330  21.972  1.00  0.00    -0.000 C 
BRANCH  25  26
ATOM     26  C   UNL     1      50.203  50.824  21.603  1.00  0.00    -0.000 C 
BRANCH  26  27
ATOM     27  C   UNL     1      51.098  51.241  20.421  1.00  0.00    -0.000 C 
BRANCH  27  28
ATOM     28  C   UNL     1      52.303  52.089  20.853  1.00  0.00    -0.000 C 
BRANCH  28  29
ATOM     29  C   UNL     1      52.383  53.386  20.037  1.00  0.00    -0.000 C 
BRANCH  29  30
ATOM     30  C   UNL     1      51.994  54.632  20.852  1.00  0.00    -0.000 C 
BRANCH  30  31
ATOM     31  C   UNL     1      52.522  55.953  20.255  1.00  0.00    -0.003 C 
ATOM     32  C   UNL     1      53.066  56.899  21.326  1.00  0.00     0.004 C 
ENDBRANCH  30  31
ENDBRANCH  29  30
ENDBRANCH  28  29
ENDBRANCH  27  28
ENDBRANCH  26  27
ENDBRANCH  25  26
ENDBRANCH  24  25
ENDBRANCH  23  24
ENDBRANCH  22  23
ENDBRANCH  21  22
ENDBRANCH  20  21
ENDBRANCH  19  20
ENDBRANCH  18  19
ENDBRANCH   1  18
TORSDOF 28
ENDMDL
MODEL 5
REMARK VINA RESULT:    -0.987      1.906      4.943
REMARK INTER + INTRA:          -5.471
REMARK INTER:                  -5.512
REMARK INTRA:                   0.041
REMARK UNBOUND:                -2.870
REMARK SMILES CCCCCCCCCCCCCCCCCCCCCCCCCCCCCC(=O)[O-]
REMARK SMILES IDX 16 1 17 2 18 3 19 4 20 5 21 6 22 7 23 8 24 9 25 10 26 11
REMARK SMILES IDX 27 12 28 13 29 14 30 15 31 16 32 17 15 18 14 19 13 20 12 21
REMARK SMILES IDX 11 22 10 23 9 24 8 25 7 26 6 27 5 28 4 29 3 30 2 31 1 32
REMARK H PARENT
REMARK Flexibility Score: inf
ROOT
ATOM      1  C   UNL     1      49.079  53.277  25.212  1.00  0.00     0.000 C 
ENDROOT
BRANCH   1   2
ATOM      2  C   UNL     1      48.858  52.999  26.707  1.00  0.00     0.000 C 
BRANCH   2   3
ATOM      3  C   UNL     1      47.490  53.494  27.221  1.00  0.00     0.000 C 
BRANCH   3   4
ATOM      4  C   UNL     1      46.419  53.711  26.133  1.00  0.00     0.000 C 
BRANCH   4   5
ATOM      5  C   UNL     1      45.877  52.407  25.507  1.00  0.00     0.000 C 
BRANCH   5   6
ATOM      6  C   UNL     1      45.889  52.399  23.968  1.00  0.00     0.000 C 
BRANCH   6   7
ATOM      7  C   UNL     1      47.218  51.908  23.357  1.00  0.00     0.000 C 
BRANCH   7   8
ATOM      8  C   UNL     1      47.571  50.477  23.787  1.00  0.00     0.000 C 
BRANCH   8   9
ATOM      9  C   UNL     1      46.377  49.804  24.475  1.00  0.00     0.000 C 
BRANCH   9  10
ATOM     10  C   UNL     1      46.717  49.423  25.924  1.00  0.00     0.000 C 
BRANCH  10  11
ATOM     11  C   UNL     1      46.349  47.967  26.256  1.00  0.00     0.000 C 
BRANCH  11  12
ATOM     12  C   UNL     1      47.390  46.963  25.729  1.00  0.00     0.000 C 
BRANCH  12  13
ATOM     13  C   UNL     1      48.454  47.621  24.829  1.00  0.00     0.006 C 
BRANCH  13  14
ATOM     14  C   UNL     1      49.800  46.876  24.805  1.00  0.00     0.053 C 
BRANCH  14  15
ATOM     15  C   UNL     1      50.743  47.427  23.782  1.00  0.00     0.041 C 
ATOM     16  O   UNL     1      50.344  48.282  22.946  1.00  0.00    -0.550 OA
ATOM     17  O   UNL     1      52.067  47.009  23.757  1.00  0.00    -0.550 OA
ENDBRANCH  14  15
ENDBRANCH  13  14
ENDBRANCH  12  13
ENDBRANCH  11  12
ENDBRANCH  10  11
ENDBRANCH   9  10
ENDBRANCH   8   9
ENDBRANCH   7   8
ENDBRANCH   6   7
ENDBRANCH   5   6
ENDBRANCH   4   5
ENDBRANCH   3   4
ENDBRANCH   2   3
ENDBRANCH   1   2
BRANCH   1  18
ATOM     18  C   UNL     1      50.576  53.290  24.866  1.00  0.00     0.000 C 
BRANCH  18  19
ATOM     19  C   UNL     1      51.166  54.710  24.830  1.00  0.00     0.000 C 
BRANCH  19  20
ATOM     20  C   UNL     1      52.685  54.779  24.580  1.00  0.00     0.000 C 
BRANCH  20  21
ATOM     21  C   UNL     1      53.379  53.401  24.543  1.00  0.00     0.000 C 
BRANCH  21  22
ATOM     22  C   UNL     1      54.409  53.278  23.405  1.00  0.00     0.000 C 
BRANCH  22  23
ATOM     23  C   UNL     1      54.196  52.030  22.528  1.00  0.00     0.000 C 
BRANCH  23  24
ATOM     24  C   UNL     1      53.427  52.270  21.215  1.00  0.00    -0.000 C 
BRANCH  24  25
ATOM     25  C   UNL     1      52.310  51.242  20.969  1.00  0.00    -0.000 C 
BRANCH  25  26
ATOM     26  C   UNL     1      51.108  51.427  21.914  1.00  0.00    -0.000 C 
BRANCH  26  27
ATOM     27  C   UNL     1      50.134  52.556  21.526  1.00  0.00    -0.000 C 
BRANCH  27  28
ATOM     28  C   UNL     1      50.807  53.936  21.479  1.00  0.00    -0.000 C 
BRANCH  28  29
ATOM     29  C   UNL     1      51.732  54.054  20.259  1.00  0.00    -0.000 C 
BRANCH  29  30
ATOM     30  C   UNL     1      52.356  55.453  20.115  1.00  0.00    -0.000 C 
BRANCH  30  31
ATOM     31  C   UNL     1      52.336  56.279  21.419  1.00  0.00    -0.003 C 
ATOM     32  C   UNL     1      53.649  57.025  21.656  1.00  0.00     0.004 C 
ENDBRANCH  30  31
ENDBRANCH  29  30
ENDBRANCH  28  29
ENDBRANCH  27  28
ENDBRANCH  26  27
ENDBRANCH  25  26
ENDBRANCH  24  25
ENDBRANCH  23  24
ENDBRANCH  22  23
ENDBRANCH  21  22
ENDBRANCH  20  21
ENDBRANCH  19  20
ENDBRANCH  18  19
ENDBRANCH   1  18
TORSDOF 28
ENDMDL
MODEL 6
REMARK VINA RESULT:    -0.838      2.318      6.350
REMARK INTER + INTRA:          -5.080
REMARK INTER:                  -2.347
REMARK INTRA:                  -2.733
REMARK UNBOUND:                -2.870
REMARK SMILES CCCCCCCCCCCCCCCCCCCCCCCCCCCCCC(=O)[O-]
REMARK SMILES IDX 16 1 17 2 18 3 19 4 20 5 21 6 22 7 23 8 24 9 25 10 26 11
REMARK SMILES IDX 27 12 28 13 29 14 30 15 31 16 32 17 15 18 14 19 13 20 12 21
REMARK SMILES IDX 11 22 10 23 9 24 8 25 7 26 6 27 5 28 4 29 3 30 2 31 1 32
REMARK H PARENT
REMARK Flexibility Score: inf
ROOT
ATOM      1  C   UNL     1      46.362  53.241  26.058  1.00  0.00     0.000 C 
ENDROOT
BRANCH   1   2
ATOM      2  C   UNL     1      47.715  53.447  26.756  1.00  0.00     0.000 C 
BRANCH   2   3
ATOM      3  C   UNL     1      48.889  52.770  26.019  1.00  0.00     0.000 C 
BRANCH   3   4
ATOM      4  C   UNL     1      49.308  53.441  24.695  1.00  0.00     0.000 C 
BRANCH   4   5
ATOM      5  C   UNL     1      50.791  53.229  24.317  1.00  0.00     0.000 C 
BRANCH   5   6
ATOM      6  C   UNL     1      51.726  54.353  24.798  1.00  0.00     0.000 C 
BRANCH   6   7
ATOM      7  C   UNL     1      53.006  54.507  23.950  1.00  0.00     0.000 C 
BRANCH   7   8
ATOM      8  C   UNL     1      53.962  53.315  24.105  1.00  0.00     0.000 C 
BRANCH   8   9
ATOM      9  C   UNL     1      54.154  52.591  22.767  1.00  0.00     0.000 C 
BRANCH   9  10
ATOM     10  C   UNL     1      52.808  52.118  22.196  1.00  0.00     0.000 C 
BRANCH  10  11
ATOM     11  C   UNL     1      52.908  51.688  20.723  1.00  0.00     0.000 C 
BRANCH  11  12
ATOM     12  C   UNL     1      52.884  52.887  19.757  1.00  0.00     0.000 C 
BRANCH  12  13
ATOM     13  C   UNL     1      52.100  54.089  20.317  1.00  0.00     0.006 C 
BRANCH  13  14
ATOM     14  C   UNL     1      52.909  55.397  20.359  1.00  0.00     0.053 C 
BRANCH  14  15
ATOM     15  C   UNL     1      52.196  56.489  21.093  1.00  0.00     0.041 C 
ATOM     16  O   UNL     1      52.841  57.462  21.568  1.00  0.00    -0.550 OA
ATOM     17  O   UNL     1      50.816  56.444  21.244  1.00  0.00    -0.550 OA
ENDBRANCH  14  15
ENDBRANCH  13  14
ENDBRANCH  12  13
ENDBRANCH  11  12
ENDBRANCH  10  11
ENDBRANCH   9  10
ENDBRANCH   8   9
ENDBRANCH   7   8
ENDBRANCH   6   7
ENDBRANCH   5   6
ENDBRANCH   4   5
ENDBRANCH   3   4
ENDBRANCH   2   3
ENDBRANCH   1   2
BRANCH   1  18
ATOM     18  C   UNL     1      45.922  51.770  26.124  1.00  0.00     0.000 C 
BRANCH  18  19
ATOM     19  C   UNL     1      46.525  50.917  24.996  1.00  0.00     0.000 C 
BRANCH  19  20
ATOM     20  C   UNL     1      46.489  49.395  25.238  1.00  0.00     0.000 C 
BRANCH  20  21
ATOM     21  C   UNL     1      47.727  48.645  24.702  1.00  0.00     0.000 C 
BRANCH  21  22
ATOM     22  C   UNL     1      48.669  49.550  23.885  1.00  0.00     0.000 C 
BRANCH  22  23
ATOM     23  C   UNL     1      50.071  48.942  23.687  1.00  0.00     0.000 C 
BRANCH  23  24
ATOM     24  C   UNL     1      50.746  49.267  22.341  1.00  0.00    -0.000 C 
BRANCH  24  25
ATOM     25  C   UNL     1      49.743  49.463  21.191  1.00  0.00    -0.000 C 
BRANCH  25  26
ATOM     26  C   UNL     1      49.734  50.903  20.645  1.00  0.00    -0.000 C 
BRANCH  26  27
ATOM     27  C   UNL     1      49.932  51.031  19.123  1.00  0.00    -0.000 C 
BRANCH  27  28
ATOM     28  C   UNL     1      49.501  49.772  18.356  1.00  0.00    -0.000 C 
BRANCH  28  29
ATOM     29  C   UNL     1      49.000  50.130  16.950  1.00  0.00    -0.000 C 
BRANCH  29  30
ATOM     30  C   UNL     1      48.060  49.064  16.360  1.00  0.00    -0.000 C 
BRANCH  30  31
ATOM     31  C   UNL     1      48.513  47.615  16.639  1.00  0.00    -0.003 C 
ATOM     32  C   UNL     1      49.788  47.247  15.881  1.00  0.00     0.004 C 
ENDBRANCH  30  31
ENDBRANCH  29  30
ENDBRANCH  28  29
ENDBRANCH  27  28
ENDBRANCH  26  27
ENDBRANCH  25  26
ENDBRANCH  24  25
ENDBRANCH  23  24
ENDBRANCH  22  23
ENDBRANCH  21  22
ENDBRANCH  20  21
ENDBRANCH  19  20
ENDBRANCH  18  19
ENDBRANCH   1  18
TORSDOF 28
ENDMDL
MODEL 7
REMARK VINA RESULT:    -0.603      1.538      5.345
REMARK INTER + INTRA:          -4.460
REMARK INTER:                  -5.272
REMARK INTRA:                   0.812
REMARK UNBOUND:                -2.870
REMARK SMILES CCCCCCCCCCCCCCCCCCCCCCCCCCCCCC(=O)[O-]
REMARK SMILES IDX 16 1 17 2 18 3 19 4 20 5 21 6 22 7 23 8 24 9 25 10 26 11
REMARK SMILES IDX 27 12 28 13 29 14 30 15 31 16 32 17 15 18 14 19 13 20 12 21
REMARK SMILES IDX 11 22 10 23 9 24 8 25 7 26 6 27 5 28 4 29 3 30 2 31 1 32
REMARK H PARENT
REMARK Flexibility Score: inf
ROOT
ATOM      1  C   UNL     1      48.543  47.472  24.302  1.00  0.00     0.000 C 
ENDROOT
BRANCH   1   2
ATOM      2  C   UNL     1      49.876  46.998  24.900  1.00  0.00     0.000 C 
BRANCH   2   3
ATOM      3  C   UNL     1      51.099  47.393  24.048  1.00  0.00     0.000 C 
BRANCH   3   4
ATOM      4  C   UNL     1      50.781  48.224  22.788  1.00  0.00     0.000 C 
BRANCH   4   5
ATOM      5  C   UNL     1      50.542  49.726  23.060  1.00  0.00     0.000 C 
BRANCH   5   6
ATOM      6  C   UNL     1      49.090  50.181  22.828  1.00  0.00     0.000 C 
BRANCH   6   7
ATOM      7  C   UNL     1      48.959  51.393  21.883  1.00  0.00     0.000 C 
BRANCH   7   8
ATOM      8  C   UNL     1      50.105  51.472  20.864  1.00  0.00     0.000 C 
BRANCH   8   9
ATOM      9  C   UNL     1      51.384  50.844  21.433  1.00  0.00     0.000 C 
BRANCH   9  10
ATOM     10  C   UNL     1      52.613  51.712  21.120  1.00  0.00     0.000 C 
BRANCH  10  11
ATOM     11  C   UNL     1      52.491  52.448  19.775  1.00  0.00     0.000 C 
BRANCH  11  12
ATOM     12  C   UNL     1      52.318  53.967  19.948  1.00  0.00     0.000 C 
BRANCH  12  13
ATOM     13  C   UNL     1      51.946  54.366  21.389  1.00  0.00     0.006 C 
BRANCH  13  14
ATOM     14  C   UNL     1      52.941  55.338  22.046  1.00  0.00     0.053 C 
BRANCH  14  15
ATOM     15  C   UNL     1      52.978  56.670  21.364  1.00  0.00     0.041 C 
ATOM     16  O   UNL     1      52.253  57.615  21.776  1.00  0.00    -0.550 OA
ATOM     17  O   UNL     1      53.821  56.876  20.280  1.00  0.00    -0.550 OA
ENDBRANCH  14  15
ENDBRANCH  13  14
ENDBRANCH  12  13
ENDBRANCH  11  12
ENDBRANCH  10  11
ENDBRANCH   9  10
ENDBRANCH   8   9
ENDBRANCH   7   8
ENDBRANCH   6   7
ENDBRANCH   5   6
ENDBRANCH   4   5
ENDBRANCH   3   4
ENDBRANCH   2   3
ENDBRANCH   1   2
BRANCH   1  18
ATOM     18  C   UNL     1      47.349  46.881  25.068  1.00  0.00     0.000 C 
BRANCH  18  19
ATOM     19  C   UNL     1      47.554  46.898  26.592  1.00  0.00     0.000 C 
BRANCH  19  20
ATOM     20  C   UNL     1      46.302  47.263  27.415  1.00  0.00     0.000 C 
BRANCH  20  21
ATOM     21  C   UNL     1      45.915  48.755  27.339  1.00  0.00     0.000 C 
BRANCH  21  22
ATOM     22  C   UNL     1      46.293  49.405  25.994  1.00  0.00     0.000 C 
BRANCH  22  23
ATOM     23  C   UNL     1      45.876  50.885  25.899  1.00  0.00     0.000 C 
BRANCH  23  24
ATOM     24  C   UNL     1      45.942  51.499  24.488  1.00  0.00    -0.000 C 
BRANCH  24  25
ATOM     25  C   UNL     1      46.588  52.894  24.463  1.00  0.00    -0.000 C 
BRANCH  25  26
ATOM     26  C   UNL     1      47.117  53.332  25.841  1.00  0.00    -0.000 C 
BRANCH  26  27
ATOM     27  C   UNL     1      48.483  52.743  26.240  1.00  0.00    -0.000 C 
BRANCH  27  28
ATOM     28  C   UNL     1      49.477  52.693  25.071  1.00  0.00    -0.000 C 
BRANCH  28  29
ATOM     29  C   UNL     1      50.014  54.094  24.747  1.00  0.00    -0.000 C 
BRANCH  29  30
ATOM     30  C   UNL     1      51.548  54.134  24.624  1.00  0.00    -0.000 C 
BRANCH  30  31
ATOM     31  C   UNL     1      52.189  52.746  24.411  1.00  0.00    -0.003 C 
ATOM     32  C   UNL     1      53.639  52.695  24.895  1.00  0.00     0.004 C 
ENDBRANCH  30  31
ENDBRANCH  29  30
ENDBRANCH  28  29
ENDBRANCH  27  28
ENDBRANCH  26  27
ENDBRANCH  25  26
ENDBRANCH  24  25
ENDBRANCH  23  24
ENDBRANCH  22  23
ENDBRANCH  21  22
ENDBRANCH  20  21
ENDBRANCH  19  20
ENDBRANCH  18  19
ENDBRANCH   1  18
TORSDOF 28
ENDMDL
MODEL 8
REMARK VINA RESULT:    -0.521      2.213      5.766
REMARK INTER + INTRA:          -4.244
REMARK INTER:                  -2.666
REMARK INTRA:                  -1.578
REMARK UNBOUND:                -2.870
REMARK SMILES CCCCCCCCCCCCCCCCCCCCCCCCCCCCCC(=O)[O-]
REMARK SMILES IDX 16 1 17 2 18 3 19 4 20 5 21 6 22 7 23 8 24 9 25 10 26 11
REMARK SMILES IDX 27 12 28 13 29 14 30 15 31 16 32 17 15 18 14 19 13 20 12 21
REMARK SMILES IDX 11 22 10 23 9 24 8 25 7 26 6 27 5 28 4 29 3 30 2 31 1 32
REMARK H PARENT
REMARK Flexibility Score: inf
ROOT
ATOM      1  C   UNL     1      46.848  49.526  25.309  1.00  0.00     0.000 C 
ENDROOT
BRANCH   1   2
ATOM      2  C   UNL     1      47.793  49.265  24.126  1.00  0.00     0.000 C 
BRANCH   2   3
ATOM      3  C   UNL     1      48.394  47.844  24.131  1.00  0.00     0.000 C 
BRANCH   3   4
ATOM      4  C   UNL     1      49.740  47.703  24.871  1.00  0.00     0.000 C 
BRANCH   4   5
ATOM      5  C   UNL     1      50.900  47.192  23.987  1.00  0.00     0.000 C 
BRANCH   5   6
ATOM      6  C   UNL     1      51.035  47.930  22.643  1.00  0.00     0.000 C 
BRANCH   6   7
ATOM      7  C   UNL     1      51.118  49.464  22.779  1.00  0.00     0.000 C 
BRANCH   7   8
ATOM      8  C   UNL     1      51.866  50.119  21.608  1.00  0.00     0.000 C 
BRANCH   8   9
ATOM      9  C   UNL     1      52.254  51.563  21.947  1.00  0.00     0.000 C 
BRANCH   9  10
ATOM     10  C   UNL     1      52.951  52.242  20.759  1.00  0.00     0.000 C 
BRANCH  10  11
ATOM     11  C   UNL     1      52.244  53.535  20.317  1.00  0.00     0.000 C 
BRANCH  11  12
ATOM     12  C   UNL     1      51.795  54.397  21.510  1.00  0.00     0.000 C 
BRANCH  12  13
ATOM     13  C   UNL     1      52.963  55.147  22.178  1.00  0.00     0.006 C 
BRANCH  13  14
ATOM     14  C   UNL     1      53.726  54.313  23.222  1.00  0.00     0.053 C 
BRANCH  14  15
ATOM     15  C   UNL     1      52.869  53.929  24.388  1.00  0.00     0.041 C 
ATOM     16  O   UNL     1      52.122  54.783  24.935  1.00  0.00    -0.550 OA
ATOM     17  O   UNL     1      52.884  52.625  24.864  1.00  0.00    -0.550 OA
ENDBRANCH  14  15
ENDBRANCH  13  14
ENDBRANCH  12  13
ENDBRANCH  11  12
ENDBRANCH  10  11
ENDBRANCH   9  10
ENDBRANCH   8   9
ENDBRANCH   7   8
ENDBRANCH   6   7
ENDBRANCH   5   6
ENDBRANCH   4   5
ENDBRANCH   3   4
ENDBRANCH   2   3
ENDBRANCH   1   2
BRANCH   1  18
ATOM     18  C   UNL     1      45.996  50.783  25.072  1.00  0.00     0.000 C 
BRANCH  18  19
ATOM     19  C   UNL     1      45.985  51.731  26.282  1.00  0.00     0.000 C 
BRANCH  19  20
ATOM     20  C   UNL     1      46.764  53.047  26.088  1.00  0.00     0.000 C 
BRANCH  20  21
ATOM     21  C   UNL     1      48.298  52.882  26.137  1.00  0.00     0.000 C 
BRANCH  21  22
ATOM     22  C   UNL     1      48.993  53.342  24.841  1.00  0.00     0.000 C 
BRANCH  22  23
ATOM     23  C   UNL     1      49.346  52.177  23.897  1.00  0.00     0.000 C 
BRANCH  23  24
ATOM     24  C   UNL     1      48.435  52.028  22.664  1.00  0.00    -0.000 C 
BRANCH  24  25
ATOM     25  C   UNL     1      49.188  52.184  21.332  1.00  0.00    -0.000 C 
BRANCH  25  26
ATOM     26  C   UNL     1      49.323  50.856  20.563  1.00  0.00    -0.000 C 
BRANCH  26  27
ATOM     27  C   UNL     1      49.723  50.991  19.082  1.00  0.00    -0.000 C 
BRANCH  27  28
ATOM     28  C   UNL     1      49.537  49.688  18.291  1.00  0.00    -0.000 C 
BRANCH  28  29
ATOM     29  C   UNL     1      48.819  49.951  16.960  1.00  0.00    -0.000 C 
BRANCH  29  30
ATOM     30  C   UNL     1      49.170  48.918  15.875  1.00  0.00    -0.000 C 
BRANCH  30  31
ATOM     31  C   UNL     1      48.829  47.465  16.269  1.00  0.00    -0.003 C 
ATOM     32  C   UNL     1      47.333  47.266  16.517  1.00  0.00     0.004 C 
ENDBRANCH  30  31
ENDBRANCH  29  30
ENDBRANCH  28  29
ENDBRANCH  27  28
ENDBRANCH  26  27
ENDBRANCH  25  26
ENDBRANCH  24  25
ENDBRANCH  23  24
ENDBRANCH  22  23
ENDBRANCH  21  22
ENDBRANCH  20  21
ENDBRANCH  19  20
ENDBRANCH  18  19
ENDBRANCH   1  18
TORSDOF 28
ENDMDL
MODEL 9
REMARK VINA RESULT:    -0.478      1.638      6.251
REMARK INTER + INTRA:          -4.131
REMARK INTER:                  -2.424
REMARK INTRA:                  -1.707
REMARK UNBOUND:                -2.870
REMARK SMILES CCCCCCCCCCCCCCCCCCCCCCCCCCCCCC(=O)[O-]
REMARK SMILES IDX 16 1 17 2 18 3 19 4 20 5 21 6 22 7 23 8 24 9 25 10 26 11
REMARK SMILES IDX 27 12 28 13 29 14 30 15 31 16 32 17 15 18 14 19 13 20 12 21
REMARK SMILES IDX 11 22 10 23 9 24 8 25 7 26 6 27 5 28 4 29 3 30 2 31 1 32
REMARK H PARENT
REMARK Flexibility Score: inf
ROOT
ATOM      1  C   UNL     1      48.313  53.248  26.301  1.00  0.00     0.000 C 
ENDROOT
BRANCH   1   2
ATOM      2  C   UNL     1      48.337  52.206  25.172  1.00  0.00     0.000 C 
BRANCH   2   3
ATOM      3  C   UNL     1      48.525  52.830  23.774  1.00  0.00     0.000 C 
BRANCH   3   4
ATOM      4  C   UNL     1      49.883  53.525  23.541  1.00  0.00     0.000 C 
BRANCH   4   5
ATOM      5  C   UNL     1      50.994  53.090  24.522  1.00  0.00     0.000 C 
BRANCH   5   6
ATOM      6  C   UNL     1      52.011  54.199  24.847  1.00  0.00     0.000 C 
BRANCH   6   7
ATOM      7  C   UNL     1      53.005  54.490  23.704  1.00  0.00     0.000 C 
BRANCH   7   8
ATOM      8  C   UNL     1      54.310  53.690  23.841  1.00  0.00     0.000 C 
BRANCH   8   9
ATOM      9  C   UNL     1      54.495  52.739  22.651  1.00  0.00     0.000 C 
BRANCH   9  10
ATOM     10  C   UNL     1      53.154  52.125  22.221  1.00  0.00     0.000 C 
BRANCH  10  11
ATOM     11  C   UNL     1      52.834  52.382  20.739  1.00  0.00     0.000 C 
BRANCH  11  12
ATOM     12  C   UNL     1      51.775  53.483  20.548  1.00  0.00     0.000 C 
BRANCH  12  13
ATOM     13  C   UNL     1      52.257  54.622  19.629  1.00  0.00     0.006 C 
BRANCH  13  14
ATOM     14  C   UNL     1      53.175  55.641  20.326  1.00  0.00     0.053 C 
BRANCH  14  15
ATOM     15  C   UNL     1      52.409  56.665  21.105  1.00  0.00     0.041 C 
ATOM     16  O   UNL     1      53.013  57.460  21.873  1.00  0.00    -0.550 OA
ATOM     17  O   UNL     1      51.029  56.751  20.976  1.00  0.00    -0.550 OA
ENDBRANCH  14  15
ENDBRANCH  13  14
ENDBRANCH  12  13
ENDBRANCH  11  12
ENDBRANCH  10  11
ENDBRANCH   9  10
ENDBRANCH   8   9
ENDBRANCH   7   8
ENDBRANCH   6   7
ENDBRANCH   5   6
ENDBRANCH   4   5
ENDBRANCH   3   4
ENDBRANCH   2   3
ENDBRANCH   1   2
BRANCH   1  18
ATOM     18  C   UNL     1      46.900  53.400  26.885  1.00  0.00     0.000 C 
BRANCH  18  19
ATOM     19  C   UNL     1      45.875  52.471  26.212  1.00  0.00     0.000 C 
BRANCH  19  20
ATOM     20  C   UNL     1      46.174  50.965  26.344  1.00  0.00     0.000 C 
BRANCH  20  21
ATOM     21  C   UNL     1      45.955  50.166  25.041  1.00  0.00     0.000 C 
BRANCH  21  22
ATOM     22  C   UNL     1      47.249  49.523  24.507  1.00  0.00     0.000 C 
BRANCH  22  23
ATOM     23  C   UNL     1      47.617  48.212  25.229  1.00  0.00     0.000 C 
BRANCH  23  24
ATOM     24  C   UNL     1      48.510  47.246  24.428  1.00  0.00    -0.000 C 
BRANCH  24  25
ATOM     25  C   UNL     1      50.012  47.549  24.572  1.00  0.00    -0.000 C 
BRANCH  25  26
ATOM     26  C   UNL     1      50.700  47.816  23.221  1.00  0.00    -0.000 C 
BRANCH  26  27
ATOM     27  C   UNL     1      50.742  49.292  22.784  1.00  0.00    -0.000 C 
BRANCH  27  28
ATOM     28  C   UNL     1      49.532  49.698  21.929  1.00  0.00    -0.000 C 
BRANCH  28  29
ATOM     29  C   UNL     1      49.909  50.806  20.936  1.00  0.00    -0.000 C 
BRANCH  29  30
ATOM     30  C   UNL     1      50.397  50.257  19.584  1.00  0.00    -0.000 C 
BRANCH  30  31
ATOM     31  C   UNL     1      49.520  50.685  18.388  1.00  0.00    -0.003 C 
ATOM     32  C   UNL     1      49.330  49.557  17.374  1.00  0.00     0.004 C 
ENDBRANCH  30  31
ENDBRANCH  29  30
ENDBRANCH  28  29
ENDBRANCH  27  28
ENDBRANCH  26  27
ENDBRANCH  25  26
ENDBRANCH  24  25
ENDBRANCH  23  24
ENDBRANCH  22  23
ENDBRANCH  21  22
ENDBRANCH  20  21
ENDBRANCH  19  20
ENDBRANCH  18  19
ENDBRANCH   1  18
TORSDOF 28
ENDMDL
