MODEL 1
REMARK VINA RESULT:    -6.296      0.000      0.000
REMARK INTER + INTRA:          -9.350
REMARK INTER:                  -8.873
REMARK INTRA:                  -0.477
REMARK UNBOUND:                -0.477
REMARK SMILES COc1ccc(-c2cc(=O)c3c(OC)c(OC)c(OC)c(OC)c3o2)cc1OC
REMARK SMILES IDX 7 1 8 2 9 3 10 4 11 5 24 6 25 7 21 8 18 9 15 10 12 11 6 12
REMARK SMILES IDX 3 13 27 14 4 15 26 16 5 17 2 18 1 19 28 20 29 21 22 22 23 23
REMARK SMILES IDX 13 24 14 25 19 26 20 27 16 28 17 29
REMARK H PARENT
REMARK Flexibility Score: inf
ROOT
ATOM      1  C   UNL     1      13.641  19.313  62.482  1.00  0.00     0.138 A 
ATOM      2  C   UNL     1      12.732  18.697  63.347  1.00  0.00     0.100 A 
ATOM      3  C   UNL     1      12.843  17.332  63.588  1.00  0.00     0.197 A 
ATOM      4  O   UNL     1      12.009  16.786  64.361  1.00  0.00    -0.289 OA
ATOM      5  C   UNL     1      13.873  16.589  62.967  1.00  0.00     0.115 A 
ATOM      6  C   UNL     1      14.766  17.281  62.116  1.00  0.00     0.188 A 
ATOM      7  O   UNL     1      14.599  18.586  61.911  1.00  0.00    -0.452 OA
ATOM      8  C   UNL     1      15.833  16.592  61.485  1.00  0.00     0.209 A 
ATOM      9  C   UNL     1      15.964  15.188  61.667  1.00  0.00     0.211 A 
ATOM     10  C   UNL     1      15.048  14.499  62.502  1.00  0.00     0.208 A 
ATOM     11  C   UNL     1      14.037  15.206  63.172  1.00  0.00     0.179 A 
ENDROOT
BRANCH   1  12
ATOM     12  C   UNL     1      13.555  20.759  62.173  1.00  0.00     0.021 A 
ATOM     13  C   UNL     1      13.350  23.519  61.620  1.00  0.00     0.160 A 
ATOM     14  C   UNL     1      13.093  23.044  62.914  1.00  0.00     0.161 A 
ATOM     15  C   UNL     1      13.705  22.611  60.605  1.00  0.00     0.051 A 
ATOM     16  C   UNL     1      13.195  21.665  63.183  1.00  0.00     0.062 A 
ATOM     17  C   UNL     1      13.805  21.246  60.879  1.00  0.00     0.016 A 
BRANCH  13  18
ATOM     18  O   UNL     1      13.243  24.898  61.383  1.00  0.00    -0.493 OA
ATOM     19  C   UNL     1      12.117  25.527  60.778  1.00  0.00     0.278 C 
ENDBRANCH  13  18
BRANCH  14  20
ATOM     20  O   UNL     1      12.741  23.971  63.908  1.00  0.00    -0.493 OA
ATOM     21  C   UNL     1      12.412  23.629  65.250  1.00  0.00     0.278 C 
ENDBRANCH  14  20
ENDBRANCH   1  12
BRANCH   8  22
ATOM     22  O   UNL     1      16.781  17.253  60.681  1.00  0.00    -0.490 OA
ATOM     23  C   UNL     1      16.859  17.261  59.258  1.00  0.00     0.278 C 
ENDBRANCH   8  22
BRANCH  11  24
ATOM     24  O   UNL     1      13.169  14.518  64.029  1.00  0.00    -0.492 OA
ATOM     25  C   UNL     1      13.558  14.098  65.332  1.00  0.00     0.278 C 
ENDBRANCH  11  24
BRANCH   9  26
ATOM     26  O   UNL     1      16.981  14.436  61.044  1.00  0.00    -0.490 OA
ATOM     27  C   UNL     1      16.944  13.800  59.770  1.00  0.00     0.279 C 
ENDBRANCH   9  26
BRANCH  10  28
ATOM     28  O   UNL     1      15.069  13.103  62.697  1.00  0.00    -0.490 OA
ATOM     29  C   UNL     1      14.620  12.096  61.796  1.00  0.00     0.278 C 
ENDBRANCH  10  28
TORSDOF 7
ENDMDL
MODEL 2
REMARK VINA RESULT:    -5.782      2.158      9.032
REMARK INTER + INTRA:          -8.625
REMARK INTER:                  -8.042
REMARK INTRA:                  -0.584
REMARK UNBOUND:                -0.477
REMARK SMILES COc1ccc(-c2cc(=O)c3c(OC)c(OC)c(OC)c(OC)c3o2)cc1OC
REMARK SMILES IDX 7 1 8 2 9 3 10 4 11 5 24 6 25 7 21 8 18 9 15 10 12 11 6 12
REMARK SMILES IDX 3 13 27 14 4 15 26 16 5 17 2 18 1 19 28 20 29 21 22 22 23 23
REMARK SMILES IDX 13 24 14 25 19 26 20 27 16 28 17 29
REMARK H PARENT
REMARK Flexibility Score: inf
ROOT
ATOM      1  C   UNL     1      13.186  19.326  63.006  1.00  0.00     0.138 A 
ATOM      2  C   UNL     1      13.759  20.078  61.977  1.00  0.00     0.100 A 
ATOM      3  C   UNL     1      13.380  21.407  61.815  1.00  0.00     0.197 A 
ATOM      4  O   UNL     1      13.895  22.071  60.874  1.00  0.00    -0.289 OA
ATOM      5  C   UNL     1      12.432  21.980  62.694  1.00  0.00     0.115 A 
ATOM      6  C   UNL     1      11.905  21.164  63.721  1.00  0.00     0.188 A 
ATOM      7  O   UNL     1      12.295  19.895  63.816  1.00  0.00    -0.452 OA
ATOM      8  C   UNL     1      10.970  21.692  64.647  1.00  0.00     0.209 A 
ATOM      9  C   UNL     1      10.519  23.032  64.499  1.00  0.00     0.211 A 
ATOM     10  C   UNL     1      11.034  23.835  63.449  1.00  0.00     0.208 A 
ATOM     11  C   UNL     1      12.009  23.318  62.581  1.00  0.00     0.179 A 
ENDROOT
BRANCH   1  12
ATOM     12  C   UNL     1      13.537  17.901  63.210  1.00  0.00     0.021 A 
ATOM     13  C   UNL     1      14.232  15.188  63.549  1.00  0.00     0.160 A 
ATOM     14  C   UNL     1      15.107  16.055  62.878  1.00  0.00     0.161 A 
ATOM     15  C   UNL     1      13.011  15.680  64.044  1.00  0.00     0.051 A 
ATOM     16  C   UNL     1      14.752  17.408  62.710  1.00  0.00     0.062 A 
ATOM     17  C   UNL     1      12.667  17.022  63.875  1.00  0.00     0.016 A 
BRANCH  13  18
ATOM     18  O   UNL     1      14.613  13.845  63.703  1.00  0.00    -0.493 OA
ATOM     19  C   UNL     1      13.702  12.763  63.877  1.00  0.00     0.278 C 
ENDBRANCH  13  18
BRANCH  14  20
ATOM     20  O   UNL     1      16.319  15.538  62.394  1.00  0.00    -0.493 OA
ATOM     21  C   UNL     1      17.211  16.242  61.537  1.00  0.00     0.278 C 
ENDBRANCH  14  20
ENDBRANCH   1  12
BRANCH   8  22
ATOM     22  O   UNL     1      10.468  20.934  65.722  1.00  0.00    -0.490 OA
ATOM     23  C   UNL     1       9.350  20.050  65.716  1.00  0.00     0.278 C 
ENDBRANCH   8  22
BRANCH  11  24
ATOM     24  O   UNL     1      12.540  24.138  61.577  1.00  0.00    -0.492 OA
ATOM     25  C   UNL     1      11.822  24.449  60.388  1.00  0.00     0.278 C 
ENDBRANCH  11  24
BRANCH   9  26
ATOM     26  O   UNL     1       9.567  23.611  65.362  1.00  0.00    -0.490 OA
ATOM     27  C   UNL     1       9.797  24.261  66.609  1.00  0.00     0.279 C 
ENDBRANCH   9  26
BRANCH  10  28
ATOM     28  O   UNL     1      10.606  25.154  63.194  1.00  0.00    -0.490 OA
ATOM     29  C   UNL     1      11.107  26.354  63.772  1.00  0.00     0.278 C 
ENDBRANCH  10  28
TORSDOF 7
ENDMDL
MODEL 3
REMARK VINA RESULT:    -5.472      1.639      2.244
REMARK INTER + INTRA:          -8.189
REMARK INTER:                  -7.578
REMARK INTRA:                  -0.611
REMARK UNBOUND:                -0.477
REMARK SMILES COc1ccc(-c2cc(=O)c3c(OC)c(OC)c(OC)c(OC)c3o2)cc1OC
REMARK SMILES IDX 7 1 8 2 9 3 10 4 11 5 24 6 25 7 21 8 18 9 15 10 12 11 6 12
REMARK SMILES IDX 3 13 27 14 4 15 26 16 5 17 2 18 1 19 28 20 29 21 22 22 23 23
REMARK SMILES IDX 13 24 14 25 19 26 20 27 16 28 17 29
REMARK H PARENT
REMARK Flexibility Score: inf
ROOT
ATOM      1  C   UNL     1      13.859  17.564  62.951  1.00  0.00     0.138 A 
ATOM      2  C   UNL     1      13.698  16.786  64.101  1.00  0.00     0.100 A 
ATOM      3  C   UNL     1      13.989  15.427  64.047  1.00  0.00     0.197 A 
ATOM      4  O   UNL     1      13.827  14.734  65.088  1.00  0.00    -0.289 OA
ATOM      5  C   UNL     1      14.451  14.854  62.840  1.00  0.00     0.115 A 
ATOM      6  C   UNL     1      14.604  15.704  61.720  1.00  0.00     0.188 A 
ATOM      7  O   UNL     1      14.294  16.994  61.829  1.00  0.00    -0.452 OA
ATOM      8  C   UNL     1      15.087  15.189  60.491  1.00  0.00     0.209 A 
ATOM      9  C   UNL     1      15.359  13.799  60.373  1.00  0.00     0.211 A 
ATOM     10  C   UNL     1      15.177  12.949  61.495  1.00  0.00     0.208 A 
ATOM     11  C   UNL     1      14.762  13.485  62.724  1.00  0.00     0.179 A 
ENDROOT
BRANCH   1  12
ATOM     12  C   UNL     1      13.543  19.011  62.946  1.00  0.00     0.021 A 
ATOM     13  C   UNL     1      12.889  21.757  62.953  1.00  0.00     0.160 A 
ATOM     14  C   UNL     1      12.300  20.895  63.890  1.00  0.00     0.161 A 
ATOM     15  C   UNL     1      13.799  21.241  62.013  1.00  0.00     0.051 A 
ATOM     16  C   UNL     1      12.629  19.525  63.879  1.00  0.00     0.062 A 
ATOM     17  C   UNL     1      14.122  19.883  62.009  1.00  0.00     0.016 A 
BRANCH  13  18
ATOM     18  O   UNL     1      12.543  23.117  62.988  1.00  0.00    -0.493 OA
ATOM     19  C   UNL     1      13.482  24.187  63.038  1.00  0.00     0.278 C 
ENDBRANCH  13  18
BRANCH  14  20
ATOM     20  O   UNL     1      11.393  21.435  64.816  1.00  0.00    -0.493 OA
ATOM     21  C   UNL     1      10.190  20.799  65.232  1.00  0.00     0.278 C 
ENDBRANCH  14  20
ENDBRANCH   1  12
BRANCH   8  22
ATOM     22  O   UNL     1      15.314  16.011  59.370  1.00  0.00    -0.490 OA
ATOM     23  C   UNL     1      16.514  16.698  59.026  1.00  0.00     0.278 C 
ENDBRANCH   8  22
BRANCH  11  24
ATOM     24  O   UNL     1      14.631  12.641  63.833  1.00  0.00    -0.492 OA
ATOM     25  C   UNL     1      13.542  11.735  63.976  1.00  0.00     0.278 C 
ENDBRANCH  11  24
BRANCH   9  26
ATOM     26  O   UNL     1      15.809  13.214  59.172  1.00  0.00    -0.490 OA
ATOM     27  C   UNL     1      17.154  13.036  58.735  1.00  0.00     0.279 C 
ENDBRANCH   9  26
BRANCH  10  28
ATOM     28  O   UNL     1      15.370  11.553  61.455  1.00  0.00    -0.490 OA
ATOM     29  C   UNL     1      16.596  10.844  61.603  1.00  0.00     0.278 C 
ENDBRANCH  10  28
TORSDOF 7
ENDMDL
MODEL 4
REMARK VINA RESULT:    -5.393      2.257      8.353
REMARK INTER + INTRA:          -8.077
REMARK INTER:                  -7.472
REMARK INTRA:                  -0.605
REMARK UNBOUND:                -0.477
REMARK SMILES COc1ccc(-c2cc(=O)c3c(OC)c(OC)c(OC)c(OC)c3o2)cc1OC
REMARK SMILES IDX 7 1 8 2 9 3 10 4 11 5 24 6 25 7 21 8 18 9 15 10 12 11 6 12
REMARK SMILES IDX 3 13 27 14 4 15 26 16 5 17 2 18 1 19 28 20 29 21 22 22 23 23
REMARK SMILES IDX 13 24 14 25 19 26 20 27 16 28 17 29
REMARK H PARENT
REMARK Flexibility Score: inf
ROOT
ATOM      1  C   UNL     1      11.908  18.747  63.553  1.00  0.00     0.138 A 
ATOM      2  C   UNL     1      10.713  18.916  64.259  1.00  0.00     0.100 A 
ATOM      3  C   UNL     1      10.106  20.168  64.276  1.00  0.00     0.197 A 
ATOM      4  O   UNL     1       9.035  20.310  64.927  1.00  0.00    -0.289 OA
ATOM      5  C   UNL     1      10.695  21.244  63.575  1.00  0.00     0.115 A 
ATOM      6  C   UNL     1      11.896  20.997  62.870  1.00  0.00     0.188 A 
ATOM      7  O   UNL     1      12.438  19.782  62.904  1.00  0.00    -0.452 OA
ATOM      8  C   UNL     1      12.518  22.034  62.130  1.00  0.00     0.209 A 
ATOM      9  C   UNL     1      11.960  23.341  62.149  1.00  0.00     0.211 A 
ATOM     10  C   UNL     1      10.769  23.585  62.881  1.00  0.00     0.208 A 
ATOM     11  C   UNL     1      10.128  22.533  63.554  1.00  0.00     0.179 A 
ENDROOT
BRANCH   1  12
ATOM     12  C   UNL     1      12.608  17.442  63.520  1.00  0.00     0.021 A 
ATOM     13  C   UNL     1      13.972  14.973  63.414  1.00  0.00     0.160 A 
ATOM     14  C   UNL     1      14.649  16.161  63.100  1.00  0.00     0.161 A 
ATOM     15  C   UNL     1      12.613  15.025  63.775  1.00  0.00     0.051 A 
ATOM     16  C   UNL     1      13.961  17.389  63.153  1.00  0.00     0.062 A 
ATOM     17  C   UNL     1      11.938  16.246  63.827  1.00  0.00     0.016 A 
BRANCH  13  18
ATOM     18  O   UNL     1      14.683  13.765  63.354  1.00  0.00    -0.493 OA
ATOM     19  C   UNL     1      14.092  12.474  63.480  1.00  0.00     0.278 C 
ENDBRANCH  13  18
BRANCH  14  20
ATOM     20  O   UNL     1      16.004  16.082  62.741  1.00  0.00    -0.493 OA
ATOM     21  C   UNL     1      16.507  16.312  61.430  1.00  0.00     0.278 C 
ENDBRANCH  14  20
ENDBRANCH   1  12
BRANCH   8  22
ATOM     22  O   UNL     1      13.679  21.815  61.363  1.00  0.00    -0.490 OA
ATOM     23  C   UNL     1      13.787  21.106  60.132  1.00  0.00     0.278 C 
ENDBRANCH   8  22
BRANCH  11  24
ATOM     24  O   UNL     1       8.929  22.782  64.234  1.00  0.00    -0.492 OA
ATOM     25  C   UNL     1       8.888  23.476  65.477  1.00  0.00     0.278 C 
ENDBRANCH  11  24
BRANCH   9  26
ATOM     26  O   UNL     1      12.544  24.425  61.463  1.00  0.00    -0.490 OA
ATOM     27  C   UNL     1      12.301  24.846  60.124  1.00  0.00     0.279 C 
ENDBRANCH   9  26
BRANCH  10  28
ATOM     28  O   UNL     1      10.175  24.858  63.000  1.00  0.00    -0.490 OA
ATOM     29  C   UNL     1       9.221  25.453  62.127  1.00  0.00     0.278 C 
ENDBRANCH  10  28
TORSDOF 7
ENDMDL
MODEL 5
REMARK VINA RESULT:    -5.263      2.556      9.291
REMARK INTER + INTRA:          -7.894
REMARK INTER:                  -7.267
REMARK INTRA:                  -0.627
REMARK UNBOUND:                -0.477
REMARK SMILES COc1ccc(-c2cc(=O)c3c(OC)c(OC)c(OC)c(OC)c3o2)cc1OC
REMARK SMILES IDX 7 1 8 2 9 3 10 4 11 5 24 6 25 7 21 8 18 9 15 10 12 11 6 12
REMARK SMILES IDX 3 13 27 14 4 15 26 16 5 17 2 18 1 19 28 20 29 21 22 22 23 23
REMARK SMILES IDX 13 24 14 25 19 26 20 27 16 28 17 29
REMARK H PARENT
REMARK Flexibility Score: inf
ROOT
ATOM      1  C   UNL     1      12.917  20.460  63.130  1.00  0.00     0.138 A 
ATOM      2  C   UNL     1      13.315  21.061  61.932  1.00  0.00     0.100 A 
ATOM      3  C   UNL     1      13.332  22.450  61.843  1.00  0.00     0.197 A 
ATOM      4  O   UNL     1      13.680  22.980  60.753  1.00  0.00    -0.289 OA
ATOM      5  C   UNL     1      12.958  23.231  62.960  1.00  0.00     0.115 A 
ATOM      6  C   UNL     1      12.581  22.555  64.144  1.00  0.00     0.188 A 
ATOM      7  O   UNL     1      12.570  21.223  64.163  1.00  0.00    -0.452 OA
ATOM      8  C   UNL     1      12.220  23.286  65.303  1.00  0.00     0.209 A 
ATOM      9  C   UNL     1      12.181  24.706  65.251  1.00  0.00     0.211 A 
ATOM     10  C   UNL     1      12.536  25.375  64.051  1.00  0.00     0.208 A 
ATOM     11  C   UNL     1      12.955  24.638  62.932  1.00  0.00     0.179 A 
ENDROOT
BRANCH   1  12
ATOM     12  C   UNL     1      12.860  18.986  63.272  1.00  0.00     0.021 A 
ATOM     13  C   UNL     1      12.713  16.185  63.583  1.00  0.00     0.160 A 
ATOM     14  C   UNL     1      11.555  16.966  63.718  1.00  0.00     0.161 A 
ATOM     15  C   UNL     1      13.941  16.809  63.298  1.00  0.00     0.051 A 
ATOM     16  C   UNL     1      11.636  18.364  63.564  1.00  0.00     0.062 A 
ATOM     17  C   UNL     1      14.014  18.195  63.145  1.00  0.00     0.016 A 
BRANCH  13  18
ATOM     18  O   UNL     1      12.601  14.795  63.740  1.00  0.00    -0.493 OA
ATOM     19  C   UNL     1      13.677  13.876  63.579  1.00  0.00     0.278 C 
ENDBRANCH  13  18
BRANCH  14  20
ATOM     20  O   UNL     1      10.343  16.319  64.004  1.00  0.00    -0.493 OA
ATOM     21  C   UNL     1       9.676  16.371  65.260  1.00  0.00     0.278 C 
ENDBRANCH  14  20
ENDBRANCH   1  12
BRANCH   8  22
ATOM     22  O   UNL     1      11.900  22.654  66.520  1.00  0.00    -0.490 OA
ATOM     23  C   UNL     1      10.619  22.207  66.957  1.00  0.00     0.278 C 
ENDBRANCH   8  22
BRANCH  11  24
ATOM     24  O   UNL     1      13.344  25.316  61.770  1.00  0.00    -0.492 OA
ATOM     25  C   UNL     1      12.403  25.917  60.886  1.00  0.00     0.278 C 
ENDBRANCH  11  24
BRANCH   9  26
ATOM     26  O   UNL     1      11.800  25.495  66.355  1.00  0.00    -0.490 OA
ATOM     27  C   UNL     1      10.494  25.948  66.699  1.00  0.00     0.279 C 
ENDBRANCH   9  26
BRANCH  10  28
ATOM     28  O   UNL     1      12.475  26.774  63.891  1.00  0.00    -0.490 OA
ATOM     29  C   UNL     1      13.462  27.732  64.259  1.00  0.00     0.278 C 
ENDBRANCH  10  28
TORSDOF 7
ENDMDL
MODEL 6
REMARK VINA RESULT:    -5.235      2.130      8.890
REMARK INTER + INTRA:          -7.855
REMARK INTER:                  -7.193
REMARK INTRA:                  -0.662
REMARK UNBOUND:                -0.477
REMARK SMILES COc1ccc(-c2cc(=O)c3c(OC)c(OC)c(OC)c(OC)c3o2)cc1OC
REMARK SMILES IDX 7 1 8 2 9 3 10 4 11 5 24 6 25 7 21 8 18 9 15 10 12 11 6 12
REMARK SMILES IDX 3 13 27 14 4 15 26 16 5 17 2 18 1 19 28 20 29 21 22 22 23 23
REMARK SMILES IDX 13 24 14 25 19 26 20 27 16 28 17 29
REMARK H PARENT
REMARK Flexibility Score: inf
ROOT
ATOM      1  C   UNL     1      13.335  19.491  62.784  1.00  0.00     0.138 A 
ATOM      2  C   UNL     1      13.869  20.419  61.886  1.00  0.00     0.100 A 
ATOM      3  C   UNL     1      13.404  21.731  61.908  1.00  0.00     0.197 A 
ATOM      4  O   UNL     1      13.884  22.555  61.084  1.00  0.00    -0.289 OA
ATOM      5  C   UNL     1      12.410  22.108  62.840  1.00  0.00     0.115 A 
ATOM      6  C   UNL     1      11.927  21.120  63.729  1.00  0.00     0.188 A 
ATOM      7  O   UNL     1      12.399  19.878  63.648  1.00  0.00    -0.452 OA
ATOM      8  C   UNL     1      10.948  21.448  64.701  1.00  0.00     0.209 A 
ATOM      9  C   UNL     1      10.411  22.763  64.737  1.00  0.00     0.211 A 
ATOM     10  C   UNL     1      10.883  23.741  63.824  1.00  0.00     0.208 A 
ATOM     11  C   UNL     1      11.900  23.419  62.912  1.00  0.00     0.179 A 
ENDROOT
BRANCH   1  12
ATOM     12  C   UNL     1      13.778  18.077  62.789  1.00  0.00     0.021 A 
ATOM     13  C   UNL     1      14.612  15.382  62.852  1.00  0.00     0.160 A 
ATOM     14  C   UNL     1      13.556  15.808  63.672  1.00  0.00     0.161 A 
ATOM     15  C   UNL     1      15.249  16.308  62.006  1.00  0.00     0.051 A 
ATOM     16  C   UNL     1      13.147  17.155  63.637  1.00  0.00     0.062 A 
ATOM     17  C   UNL     1      14.838  17.641  61.976  1.00  0.00     0.016 A 
BRANCH  13  18
ATOM     18  O   UNL     1      14.997  14.033  62.907  1.00  0.00    -0.493 OA
ATOM     19  C   UNL     1      14.546  13.028  62.004  1.00  0.00     0.278 C 
ENDBRANCH  13  18
BRANCH  14  20
ATOM     20  O   UNL     1      12.938  14.864  64.507  1.00  0.00    -0.493 OA
ATOM     21  C   UNL     1      13.433  14.466  65.781  1.00  0.00     0.278 C 
ENDBRANCH  14  20
ENDBRANCH   1  12
BRANCH   8  22
ATOM     22  O   UNL     1      10.486  20.511  65.645  1.00  0.00    -0.490 OA
ATOM     23  C   UNL     1       9.350  19.657  65.538  1.00  0.00     0.278 C 
ENDBRANCH   8  22
BRANCH  11  24
ATOM     24  O   UNL     1      12.387  24.408  62.048  1.00  0.00    -0.492 OA
ATOM     25  C   UNL     1      13.263  25.440  62.487  1.00  0.00     0.278 C 
ENDBRANCH  11  24
BRANCH   9  26
ATOM     26  O   UNL     1       9.412  23.149  65.655  1.00  0.00    -0.490 OA
ATOM     27  C   UNL     1       9.586  23.676  66.967  1.00  0.00     0.279 C 
ENDBRANCH   9  26
BRANCH  10  28
ATOM     28  O   UNL     1      10.371  25.052  63.752  1.00  0.00    -0.490 OA
ATOM     29  C   UNL     1       9.220  25.495  63.040  1.00  0.00     0.278 C 
ENDBRANCH  10  28
TORSDOF 7
ENDMDL
MODEL 7
REMARK VINA RESULT:    -5.226      2.454      9.357
REMARK INTER + INTRA:          -7.842
REMARK INTER:                  -7.139
REMARK INTRA:                  -0.704
REMARK UNBOUND:                -0.477
REMARK SMILES COc1ccc(-c2cc(=O)c3c(OC)c(OC)c(OC)c(OC)c3o2)cc1OC
REMARK SMILES IDX 7 1 8 2 9 3 10 4 11 5 24 6 25 7 21 8 18 9 15 10 12 11 6 12
REMARK SMILES IDX 3 13 27 14 4 15 26 16 5 17 2 18 1 19 28 20 29 21 22 22 23 23
REMARK SMILES IDX 13 24 14 25 19 26 20 27 16 28 17 29
REMARK H PARENT
REMARK Flexibility Score: inf
ROOT
ATOM      1  C   UNL     1      12.544  20.942  62.867  1.00  0.00     0.138 A 
ATOM      2  C   UNL     1      13.682  21.751  62.927  1.00  0.00     0.100 A 
ATOM      3  C   UNL     1      13.571  23.103  62.619  1.00  0.00     0.197 A 
ATOM      4  O   UNL     1      14.608  23.820  62.664  1.00  0.00    -0.289 OA
ATOM      5  C   UNL     1      12.314  23.641  62.260  1.00  0.00     0.115 A 
ATOM      6  C   UNL     1      11.203  22.767  62.234  1.00  0.00     0.188 A 
ATOM      7  O   UNL     1      11.375  21.479  62.524  1.00  0.00    -0.452 OA
ATOM      8  C   UNL     1       9.913  23.256  61.905  1.00  0.00     0.209 A 
ATOM      9  C   UNL     1       9.754  24.621  61.542  1.00  0.00     0.211 A 
ATOM     10  C   UNL     1      10.880  25.485  61.545  1.00  0.00     0.208 A 
ATOM     11  C   UNL     1      12.138  25.001  61.938  1.00  0.00     0.179 A 
ENDROOT
BRANCH   1  12
ATOM     12  C   UNL     1      12.610  19.492  63.164  1.00  0.00     0.021 A 
ATOM     13  C   UNL     1      12.776  16.725  63.692  1.00  0.00     0.160 A 
ATOM     14  C   UNL     1      13.932  17.442  63.351  1.00  0.00     0.161 A 
ATOM     15  C   UNL     1      11.540  17.394  63.764  1.00  0.00     0.051 A 
ATOM     16  C   UNL     1      13.841  18.823  63.086  1.00  0.00     0.062 A 
ATOM     17  C   UNL     1      11.458  18.762  63.502  1.00  0.00     0.016 A 
BRANCH  13  18
ATOM     18  O   UNL     1      12.896  15.351  63.952  1.00  0.00    -0.493 OA
ATOM     19  C   UNL     1      13.155  14.792  65.236  1.00  0.00     0.278 C 
ENDBRANCH  13  18
BRANCH  14  20
ATOM     20  O   UNL     1      15.152  16.751  63.285  1.00  0.00    -0.493 OA
ATOM     21  C   UNL     1      15.767  16.312  62.079  1.00  0.00     0.278 C 
ENDBRANCH  14  20
ENDBRANCH   1  12
BRANCH   8  22
ATOM     22  O   UNL     1       8.770  22.434  61.929  1.00  0.00    -0.490 OA
ATOM     23  C   UNL     1       8.254  21.632  60.871  1.00  0.00     0.278 C 
ENDBRANCH   8  22
BRANCH  11  24
ATOM     24  O   UNL     1      13.230  25.877  61.979  1.00  0.00    -0.492 OA
ATOM     25  C   UNL     1      13.421  26.807  63.040  1.00  0.00     0.278 C 
ENDBRANCH  11  24
BRANCH   9  26
ATOM     26  O   UNL     1       8.508  25.167  61.172  1.00  0.00    -0.490 OA
ATOM     27  C   UNL     1       7.933  25.231  59.871  1.00  0.00     0.279 C 
ENDBRANCH   9  26
BRANCH  10  28
ATOM     28  O   UNL     1      10.827  26.836  61.149  1.00  0.00    -0.490 OA
ATOM     29  C   UNL     1      10.991  27.361  59.835  1.00  0.00     0.278 C 
ENDBRANCH  10  28
TORSDOF 7
ENDMDL
MODEL 8
REMARK VINA RESULT:    -5.214      2.979      5.193
REMARK INTER + INTRA:          -7.825
REMARK INTER:                  -7.157
REMARK INTRA:                  -0.668
REMARK UNBOUND:                -0.477
REMARK SMILES COc1ccc(-c2cc(=O)c3c(OC)c(OC)c(OC)c(OC)c3o2)cc1OC
REMARK SMILES IDX 7 1 8 2 9 3 10 4 11 5 24 6 25 7 21 8 18 9 15 10 12 11 6 12
REMARK SMILES IDX 3 13 27 14 4 15 26 16 5 17 2 18 1 19 28 20 29 21 22 22 23 23
REMARK SMILES IDX 13 24 14 25 19 26 20 27 16 28 17 29
REMARK H PARENT
REMARK Flexibility Score: inf
ROOT
ATOM      1  C   UNL     1      14.043  16.681  62.299  1.00  0.00     0.138 A 
ATOM      2  C   UNL     1      15.071  17.270  61.558  1.00  0.00     0.100 A 
ATOM      3  C   UNL     1      15.988  16.455  60.902  1.00  0.00     0.197 A 
ATOM      4  O   UNL     1      16.919  16.999  60.248  1.00  0.00    -0.289 OA
ATOM      5  C   UNL     1      15.865  15.049  60.986  1.00  0.00     0.115 A 
ATOM      6  C   UNL     1      14.792  14.523  61.742  1.00  0.00     0.188 A 
ATOM      7  O   UNL     1      13.955  15.354  62.359  1.00  0.00    -0.452 OA
ATOM      8  C   UNL     1      14.605  13.121  61.840  1.00  0.00     0.209 A 
ATOM      9  C   UNL     1      15.539  12.245  61.224  1.00  0.00     0.211 A 
ATOM     10  C   UNL     1      16.628  12.783  60.489  1.00  0.00     0.208 A 
ATOM     11  C   UNL     1      16.761  14.173  60.345  1.00  0.00     0.179 A 
ENDROOT
BRANCH   1  12
ATOM     12  C   UNL     1      13.052  17.502  63.034  1.00  0.00     0.021 A 
ATOM     13  C   UNL     1      11.124  19.031  64.415  1.00  0.00     0.160 A 
ATOM     14  C   UNL     1      10.966  17.642  64.302  1.00  0.00     0.161 A 
ATOM     15  C   UNL     1      12.245  19.651  63.832  1.00  0.00     0.051 A 
ATOM     16  C   UNL     1      11.931  16.885  63.609  1.00  0.00     0.062 A 
ATOM     17  C   UNL     1      13.198  18.894  63.149  1.00  0.00     0.016 A 
BRANCH  13  18
ATOM     18  O   UNL     1      10.148  19.760  65.113  1.00  0.00    -0.493 OA
ATOM     19  C   UNL     1       9.296  20.737  64.523  1.00  0.00     0.278 C 
ENDBRANCH  13  18
BRANCH  14  20
ATOM     20  O   UNL     1       9.838  17.049  64.892  1.00  0.00    -0.493 OA
ATOM     21  C   UNL     1       9.861  16.295  66.099  1.00  0.00     0.278 C 
ENDBRANCH  14  20
ENDBRANCH   1  12
BRANCH   8  22
ATOM     22  O   UNL     1      13.514  12.557  62.529  1.00  0.00    -0.490 OA
ATOM     23  C   UNL     1      13.465  12.148  63.894  1.00  0.00     0.278 C 
ENDBRANCH   8  22
BRANCH  11  24
ATOM     24  O   UNL     1      17.816  14.686  59.580  1.00  0.00    -0.492 OA
ATOM     25  C   UNL     1      17.741  14.806  58.163  1.00  0.00     0.278 C 
ENDBRANCH  11  24
BRANCH   9  26
ATOM     26  O   UNL     1      15.432  10.842  61.309  1.00  0.00    -0.490 OA
ATOM     27  C   UNL     1      16.104   9.966  62.209  1.00  0.00     0.279 C 
ENDBRANCH   9  26
BRANCH  10  28
ATOM     28  O   UNL     1      17.630  11.993  59.891  1.00  0.00    -0.490 OA
ATOM     29  C   UNL     1      17.511  11.174  58.732  1.00  0.00     0.278 C 
ENDBRANCH  10  28
TORSDOF 7
ENDMDL
MODEL 9
REMARK VINA RESULT:    -5.105      2.288      8.057
REMARK INTER + INTRA:          -7.671
REMARK INTER:                  -7.101
REMARK INTRA:                  -0.571
REMARK UNBOUND:                -0.477
REMARK SMILES COc1ccc(-c2cc(=O)c3c(OC)c(OC)c(OC)c(OC)c3o2)cc1OC
REMARK SMILES IDX 7 1 8 2 9 3 10 4 11 5 24 6 25 7 21 8 18 9 15 10 12 11 6 12
REMARK SMILES IDX 3 13 27 14 4 15 26 16 5 17 2 18 1 19 28 20 29 21 22 22 23 23
REMARK SMILES IDX 13 24 14 25 19 26 20 27 16 28 17 29
REMARK H PARENT
REMARK Flexibility Score: inf
ROOT
ATOM      1  C   UNL     1      12.487  16.915  63.439  1.00  0.00     0.138 A 
ATOM      2  C   UNL     1      11.345  16.611  64.186  1.00  0.00     0.100 A 
ATOM      3  C   UNL     1      10.536  17.647  64.641  1.00  0.00     0.197 A 
ATOM      4  O   UNL     1       9.516  17.360  65.325  1.00  0.00    -0.289 OA
ATOM      5  C   UNL     1      10.871  18.987  64.336  1.00  0.00     0.115 A 
ATOM      6  C   UNL     1      12.032  19.219  63.563  1.00  0.00     0.188 A 
ATOM      7  O   UNL     1      12.775  18.187  63.170  1.00  0.00    -0.452 OA
ATOM      8  C   UNL     1      12.403  20.540  63.207  1.00  0.00     0.209 A 
ATOM      9  C   UNL     1      11.632  21.636  63.682  1.00  0.00     0.211 A 
ATOM     10  C   UNL     1      10.483  21.394  64.479  1.00  0.00     0.208 A 
ATOM     11  C   UNL     1      10.091  20.077  64.768  1.00  0.00     0.179 A 
ENDROOT
BRANCH   1  12
ATOM     12  C   UNL     1      13.395  15.852  62.948  1.00  0.00     0.021 A 
ATOM     13  C   UNL     1      15.131  13.856  61.965  1.00  0.00     0.160 A 
ATOM     14  C   UNL     1      15.355  15.202  61.638  1.00  0.00     0.161 A 
ATOM     15  C   UNL     1      14.035  13.514  62.779  1.00  0.00     0.051 A 
ATOM     16  C   UNL     1      14.483  16.193  62.130  1.00  0.00     0.062 A 
ATOM     17  C   UNL     1      13.176  14.501  63.264  1.00  0.00     0.016 A 
BRANCH  13  18
ATOM     18  O   UNL     1      16.017  12.891  61.462  1.00  0.00    -0.493 OA
ATOM     19  C   UNL     1      15.779  11.487  61.485  1.00  0.00     0.278 C 
ENDBRANCH  13  18
BRANCH  14  20
ATOM     20  O   UNL     1      16.455  15.516  60.823  1.00  0.00    -0.493 OA
ATOM     21  C   UNL     1      17.587  16.266  61.250  1.00  0.00     0.278 C 
ENDBRANCH  14  20
ENDBRANCH   1  12
BRANCH   8  22
ATOM     22  O   UNL     1      13.514  20.812  62.386  1.00  0.00    -0.490 OA
ATOM     23  C   UNL     1      13.509  21.190  61.012  1.00  0.00     0.278 C 
ENDBRANCH   8  22
BRANCH  11  24
ATOM     24  O   UNL     1       8.930  19.854  65.518  1.00  0.00    -0.492 OA
ATOM     25  C   UNL     1       8.868  20.102  66.919  1.00  0.00     0.278 C 
ENDBRANCH  11  24
BRANCH   9  26
ATOM     26  O   UNL     1      11.962  22.976  63.393  1.00  0.00    -0.490 OA
ATOM     27  C   UNL     1      12.758  23.868  64.168  1.00  0.00     0.279 C 
ENDBRANCH   9  26
BRANCH  10  28
ATOM     28  O   UNL     1       9.692  22.418  65.037  1.00  0.00    -0.490 OA
ATOM     29  C   UNL     1       8.740  23.239  64.369  1.00  0.00     0.278 C 
ENDBRANCH  10  28
TORSDOF 7
ENDMDL
