MODEL 1
REMARK VINA RESULT:    -4.006      0.000      0.000
REMARK INTER + INTRA:          -6.425
REMARK INTER:                  -5.879
REMARK INTRA:                  -0.546
REMARK UNBOUND:                -0.546
REMARK SMILES O=C([O-])CCCCCCCC(=O)[O-]
REMARK SMILES IDX 7 1 6 2 5 3 4 4 2 5 1 6 3 7 8 8 9 9 10 10 11 11 12 12 13 13
REMARK H PARENT
REMARK Flexibility Score: inf
ROOT
ATOM      1  C   UNL     1     -19.516   3.705 -24.210  1.00  0.00     0.000 C 
ENDROOT
BRANCH   1   2
ATOM      2  C   UNL     1     -20.315   4.893 -23.643  1.00  0.00     0.000 C 
BRANCH   2   3
ATOM      3  C   UNL     1     -20.853   4.618 -22.229  1.00  0.00     0.006 C 
BRANCH   3   4
ATOM      4  C   UNL     1     -20.478   3.223 -21.712  1.00  0.00     0.053 C 
BRANCH   4   5
ATOM      5  C   UNL     1     -20.285   3.251 -20.229  1.00  0.00     0.041 C 
ATOM      6  O   UNL     1     -19.312   2.646 -19.706  1.00  0.00    -0.550 OA
ATOM      7  O   UNL     1     -21.151   3.985 -19.429  1.00  0.00    -0.550 OA
ENDBRANCH   4   5
ENDBRANCH   3   4
ENDBRANCH   2   3
ENDBRANCH   1   2
BRANCH   1   8
ATOM      8  C   UNL     1     -20.105   3.176 -25.528  1.00  0.00     0.000 C 
BRANCH   8   9
ATOM      9  C   UNL     1     -21.260   2.184 -25.307  1.00  0.00     0.006 C 
BRANCH   9  10
ATOM     10  C   UNL     1     -20.969   0.808 -25.920  1.00  0.00     0.053 C 
BRANCH  10  11
ATOM     11  C   UNL     1     -19.762   0.169 -25.303  1.00  0.00     0.041 C 
ATOM     12  O   UNL     1     -19.743  -0.088 -24.070  1.00  0.00    -0.550 OA
ATOM     13  O   UNL     1     -18.647  -0.109 -26.082  1.00  0.00    -0.550 OA
ENDBRANCH  10  11
ENDBRANCH   9  10
ENDBRANCH   8   9
ENDBRANCH   1   8
TORSDOF 8
ENDMDL
MODEL 2
REMARK VINA RESULT:    -3.943      0.823      5.491
REMARK INTER + INTRA:          -6.333
REMARK INTER:                  -5.816
REMARK INTRA:                  -0.517
REMARK UNBOUND:                -0.546
REMARK SMILES O=C([O-])CCCCCCCC(=O)[O-]
REMARK SMILES IDX 7 1 6 2 5 3 4 4 2 5 1 6 3 7 8 8 9 9 10 10 11 11 12 12 13 13
REMARK H PARENT
REMARK Flexibility Score: inf
ROOT
ATOM      1  C   UNL     1     -20.357   3.779 -25.090  1.00  0.00     0.000 C 
ENDROOT
BRANCH   1   2
ATOM      2  C   UNL     1     -20.812   2.929 -26.290  1.00  0.00     0.000 C 
BRANCH   2   3
ATOM      3  C   UNL     1     -21.615   1.689 -25.862  1.00  0.00     0.006 C 
BRANCH   3   4
ATOM      4  C   UNL     1     -20.967   0.376 -26.322  1.00  0.00     0.053 C 
BRANCH   4   5
ATOM      5  C   UNL     1     -19.748   0.083 -25.507  1.00  0.00     0.041 C 
ATOM      6  O   UNL     1     -19.810   0.088 -24.249  1.00  0.00    -0.550 OA
ATOM      7  O   UNL     1     -18.554  -0.244 -26.135  1.00  0.00    -0.550 OA
ENDBRANCH   4   5
ENDBRANCH   3   4
ENDBRANCH   2   3
ENDBRANCH   1   2
BRANCH   1   8
ATOM      8  C   UNL     1     -21.180   3.494 -23.822  1.00  0.00     0.000 C 
BRANCH   8   9
ATOM      9  C   UNL     1     -20.314   3.439 -22.552  1.00  0.00     0.006 C 
BRANCH   9  10
ATOM     10  C   UNL     1     -20.780   4.442 -21.488  1.00  0.00     0.053 C 
BRANCH  10  11
ATOM     11  C   UNL     1     -20.722   3.858 -20.110  1.00  0.00     0.041 C 
ATOM     12  O   UNL     1     -19.904   2.936 -19.847  1.00  0.00    -0.550 OA
ATOM     13  O   UNL     1     -21.594   4.306 -19.127  1.00  0.00    -0.550 OA
ENDBRANCH  10  11
ENDBRANCH   9  10
ENDBRANCH   8   9
ENDBRANCH   1   8
TORSDOF 8
ENDMDL
MODEL 3
REMARK VINA RESULT:    -3.666     14.040     15.920
REMARK INTER + INTRA:          -5.925
REMARK INTER:                  -5.722
REMARK INTRA:                  -0.203
REMARK UNBOUND:                -0.546
REMARK SMILES O=C([O-])CCCCCCCC(=O)[O-]
REMARK SMILES IDX 7 1 6 2 5 3 4 4 2 5 1 6 3 7 8 8 9 9 10 10 11 11 12 12 13 13
REMARK H PARENT
REMARK Flexibility Score: inf
ROOT
ATOM      1  C   UNL     1      -8.299  -5.259 -25.869  1.00  0.00     0.000 C 
ENDROOT
BRANCH   1   2
ATOM      2  C   UNL     1      -7.755  -6.699 -25.848  1.00  0.00     0.000 C 
BRANCH   2   3
ATOM      3  C   UNL     1      -8.657  -7.680 -26.616  1.00  0.00     0.006 C 
BRANCH   3   4
ATOM      4  C   UNL     1      -9.725  -8.326 -25.723  1.00  0.00     0.053 C 
BRANCH   4   5
ATOM      5  C   UNL     1      -9.639  -9.817 -25.804  1.00  0.00     0.041 C 
ATOM      6  O   UNL     1     -10.668 -10.521 -25.626  1.00  0.00    -0.550 OA
ATOM      7  O   UNL     1      -8.433 -10.428 -26.123  1.00  0.00    -0.550 OA
ENDBRANCH   4   5
ENDBRANCH   3   4
ENDBRANCH   2   3
ENDBRANCH   1   2
BRANCH   1   8
ATOM      8  C   UNL     1      -7.258  -4.230 -25.400  1.00  0.00     0.000 C 
BRANCH   8   9
ATOM      9  C   UNL     1      -7.868  -3.127 -24.518  1.00  0.00     0.006 C 
BRANCH   9  10
ATOM     10  C   UNL     1      -6.955  -1.898 -24.412  1.00  0.00     0.053 C 
BRANCH  10  11
ATOM     11  C   UNL     1      -6.335  -1.783 -23.053  1.00  0.00     0.041 C 
ATOM     12  O   UNL     1      -5.676  -2.744 -22.574  1.00  0.00    -0.550 OA
ATOM     13  O   UNL     1      -6.515  -0.630 -22.301  1.00  0.00    -0.550 OA
ENDBRANCH  10  11
ENDBRANCH   9  10
ENDBRANCH   8   9
ENDBRANCH   1   8
TORSDOF 8
ENDMDL
MODEL 4
REMARK VINA RESULT:    -3.637     13.974     14.901
REMARK INTER + INTRA:          -5.884
REMARK INTER:                  -5.646
REMARK INTRA:                  -0.237
REMARK UNBOUND:                -0.546
REMARK SMILES O=C([O-])CCCCCCCC(=O)[O-]
REMARK SMILES IDX 7 1 6 2 5 3 4 4 2 5 1 6 3 7 8 8 9 9 10 10 11 11 12 12 13 13
REMARK H PARENT
REMARK Flexibility Score: inf
ROOT
ATOM      1  C   UNL     1      -7.977  -5.231 -25.903  1.00  0.00     0.000 C 
ENDROOT
BRANCH   1   2
ATOM      2  C   UNL     1      -7.174  -3.981 -25.502  1.00  0.00     0.000 C 
BRANCH   2   3
ATOM      3  C   UNL     1      -7.837  -3.198 -24.357  1.00  0.00     0.006 C 
BRANCH   3   4
ATOM      4  C   UNL     1      -7.302  -1.765 -24.230  1.00  0.00     0.053 C 
BRANCH   4   5
ATOM      5  C   UNL     1      -6.450  -1.634 -23.008  1.00  0.00     0.041 C 
ATOM      6  O   UNL     1      -6.405  -0.542 -22.381  1.00  0.00    -0.550 OA
ATOM      7  O   UNL     1      -5.741  -2.730 -22.533  1.00  0.00    -0.550 OA
ENDBRANCH   4   5
ENDBRANCH   3   4
ENDBRANCH   2   3
ENDBRANCH   1   2
BRANCH   1   8
ATOM      8  C   UNL     1      -7.083  -6.468 -26.096  1.00  0.00     0.000 C 
BRANCH   8   9
ATOM      9  C   UNL     1      -7.825  -7.787 -25.818  1.00  0.00     0.006 C 
BRANCH   9  10
ATOM     10  C   UNL     1      -9.343  -7.647 -25.999  1.00  0.00     0.053 C 
BRANCH  10  11
ATOM     11  C   UNL     1     -10.020  -8.983 -26.052  1.00  0.00     0.041 C 
ATOM     12  O   UNL     1     -10.663  -9.325 -27.080  1.00  0.00    -0.550 OA
ATOM     13  O   UNL     1      -9.972  -9.833 -24.956  1.00  0.00    -0.550 OA
ENDBRANCH  10  11
ENDBRANCH   9  10
ENDBRANCH   8   9
ENDBRANCH   1   8
TORSDOF 8
ENDMDL
MODEL 5
REMARK VINA RESULT:    -3.549     11.837     13.417
REMARK INTER + INTRA:          -5.755
REMARK INTER:                  -5.085
REMARK INTRA:                  -0.670
REMARK UNBOUND:                -0.546
REMARK SMILES O=C([O-])CCCCCCCC(=O)[O-]
REMARK SMILES IDX 7 1 6 2 5 3 4 4 2 5 1 6 3 7 8 8 9 9 10 10 11 11 12 12 13 13
REMARK H PARENT
REMARK Flexibility Score: inf
ROOT
ATOM      1  C   UNL     1      -8.595  -3.303 -26.529  1.00  0.00     0.000 C 
ENDROOT
BRANCH   1   2
ATOM      2  C   UNL     1      -7.899  -3.370 -25.158  1.00  0.00     0.000 C 
BRANCH   2   3
ATOM      3  C   UNL     1      -6.422  -2.949 -25.227  1.00  0.00     0.006 C 
BRANCH   3   4
ATOM      4  C   UNL     1      -6.167  -1.573 -24.598  1.00  0.00     0.053 C 
BRANCH   4   5
ATOM      5  C   UNL     1      -6.160  -1.675 -23.106  1.00  0.00     0.041 C 
ATOM      6  O   UNL     1      -6.662  -0.756 -22.406  1.00  0.00    -0.550 OA
ATOM      7  O   UNL     1      -5.641  -2.806 -22.489  1.00  0.00    -0.550 OA
ENDBRANCH   4   5
ENDBRANCH   3   4
ENDBRANCH   2   3
ENDBRANCH   1   2
BRANCH   1   8
ATOM      8  C   UNL     1      -8.722  -1.864 -27.054  1.00  0.00     0.000 C 
BRANCH   8   9
ATOM      9  C   UNL     1     -10.170  -1.346 -27.024  1.00  0.00     0.006 C 
BRANCH   9  10
ATOM     10  C   UNL     1     -10.273   0.052 -26.399  1.00  0.00     0.053 C 
BRANCH  10  11
ATOM     11  C   UNL     1      -9.465   0.158 -25.141  1.00  0.00     0.041 C 
ATOM     12  O   UNL     1      -9.780  -0.520 -24.128  1.00  0.00    -0.550 OA
ATOM     13  O   UNL     1      -8.387   1.031 -25.078  1.00  0.00    -0.550 OA
ENDBRANCH  10  11
ENDBRANCH   9  10
ENDBRANCH   8   9
ENDBRANCH   1   8
TORSDOF 8
ENDMDL
MODEL 6
REMARK VINA RESULT:    -3.549     14.063     15.879
REMARK INTER + INTRA:          -5.754
REMARK INTER:                  -5.551
REMARK INTRA:                  -0.203
REMARK UNBOUND:                -0.546
REMARK SMILES O=C([O-])CCCCCCCC(=O)[O-]
REMARK SMILES IDX 7 1 6 2 5 3 4 4 2 5 1 6 3 7 8 8 9 9 10 10 11 11 12 12 13 13
REMARK H PARENT
REMARK Flexibility Score: inf
ROOT
ATOM      1  C   UNL     1      -8.296  -5.163 -25.657  1.00  0.00     0.000 C 
ENDROOT
BRANCH   1   2
ATOM      2  C   UNL     1      -7.504  -6.441 -25.984  1.00  0.00     0.000 C 
BRANCH   2   3
ATOM      3  C   UNL     1      -8.340  -7.468 -26.766  1.00  0.00     0.006 C 
BRANCH   3   4
ATOM      4  C   UNL     1      -9.475  -8.071 -25.926  1.00  0.00     0.053 C 
BRANCH   4   5
ATOM      5  C   UNL     1      -9.376  -9.563 -25.911  1.00  0.00     0.041 C 
ATOM      6  O   UNL     1      -8.282 -10.129 -26.175  1.00  0.00    -0.550 OA
ATOM      7  O   UNL     1     -10.480 -10.330 -25.560  1.00  0.00    -0.550 OA
ENDBRANCH   4   5
ENDBRANCH   3   4
ENDBRANCH   2   3
ENDBRANCH   1   2
BRANCH   1   8
ATOM      8  C   UNL     1      -7.381  -3.955 -25.398  1.00  0.00     0.000 C 
BRANCH   8   9
ATOM      9  C   UNL     1      -7.953  -2.993 -24.342  1.00  0.00     0.006 C 
BRANCH   9  10
ATOM     10  C   UNL     1      -7.147  -1.690 -24.247  1.00  0.00     0.053 C 
BRANCH  10  11
ATOM     11  C   UNL     1      -6.291  -1.655 -23.018  1.00  0.00     0.041 C 
ATOM     12  O   UNL     1      -6.097  -0.567 -22.413  1.00  0.00    -0.550 OA
ATOM     13  O   UNL     1      -5.680  -2.815 -22.561  1.00  0.00    -0.550 OA
ENDBRANCH  10  11
ENDBRANCH   9  10
ENDBRANCH   8   9
ENDBRANCH   1   8
TORSDOF 8
ENDMDL
MODEL 7
REMARK VINA RESULT:    -3.539     12.970     14.430
REMARK INTER + INTRA:          -5.740
REMARK INTER:                  -5.047
REMARK INTRA:                  -0.693
REMARK UNBOUND:                -0.546
REMARK SMILES O=C([O-])CCCCCCCC(=O)[O-]
REMARK SMILES IDX 7 1 6 2 5 3 4 4 2 5 1 6 3 7 8 8 9 9 10 10 11 11 12 12 13 13
REMARK H PARENT
REMARK Flexibility Score: inf
ROOT
ATOM      1  C   UNL     1      -8.262   0.908 -25.126  1.00  0.00     0.000 C 
ENDROOT
BRANCH   1   2
ATOM      2  C   UNL     1      -8.942  -0.462 -24.962  1.00  0.00     0.000 C 
BRANCH   2   3
ATOM      3  C   UNL     1      -8.382  -1.258 -23.772  1.00  0.00     0.006 C 
BRANCH   3   4
ATOM      4  C   UNL     1      -7.756  -2.595 -24.194  1.00  0.00     0.053 C 
BRANCH   4   5
ATOM      5  C   UNL     1      -6.284  -2.587 -23.930  1.00  0.00     0.041 C 
ATOM      6  O   UNL     1      -5.469  -2.564 -24.890  1.00  0.00    -0.550 OA
ATOM      7  O   UNL     1      -5.812  -2.557 -22.624  1.00  0.00    -0.550 OA
ENDBRANCH   4   5
ENDBRANCH   3   4
ENDBRANCH   2   3
ENDBRANCH   1   2
BRANCH   1   8
ATOM      8  C   UNL     1      -6.802   0.788 -25.593  1.00  0.00     0.000 C 
BRANCH   8   9
ATOM      9  C   UNL     1      -5.813   1.472 -24.632  1.00  0.00     0.006 C 
BRANCH   9  10
ATOM     10  C   UNL     1      -6.524   2.360 -23.604  1.00  0.00     0.053 C 
BRANCH  10  11
ATOM     11  C   UNL     1      -6.002   2.134 -22.218  1.00  0.00     0.041 C 
ATOM     12  O   UNL     1      -5.659   3.112 -21.503  1.00  0.00    -0.550 OA
ATOM     13  O   UNL     1      -5.860   0.841 -21.730  1.00  0.00    -0.550 OA
ENDBRANCH  10  11
ENDBRANCH   9  10
ENDBRANCH   8   9
ENDBRANCH   1   8
TORSDOF 8
ENDMDL
MODEL 8
REMARK VINA RESULT:    -3.434     12.796     13.719
REMARK INTER + INTRA:          -5.586
REMARK INTER:                  -5.033
REMARK INTRA:                  -0.553
REMARK UNBOUND:                -0.546
REMARK SMILES O=C([O-])CCCCCCCC(=O)[O-]
REMARK SMILES IDX 7 1 6 2 5 3 4 4 2 5 1 6 3 7 8 8 9 9 10 10 11 11 12 12 13 13
REMARK H PARENT
REMARK Flexibility Score: inf
ROOT
ATOM      1  C   UNL     1      -8.914   0.740 -25.769  1.00  0.00     0.000 C 
ENDROOT
BRANCH   1   2
ATOM      2  C   UNL     1      -7.833   1.834 -25.814  1.00  0.00     0.000 C 
BRANCH   2   3
ATOM      3  C   UNL     1      -7.498   2.388 -24.418  1.00  0.00     0.006 C 
BRANCH   3   4
ATOM      4  C   UNL     1      -6.113   1.950 -23.923  1.00  0.00     0.053 C 
BRANCH   4   5
ATOM      5  C   UNL     1      -6.085   1.901 -22.429  1.00  0.00     0.041 C 
ATOM      6  O   UNL     1      -6.430   2.908 -21.755  1.00  0.00    -0.550 OA
ATOM      7  O   UNL     1      -5.724   0.729 -21.777  1.00  0.00    -0.550 OA
ENDBRANCH   4   5
ENDBRANCH   3   4
ENDBRANCH   2   3
ENDBRANCH   1   2
BRANCH   1   8
ATOM      8  C   UNL     1      -8.316  -0.672 -25.647  1.00  0.00     0.000 C 
BRANCH   8   9
ATOM      9  C   UNL     1      -8.236  -1.160 -24.191  1.00  0.00     0.006 C 
BRANCH   9  10
ATOM     10  C   UNL     1      -7.527  -2.516 -24.072  1.00  0.00     0.053 C 
BRANCH  10  11
ATOM     11  C   UNL     1      -6.089  -2.358 -23.682  1.00  0.00     0.041 C 
ATOM     12  O   UNL     1      -5.705  -2.695 -22.530  1.00  0.00    -0.550 OA
ATOM     13  O   UNL     1      -5.181  -1.807 -24.576  1.00  0.00    -0.550 OA
ENDBRANCH  10  11
ENDBRANCH   9  10
ENDBRANCH   8   9
ENDBRANCH   1   8
TORSDOF 8
ENDMDL
MODEL 9
REMARK VINA RESULT:    -3.433     12.756     13.785
REMARK INTER + INTRA:          -5.584
REMARK INTER:                  -5.020
REMARK INTRA:                  -0.564
REMARK UNBOUND:                -0.546
REMARK SMILES O=C([O-])CCCCCCCC(=O)[O-]
REMARK SMILES IDX 7 1 6 2 5 3 4 4 2 5 1 6 3 7 8 8 9 9 10 10 11 11 12 12 13 13
REMARK H PARENT
REMARK Flexibility Score: inf
ROOT
ATOM      1  C   UNL     1      -6.026  -2.139 -23.089  1.00  0.00     0.000 C 
ENDROOT
BRANCH   1   2
ATOM      2  C   UNL     1      -5.504  -0.705 -23.285  1.00  0.00     0.000 C 
BRANCH   2   3
ATOM      3  C   UNL     1      -6.369   0.341 -22.562  1.00  0.00     0.006 C 
BRANCH   3   4
ATOM      4  C   UNL     1      -5.537   1.459 -21.921  1.00  0.00     0.053 C 
BRANCH   4   5
ATOM      5  C   UNL     1      -5.943   2.791 -22.469  1.00  0.00     0.041 C 
ATOM      6  O   UNL     1      -5.219   3.803 -22.276  1.00  0.00    -0.550 OA
ATOM      7  O   UNL     1      -7.097   2.905 -23.233  1.00  0.00    -0.550 OA
ENDBRANCH   4   5
ENDBRANCH   3   4
ENDBRANCH   2   3
ENDBRANCH   1   2
BRANCH   1   8
ATOM      8  C   UNL     1      -6.467  -2.790 -24.410  1.00  0.00     0.000 C 
BRANCH   8   9
ATOM      9  C   UNL     1      -7.972  -2.620 -24.683  1.00  0.00     0.006 C 
BRANCH   9  10
ATOM     10  C   UNL     1      -8.250  -1.554 -25.751  1.00  0.00     0.053 C 
BRANCH  10  11
ATOM     11  C   UNL     1      -8.915  -0.344 -25.168  1.00  0.00     0.041 C 
ATOM     12  O   UNL     1      -8.675   0.799 -25.640  1.00  0.00    -0.550 OA
ATOM     13  O   UNL     1      -9.770  -0.475 -24.082  1.00  0.00    -0.550 OA
ENDBRANCH  10  11
ENDBRANCH   9  10
ENDBRANCH   8   9
ENDBRANCH   1   8
TORSDOF 8
ENDMDL
