MODEL 1
REMARK VINA RESULT:    -3.374      0.000      0.000
REMARK INTER + INTRA:          -4.589
REMARK INTER:                  -4.361
REMARK INTRA:                  -0.228
REMARK UNBOUND:                -0.228
REMARK SMILES CCCCCCC(=O)[O-]
REMARK SMILES IDX 5 1 6 2 7 3 8 4 9 5 4 6 3 7 2 8 1 9
REMARK H PARENT
REMARK Flexibility Score: inf
ROOT
ATOM      1  C   UNL     1     -21.807   8.029  18.104  1.00  0.00     0.006 C 
ENDROOT
BRANCH   1   2
ATOM      2  C   UNL     1     -22.795   8.717  19.059  1.00  0.00     0.053 C 
BRANCH   2   3
ATOM      3  C   UNL     1     -23.050   7.897  20.287  1.00  0.00     0.041 C 
ATOM      4  O   UNL     1     -24.224   7.560  20.593  1.00  0.00    -0.550 OA
ATOM      5  O   UNL     1     -21.993   7.534  21.112  1.00  0.00    -0.550 OA
ENDBRANCH   2   3
ENDBRANCH   1   2
BRANCH   1   6
ATOM      6  C   UNL     1     -22.263   6.642  17.614  1.00  0.00     0.000 C 
BRANCH   6   7
ATOM      7  C   UNL     1     -21.374   6.088  16.486  1.00  0.00    -0.000 C 
BRANCH   7   8
ATOM      8  C   UNL     1     -20.304   7.093  16.034  1.00  0.00    -0.003 C 
ATOM      9  C   UNL     1     -18.882   6.613  16.323  1.00  0.00     0.004 C 
ENDBRANCH   7   8
ENDBRANCH   6   7
ENDBRANCH   1   6
TORSDOF 5
ENDMDL
MODEL 2
REMARK VINA RESULT:    -3.345      2.077      4.261
REMARK INTER + INTRA:          -4.550
REMARK INTER:                  -4.167
REMARK INTRA:                  -0.383
REMARK UNBOUND:                -0.228
REMARK SMILES CCCCCCC(=O)[O-]
REMARK SMILES IDX 5 1 6 2 7 3 8 4 9 5 4 6 3 7 2 8 1 9
REMARK H PARENT
REMARK Flexibility Score: inf
ROOT
ATOM      1  C   UNL     1     -21.707   7.605  17.369  1.00  0.00     0.006 C 
ENDROOT
BRANCH   1   2
ATOM      2  C   UNL     1     -21.900   6.093  17.572  1.00  0.00     0.053 C 
BRANCH   2   3
ATOM      3  C   UNL     1     -21.042   5.562  18.679  1.00  0.00     0.041 C 
ATOM      4  O   UNL     1     -19.788   5.569  18.567  1.00  0.00    -0.550 OA
ATOM      5  O   UNL     1     -21.629   5.030  19.819  1.00  0.00    -0.550 OA
ENDBRANCH   2   3
ENDBRANCH   1   2
BRANCH   1   6
ATOM      6  C   UNL     1     -21.811   8.434  18.663  1.00  0.00     0.000 C 
BRANCH   6   7
ATOM      7  C   UNL     1     -23.233   8.443  19.250  1.00  0.00    -0.000 C 
BRANCH   7   8
ATOM      8  C   UNL     1     -23.256   8.062  20.738  1.00  0.00    -0.003 C 
ATOM      9  C   UNL     1     -24.301   6.993  21.058  1.00  0.00     0.004 C 
ENDBRANCH   7   8
ENDBRANCH   6   7
ENDBRANCH   1   6
TORSDOF 5
ENDMDL
MODEL 3
REMARK VINA RESULT:    -3.337      1.384      2.412
REMARK INTER + INTRA:          -4.540
REMARK INTER:                  -4.173
REMARK INTRA:                  -0.367
REMARK UNBOUND:                -0.228
REMARK SMILES CCCCCCC(=O)[O-]
REMARK SMILES IDX 5 1 6 2 7 3 8 4 9 5 4 6 3 7 2 8 1 9
REMARK H PARENT
REMARK Flexibility Score: inf
ROOT
ATOM      1  C   UNL     1     -21.862   8.441  18.576  1.00  0.00     0.006 C 
ENDROOT
BRANCH   1   2
ATOM      2  C   UNL     1     -23.300   8.395  19.118  1.00  0.00     0.053 C 
BRANCH   2   3
ATOM      3  C   UNL     1     -23.339   8.025  20.569  1.00  0.00     0.041 C 
ATOM      4  O   UNL     1     -22.362   8.290  21.318  1.00  0.00    -0.550 OA
ATOM      5  O   UNL     1     -24.441   7.357  21.087  1.00  0.00    -0.550 OA
ENDBRANCH   2   3
ENDBRANCH   1   2
BRANCH   1   6
ATOM      6  C   UNL     1     -21.612   7.512  17.373  1.00  0.00     0.000 C 
BRANCH   6   7
ATOM      7  C   UNL     1     -22.033   6.058  17.646  1.00  0.00    -0.000 C 
BRANCH   7   8
ATOM      8  C   UNL     1     -21.257   5.431  18.813  1.00  0.00    -0.003 C 
ATOM      9  C   UNL     1     -22.156   4.642  19.764  1.00  0.00     0.004 C 
ENDBRANCH   7   8
ENDBRANCH   6   7
ENDBRANCH   1   6
TORSDOF 5
ENDMDL
MODEL 4
REMARK VINA RESULT:    -3.321      1.812      2.968
REMARK INTER + INTRA:          -4.520
REMARK INTER:                  -4.214
REMARK INTRA:                  -0.306
REMARK UNBOUND:                -0.228
REMARK SMILES CCCCCCC(=O)[O-]
REMARK SMILES IDX 5 1 6 2 7 3 8 4 9 5 4 6 3 7 2 8 1 9
REMARK H PARENT
REMARK Flexibility Score: inf
ROOT
ATOM      1  C   UNL     1     -23.222   8.112  20.698  1.00  0.00     0.006 C 
ENDROOT
BRANCH   1   2
ATOM      2  C   UNL     1     -24.326   7.107  21.065  1.00  0.00     0.053 C 
BRANCH   2   3
ATOM      3  C   UNL     1     -23.761   5.800  21.530  1.00  0.00     0.041 C 
ATOM      4  O   UNL     1     -22.745   5.312  20.968  1.00  0.00    -0.550 OA
ATOM      5  O   UNL     1     -24.377   5.104  22.562  1.00  0.00    -0.550 OA
ENDBRANCH   2   3
ENDBRANCH   1   2
BRANCH   1   6
ATOM      6  C   UNL     1     -23.147   8.449  19.197  1.00  0.00     0.000 C 
BRANCH   6   7
ATOM      7  C   UNL     1     -21.725   8.308  18.626  1.00  0.00    -0.000 C 
BRANCH   7   8
ATOM      8  C   UNL     1     -21.686   7.452  17.351  1.00  0.00    -0.003 C 
ATOM      9  C   UNL     1     -22.407   6.115  17.515  1.00  0.00     0.004 C 
ENDBRANCH   7   8
ENDBRANCH   6   7
ENDBRANCH   1   6
TORSDOF 5
ENDMDL
MODEL 5
REMARK VINA RESULT:    -3.260      2.200      4.390
REMARK INTER + INTRA:          -4.440
REMARK INTER:                  -4.021
REMARK INTRA:                  -0.419
REMARK UNBOUND:                -0.228
REMARK SMILES CCCCCCC(=O)[O-]
REMARK SMILES IDX 5 1 6 2 7 3 8 4 9 5 4 6 3 7 2 8 1 9
REMARK H PARENT
REMARK Flexibility Score: inf
ROOT
ATOM      1  C   UNL     1     -22.036   8.603  18.500  1.00  0.00     0.006 C 
ENDROOT
BRANCH   1   2
ATOM      2  C   UNL     1     -21.238   7.555  17.708  1.00  0.00     0.053 C 
BRANCH   2   3
ATOM      3  C   UNL     1     -21.812   6.180  17.862  1.00  0.00     0.041 C 
ATOM      4  O   UNL     1     -21.365   5.402  18.745  1.00  0.00    -0.550 OA
ATOM      5  O   UNL     1     -22.820   5.747  17.009  1.00  0.00    -0.550 OA
ENDBRANCH   2   3
ENDBRANCH   1   2
BRANCH   1   6
ATOM      6  C   UNL     1     -21.393   9.007  19.840  1.00  0.00     0.000 C 
BRANCH   6   7
ATOM      7  C   UNL     1     -22.102   8.380  21.053  1.00  0.00    -0.000 C 
BRANCH   7   8
ATOM      8  C   UNL     1     -23.563   8.012  20.753  1.00  0.00    -0.003 C 
ATOM      9  C   UNL     1     -23.898   6.570  21.134  1.00  0.00     0.004 C 
ENDBRANCH   7   8
ENDBRANCH   6   7
ENDBRANCH   1   6
TORSDOF 5
ENDMDL
MODEL 6
REMARK VINA RESULT:    -3.165      2.552      4.454
REMARK INTER + INTRA:          -4.318
REMARK INTER:                  -3.998
REMARK INTRA:                  -0.320
REMARK UNBOUND:                -0.228
REMARK SMILES CCCCCCC(=O)[O-]
REMARK SMILES IDX 5 1 6 2 7 3 8 4 9 5 4 6 3 7 2 8 1 9
REMARK H PARENT
REMARK Flexibility Score: inf
ROOT
ATOM      1  C   UNL     1     -20.278   7.156  16.121  1.00  0.00     0.006 C 
ENDROOT
BRANCH   1   2
ATOM      2  C   UNL     1     -18.835   6.631  16.182  1.00  0.00     0.053 C 
BRANCH   2   3
ATOM      3  C   UNL     1     -18.351   6.488  17.593  1.00  0.00     0.041 C 
ATOM      4  O   UNL     1     -17.858   5.398  17.987  1.00  0.00    -0.550 OA
ATOM      5  O   UNL     1     -18.474   7.548  18.481  1.00  0.00    -0.550 OA
ENDBRANCH   2   3
ENDBRANCH   1   2
BRANCH   1   6
ATOM      6  C   UNL     1     -21.348   6.105  16.467  1.00  0.00     0.000 C 
BRANCH   6   7
ATOM      7  C   UNL     1     -22.254   6.540  17.632  1.00  0.00    -0.000 C 
BRANCH   7   8
ATOM      8  C   UNL     1     -22.015   7.998  18.049  1.00  0.00    -0.003 C 
ATOM      9  C   UNL     1     -22.957   8.457  19.162  1.00  0.00     0.004 C 
ENDBRANCH   7   8
ENDBRANCH   6   7
ENDBRANCH   1   6
TORSDOF 5
ENDMDL
MODEL 7
REMARK VINA RESULT:    -3.062      2.510      4.115
REMARK INTER + INTRA:          -4.185
REMARK INTER:                  -3.787
REMARK INTRA:                  -0.398
REMARK UNBOUND:                -0.228
REMARK SMILES CCCCCCC(=O)[O-]
REMARK SMILES IDX 5 1 6 2 7 3 8 4 9 5 4 6 3 7 2 8 1 9
REMARK H PARENT
REMARK Flexibility Score: inf
ROOT
ATOM      1  C   UNL     1     -22.884   8.249  20.638  1.00  0.00     0.006 C 
ENDROOT
BRANCH   1   2
ATOM      2  C   UNL     1     -22.639   8.820  19.233  1.00  0.00     0.053 C 
BRANCH   2   3
ATOM      3  C   UNL     1     -21.673   7.985  18.450  1.00  0.00     0.041 C 
ATOM      4  O   UNL     1     -20.463   7.922  18.796  1.00  0.00    -0.550 OA
ATOM      5  O   UNL     1     -22.101   7.303  17.318  1.00  0.00    -0.550 OA
ENDBRANCH   2   3
ENDBRANCH   1   2
BRANCH   1   6
ATOM      6  C   UNL     1     -24.124   7.342  20.744  1.00  0.00     0.000 C 
BRANCH   6   7
ATOM      7  C   UNL     1     -23.832   6.018  21.474  1.00  0.00    -0.000 C 
BRANCH   7   8
ATOM      8  C   UNL     1     -22.421   5.487  21.184  1.00  0.00    -0.003 C 
ATOM      9  C   UNL     1     -22.365   4.609  19.933  1.00  0.00     0.004 C 
ENDBRANCH   7   8
ENDBRANCH   6   7
ENDBRANCH   1   6
TORSDOF 5
ENDMDL
MODEL 8
REMARK VINA RESULT:    -3.011      1.248      1.658
REMARK INTER + INTRA:          -4.118
REMARK INTER:                  -3.748
REMARK INTRA:                  -0.371
REMARK UNBOUND:                -0.228
REMARK SMILES CCCCCCC(=O)[O-]
REMARK SMILES IDX 5 1 6 2 7 3 8 4 9 5 4 6 3 7 2 8 1 9
REMARK H PARENT
REMARK Flexibility Score: inf
ROOT
ATOM      1  C   UNL     1     -22.385   6.699  17.727  1.00  0.00     0.006 C 
ENDROOT
BRANCH   1   2
ATOM      2  C   UNL     1     -21.911   8.035  18.321  1.00  0.00     0.053 C 
BRANCH   2   3
ATOM      3  C   UNL     1     -21.501   7.896  19.755  1.00  0.00     0.041 C 
ATOM      4  O   UNL     1     -21.792   8.794  20.588  1.00  0.00    -0.550 OA
ATOM      5  O   UNL     1     -20.768   6.789  20.165  1.00  0.00    -0.550 OA
ENDBRANCH   2   3
ENDBRANCH   1   2
BRANCH   1   6
ATOM      6  C   UNL     1     -21.423   6.092  16.688  1.00  0.00     0.000 C 
BRANCH   6   7
ATOM      7  C   UNL     1     -20.457   7.132  16.095  1.00  0.00    -0.000 C 
BRANCH   7   8
ATOM      8  C   UNL     1     -18.993   6.670  16.149  1.00  0.00    -0.003 C 
ATOM      9  C   UNL     1     -18.619   6.046  17.494  1.00  0.00     0.004 C 
ENDBRANCH   7   8
ENDBRANCH   6   7
ENDBRANCH   1   6
TORSDOF 5
ENDMDL
MODEL 9
REMARK VINA RESULT:    -2.925      2.031      2.554
REMARK INTER + INTRA:          -4.008
REMARK INTER:                  -3.741
REMARK INTRA:                  -0.267
REMARK UNBOUND:                -0.228
REMARK SMILES CCCCCCC(=O)[O-]
REMARK SMILES IDX 5 1 6 2 7 3 8 4 9 5 4 6 3 7 2 8 1 9
REMARK H PARENT
REMARK Flexibility Score: inf
ROOT
ATOM      1  C   UNL     1     -22.322   6.097  17.514  1.00  0.00     0.006 C 
ENDROOT
BRANCH   1   2
ATOM      2  C   UNL     1     -22.702   6.044  19.003  1.00  0.00     0.053 C 
BRANCH   2   3
ATOM      3  C   UNL     1     -21.739   5.217  19.797  1.00  0.00     0.041 C 
ATOM      4  O   UNL     1     -20.736   5.754  20.337  1.00  0.00    -0.550 OA
ATOM      5  O   UNL     1     -21.930   3.846  19.913  1.00  0.00    -0.550 OA
ENDBRANCH   2   3
ENDBRANCH   1   2
BRANCH   1   6
ATOM      6  C   UNL     1     -21.307   7.200  17.160  1.00  0.00     0.000 C 
BRANCH   6   7
ATOM      7  C   UNL     1     -20.441   6.842  15.940  1.00  0.00    -0.000 C 
BRANCH   7   8
ATOM      8  C   UNL     1     -18.962   6.650  16.306  1.00  0.00    -0.003 C 
ATOM      9  C   UNL     1     -18.664   7.000  17.764  1.00  0.00     0.004 C 
ENDBRANCH   7   8
ENDBRANCH   6   7
ENDBRANCH   1   6
TORSDOF 5
ENDMDL
