MODEL 1
REMARK VINA RESULT:    -3.462      0.000      0.000
REMARK INTER + INTRA:          -4.556
REMARK INTER:                  -4.271
REMARK INTRA:                  -0.285
REMARK UNBOUND:                -0.285
REMARK SMILES C=CC[C@@H](C)C(=O)CC
REMARK SMILES IDX 4 1 5 2 6 3 7 4 8 5 9 6 3 7 2 8 1 9
REMARK H PARENT
REMARK Flexibility Score: inf
ROOT
ATOM      1  C   UNL     1      -7.998   5.526  51.730  1.00  0.00     0.057 C 
ATOM      2  C   UNL     1      -6.990   4.960  50.724  1.00  0.00     0.016 C 
ENDROOT
BRANCH   1   3
ATOM      3  C   UNL     1      -9.412   5.247  51.258  1.00  0.00     0.135 C 
ATOM      4  O   UNL     1     -10.026   6.109  50.646  1.00  0.00    -0.299 OA
BRANCH   3   5
ATOM      5  C   UNL     1     -10.084   3.930  51.544  1.00  0.00     0.072 C 
ATOM      6  C   UNL     1     -10.702   3.344  50.278  1.00  0.00     0.012 C 
ENDBRANCH   3   5
ENDBRANCH   1   3
BRANCH   1   7
ATOM      7  C   UNL     1      -7.751   4.935  53.133  1.00  0.00     0.038 C 
BRANCH   7   8
ATOM      8  C   UNL     1      -6.622   3.937  53.139  1.00  0.00    -0.034 C 
ATOM      9  C   UNL     1      -5.895   3.703  54.235  1.00  0.00     0.004 C 
ENDBRANCH   7   8
ENDBRANCH   1   7
TORSDOF 4
ENDMDL
MODEL 2
REMARK VINA RESULT:    -3.437      2.043      3.860
REMARK INTER + INTRA:          -4.526
REMARK INTER:                  -4.046
REMARK INTRA:                  -0.479
REMARK UNBOUND:                -0.285
REMARK SMILES C=CC[C@@H](C)C(=O)CC
REMARK SMILES IDX 4 1 5 2 6 3 7 4 8 5 9 6 3 7 2 8 1 9
REMARK H PARENT
REMARK Flexibility Score: inf
ROOT
ATOM      1  C   UNL     1      -7.722   3.754  50.991  1.00  0.00     0.057 C 
ATOM      2  C   UNL     1      -6.813   4.946  50.676  1.00  0.00     0.016 C 
ENDROOT
BRANCH   1   3
ATOM      3  C   UNL     1      -7.226   3.039  52.233  1.00  0.00     0.135 C 
ATOM      4  O   UNL     1      -7.633   1.914  52.487  1.00  0.00    -0.299 OA
BRANCH   3   5
ATOM      5  C   UNL     1      -6.250   3.696  53.173  1.00  0.00     0.072 C 
ATOM      6  C   UNL     1      -6.976   4.348  54.347  1.00  0.00     0.012 C 
ENDBRANCH   3   5
ENDBRANCH   1   3
BRANCH   1   7
ATOM      7  C   UNL     1      -9.183   4.218  51.161  1.00  0.00     0.038 C 
BRANCH   7   8
ATOM      8  C   UNL     1      -9.285   5.704  51.389  1.00  0.00    -0.034 C 
ATOM      9  C   UNL     1      -9.786   6.210  52.519  1.00  0.00     0.004 C 
ENDBRANCH   7   8
ENDBRANCH   1   7
TORSDOF 4
ENDMDL
MODEL 3
REMARK VINA RESULT:    -3.422      1.451      3.669
REMARK INTER + INTRA:          -4.507
REMARK INTER:                  -4.052
REMARK INTRA:                  -0.456
REMARK UNBOUND:                -0.285
REMARK SMILES C=CC[C@@H](C)C(=O)CC
REMARK SMILES IDX 4 1 5 2 6 3 7 4 8 5 9 6 3 7 2 8 1 9
REMARK H PARENT
REMARK Flexibility Score: inf
ROOT
ATOM      1  C   UNL     1      -8.300   5.818  52.101  1.00  0.00     0.057 C 
ATOM      2  C   UNL     1      -8.790   5.513  53.520  1.00  0.00     0.016 C 
ENDROOT
BRANCH   1   3
ATOM      3  C   UNL     1      -7.216   4.835  51.705  1.00  0.00     0.135 C 
ATOM      4  O   UNL     1      -6.858   4.767  50.538  1.00  0.00    -0.299 OA
BRANCH   3   5
ATOM      5  C   UNL     1      -6.581   3.923  52.722  1.00  0.00     0.072 C 
ATOM      6  C   UNL     1      -7.056   2.485  52.538  1.00  0.00     0.012 C 
ENDBRANCH   3   5
ENDBRANCH   1   3
BRANCH   1   7
ATOM      7  C   UNL     1      -9.477   5.785  51.104  1.00  0.00     0.038 C 
BRANCH   7   8
ATOM      8  C   UNL     1     -10.427   4.649  51.383  1.00  0.00    -0.034 C 
ATOM      9  C   UNL     1     -10.446   3.545  50.630  1.00  0.00     0.004 C 
ENDBRANCH   7   8
ENDBRANCH   1   7
TORSDOF 4
ENDMDL
MODEL 4
REMARK VINA RESULT:    -3.399      1.810      2.568
REMARK INTER + INTRA:          -4.478
REMARK INTER:                  -4.141
REMARK INTRA:                  -0.337
REMARK UNBOUND:                -0.285
REMARK SMILES C=CC[C@@H](C)C(=O)CC
REMARK SMILES IDX 4 1 5 2 6 3 7 4 8 5 9 6 3 7 2 8 1 9
REMARK H PARENT
REMARK Flexibility Score: inf
ROOT
ATOM      1  C   UNL     1      -6.925   3.474  52.296  1.00  0.00     0.057 C 
ATOM      2  C   UNL     1      -8.182   2.877  52.938  1.00  0.00     0.016 C 
ENDROOT
BRANCH   1   3
ATOM      3  C   UNL     1      -7.280   4.745  51.550  1.00  0.00     0.135 C 
ATOM      4  O   UNL     1      -6.699   5.019  50.510  1.00  0.00    -0.299 OA
BRANCH   3   5
ATOM      5  C   UNL     1      -8.327   5.692  52.077  1.00  0.00     0.072 C 
ATOM      6  C   UNL     1      -9.485   5.827  51.093  1.00  0.00     0.012 C 
ENDBRANCH   3   5
ENDBRANCH   1   3
BRANCH   1   7
ATOM      7  C   UNL     1      -5.845   3.736  53.366  1.00  0.00     0.038 C 
BRANCH   7   8
ATOM      8  C   UNL     1      -6.430   3.847  54.750  1.00  0.00    -0.034 C 
ATOM      9  C   UNL     1      -6.314   4.963  55.476  1.00  0.00     0.004 C 
ENDBRANCH   7   8
ENDBRANCH   1   7
TORSDOF 4
ENDMDL
MODEL 5
REMARK VINA RESULT:    -3.344     11.577     12.507
REMARK INTER + INTRA:          -4.411
REMARK INTER:                  -4.151
REMARK INTRA:                  -0.260
REMARK UNBOUND:                -0.285
REMARK SMILES C=CC[C@@H](C)C(=O)CC
REMARK SMILES IDX 4 1 5 2 6 3 7 4 8 5 9 6 3 7 2 8 1 9
REMARK H PARENT
REMARK Flexibility Score: inf
ROOT
ATOM      1  C   UNL     1       2.890  -1.889  53.638  1.00  0.00     0.057 C 
ATOM      2  C   UNL     1       3.656  -2.076  54.952  1.00  0.00     0.016 C 
ENDROOT
BRANCH   1   3
ATOM      3  C   UNL     1       1.636  -2.741  53.645  1.00  0.00     0.135 C 
ATOM      4  O   UNL     1       1.678  -3.876  54.098  1.00  0.00    -0.299 OA
BRANCH   3   5
ATOM      5  C   UNL     1       0.337  -2.220  53.087  1.00  0.00     0.072 C 
ATOM      6  C   UNL     1      -0.380  -3.297  52.278  1.00  0.00     0.012 C 
ENDBRANCH   3   5
ENDBRANCH   1   3
BRANCH   1   7
ATOM      7  C   UNL     1       2.553  -0.400  53.416  1.00  0.00     0.038 C 
BRANCH   7   8
ATOM      8  C   UNL     1       2.798   0.429  54.651  1.00  0.00    -0.034 C 
ATOM      9  C   UNL     1       2.035   1.482  54.954  1.00  0.00     0.004 C 
ENDBRANCH   7   8
ENDBRANCH   1   7
TORSDOF 4
ENDMDL
MODEL 6
REMARK VINA RESULT:    -3.329     10.982     12.146
REMARK INTER + INTRA:          -4.392
REMARK INTER:                  -3.878
REMARK INTRA:                  -0.514
REMARK UNBOUND:                -0.285
REMARK SMILES C=CC[C@@H](C)C(=O)CC
REMARK SMILES IDX 4 1 5 2 6 3 7 4 8 5 9 6 3 7 2 8 1 9
REMARK H PARENT
REMARK Flexibility Score: inf
ROOT
ATOM      1  C   UNL     1       2.968   0.551  54.950  1.00  0.00     0.057 C 
ATOM      2  C   UNL     1       2.320   1.592  54.032  1.00  0.00     0.016 C 
ENDROOT
BRANCH   1   3
ATOM      3  C   UNL     1       2.163   0.416  56.228  1.00  0.00     0.135 C 
ATOM      4  O   UNL     1       2.588  -0.278  57.140  1.00  0.00    -0.299 OA
BRANCH   3   5
ATOM      5  C   UNL     1       0.835   1.110  56.390  1.00  0.00     0.072 C 
ATOM      6  C   UNL     1      -0.306   0.098  56.442  1.00  0.00     0.012 C 
ENDBRANCH   3   5
ENDBRANCH   1   3
BRANCH   1   7
ATOM      7  C   UNL     1       3.096  -0.805  54.225  1.00  0.00     0.038 C 
BRANCH   7   8
ATOM      8  C   UNL     1       1.943  -1.059  53.288  1.00  0.00    -0.034 C 
ATOM      9  C   UNL     1       1.064  -2.041  53.504  1.00  0.00     0.004 C 
ENDBRANCH   7   8
ENDBRANCH   1   7
TORSDOF 4
ENDMDL
MODEL 7
REMARK VINA RESULT:    -3.315      1.927      3.458
REMARK INTER + INTRA:          -4.375
REMARK INTER:                  -4.085
REMARK INTRA:                  -0.290
REMARK UNBOUND:                -0.285
REMARK SMILES C=CC[C@@H](C)C(=O)CC
REMARK SMILES IDX 4 1 5 2 6 3 7 4 8 5 9 6 3 7 2 8 1 9
REMARK H PARENT
REMARK Flexibility Score: inf
ROOT
ATOM      1  C   UNL     1      -8.133   5.764  52.016  1.00  0.00     0.057 C 
ATOM      2  C   UNL     1      -9.383   5.801  51.130  1.00  0.00     0.016 C 
ENDROOT
BRANCH   1   3
ATOM      3  C   UNL     1      -8.530   5.531  53.461  1.00  0.00     0.135 C 
ATOM      4  O   UNL     1      -9.699   5.656  53.795  1.00  0.00    -0.299 OA
BRANCH   3   5
ATOM      5  C   UNL     1      -7.504   5.164  54.501  1.00  0.00     0.072 C 
ATOM      6  C   UNL     1      -7.475   6.195  55.626  1.00  0.00     0.012 C 
ENDBRANCH   3   5
ENDBRANCH   1   3
BRANCH   1   7
ATOM      7  C   UNL     1      -7.154   4.679  51.523  1.00  0.00     0.038 C 
BRANCH   7   8
ATOM      8  C   UNL     1      -7.867   3.428  51.079  1.00  0.00    -0.034 C 
ATOM      9  C   UNL     1      -8.019   2.378  51.890  1.00  0.00     0.004 C 
ENDBRANCH   7   8
ENDBRANCH   1   7
TORSDOF 4
ENDMDL
MODEL 8
REMARK VINA RESULT:    -3.299      1.696      2.563
REMARK INTER + INTRA:          -4.355
REMARK INTER:                  -3.911
REMARK INTRA:                  -0.445
REMARK UNBOUND:                -0.285
REMARK SMILES C=CC[C@@H](C)C(=O)CC
REMARK SMILES IDX 4 1 5 2 6 3 7 4 8 5 9 6 3 7 2 8 1 9
REMARK H PARENT
REMARK Flexibility Score: inf
ROOT
ATOM      1  C   UNL     1      -8.590   4.983  53.776  1.00  0.00     0.057 C 
ATOM      2  C   UNL     1      -9.985   5.043  54.407  1.00  0.00     0.016 C 
ENDROOT
BRANCH   1   3
ATOM      3  C   UNL     1      -8.615   5.628  52.404  1.00  0.00     0.135 C 
ATOM      4  O   UNL     1      -9.517   6.401  52.116  1.00  0.00    -0.299 OA
BRANCH   3   5
ATOM      5  C   UNL     1      -7.556   5.320  51.378  1.00  0.00     0.072 C 
ATOM      6  C   UNL     1      -7.541   3.832  51.039  1.00  0.00     0.012 C 
ENDBRANCH   3   5
ENDBRANCH   1   3
BRANCH   1   7
ATOM      7  C   UNL     1      -7.552   5.662  54.693  1.00  0.00     0.038 C 
BRANCH   7   8
ATOM      8  C   UNL     1      -6.539   4.683  55.229  1.00  0.00    -0.034 C 
ATOM      9  C   UNL     1      -5.826   3.895  54.419  1.00  0.00     0.004 C 
ENDBRANCH   7   8
ENDBRANCH   1   7
TORSDOF 4
ENDMDL
MODEL 9
REMARK VINA RESULT:    -3.286     11.790     13.469
REMARK INTER + INTRA:          -4.339
REMARK INTER:                  -4.044
REMARK INTRA:                  -0.295
REMARK UNBOUND:                -0.285
REMARK SMILES C=CC[C@@H](C)C(=O)CC
REMARK SMILES IDX 4 1 5 2 6 3 7 4 8 5 9 6 3 7 2 8 1 9
REMARK H PARENT
REMARK Flexibility Score: inf
ROOT
ATOM      1  C   UNL     1       1.733  -1.819  53.917  1.00  0.00     0.057 C 
ATOM      2  C   UNL     1       0.532  -2.071  53.000  1.00  0.00     0.016 C 
ENDROOT
BRANCH   1   3
ATOM      3  C   UNL     1       2.401  -3.134  54.267  1.00  0.00     0.135 C 
ATOM      4  O   UNL     1       1.773  -4.178  54.162  1.00  0.00    -0.299 OA
BRANCH   3   5
ATOM      5  C   UNL     1       3.823  -3.179  54.762  1.00  0.00     0.072 C 
ATOM      6  C   UNL     1       4.232  -4.605  55.122  1.00  0.00     0.012 C 
ENDBRANCH   3   5
ENDBRANCH   1   3
BRANCH   1   7
ATOM      7  C   UNL     1       2.728  -0.847  53.249  1.00  0.00     0.038 C 
BRANCH   7   8
ATOM      8  C   UNL     1       2.765   0.492  53.938  1.00  0.00    -0.034 C 
ATOM      9  C   UNL     1       2.673   0.604  55.266  1.00  0.00     0.004 C 
ENDBRANCH   7   8
ENDBRANCH   1   7
TORSDOF 4
ENDMDL
