MODEL 1
REMARK VINA RESULT:    -5.389      0.000      0.000
REMARK INTER + INTRA:          -6.492
REMARK INTER:                  -6.176
REMARK INTRA:                  -0.316
REMARK UNBOUND:                -0.316
REMARK SMILES O=C1C[C@H](c2ccc(O)cc2)Oc2cc(O)cc(O)c21
REMARK SMILES IDX 3 1 4 2 12 3 13 4 14 5 15 6 17 7 18 8 20 9 2 10 1 11 5 12
REMARK SMILES IDX 6 13 11 14 7 15 10 16 8 17 9 18 19 20 16 22
REMARK H PARENT 9 19 19 21 16 23
REMARK Flexibility Score: inf
ROOT
ATOM      1  C   UNL     1     -30.739 -65.086  55.027  1.00  0.00     0.131 C 
ATOM      2  C   UNL     1     -30.282 -66.538  55.198  1.00  0.00     0.211 C 
ATOM      3  O   UNL     1     -28.938 -66.686  54.744  1.00  0.00    -0.484 OA
ATOM      4  C   UNL     1     -28.485 -66.101  53.557  1.00  0.00     0.138 A 
ATOM      5  C   UNL     1     -27.254 -66.506  53.035  1.00  0.00     0.093 A 
ATOM      6  C   UNL     1     -26.777 -65.952  51.847  1.00  0.00     0.123 A 
ATOM      7  C   UNL     1     -27.544 -65.006  51.167  1.00  0.00     0.093 A 
ATOM      8  C   UNL     1     -28.789 -64.596  51.662  1.00  0.00     0.133 A 
ATOM      9  C   UNL     1     -29.252 -65.109  52.906  1.00  0.00     0.102 A 
ATOM     10  C   UNL     1     -30.459 -64.611  53.630  1.00  0.00     0.174 C 
ATOM     11  O   UNL     1     -31.209 -63.726  53.142  1.00  0.00    -0.294 OA
ENDROOT
BRANCH   2  12
ATOM     12  C   UNL     1     -30.398 -66.967  56.641  1.00  0.00    -0.007 A 
ATOM     13  C   UNL     1     -29.504 -67.906  57.187  1.00  0.00     0.011 A 
ATOM     14  C   UNL     1     -31.356 -66.371  57.477  1.00  0.00     0.011 A 
ATOM     15  C   UNL     1     -29.595 -68.268  58.533  1.00  0.00     0.046 A 
ATOM     16  C   UNL     1     -31.441 -66.732  58.825  1.00  0.00     0.046 A 
ATOM     17  C   UNL     1     -30.564 -67.681  59.356  1.00  0.00     0.115 A 
BRANCH  17  18
ATOM     18  O   UNL     1     -30.662 -68.033  60.701  1.00  0.00    -0.508 OA
ATOM     19  H   UNL     1     -30.453 -68.972  61.019  1.00  0.00     0.293 HD
ENDBRANCH  17  18
ENDBRANCH   2  12
BRANCH   8  20
ATOM     20  O   UNL     1     -29.516 -63.698  50.876  1.00  0.00    -0.507 OA
ATOM     21  H   UNL     1     -30.476 -63.439  51.044  1.00  0.00     0.293 HD
ENDBRANCH   8  20
BRANCH   6  22
ATOM     22  O   UNL     1     -25.546 -66.344  51.325  1.00  0.00    -0.508 OA
ATOM     23  H   UNL     1     -24.717 -66.391  51.904  1.00  0.00     0.293 HD
ENDBRANCH   6  22
TORSDOF 4
ENDMDL
MODEL 2
REMARK VINA RESULT:    -5.380      7.171      8.150
REMARK INTER + INTRA:          -6.482
REMARK INTER:                  -6.171
REMARK INTRA:                  -0.312
REMARK UNBOUND:                -0.316
REMARK SMILES O=C1C[C@H](c2ccc(O)cc2)Oc2cc(O)cc(O)c21
REMARK SMILES IDX 3 1 4 2 12 3 13 4 14 5 15 6 17 7 18 8 20 9 2 10 1 11 5 12
REMARK SMILES IDX 6 13 11 14 7 15 10 16 8 17 9 18 19 20 16 22
REMARK H PARENT 9 19 19 21 16 23
REMARK Flexibility Score: inf
ROOT
ATOM      1  C   UNL     1     -24.144 -66.997  57.650  1.00  0.00     0.131 C 
ATOM      2  C   UNL     1     -22.789 -66.301  57.489  1.00  0.00     0.211 C 
ATOM      3  O   UNL     1     -22.889 -64.935  57.890  1.00  0.00    -0.484 OA
ATOM      4  C   UNL     1     -23.971 -64.128  57.522  1.00  0.00     0.138 A 
ATOM      5  C   UNL     1     -23.875 -62.748  57.711  1.00  0.00     0.093 A 
ATOM      6  C   UNL     1     -24.930 -61.912  57.344  1.00  0.00     0.123 A 
ATOM      7  C   UNL     1     -26.076 -62.458  56.767  1.00  0.00     0.093 A 
ATOM      8  C   UNL     1     -26.190 -63.839  56.552  1.00  0.00     0.133 A 
ATOM      9  C   UNL     1     -25.144 -64.703  56.983  1.00  0.00     0.102 A 
ATOM     10  C   UNL     1     -25.227 -66.193  56.988  1.00  0.00     0.174 C 
ATOM     11  O   UNL     1     -26.229 -66.805  56.535  1.00  0.00    -0.294 OA
ENDROOT
BRANCH   2  12
ATOM     12  C   UNL     1     -21.728 -67.007  58.298  1.00  0.00    -0.007 A 
ATOM     13  C   UNL     1     -20.554 -66.337  58.687  1.00  0.00     0.011 A 
ATOM     14  C   UNL     1     -21.939 -68.325  58.736  1.00  0.00     0.011 A 
ATOM     15  C   UNL     1     -19.595 -66.988  59.468  1.00  0.00     0.046 A 
ATOM     16  C   UNL     1     -20.980 -68.972  59.521  1.00  0.00     0.046 A 
ATOM     17  C   UNL     1     -19.806 -68.308  59.887  1.00  0.00     0.115 A 
BRANCH  17  18
ATOM     18  O   UNL     1     -18.857 -68.965  60.667  1.00  0.00    -0.508 OA
ATOM     19  H   UNL     1     -17.998 -69.325  60.265  1.00  0.00     0.293 HD
ENDBRANCH  17  18
ENDBRANCH   2  12
BRANCH   8  20
ATOM     20  O   UNL     1     -27.345 -64.284  55.903  1.00  0.00    -0.507 OA
ATOM     21  H   UNL     1     -27.860 -63.747  55.221  1.00  0.00     0.293 HD
ENDBRANCH   8  20
BRANCH   6  22
ATOM     22  O   UNL     1     -24.846 -60.536  57.538  1.00  0.00    -0.508 OA
ATOM     23  H   UNL     1     -24.763 -60.136  58.465  1.00  0.00     0.293 HD
ENDBRANCH   6  22
TORSDOF 4
ENDMDL
MODEL 3
REMARK VINA RESULT:    -5.325     10.669     11.938
REMARK INTER + INTRA:          -6.419
REMARK INTER:                  -6.121
REMARK INTRA:                  -0.298
REMARK UNBOUND:                -0.316
REMARK SMILES O=C1C[C@H](c2ccc(O)cc2)Oc2cc(O)cc(O)c21
REMARK SMILES IDX 3 1 4 2 12 3 13 4 14 5 15 6 17 7 18 8 20 9 2 10 1 11 5 12
REMARK SMILES IDX 6 13 11 14 7 15 10 16 8 17 9 18 19 20 16 22
REMARK H PARENT 9 19 19 21 16 23
REMARK Flexibility Score: inf
ROOT
ATOM      1  C   UNL     1     -28.795 -55.070  53.766  1.00  0.00     0.131 C 
ATOM      2  C   UNL     1     -27.986 -55.717  54.895  1.00  0.00     0.211 C 
ATOM      3  O   UNL     1     -27.535 -54.718  55.809  1.00  0.00    -0.484 OA
ATOM      4  C   UNL     1     -27.001 -53.500  55.376  1.00  0.00     0.138 A 
ATOM      5  C   UNL     1     -26.334 -52.692  56.299  1.00  0.00     0.093 A 
ATOM      6  C   UNL     1     -25.778 -51.477  55.899  1.00  0.00     0.123 A 
ATOM      7  C   UNL     1     -25.874 -51.077  54.567  1.00  0.00     0.093 A 
ATOM      8  C   UNL     1     -26.525 -51.877  53.618  1.00  0.00     0.133 A 
ATOM      9  C   UNL     1     -27.149 -53.088  54.032  1.00  0.00     0.102 A 
ATOM     10  C   UNL     1     -28.031 -53.924  53.166  1.00  0.00     0.174 C 
ATOM     11  O   UNL     1     -28.233 -53.644  51.956  1.00  0.00    -0.294 OA
ENDROOT
BRANCH   2  12
ATOM     12  C   UNL     1     -28.815 -56.752  55.618  1.00  0.00    -0.007 A 
ATOM     13  C   UNL     1     -29.699 -56.376  56.645  1.00  0.00     0.011 A 
ATOM     14  C   UNL     1     -28.765 -58.096  55.216  1.00  0.00     0.011 A 
ATOM     15  C   UNL     1     -30.489 -57.337  57.283  1.00  0.00     0.046 A 
ATOM     16  C   UNL     1     -29.560 -59.054  55.853  1.00  0.00     0.046 A 
ATOM     17  C   UNL     1     -30.421 -58.679  56.888  1.00  0.00     0.115 A 
BRANCH  17  18
ATOM     18  O   UNL     1     -31.206 -59.644  57.515  1.00  0.00    -0.508 OA
ATOM     19  H   UNL     1     -30.795 -60.365  58.097  1.00  0.00     0.293 HD
ENDBRANCH  17  18
ENDBRANCH   2  12
BRANCH   8  20
ATOM     20  O   UNL     1     -26.507 -51.428  52.295  1.00  0.00    -0.507 OA
ATOM     21  H   UNL     1     -25.670 -51.277  51.754  1.00  0.00     0.293 HD
ENDBRANCH   8  20
BRANCH   6  22
ATOM     22  O   UNL     1     -25.119 -50.662  56.817  1.00  0.00    -0.508 OA
ATOM     23  H   UNL     1     -24.290 -50.139  56.561  1.00  0.00     0.293 HD
ENDBRANCH   6  22
TORSDOF 4
ENDMDL
MODEL 4
REMARK VINA RESULT:    -5.234     14.478     16.753
REMARK INTER + INTRA:          -6.315
REMARK INTER:                  -6.007
REMARK INTRA:                  -0.308
REMARK UNBOUND:                -0.316
REMARK SMILES O=C1C[C@H](c2ccc(O)cc2)Oc2cc(O)cc(O)c21
REMARK SMILES IDX 3 1 4 2 12 3 13 4 14 5 15 6 17 7 18 8 20 9 2 10 1 11 5 12
REMARK SMILES IDX 6 13 11 14 7 15 10 16 8 17 9 18 19 20 16 22
REMARK H PARENT 9 19 19 21 16 23
REMARK Flexibility Score: inf
ROOT
ATOM      1  C   UNL     1     -32.350 -54.828  67.736  1.00  0.00     0.131 C 
ATOM      2  C   UNL     1     -33.525 -55.481  66.999  1.00  0.00     0.211 C 
ATOM      3  O   UNL     1     -33.524 -55.086  65.628  1.00  0.00    -0.484 OA
ATOM      4  C   UNL     1     -33.292 -53.764  65.234  1.00  0.00     0.138 A 
ATOM      5  C   UNL     1     -33.574 -53.396  63.917  1.00  0.00     0.093 A 
ATOM      6  C   UNL     1     -33.366 -52.083  63.494  1.00  0.00     0.123 A 
ATOM      7  C   UNL     1     -32.895 -51.131  64.397  1.00  0.00     0.093 A 
ATOM      8  C   UNL     1     -32.620 -51.472  65.728  1.00  0.00     0.133 A 
ATOM      9  C   UNL     1     -32.769 -52.823  66.150  1.00  0.00     0.102 A 
ATOM     10  C   UNL     1     -32.328 -53.349  67.476  1.00  0.00     0.174 C 
ATOM     11  O   UNL     1     -31.844 -52.597  68.361  1.00  0.00    -0.294 OA
ENDROOT
BRANCH   2  12
ATOM     12  C   UNL     1     -33.453 -56.985  67.111  1.00  0.00    -0.007 A 
ATOM     13  C   UNL     1     -33.594 -57.621  68.357  1.00  0.00     0.011 A 
ATOM     14  C   UNL     1     -33.322 -57.770  65.954  1.00  0.00     0.011 A 
ATOM     15  C   UNL     1     -33.564 -59.016  68.446  1.00  0.00     0.046 A 
ATOM     16  C   UNL     1     -33.297 -59.165  66.045  1.00  0.00     0.046 A 
ATOM     17  C   UNL     1     -33.416 -59.791  67.289  1.00  0.00     0.115 A 
BRANCH  17  18
ATOM     18  O   UNL     1     -33.387 -61.182  67.365  1.00  0.00    -0.508 OA
ATOM     19  H   UNL     1     -32.569 -61.677  67.701  1.00  0.00     0.293 HD
ENDBRANCH  17  18
ENDBRANCH   2  12
BRANCH   8  20
ATOM     20  O   UNL     1     -32.220 -50.435  66.576  1.00  0.00    -0.507 OA
ATOM     21  H   UNL     1     -31.938 -49.519  66.263  1.00  0.00     0.293 HD
ENDBRANCH   8  20
BRANCH   6  22
ATOM     22  O   UNL     1     -33.636 -51.710  62.179  1.00  0.00    -0.508 OA
ATOM     23  H   UNL     1     -33.595 -50.743  61.883  1.00  0.00     0.293 HD
ENDBRANCH   6  22
TORSDOF 4
ENDMDL
MODEL 5
REMARK VINA RESULT:    -5.210      5.042      6.485
REMARK INTER + INTRA:          -6.287
REMARK INTER:                  -5.972
REMARK INTRA:                  -0.315
REMARK UNBOUND:                -0.316
REMARK SMILES O=C1C[C@H](c2ccc(O)cc2)Oc2cc(O)cc(O)c21
REMARK SMILES IDX 3 1 4 2 12 3 13 4 14 5 15 6 17 7 18 8 20 9 2 10 1 11 5 12
REMARK SMILES IDX 6 13 11 14 7 15 10 16 8 17 9 18 19 20 16 22
REMARK H PARENT 9 19 19 21 16 23
REMARK Flexibility Score: inf
ROOT
ATOM      1  C   UNL     1     -24.434 -66.304  55.737  1.00  0.00     0.131 C 
ATOM      2  C   UNL     1     -24.755 -66.601  57.206  1.00  0.00     0.211 C 
ATOM      3  O   UNL     1     -25.909 -67.435  57.297  1.00  0.00    -0.484 OA
ATOM      4  C   UNL     1     -27.049 -67.217  56.517  1.00  0.00     0.138 A 
ATOM      5  C   UNL     1     -28.228 -67.890  56.846  1.00  0.00     0.093 A 
ATOM      6  C   UNL     1     -29.387 -67.686  56.097  1.00  0.00     0.123 A 
ATOM      7  C   UNL     1     -29.371 -66.792  55.028  1.00  0.00     0.093 A 
ATOM      8  C   UNL     1     -28.206 -66.092  54.687  1.00  0.00     0.133 A 
ATOM      9  C   UNL     1     -27.004 -66.343  55.408  1.00  0.00     0.102 A 
ATOM     10  C   UNL     1     -25.662 -65.813  55.023  1.00  0.00     0.174 C 
ATOM     11  O   UNL     1     -25.509 -65.032  54.049  1.00  0.00    -0.294 OA
ENDROOT
BRANCH   2  12
ATOM     12  C   UNL     1     -23.578 -67.258  57.886  1.00  0.00    -0.007 A 
ATOM     13  C   UNL     1     -23.722 -68.499  58.532  1.00  0.00     0.011 A 
ATOM     14  C   UNL     1     -22.306 -66.669  57.813  1.00  0.00     0.011 A 
ATOM     15  C   UNL     1     -22.619 -69.118  59.126  1.00  0.00     0.046 A 
ATOM     16  C   UNL     1     -21.203 -67.293  58.404  1.00  0.00     0.046 A 
ATOM     17  C   UNL     1     -21.355 -68.516  59.063  1.00  0.00     0.115 A 
BRANCH  17  18
ATOM     18  O   UNL     1     -20.248 -69.125  59.650  1.00  0.00    -0.508 OA
ATOM     19  H   UNL     1     -19.740 -69.865  59.180  1.00  0.00     0.293 HD
ENDBRANCH  17  18
ENDBRANCH   2  12
BRANCH   8  20
ATOM     20  O   UNL     1     -28.307 -65.165  53.647  1.00  0.00    -0.507 OA
ATOM     21  H   UNL     1     -29.150 -64.668  53.404  1.00  0.00     0.293 HD
ENDBRANCH   8  20
BRANCH   6  22
ATOM     22  O   UNL     1     -30.564 -68.361  56.413  1.00  0.00    -0.508 OA
ATOM     23  H   UNL     1     -30.689 -69.341  56.190  1.00  0.00     0.293 HD
ENDBRANCH   6  22
TORSDOF 4
ENDMDL
MODEL 6
REMARK VINA RESULT:    -5.118      8.777     11.079
REMARK INTER + INTRA:          -6.182
REMARK INTER:                  -5.873
REMARK INTRA:                  -0.309
REMARK UNBOUND:                -0.316
REMARK SMILES O=C1C[C@H](c2ccc(O)cc2)Oc2cc(O)cc(O)c21
REMARK SMILES IDX 3 1 4 2 12 3 13 4 14 5 15 6 17 7 18 8 20 9 2 10 1 11 5 12
REMARK SMILES IDX 6 13 11 14 7 15 10 16 8 17 9 18 19 20 16 22
REMARK H PARENT 9 19 19 21 16 23
REMARK Flexibility Score: inf
ROOT
ATOM      1  C   UNL     1     -22.002 -65.039  56.587  1.00  0.00     0.131 C 
ATOM      2  C   UNL     1     -21.288 -64.204  57.655  1.00  0.00     0.211 C 
ATOM      3  O   UNL     1     -20.288 -64.989  58.304  1.00  0.00    -0.484 OA
ATOM      4  C   UNL     1     -20.520 -66.310  58.701  1.00  0.00     0.138 A 
ATOM      5  C   UNL     1     -19.609 -66.922  59.564  1.00  0.00     0.093 A 
ATOM      6  C   UNL     1     -19.815 -68.234  59.989  1.00  0.00     0.123 A 
ATOM      7  C   UNL     1     -20.948 -68.929  59.566  1.00  0.00     0.093 A 
ATOM      8  C   UNL     1     -21.885 -68.331  58.713  1.00  0.00     0.133 A 
ATOM      9  C   UNL     1     -21.648 -67.015  58.225  1.00  0.00     0.102 A 
ATOM     10  C   UNL     1     -22.463 -66.346  57.168  1.00  0.00     0.174 C 
ATOM     11  O   UNL     1     -23.485 -66.888  56.673  1.00  0.00    -0.294 OA
ENDROOT
BRANCH   2  12
ATOM     12  C   UNL     1     -20.670 -62.971  57.042  1.00  0.00    -0.007 A 
ATOM     13  C   UNL     1     -21.466 -62.024  56.372  1.00  0.00     0.011 A 
ATOM     14  C   UNL     1     -19.298 -62.720  57.201  1.00  0.00     0.011 A 
ATOM     15  C   UNL     1     -20.890 -60.868  55.840  1.00  0.00     0.046 A 
ATOM     16  C   UNL     1     -18.725 -61.559  56.672  1.00  0.00     0.046 A 
ATOM     17  C   UNL     1     -19.517 -60.632  55.989  1.00  0.00     0.115 A 
BRANCH  17  18
ATOM     18  O   UNL     1     -18.933 -59.481  55.464  1.00  0.00    -0.508 OA
ATOM     19  H   UNL     1     -19.495 -58.702  55.142  1.00  0.00     0.293 HD
ENDBRANCH  17  18
ENDBRANCH   2  12
BRANCH   8  20
ATOM     20  O   UNL     1     -23.023 -69.080  58.402  1.00  0.00    -0.507 OA
ATOM     21  H   UNL     1     -23.008 -69.984  57.956  1.00  0.00     0.293 HD
ENDBRANCH   8  20
BRANCH   6  22
ATOM     22  O   UNL     1     -18.905 -68.855  60.842  1.00  0.00    -0.508 OA
ATOM     23  H   UNL     1     -19.189 -69.223  61.742  1.00  0.00     0.293 HD
ENDBRANCH   6  22
TORSDOF 4
ENDMDL
MODEL 7
REMARK VINA RESULT:    -5.055      8.255     10.422
REMARK INTER + INTRA:          -6.110
REMARK INTER:                  -5.814
REMARK INTRA:                  -0.296
REMARK UNBOUND:                -0.316
REMARK SMILES O=C1C[C@H](c2ccc(O)cc2)Oc2cc(O)cc(O)c21
REMARK SMILES IDX 3 1 4 2 12 3 13 4 14 5 15 6 17 7 18 8 20 9 2 10 1 11 5 12
REMARK SMILES IDX 6 13 11 14 7 15 10 16 8 17 9 18 19 20 16 22
REMARK H PARENT 9 19 19 21 16 23
REMARK Flexibility Score: inf
ROOT
ATOM      1  C   UNL     1     -20.309 -65.598  58.365  1.00  0.00     0.131 C 
ATOM      2  C   UNL     1     -20.683 -64.593  57.271  1.00  0.00     0.211 C 
ATOM      3  O   UNL     1     -22.096 -64.391  57.251  1.00  0.00    -0.484 OA
ATOM      4  C   UNL     1     -23.000 -65.453  57.357  1.00  0.00     0.138 A 
ATOM      5  C   UNL     1     -24.345 -65.222  57.059  1.00  0.00     0.093 A 
ATOM      6  C   UNL     1     -25.273 -66.260  57.142  1.00  0.00     0.123 A 
ATOM      7  C   UNL     1     -24.850 -67.538  57.505  1.00  0.00     0.093 A 
ATOM      8  C   UNL     1     -23.504 -67.799  57.794  1.00  0.00     0.133 A 
ATOM      9  C   UNL     1     -22.563 -66.730  57.773  1.00  0.00     0.102 A 
ATOM     10  C   UNL     1     -21.151 -66.837  58.246  1.00  0.00     0.174 C 
ATOM     11  O   UNL     1     -20.663 -67.927  58.641  1.00  0.00    -0.294 OA
ENDROOT
BRANCH   2  12
ATOM     12  C   UNL     1     -19.970 -63.280  57.488  1.00  0.00    -0.007 A 
ATOM     13  C   UNL     1     -18.824 -62.952  56.741  1.00  0.00     0.011 A 
ATOM     14  C   UNL     1     -20.491 -62.338  58.389  1.00  0.00     0.011 A 
ATOM     15  C   UNL     1     -18.192 -61.718  56.923  1.00  0.00     0.046 A 
ATOM     16  C   UNL     1     -19.860 -61.103  58.565  1.00  0.00     0.046 A 
ATOM     17  C   UNL     1     -18.709 -60.790  57.836  1.00  0.00     0.115 A 
BRANCH  17  18
ATOM     18  O   UNL     1     -18.089 -59.556  58.023  1.00  0.00    -0.508 OA
ATOM     19  H   UNL     1     -17.584 -59.099  57.273  1.00  0.00     0.293 HD
ENDBRANCH  17  18
ENDBRANCH   2  12
BRANCH   8  20
ATOM     20  O   UNL     1     -23.164 -69.124  58.079  1.00  0.00    -0.507 OA
ATOM     21  H   UNL     1     -23.819 -69.891  58.095  1.00  0.00     0.293 HD
ENDBRANCH   8  20
BRANCH   6  22
ATOM     22  O   UNL     1     -26.617 -66.035  56.855  1.00  0.00    -0.508 OA
ATOM     23  H   UNL     1     -26.904 -65.523  56.029  1.00  0.00     0.293 HD
ENDBRANCH   6  22
TORSDOF 4
ENDMDL
MODEL 8
REMARK VINA RESULT:    -5.047      6.141      7.073
REMARK INTER + INTRA:          -6.101
REMARK INTER:                  -5.819
REMARK INTRA:                  -0.282
REMARK UNBOUND:                -0.316
REMARK SMILES O=C1C[C@H](c2ccc(O)cc2)Oc2cc(O)cc(O)c21
REMARK SMILES IDX 3 1 4 2 12 3 13 4 14 5 15 6 17 7 18 8 20 9 2 10 1 11 5 12
REMARK SMILES IDX 6 13 11 14 7 15 10 16 8 17 9 18 19 20 16 22
REMARK H PARENT 9 19 19 21 16 23
REMARK Flexibility Score: inf
ROOT
ATOM      1  C   UNL     1     -23.994 -65.513  57.926  1.00  0.00     0.131 C 
ATOM      2  C   UNL     1     -23.629 -66.940  57.507  1.00  0.00     0.211 C 
ATOM      3  O   UNL     1     -23.407 -66.997  56.098  1.00  0.00    -0.484 OA
ATOM      4  C   UNL     1     -24.249 -66.352  55.186  1.00  0.00     0.138 A 
ATOM      5  C   UNL     1     -24.138 -66.668  53.830  1.00  0.00     0.093 A 
ATOM      6  C   UNL     1     -24.970 -66.054  52.894  1.00  0.00     0.123 A 
ATOM      7  C   UNL     1     -25.929 -65.134  53.318  1.00  0.00     0.093 A 
ATOM      8  C   UNL     1     -26.070 -64.812  54.675  1.00  0.00     0.133 A 
ATOM      9  C   UNL     1     -25.182 -65.387  55.627  1.00  0.00     0.102 A 
ATOM     10  C   UNL     1     -25.103 -64.981  57.062  1.00  0.00     0.174 C 
ATOM     11  O   UNL     1     -25.884 -64.128  57.556  1.00  0.00    -0.294 OA
ENDROOT
BRANCH   2  12
ATOM     12  C   UNL     1     -22.404 -67.417  58.250  1.00  0.00    -0.007 A 
ATOM     13  C   UNL     1     -21.292 -66.572  58.420  1.00  0.00     0.011 A 
ATOM     14  C   UNL     1     -22.394 -68.688  58.846  1.00  0.00     0.011 A 
ATOM     15  C   UNL     1     -20.178 -67.009  59.141  1.00  0.00     0.046 A 
ATOM     16  C   UNL     1     -21.279 -69.120  59.571  1.00  0.00     0.046 A 
ATOM     17  C   UNL     1     -20.169 -68.285  59.719  1.00  0.00     0.115 A 
BRANCH  17  18
ATOM     18  O   UNL     1     -19.064 -68.729  60.442  1.00  0.00    -0.508 OA
ATOM     19  H   UNL     1     -18.817 -69.711  60.482  1.00  0.00     0.293 HD
ENDBRANCH  17  18
ENDBRANCH   2  12
BRANCH   8  20
ATOM     20  O   UNL     1     -27.105 -63.935  55.011  1.00  0.00    -0.507 OA
ATOM     21  H   UNL     1     -27.849 -63.663  54.386  1.00  0.00     0.293 HD
ENDBRANCH   8  20
BRANCH   6  22
ATOM     22  O   UNL     1     -24.859 -66.357  51.539  1.00  0.00    -0.508 OA
ATOM     23  H   UNL     1     -25.453 -65.916  50.847  1.00  0.00     0.293 HD
ENDBRANCH   6  22
TORSDOF 4
ENDMDL
MODEL 9
REMARK VINA RESULT:    -5.032      7.697      9.432
REMARK INTER + INTRA:          -6.083
REMARK INTER:                  -5.797
REMARK INTRA:                  -0.286
REMARK UNBOUND:                -0.316
REMARK SMILES O=C1C[C@H](c2ccc(O)cc2)Oc2cc(O)cc(O)c21
REMARK SMILES IDX 3 1 4 2 12 3 13 4 14 5 15 6 17 7 18 8 20 9 2 10 1 11 5 12
REMARK SMILES IDX 6 13 11 14 7 15 10 16 8 17 9 18 19 20 16 22
REMARK H PARENT 9 19 19 21 16 23
REMARK Flexibility Score: inf
ROOT
ATOM      1  C   UNL     1     -21.531 -68.293  54.845  1.00  0.00     0.131 C 
ATOM      2  C   UNL     1     -20.956 -68.466  56.255  1.00  0.00     0.211 C 
ATOM      3  O   UNL     1     -20.059 -67.397  56.554  1.00  0.00    -0.484 OA
ATOM      4  C   UNL     1     -19.119 -66.933  55.627  1.00  0.00     0.138 A 
ATOM      5  C   UNL     1     -18.102 -66.084  56.069  1.00  0.00     0.093 A 
ATOM      6  C   UNL     1     -17.141 -65.612  55.175  1.00  0.00     0.123 A 
ATOM      7  C   UNL     1     -17.186 -66.008  53.839  1.00  0.00     0.093 A 
ATOM      8  C   UNL     1     -18.186 -66.872  53.374  1.00  0.00     0.133 A 
ATOM      9  C   UNL     1     -19.207 -67.306  54.267  1.00  0.00     0.102 A 
ATOM     10  C   UNL     1     -20.426 -68.062  53.854  1.00  0.00     0.174 C 
ATOM     11  O   UNL     1     -20.605 -68.438  52.667  1.00  0.00    -0.294 OA
ENDROOT
BRANCH   2  12
ATOM     12  C   UNL     1     -22.063 -68.522  57.279  1.00  0.00    -0.007 A 
ATOM     13  C   UNL     1     -21.850 -69.111  58.538  1.00  0.00     0.011 A 
ATOM     14  C   UNL     1     -23.300 -67.915  57.010  1.00  0.00     0.011 A 
ATOM     15  C   UNL     1     -22.870 -69.125  59.493  1.00  0.00     0.046 A 
ATOM     16  C   UNL     1     -24.318 -67.926  57.969  1.00  0.00     0.046 A 
ATOM     17  C   UNL     1     -24.107 -68.531  59.211  1.00  0.00     0.115 A 
BRANCH  17  18
ATOM     18  O   UNL     1     -25.130 -68.537  60.157  1.00  0.00    -0.508 OA
ATOM     19  H   UNL     1     -25.039 -69.041  61.032  1.00  0.00     0.293 HD
ENDBRANCH  17  18
ENDBRANCH   2  12
BRANCH   8  20
ATOM     20  O   UNL     1     -18.107 -67.268  52.037  1.00  0.00    -0.507 OA
ATOM     21  H   UNL     1     -17.245 -67.443  51.543  1.00  0.00     0.293 HD
ENDBRANCH   8  20
BRANCH   6  22
ATOM     22  O   UNL     1     -16.129 -64.758  55.607  1.00  0.00    -0.508 OA
ATOM     23  H   UNL     1     -16.338 -63.864  56.035  1.00  0.00     0.293 HD
ENDBRANCH   6  22
TORSDOF 4
ENDMDL
