MODEL 1
REMARK VINA RESULT:    -4.945      0.000      0.000
REMARK INTER + INTRA:          -9.563
REMARK INTER:                  -8.993
REMARK INTRA:                  -0.570
REMARK UNBOUND:                -0.570
REMARK SMILES CCCCCCCCCCCCCCCC(=O)[O-]
REMARK SMILES IDX 9 1 10 2 11 3 12 4 13 5 14 6 15 7 16 8 17 9 18 10 8 11 7 12
REMARK SMILES IDX 6 13 5 14 4 15 3 16 2 17 1 18
REMARK H PARENT
REMARK Flexibility Score: inf
ROOT
ATOM      1  C   UNL     1     -40.330  75.517 -21.390  1.00  0.00     0.000 C 
ENDROOT
BRANCH   1   2
ATOM      2  C   UNL     1     -38.931  75.979 -20.955  1.00  0.00     0.000 C 
BRANCH   2   3
ATOM      3  C   UNL     1     -38.508  75.291 -19.649  1.00  0.00     0.000 C 
BRANCH   3   4
ATOM      4  C   UNL     1     -38.237  73.786 -19.822  1.00  0.00     0.000 C 
BRANCH   4   5
ATOM      5  C   UNL     1     -37.241  73.186 -18.813  1.00  0.00     0.000 C 
BRANCH   5   6
ATOM      6  C   UNL     1     -37.055  71.668 -18.986  1.00  0.00     0.006 C 
BRANCH   6   7
ATOM      7  C   UNL     1     -35.574  71.263 -18.986  1.00  0.00     0.053 C 
BRANCH   7   8
ATOM      8  C   UNL     1     -35.402  69.792 -18.768  1.00  0.00     0.041 C 
ATOM      9  O   UNL     1     -36.361  69.100 -18.332  1.00  0.00    -0.550 OA
ATOM     10  O   UNL     1     -34.198  69.177 -19.082  1.00  0.00    -0.550 OA
ENDBRANCH   7   8
ENDBRANCH   6   7
ENDBRANCH   5   6
ENDBRANCH   4   5
ENDBRANCH   3   4
ENDBRANCH   2   3
ENDBRANCH   1   2
BRANCH   1  11
ATOM     11  C   UNL     1     -40.742  76.071 -22.766  1.00  0.00     0.000 C 
BRANCH  11  12
ATOM     12  C   UNL     1     -39.601  76.721 -23.573  1.00  0.00    -0.000 C 
BRANCH  12  13
ATOM     13  C   UNL     1     -39.452  76.216 -25.022  1.00  0.00    -0.000 C 
BRANCH  13  14
ATOM     14  C   UNL     1     -38.123  75.501 -25.326  1.00  0.00    -0.000 C 
BRANCH  14  15
ATOM     15  C   UNL     1     -38.152  74.727 -26.653  1.00  0.00    -0.000 C 
BRANCH  15  16
ATOM     16  C   UNL     1     -37.519  75.552 -27.782  1.00  0.00    -0.000 C 
BRANCH  16  17
ATOM     17  C   UNL     1     -36.488  74.752 -28.593  1.00  0.00    -0.003 C 
ATOM     18  C   UNL     1     -36.302  73.328 -28.071  1.00  0.00     0.004 C 
ENDBRANCH  16  17
ENDBRANCH  15  16
ENDBRANCH  14  15
ENDBRANCH  13  14
ENDBRANCH  12  13
ENDBRANCH  11  12
ENDBRANCH   1  11
TORSDOF 14
ENDMDL
MODEL 2
REMARK VINA RESULT:    -4.935      0.862      1.147
REMARK INTER + INTRA:          -9.544
REMARK INTER:                  -9.048
REMARK INTRA:                  -0.496
REMARK UNBOUND:                -0.570
REMARK SMILES CCCCCCCCCCCCCCCC(=O)[O-]
REMARK SMILES IDX 9 1 10 2 11 3 12 4 13 5 14 6 15 7 16 8 17 9 18 10 8 11 7 12
REMARK SMILES IDX 6 13 5 14 4 15 3 16 2 17 1 18
REMARK H PARENT
REMARK Flexibility Score: inf
ROOT
ATOM      1  C   UNL     1     -39.224  76.746 -21.043  1.00  0.00     0.000 C 
ENDROOT
BRANCH   1   2
ATOM      2  C   UNL     1     -38.772  75.971 -19.797  1.00  0.00     0.000 C 
BRANCH   2   3
ATOM      3  C   UNL     1     -38.652  74.471 -20.099  1.00  0.00     0.000 C 
BRANCH   3   4
ATOM      4  C   UNL     1     -37.760  73.724 -19.090  1.00  0.00     0.000 C 
BRANCH   4   5
ATOM      5  C   UNL     1     -37.657  72.204 -19.314  1.00  0.00     0.000 C 
BRANCH   5   6
ATOM      6  C   UNL     1     -36.339  71.610 -18.790  1.00  0.00     0.006 C 
BRANCH   6   7
ATOM      7  C   UNL     1     -36.441  70.098 -18.551  1.00  0.00     0.053 C 
BRANCH   7   8
ATOM      8  C   UNL     1     -35.141  69.405 -18.824  1.00  0.00     0.041 C 
ATOM      9  O   UNL     1     -35.023  68.170 -18.600  1.00  0.00    -0.550 OA
ATOM     10  O   UNL     1     -34.073  70.112 -19.359  1.00  0.00    -0.550 OA
ENDBRANCH   7   8
ENDBRANCH   6   7
ENDBRANCH   5   6
ENDBRANCH   4   5
ENDBRANCH   3   4
ENDBRANCH   2   3
ENDBRANCH   1   2
BRANCH   1  11
ATOM     11  C   UNL     1     -40.299  76.000 -21.855  1.00  0.00     0.000 C 
BRANCH  11  12
ATOM     12  C   UNL     1     -40.582  76.586 -23.252  1.00  0.00    -0.000 C 
BRANCH  12  13
ATOM     13  C   UNL     1     -39.348  76.729 -24.165  1.00  0.00    -0.000 C 
BRANCH  13  14
ATOM     14  C   UNL     1     -39.292  75.737 -25.341  1.00  0.00    -0.000 C 
BRANCH  14  15
ATOM     15  C   UNL     1     -37.863  75.277 -25.667  1.00  0.00    -0.000 C 
BRANCH  15  16
ATOM     16  C   UNL     1     -37.846  74.386 -26.917  1.00  0.00    -0.000 C 
BRANCH  16  17
ATOM     17  C   UNL     1     -36.588  74.594 -27.773  1.00  0.00    -0.003 C 
ATOM     18  C   UNL     1     -35.557  73.480 -27.590  1.00  0.00     0.004 C 
ENDBRANCH  16  17
ENDBRANCH  15  16
ENDBRANCH  14  15
ENDBRANCH  13  14
ENDBRANCH  12  13
ENDBRANCH  11  12
ENDBRANCH   1  11
TORSDOF 14
ENDMDL
MODEL 3
REMARK VINA RESULT:    -4.863      3.809      7.888
REMARK INTER + INTRA:          -9.412
REMARK INTER:                  -8.737
REMARK INTRA:                  -0.676
REMARK UNBOUND:                -0.570
REMARK SMILES CCCCCCCCCCCCCCCC(=O)[O-]
REMARK SMILES IDX 9 1 10 2 11 3 12 4 13 5 14 6 15 7 16 8 17 9 18 10 8 11 7 12
REMARK SMILES IDX 6 13 5 14 4 15 3 16 2 17 1 18
REMARK H PARENT
REMARK Flexibility Score: inf
ROOT
ATOM      1  C   UNL     1     -39.907  76.480 -20.561  1.00  0.00     0.000 C 
ENDROOT
BRANCH   1   2
ATOM      2  C   UNL     1     -39.596  76.347 -22.059  1.00  0.00     0.000 C 
BRANCH   2   3
ATOM      3  C   UNL     1     -40.881  76.426 -22.895  1.00  0.00     0.000 C 
BRANCH   3   4
ATOM      4  C   UNL     1     -40.615  76.398 -24.411  1.00  0.00     0.000 C 
BRANCH   4   5
ATOM      5  C   UNL     1     -39.139  76.208 -24.808  1.00  0.00     0.000 C 
BRANCH   5   6
ATOM      6  C   UNL     1     -38.962  75.300 -26.037  1.00  0.00     0.006 C 
BRANCH   6   7
ATOM      7  C   UNL     1     -37.498  74.888 -26.245  1.00  0.00     0.053 C 
BRANCH   7   8
ATOM      8  C   UNL     1     -37.188  74.658 -27.693  1.00  0.00     0.041 C 
ATOM      9  O   UNL     1     -37.325  75.594 -28.525  1.00  0.00    -0.550 OA
ATOM     10  O   UNL     1     -36.711  73.425 -28.117  1.00  0.00    -0.550 OA
ENDBRANCH   7   8
ENDBRANCH   6   7
ENDBRANCH   5   6
ENDBRANCH   4   5
ENDBRANCH   3   4
ENDBRANCH   2   3
ENDBRANCH   1   2
BRANCH   1  11
ATOM     11  C   UNL     1     -38.922  75.697 -19.674  1.00  0.00     0.000 C 
BRANCH  11  12
ATOM     12  C   UNL     1     -38.269  74.475 -20.349  1.00  0.00    -0.000 C 
BRANCH  12  13
ATOM     13  C   UNL     1     -37.805  73.364 -19.386  1.00  0.00    -0.000 C 
BRANCH  13  14
ATOM     14  C   UNL     1     -38.497  72.003 -19.583  1.00  0.00    -0.000 C 
BRANCH  14  15
ATOM     15  C   UNL     1     -37.685  70.832 -19.010  1.00  0.00    -0.000 C 
BRANCH  15  16
ATOM     16  C   UNL     1     -36.254  71.271 -18.670  1.00  0.00    -0.000 C 
BRANCH  16  17
ATOM     17  C   UNL     1     -35.209  70.197 -19.009  1.00  0.00    -0.003 C 
ATOM     18  C   UNL     1     -35.620  68.803 -18.537  1.00  0.00     0.004 C 
ENDBRANCH  16  17
ENDBRANCH  15  16
ENDBRANCH  14  15
ENDBRANCH  13  14
ENDBRANCH  12  13
ENDBRANCH  11  12
ENDBRANCH   1  11
TORSDOF 14
ENDMDL
MODEL 4
REMARK VINA RESULT:    -4.692      1.326      2.522
REMARK INTER + INTRA:          -9.103
REMARK INTER:                  -8.374
REMARK INTRA:                  -0.729
REMARK UNBOUND:                -0.570
REMARK SMILES CCCCCCCCCCCCCCCC(=O)[O-]
REMARK SMILES IDX 9 1 10 2 11 3 12 4 13 5 14 6 15 7 16 8 17 9 18 10 8 11 7 12
REMARK SMILES IDX 6 13 5 14 4 15 3 16 2 17 1 18
REMARK H PARENT
REMARK Flexibility Score: inf
ROOT
ATOM      1  C   UNL     1     -38.459  75.817 -19.049  1.00  0.00     0.000 C 
ENDROOT
BRANCH   1   2
ATOM      2  C   UNL     1     -37.919  74.495 -18.484  1.00  0.00     0.000 C 
BRANCH   2   3
ATOM      3  C   UNL     1     -37.636  73.492 -19.611  1.00  0.00     0.000 C 
BRANCH   3   4
ATOM      4  C   UNL     1     -38.671  72.354 -19.676  1.00  0.00     0.000 C 
BRANCH   4   5
ATOM      5  C   UNL     1     -38.150  70.976 -19.226  1.00  0.00     0.000 C 
BRANCH   5   6
ATOM      6  C   UNL     1     -36.668  71.003 -18.813  1.00  0.00     0.006 C 
BRANCH   6   7
ATOM      7  C   UNL     1     -36.137  69.605 -18.472  1.00  0.00     0.053 C 
BRANCH   7   8
ATOM      8  C   UNL     1     -34.731  69.413 -18.952  1.00  0.00     0.041 C 
ATOM      9  O   UNL     1     -34.198  68.272 -18.911  1.00  0.00    -0.550 OA
ATOM     10  O   UNL     1     -34.022  70.484 -19.479  1.00  0.00    -0.550 OA
ENDBRANCH   7   8
ENDBRANCH   6   7
ENDBRANCH   5   6
ENDBRANCH   4   5
ENDBRANCH   3   4
ENDBRANCH   2   3
ENDBRANCH   1   2
BRANCH   1  11
ATOM     11  C   UNL     1     -38.807  75.729 -20.546  1.00  0.00     0.000 C 
BRANCH  11  12
ATOM     12  C   UNL     1     -40.301  75.909 -20.878  1.00  0.00    -0.000 C 
BRANCH  12  13
ATOM     13  C   UNL     1     -40.599  76.455 -22.289  1.00  0.00    -0.000 C 
BRANCH  13  14
ATOM     14  C   UNL     1     -39.358  76.674 -23.174  1.00  0.00    -0.000 C 
BRANCH  14  15
ATOM     15  C   UNL     1     -39.491  76.025 -24.560  1.00  0.00    -0.000 C 
BRANCH  15  16
ATOM     16  C   UNL     1     -38.112  75.805 -25.196  1.00  0.00    -0.000 C 
BRANCH  16  17
ATOM     17  C   UNL     1     -38.202  75.362 -26.665  1.00  0.00    -0.003 C 
ATOM     18  C   UNL     1     -39.624  75.440 -27.220  1.00  0.00     0.004 C 
ENDBRANCH  16  17
ENDBRANCH  15  16
ENDBRANCH  14  15
ENDBRANCH  13  14
ENDBRANCH  12  13
ENDBRANCH  11  12
ENDBRANCH   1  11
TORSDOF 14
ENDMDL
MODEL 5
REMARK VINA RESULT:    -4.672      1.582      2.224
REMARK INTER + INTRA:          -9.066
REMARK INTER:                  -8.160
REMARK INTRA:                  -0.907
REMARK UNBOUND:                -0.570
REMARK SMILES CCCCCCCCCCCCCCCC(=O)[O-]
REMARK SMILES IDX 9 1 10 2 11 3 12 4 13 5 14 6 15 7 16 8 17 9 18 10 8 11 7 12
REMARK SMILES IDX 6 13 5 14 4 15 3 16 2 17 1 18
REMARK H PARENT
REMARK Flexibility Score: inf
ROOT
ATOM      1  C   UNL     1     -40.004  75.601 -21.079  1.00  0.00     0.000 C 
ENDROOT
BRANCH   1   2
ATOM      2  C   UNL     1     -39.049  76.390 -20.172  1.00  0.00     0.000 C 
BRANCH   2   3
ATOM      3  C   UNL     1     -38.480  75.493 -19.064  1.00  0.00     0.000 C 
BRANCH   3   4
ATOM      4  C   UNL     1     -38.096  74.089 -19.564  1.00  0.00     0.000 C 
BRANCH   4   5
ATOM      5  C   UNL     1     -37.086  73.338 -18.677  1.00  0.00     0.000 C 
BRANCH   5   6
ATOM      6  C   UNL     1     -36.985  71.841 -19.021  1.00  0.00     0.006 C 
BRANCH   6   7
ATOM      7  C   UNL     1     -35.576  71.285 -18.774  1.00  0.00     0.053 C 
BRANCH   7   8
ATOM      8  C   UNL     1     -35.577  69.789 -18.699  1.00  0.00     0.041 C 
ATOM      9  O   UNL     1     -34.565  69.136 -19.068  1.00  0.00    -0.550 OA
ATOM     10  O   UNL     1     -36.679  69.117 -18.187  1.00  0.00    -0.550 OA
ENDBRANCH   7   8
ENDBRANCH   6   7
ENDBRANCH   5   6
ENDBRANCH   4   5
ENDBRANCH   3   4
ENDBRANCH   2   3
ENDBRANCH   1   2
BRANCH   1  11
ATOM     11  C   UNL     1     -40.569  76.448 -22.234  1.00  0.00     0.000 C 
BRANCH  11  12
ATOM     12  C   UNL     1     -41.933  75.978 -22.779  1.00  0.00    -0.000 C 
BRANCH  12  13
ATOM     13  C   UNL     1     -42.235  76.391 -24.233  1.00  0.00    -0.000 C 
BRANCH  13  14
ATOM     14  C   UNL     1     -41.006  76.819 -25.056  1.00  0.00    -0.000 C 
BRANCH  14  15
ATOM     15  C   UNL     1     -40.579  75.762 -26.085  1.00  0.00    -0.000 C 
BRANCH  15  16
ATOM     16  C   UNL     1     -39.057  75.555 -26.059  1.00  0.00    -0.000 C 
BRANCH  16  17
ATOM     17  C   UNL     1     -38.355  76.463 -25.038  1.00  0.00    -0.003 C 
ATOM     18  C   UNL     1     -37.001  75.912 -24.590  1.00  0.00     0.004 C 
ENDBRANCH  16  17
ENDBRANCH  15  16
ENDBRANCH  14  15
ENDBRANCH  13  14
ENDBRANCH  12  13
ENDBRANCH  11  12
ENDBRANCH   1  11
TORSDOF 14
ENDMDL
MODEL 6
REMARK VINA RESULT:    -4.654      3.828      8.096
REMARK INTER + INTRA:          -9.033
REMARK INTER:                  -8.050
REMARK INTRA:                  -0.983
REMARK UNBOUND:                -0.570
REMARK SMILES CCCCCCCCCCCCCCCC(=O)[O-]
REMARK SMILES IDX 9 1 10 2 11 3 12 4 13 5 14 6 15 7 16 8 17 9 18 10 8 11 7 12
REMARK SMILES IDX 6 13 5 14 4 15 3 16 2 17 1 18
REMARK H PARENT
REMARK Flexibility Score: inf
ROOT
ATOM      1  C   UNL     1     -37.976  74.641 -19.792  1.00  0.00     0.000 C 
ENDROOT
BRANCH   1   2
ATOM      2  C   UNL     1     -39.276  75.392 -20.112  1.00  0.00     0.000 C 
BRANCH   2   3
ATOM      3  C   UNL     1     -39.075  76.364 -21.283  1.00  0.00     0.000 C 
BRANCH   3   4
ATOM      4  C   UNL     1     -40.178  76.255 -22.352  1.00  0.00     0.000 C 
BRANCH   4   5
ATOM      5  C   UNL     1     -39.716  76.541 -23.793  1.00  0.00     0.000 C 
BRANCH   5   6
ATOM      6  C   UNL     1     -38.234  76.949 -23.876  1.00  0.00     0.006 C 
BRANCH   6   7
ATOM      7  C   UNL     1     -37.383  75.892 -24.592  1.00  0.00     0.053 C 
BRANCH   7   8
ATOM      8  C   UNL     1     -36.869  76.391 -25.907  1.00  0.00     0.041 C 
ATOM      9  O   UNL     1     -35.630  76.437 -26.127  1.00  0.00    -0.550 OA
ATOM     10  O   UNL     1     -37.759  76.770 -26.904  1.00  0.00    -0.550 OA
ENDBRANCH   7   8
ENDBRANCH   6   7
ENDBRANCH   5   6
ENDBRANCH   4   5
ENDBRANCH   3   4
ENDBRANCH   2   3
ENDBRANCH   1   2
BRANCH   1  11
ATOM     11  C   UNL     1     -38.147  73.112 -19.816  1.00  0.00     0.000 C 
BRANCH  11  12
ATOM     12  C   UNL     1     -37.374  72.354 -18.719  1.00  0.00    -0.000 C 
BRANCH  12  13
ATOM     13  C   UNL     1     -36.050  73.010 -18.278  1.00  0.00    -0.000 C 
BRANCH  13  14
ATOM     14  C   UNL     1     -34.780  72.231 -18.665  1.00  0.00    -0.000 C 
BRANCH  14  15
ATOM     15  C   UNL     1     -35.081  70.957 -19.469  1.00  0.00    -0.000 C 
BRANCH  15  16
ATOM     16  C   UNL     1     -34.123  69.823 -19.079  1.00  0.00    -0.000 C 
BRANCH  16  17
ATOM     17  C   UNL     1     -34.861  68.545 -18.652  1.00  0.00    -0.003 C 
ATOM     18  C   UNL     1     -36.353  68.776 -18.414  1.00  0.00     0.004 C 
ENDBRANCH  16  17
ENDBRANCH  15  16
ENDBRANCH  14  15
ENDBRANCH  13  14
ENDBRANCH  12  13
ENDBRANCH  11  12
ENDBRANCH   1  11
TORSDOF 14
ENDMDL
MODEL 7
REMARK VINA RESULT:    -4.556     10.750     12.676
REMARK INTER + INTRA:          -8.856
REMARK INTER:                  -7.222
REMARK INTRA:                  -1.634
REMARK UNBOUND:                -0.570
REMARK SMILES CCCCCCCCCCCCCCCC(=O)[O-]
REMARK SMILES IDX 9 1 10 2 11 3 12 4 13 5 14 6 15 7 16 8 17 9 18 10 8 11 7 12
REMARK SMILES IDX 6 13 5 14 4 15 3 16 2 17 1 18
REMARK H PARENT
REMARK Flexibility Score: inf
ROOT
ATOM      1  C   UNL     1     -39.589  70.738 -10.766  1.00  0.00     0.000 C 
ENDROOT
BRANCH   1   2
ATOM      2  C   UNL     1     -38.355  71.438 -10.179  1.00  0.00     0.000 C 
BRANCH   2   3
ATOM      3  C   UNL     1     -38.718  72.209  -8.902  1.00  0.00     0.000 C 
BRANCH   3   4
ATOM      4  C   UNL     1     -38.300  73.690  -8.955  1.00  0.00     0.000 C 
BRANCH   4   5
ATOM      5  C   UNL     1     -38.285  74.310 -10.364  1.00  0.00     0.000 C 
BRANCH   5   6
ATOM      6  C   UNL     1     -37.306  75.491 -10.487  1.00  0.00     0.006 C 
BRANCH   6   7
ATOM      7  C   UNL     1     -38.033  76.843 -10.526  1.00  0.00     0.053 C 
BRANCH   7   8
ATOM      8  C   UNL     1     -39.151  76.843 -11.522  1.00  0.00     0.041 C 
ATOM      9  O   UNL     1     -40.338  77.027 -11.142  1.00  0.00    -0.550 OA
ATOM     10  O   UNL     1     -38.880  76.677 -12.874  1.00  0.00    -0.550 OA
ENDBRANCH   7   8
ENDBRANCH   6   7
ENDBRANCH   5   6
ENDBRANCH   4   5
ENDBRANCH   3   4
ENDBRANCH   2   3
ENDBRANCH   1   2
BRANCH   1  11
ATOM     11  C   UNL     1     -40.836  70.876  -9.874  1.00  0.00     0.000 C 
BRANCH  11  12
ATOM     12  C   UNL     1     -41.992  71.687 -10.492  1.00  0.00    -0.000 C 
BRANCH  12  13
ATOM     13  C   UNL     1     -41.713  72.259 -11.897  1.00  0.00    -0.000 C 
BRANCH  13  14
ATOM     14  C   UNL     1     -41.508  73.784 -11.948  1.00  0.00    -0.000 C 
BRANCH  14  15
ATOM     15  C   UNL     1     -42.689  74.524 -12.592  1.00  0.00    -0.000 C 
BRANCH  15  16
ATOM     16  C   UNL     1     -43.790  73.539 -13.010  1.00  0.00    -0.000 C 
BRANCH  16  17
ATOM     17  C   UNL     1     -43.943  73.436 -14.536  1.00  0.00    -0.003 C 
ATOM     18  C   UNL     1     -43.726  72.015 -15.057  1.00  0.00     0.004 C 
ENDBRANCH  16  17
ENDBRANCH  15  16
ENDBRANCH  14  15
ENDBRANCH  13  14
ENDBRANCH  12  13
ENDBRANCH  11  12
ENDBRANCH   1  11
TORSDOF 14
ENDMDL
MODEL 8
REMARK VINA RESULT:    -4.319      1.338      2.265
REMARK INTER + INTRA:          -8.424
REMARK INTER:                  -7.538
REMARK INTRA:                  -0.886
REMARK UNBOUND:                -0.570
REMARK SMILES CCCCCCCCCCCCCCCC(=O)[O-]
REMARK SMILES IDX 9 1 10 2 11 3 12 4 13 5 14 6 15 7 16 8 17 9 18 10 8 11 7 12
REMARK SMILES IDX 6 13 5 14 4 15 3 16 2 17 1 18
REMARK H PARENT
REMARK Flexibility Score: inf
ROOT
ATOM      1  C   UNL     1     -38.861  76.562 -24.030  1.00  0.00     0.000 C 
ENDROOT
BRANCH   1   2
ATOM      2  C   UNL     1     -38.952  77.111 -22.599  1.00  0.00     0.000 C 
BRANCH   2   3
ATOM      3  C   UNL     1     -39.663  76.113 -21.673  1.00  0.00     0.000 C 
BRANCH   3   4
ATOM      4  C   UNL     1     -38.805  75.698 -20.464  1.00  0.00     0.000 C 
BRANCH   4   5
ATOM      5  C   UNL     1     -38.843  74.196 -20.126  1.00  0.00     0.000 C 
BRANCH   5   6
ATOM      6  C   UNL     1     -37.594  73.724 -19.360  1.00  0.00     0.006 C 
BRANCH   6   7
ATOM      7  C   UNL     1     -37.575  72.202 -19.168  1.00  0.00     0.053 C 
BRANCH   7   8
ATOM      8  C   UNL     1     -36.221  71.712 -18.755  1.00  0.00     0.041 C 
ATOM      9  O   UNL     1     -35.305  72.535 -18.489  1.00  0.00    -0.550 OA
ATOM     10  O   UNL     1     -35.981  70.351 -18.628  1.00  0.00    -0.550 OA
ENDBRANCH   7   8
ENDBRANCH   6   7
ENDBRANCH   5   6
ENDBRANCH   4   5
ENDBRANCH   3   4
ENDBRANCH   2   3
ENDBRANCH   1   2
BRANCH   1  11
ATOM     11  C   UNL     1     -40.214  76.054 -24.563  1.00  0.00     0.000 C 
BRANCH  11  12
ATOM     12  C   UNL     1     -40.480  76.355 -26.051  1.00  0.00    -0.000 C 
BRANCH  12  13
ATOM     13  C   UNL     1     -39.662  75.510 -27.047  1.00  0.00    -0.000 C 
BRANCH  13  14
ATOM     14  C   UNL     1     -38.574  76.283 -27.815  1.00  0.00    -0.000 C 
BRANCH  14  15
ATOM     15  C   UNL     1     -37.152  75.921 -27.362  1.00  0.00    -0.000 C 
BRANCH  15  16
ATOM     16  C   UNL     1     -37.057  74.434 -26.992  1.00  0.00    -0.000 C 
BRANCH  16  17
ATOM     17  C   UNL     1     -36.587  73.561 -28.166  1.00  0.00    -0.003 C 
ATOM     18  C   UNL     1     -35.151  73.866 -28.592  1.00  0.00     0.004 C 
ENDBRANCH  16  17
ENDBRANCH  15  16
ENDBRANCH  14  15
ENDBRANCH  13  14
ENDBRANCH  12  13
ENDBRANCH  11  12
ENDBRANCH   1  11
TORSDOF 14
ENDMDL
MODEL 9
REMARK VINA RESULT:    -4.310      2.070      4.072
REMARK INTER + INTRA:          -8.408
REMARK INTER:                  -7.288
REMARK INTRA:                  -1.120
REMARK UNBOUND:                -0.570
REMARK SMILES CCCCCCCCCCCCCCCC(=O)[O-]
REMARK SMILES IDX 9 1 10 2 11 3 12 4 13 5 14 6 15 7 16 8 17 9 18 10 8 11 7 12
REMARK SMILES IDX 6 13 5 14 4 15 3 16 2 17 1 18
REMARK H PARENT
REMARK Flexibility Score: inf
ROOT
ATOM      1  C   UNL     1     -38.282  75.657 -25.181  1.00  0.00     0.000 C 
ENDROOT
BRANCH   1   2
ATOM      2  C   UNL     1     -39.338  76.378 -24.331  1.00  0.00     0.000 C 
BRANCH   2   3
ATOM      3  C   UNL     1     -38.736  76.860 -23.003  1.00  0.00     0.000 C 
BRANCH   3   4
ATOM      4  C   UNL     1     -39.503  76.342 -21.772  1.00  0.00     0.000 C 
BRANCH   4   5
ATOM      5  C   UNL     1     -38.952  76.821 -20.416  1.00  0.00     0.000 C 
BRANCH   5   6
ATOM      6  C   UNL     1     -38.722  75.668 -19.424  1.00  0.00     0.006 C 
BRANCH   6   7
ATOM      7  C   UNL     1     -38.390  74.350 -20.135  1.00  0.00     0.053 C 
BRANCH   7   8
ATOM      8  C   UNL     1     -37.762  73.360 -19.203  1.00  0.00     0.041 C 
ATOM      9  O   UNL     1     -37.019  73.756 -18.266  1.00  0.00    -0.550 OA
ATOM     10  O   UNL     1     -38.026  72.004 -19.345  1.00  0.00    -0.550 OA
ENDBRANCH   7   8
ENDBRANCH   6   7
ENDBRANCH   5   6
ENDBRANCH   4   5
ENDBRANCH   3   4
ENDBRANCH   2   3
ENDBRANCH   1   2
BRANCH   1  11
ATOM     11  C   UNL     1     -37.885  76.449 -26.440  1.00  0.00     0.000 C 
BRANCH  11  12
ATOM     12  C   UNL     1     -37.827  75.621 -27.739  1.00  0.00    -0.000 C 
BRANCH  12  13
ATOM     13  C   UNL     1     -37.382  74.156 -27.562  1.00  0.00    -0.000 C 
BRANCH  13  14
ATOM     14  C   UNL     1     -36.335  73.668 -28.580  1.00  0.00    -0.000 C 
BRANCH  14  15
ATOM     15  C   UNL     1     -34.891  73.888 -28.104  1.00  0.00    -0.000 C 
BRANCH  15  16
ATOM     16  C   UNL     1     -34.385  75.279 -28.511  1.00  0.00    -0.000 C 
BRANCH  16  17
ATOM     17  C   UNL     1     -34.143  76.198 -27.303  1.00  0.00    -0.003 C 
ATOM     18  C   UNL     1     -34.053  75.430 -25.985  1.00  0.00     0.004 C 
ENDBRANCH  16  17
ENDBRANCH  15  16
ENDBRANCH  14  15
ENDBRANCH  13  14
ENDBRANCH  12  13
ENDBRANCH  11  12
ENDBRANCH   1  11
TORSDOF 14
ENDMDL
