MODEL 1
REMARK VINA RESULT:    -3.954      0.000      0.000
REMARK INTER + INTRA:          -6.237
REMARK INTER:                  -6.034
REMARK INTRA:                  -0.203
REMARK UNBOUND:                -0.203
REMARK SMILES CC1=CCC[C@H](C)C(=O)C[C@H](C(C)C)C(=O)C1
REMARK SMILES IDX 8 1 9 2 6 3 7 4 5 5 4 6 3 7 2 8 1 9 10 11 11 12 15 13 16 14
REMARK SMILES IDX 17 15 12 17 13 18 14 19
REMARK H PARENT
REMARK Flexibility Score: 70.00
ROOT
ATOM      1  C   UNL     1      21.011  25.879  29.143  1.00  0.00     0.136 C 
ATOM      2  O   UNL     1      21.443  24.880  29.699  1.00  0.00    -0.299 OA
ENDROOT
BRANCH   1   3
ATOM      3  C   UNL     1      20.278  25.748  27.820  1.00  0.00     0.053 C 
ATOM      4  C   UNL     1      20.624  24.408  27.163  1.00  0.00     0.016 C 
BRANCH   3   5
ATOM      5  C   UNL     1      18.743  25.898  27.962  1.00  0.00     0.015 C 
BRANCH   5   6
ATOM      6  C   UNL     1      18.164  27.265  27.546  1.00  0.00     0.028 C 
BRANCH   6   7
ATOM      7  C   UNL     1      17.658  28.071  28.722  1.00  0.00    -0.028 C 
ATOM      8  C   UNL     1      18.139  29.277  29.112  1.00  0.00    -0.070 CG0
ATOM      9  C   UNL     1      17.481  29.950  30.290  1.00  0.00     0.039 C 
ATOM     10  G   UNL     1      19.323  29.959  28.446  1.00  0.00     0.000 G0
ENDBRANCH   6   7
ENDBRANCH   5   6
ENDBRANCH   3   5
ENDBRANCH   1   3
BRANCH   1  11
ATOM     11  C   UNL     1      21.270  27.246  29.742  1.00  0.00     0.087 C 
BRANCH  11  12
ATOM     12  C   UNL     1      21.472  28.393  28.709  1.00  0.00     0.066 C 
BRANCH  12  13
ATOM     13  C   UNL     1      20.667  29.622  29.112  1.00  0.00     0.140 C 
ATOM     14  O   UNL     1      21.091  30.360  29.991  1.00  0.00    -0.299 OA
BRANCH  13  15
ATOM     15  C   UNL     1      19.352  29.959  28.455  1.00  0.00     0.106 CG0
ATOM     16  G   UNL     1      18.167  29.280  29.123  1.00  0.00     0.000 G0
ENDBRANCH  13  15
ENDBRANCH  12  13
BRANCH  12  17
ATOM     17  C   UNL     1      22.972  28.750  28.428  1.00  0.00    -0.006 C 
ATOM     18  C   UNL     1      23.813  28.848  29.715  1.00  0.00     0.008 C 
ATOM     19  C   UNL     1      23.620  27.703  27.500  1.00  0.00     0.008 C 
ENDBRANCH  12  17
ENDBRANCH  11  12
ENDBRANCH   1  11
TORSDOF 1
ENDMDL
MODEL 2
REMARK VINA RESULT:    -3.547      2.087      4.345
REMARK INTER + INTRA:          -5.617
REMARK INTER:                  -5.170
REMARK INTRA:                  -0.446
REMARK UNBOUND:                -0.203
REMARK SMILES CC1=CCC[C@H](C)C(=O)C[C@H](C(C)C)C(=O)C1
REMARK SMILES IDX 8 1 9 2 6 3 7 4 5 5 4 6 3 7 2 8 1 9 10 11 11 12 15 13 16 14
REMARK SMILES IDX 17 15 12 17 13 18 14 19
REMARK H PARENT
REMARK Flexibility Score: 70.00
ROOT
ATOM      1  C   UNL     1      18.779  28.130  27.850  1.00  0.00     0.136 C 
ATOM      2  O   UNL     1      18.287  28.132  26.731  1.00  0.00    -0.299 OA
ENDROOT
BRANCH   1   3
ATOM      3  C   UNL     1      18.842  26.838  28.644  1.00  0.00     0.053 C 
ATOM      4  C   UNL     1      17.504  26.097  28.540  1.00  0.00     0.016 C 
BRANCH   3   5
ATOM      5  C   UNL     1      20.005  25.914  28.204  1.00  0.00     0.015 C 
BRANCH   5   6
ATOM      6  C   UNL     1      21.239  25.908  29.129  1.00  0.00     0.028 C 
BRANCH   6   7
ATOM      7  C   UNL     1      22.352  26.801  28.627  1.00  0.00    -0.028 C 
ATOM      8  C   UNL     1      22.760  27.953  29.215  1.00  0.00    -0.070 CG0
ATOM      9  C   UNL     1      23.916  28.692  28.589  1.00  0.00     0.039 C 
ATOM     10  G   UNL     1      22.091  28.545  30.444  1.00  0.00     0.000 G0
ENDBRANCH   6   7
ENDBRANCH   5   6
ENDBRANCH   3   5
ENDBRANCH   1   3
BRANCH   1  11
ATOM     11  C   UNL     1      19.259  29.428  28.464  1.00  0.00     0.087 C 
BRANCH  11  12
ATOM     12  C   UNL     1      19.637  29.348  29.973  1.00  0.00     0.066 C 
BRANCH  12  13
ATOM     13  C   UNL     1      21.120  29.633  30.168  1.00  0.00     0.140 C 
ATOM     14  O   UNL     1      21.530  30.783  30.079  1.00  0.00    -0.299 OA
BRANCH  13  15
ATOM     15  C   UNL     1      22.106  28.534  30.470  1.00  0.00     0.106 CG0
ATOM     16  G   UNL     1      22.753  27.961  29.219  1.00  0.00     0.000 G0
ENDBRANCH  13  15
ENDBRANCH  12  13
BRANCH  12  17
ATOM     17  C   UNL     1      18.747  30.237  30.907  1.00  0.00    -0.006 C 
ATOM     18  C   UNL     1      17.598  30.932  30.151  1.00  0.00     0.008 C 
ATOM     19  C   UNL     1      18.142  29.399  32.050  1.00  0.00     0.008 C 
ENDBRANCH  12  17
ENDBRANCH  11  12
ENDBRANCH   1  11
TORSDOF 1
ENDMDL
MODEL 3
REMARK VINA RESULT:    -3.522      2.390      4.878
REMARK INTER + INTRA:          -5.578
REMARK INTER:                  -5.497
REMARK INTRA:                  -0.081
REMARK UNBOUND:                -0.203
REMARK SMILES CC1=CCC[C@H](C)C(=O)C[C@H](C(C)C)C(=O)C1
REMARK SMILES IDX 8 1 9 2 6 3 7 4 5 5 4 6 3 7 2 8 1 9 10 11 11 12 15 13 16 14
REMARK SMILES IDX 17 15 12 17 13 18 14 19
REMARK H PARENT
REMARK Flexibility Score: 70.00
ROOT
ATOM      1  C   UNL     1      18.072  28.683  29.921  1.00  0.00     0.136 C 
ATOM      2  O   UNL     1      17.704  28.428  31.059  1.00  0.00    -0.299 OA
ENDROOT
BRANCH   1   3
ATOM      3  C   UNL     1      18.780  27.620  29.100  1.00  0.00     0.053 C 
ATOM      4  C   UNL     1      18.615  27.922  27.606  1.00  0.00     0.016 C 
BRANCH   3   5
ATOM      5  C   UNL     1      20.280  27.479  29.459  1.00  0.00     0.015 C 
BRANCH   5   6
ATOM      6  C   UNL     1      21.199  28.601  28.936  1.00  0.00     0.028 C 
BRANCH   6   7
ATOM      7  C   UNL     1      21.787  29.444  30.046  1.00  0.00    -0.028 C 
ATOM      8  C   UNL     1      21.414  30.711  30.350  1.00  0.00    -0.070 CG0
ATOM      9  C   UNL     1      22.089  31.383  31.519  1.00  0.00     0.039 C 
ATOM     10  G   UNL     1      20.381  31.492  29.554  1.00  0.00     0.000 G0
ENDBRANCH   6   7
ENDBRANCH   5   6
ENDBRANCH   3   5
ENDBRANCH   1   3
BRANCH   1  11
ATOM     11  C   UNL     1      17.881  30.078  29.363  1.00  0.00     0.087 C 
BRANCH  11  12
ATOM     12  C   UNL     1      17.871  31.220  30.422  1.00  0.00     0.066 C 
BRANCH  12  13
ATOM     13  C   UNL     1      19.199  31.965  30.415  1.00  0.00     0.140 C 
ATOM     14  O   UNL     1      19.338  32.959  31.115  1.00  0.00    -0.299 OA
BRANCH  13  15
ATOM     15  C   UNL     1      20.359  31.512  29.564  1.00  0.00     0.106 CG0
ATOM     16  G   UNL     1      21.386  30.708  30.346  1.00  0.00     0.000 G0
ENDBRANCH  13  15
ENDBRANCH  12  13
BRANCH  12  17
ATOM     17  C   UNL     1      16.655  32.200  30.301  1.00  0.00    -0.006 C 
ATOM     18  C   UNL     1      16.656  32.990  28.978  1.00  0.00     0.008 C 
ATOM     19  C   UNL     1      15.321  31.436  30.412  1.00  0.00     0.008 C 
ENDBRANCH  12  17
ENDBRANCH  11  12
ENDBRANCH   1  11
TORSDOF 1
ENDMDL
MODEL 4
REMARK VINA RESULT:    -3.431      2.329      5.178
REMARK INTER + INTRA:          -5.439
REMARK INTER:                  -5.280
REMARK INTRA:                  -0.159
REMARK UNBOUND:                -0.203
REMARK SMILES CC1=CCC[C@H](C)C(=O)C[C@H](C(C)C)C(=O)C1
REMARK SMILES IDX 8 1 9 2 6 3 7 4 5 5 4 6 3 7 2 8 1 9 10 11 11 12 15 13 16 14
REMARK SMILES IDX 17 15 12 17 13 18 14 19
REMARK H PARENT
REMARK Flexibility Score: 70.00
ROOT
ATOM      1  C   UNL     1      20.402  31.239  29.997  1.00  0.00     0.136 C 
ATOM      2  O   UNL     1      20.568  32.185  29.242  1.00  0.00    -0.299 OA
ENDROOT
BRANCH   1   3
ATOM      3  C   UNL     1      21.554  30.294  30.288  1.00  0.00     0.053 C 
ATOM      4  C   UNL     1      21.360  29.644  31.662  1.00  0.00     0.016 C 
BRANCH   3   5
ATOM      5  C   UNL     1      21.734  29.207  29.199  1.00  0.00     0.015 C 
BRANCH   5   6
ATOM      6  C   UNL     1      21.258  27.792  29.584  1.00  0.00     0.028 C 
BRANCH   6   7
ATOM      7  C   UNL     1      20.175  27.267  28.668  1.00  0.00    -0.028 C 
ATOM      8  C   UNL     1      18.844  27.464  28.832  1.00  0.00    -0.070 CG0
ATOM      9  C   UNL     1      17.914  26.894  27.791  1.00  0.00     0.039 C 
ATOM     10  G   UNL     1      18.249  28.197  30.023  1.00  0.00     0.000 G0
ENDBRANCH   6   7
ENDBRANCH   5   6
ENDBRANCH   3   5
ENDBRANCH   1   3
BRANCH   1  11
ATOM     11  C   UNL     1      19.031  30.975  30.583  1.00  0.00     0.087 C 
BRANCH  11  12
ATOM     12  C   UNL     1      17.893  30.768  29.540  1.00  0.00     0.066 C 
BRANCH  12  13
ATOM     13  C   UNL     1      17.349  29.348  29.619  1.00  0.00     0.140 C 
ATOM     14  O   UNL     1      16.176  29.135  29.343  1.00  0.00    -0.299 OA
BRANCH  13  15
ATOM     15  C   UNL     1      18.219  28.186  30.029  1.00  0.00     0.106 CG0
ATOM     16  G   UNL     1      18.850  27.474  28.844  1.00  0.00     0.000 G0
ENDBRANCH  13  15
ENDBRANCH  12  13
BRANCH  12  17
ATOM     17  C   UNL     1      16.747  31.834  29.618  1.00  0.00    -0.006 C 
ATOM     18  C   UNL     1      16.209  32.027  31.049  1.00  0.00     0.008 C 
ATOM     19  C   UNL     1      17.230  33.199  29.090  1.00  0.00     0.008 C 
ENDBRANCH  12  17
ENDBRANCH  11  12
ENDBRANCH   1  11
TORSDOF 1
ENDMDL
MODEL 5
REMARK VINA RESULT:    -3.382      2.412      5.029
REMARK INTER + INTRA:          -5.364
REMARK INTER:                  -5.061
REMARK INTRA:                  -0.303
REMARK UNBOUND:                -0.203
REMARK SMILES CC1=CCC[C@H](C)C(=O)C[C@H](C(C)C)C(=O)C1
REMARK SMILES IDX 8 1 9 2 6 3 7 4 5 5 4 6 3 7 2 8 1 9 10 11 11 12 15 13 16 14
REMARK SMILES IDX 17 15 12 17 13 18 14 19
REMARK H PARENT
REMARK Flexibility Score: 70.00
ROOT
ATOM      1  C   UNL     1      24.400  30.013  31.405  1.00  0.00     0.136 C 
ATOM      2  O   UNL     1      25.222  30.099  32.306  1.00  0.00    -0.299 OA
ENDROOT
BRANCH   1   3
ATOM      3  C   UNL     1      24.864  29.971  29.961  1.00  0.00     0.053 C 
ATOM      4  C   UNL     1      26.254  30.607  29.842  1.00  0.00     0.016 C 
BRANCH   3   5
ATOM      5  C   UNL     1      24.876  28.539  29.371  1.00  0.00     0.015 C 
BRANCH   5   6
ATOM      6  C   UNL     1      23.919  28.299  28.185  1.00  0.00     0.028 C 
BRANCH   6   7
ATOM      7  C   UNL     1      22.879  27.239  28.474  1.00  0.00    -0.028 C 
ATOM      8  C   UNL     1      21.567  27.473  28.720  1.00  0.00    -0.070 CG0
ATOM      9  C   UNL     1      20.671  26.283  28.951  1.00  0.00     0.039 C 
ATOM     10  G   UNL     1      20.969  28.868  28.805  1.00  0.00     0.000 G0
ENDBRANCH   6   7
ENDBRANCH   5   6
ENDBRANCH   3   5
ENDBRANCH   1   3
BRANCH   1  11
ATOM     11  C   UNL     1      22.921  30.018  31.733  1.00  0.00     0.087 C 
BRANCH  11  12
ATOM     12  C   UNL     1      21.992  30.528  30.592  1.00  0.00     0.066 C 
BRANCH  12  13
ATOM     13  C   UNL     1      20.988  29.452  30.201  1.00  0.00     0.140 C 
ATOM     14  O   UNL     1      20.190  29.040  31.032  1.00  0.00    -0.299 OA
BRANCH  13  15
ATOM     15  C   UNL     1      20.947  28.874  28.808  1.00  0.00     0.106 CG0
ATOM     16  G   UNL     1      21.559  27.485  28.727  1.00  0.00     0.000 G0
ENDBRANCH  13  15
ENDBRANCH  12  13
BRANCH  12  17
ATOM     17  C   UNL     1      21.289  31.894  30.897  1.00  0.00    -0.006 C 
ATOM     18  C   UNL     1      22.289  33.024  31.208  1.00  0.00     0.008 C 
ATOM     19  C   UNL     1      20.407  32.335  29.712  1.00  0.00     0.008 C 
ENDBRANCH  12  17
ENDBRANCH  11  12
ENDBRANCH   1  11
TORSDOF 1
ENDMDL
MODEL 6
REMARK VINA RESULT:    -3.369      1.863      3.884
REMARK INTER + INTRA:          -5.345
REMARK INTER:                  -5.275
REMARK INTRA:                  -0.070
REMARK UNBOUND:                -0.203
REMARK SMILES CC1=CCC[C@H](C)C(=O)C[C@H](C(C)C)C(=O)C1
REMARK SMILES IDX 8 1 9 2 6 3 7 4 5 5 4 6 3 7 2 8 1 9 10 11 11 12 15 13 16 14
REMARK SMILES IDX 17 15 12 17 13 18 14 19
REMARK H PARENT
REMARK Flexibility Score: 70.00
ROOT
ATOM      1  C   UNL     1      21.817  28.565  29.397  1.00  0.00     0.136 C 
ATOM      2  O   UNL     1      22.507  29.501  29.776  1.00  0.00    -0.299 OA
ENDROOT
BRANCH   1   3
ATOM      3  C   UNL     1      22.358  27.602  28.356  1.00  0.00     0.053 C 
ATOM      4  C   UNL     1      23.884  27.719  28.281  1.00  0.00     0.016 C 
BRANCH   3   5
ATOM      5  C   UNL     1      21.944  26.133  28.619  1.00  0.00     0.015 C 
BRANCH   5   6
ATOM      6  C   UNL     1      20.992  25.511  27.576  1.00  0.00     0.028 C 
BRANCH   6   7
ATOM      7  C   UNL     1      19.640  25.155  28.153  1.00  0.00    -0.028 C 
ATOM      8  C   UNL     1      18.545  25.953  28.138  1.00  0.00    -0.070 CG0
ATOM      9  C   UNL     1      17.269  25.410  28.730  1.00  0.00     0.039 C 
ATOM     10  G   UNL     1      18.552  27.370  27.586  1.00  0.00     0.000 G0
ENDBRANCH   6   7
ENDBRANCH   5   6
ENDBRANCH   3   5
ENDBRANCH   1   3
BRANCH   1  11
ATOM     11  C   UNL     1      20.403  28.413  29.917  1.00  0.00     0.087 C 
BRANCH  11  12
ATOM     12  C   UNL     1      19.338  29.301  29.209  1.00  0.00     0.066 C 
BRANCH  12  13
ATOM     13  C   UNL     1      18.238  28.438  28.605  1.00  0.00     0.140 C 
ATOM     14  O   UNL     1      17.079  28.602  28.960  1.00  0.00    -0.299 OA
BRANCH  13  15
ATOM     15  C   UNL     1      18.537  27.379  27.575  1.00  0.00     0.106 CG0
ATOM     16  G   UNL     1      18.554  25.975  28.159  1.00  0.00     0.000 G0
ENDBRANCH  13  15
ENDBRANCH  12  13
BRANCH  12  17
ATOM     17  C   UNL     1      18.751  30.442  30.109  1.00  0.00    -0.006 C 
ATOM     18  C   UNL     1      19.529  30.622  31.426  1.00  0.00     0.008 C 
ATOM     19  C   UNL     1      18.747  31.788  29.357  1.00  0.00     0.008 C 
ENDBRANCH  12  17
ENDBRANCH  11  12
ENDBRANCH   1  11
TORSDOF 1
ENDMDL
MODEL 7
REMARK VINA RESULT:    -3.356      2.228      4.461
REMARK INTER + INTRA:          -5.325
REMARK INTER:                  -5.271
REMARK INTRA:                  -0.054
REMARK UNBOUND:                -0.203
REMARK SMILES CC1=CCC[C@H](C)C(=O)C[C@H](C(C)C)C(=O)C1
REMARK SMILES IDX 8 1 9 2 6 3 7 4 5 5 4 6 3 7 2 8 1 9 10 11 11 12 15 13 16 14
REMARK SMILES IDX 17 15 12 17 13 18 14 19
REMARK H PARENT
REMARK Flexibility Score: 70.00
ROOT
ATOM      1  C   UNL     1      19.454  25.968  27.897  1.00  0.00     0.136 C 
ATOM      2  O   UNL     1      19.685  25.021  27.160  1.00  0.00    -0.299 OA
ENDROOT
BRANCH   1   3
ATOM      3  C   UNL     1      20.436  26.326  28.997  1.00  0.00     0.053 C 
ATOM      4  C   UNL     1      21.312  25.112  29.328  1.00  0.00     0.016 C 
BRANCH   3   5
ATOM      5  C   UNL     1      21.322  27.547  28.644  1.00  0.00     0.015 C 
BRANCH   5   6
ATOM      6  C   UNL     1      20.645  28.925  28.787  1.00  0.00     0.028 C 
BRANCH   6   7
ATOM      7  C   UNL     1      20.046  29.146  30.159  1.00  0.00    -0.028 C 
ATOM      8  C   UNL     1      18.720  29.187  30.439  1.00  0.00    -0.070 CG0
ATOM      9  C   UNL     1      18.310  29.380  31.877  1.00  0.00     0.039 C 
ATOM     10  G   UNL     1      17.638  29.084  29.376  1.00  0.00     0.000 G0
ENDBRANCH   6   7
ENDBRANCH   5   6
ENDBRANCH   3   5
ENDBRANCH   1   3
BRANCH   1  11
ATOM     11  C   UNL     1      18.156  26.736  27.753  1.00  0.00     0.087 C 
BRANCH  11  12
ATOM     12  C   UNL     1      17.132  26.529  28.908  1.00  0.00     0.066 C 
BRANCH  12  13
ATOM     13  C   UNL     1      16.750  27.867  29.528  1.00  0.00     0.140 C 
ATOM     14  O   UNL     1      15.713  27.961  30.170  1.00  0.00    -0.299 OA
BRANCH  13  15
ATOM     15  C   UNL     1      17.620  29.090  29.375  1.00  0.00     0.106 CG0
ATOM     16  G   UNL     1      18.699  29.183  30.442  1.00  0.00     0.000 G0
ENDBRANCH  13  15
ENDBRANCH  12  13
BRANCH  12  17
ATOM     17  C   UNL     1      15.869  25.694  28.507  1.00  0.00    -0.006 C 
ATOM     18  C   UNL     1      16.086  24.860  27.230  1.00  0.00     0.008 C 
ATOM     19  C   UNL     1      15.454  24.743  29.646  1.00  0.00     0.008 C 
ENDBRANCH  12  17
ENDBRANCH  11  12
ENDBRANCH   1  11
TORSDOF 1
ENDMDL
MODEL 8
REMARK VINA RESULT:    -3.350      2.811      6.231
REMARK INTER + INTRA:          -5.315
REMARK INTER:                  -5.043
REMARK INTRA:                  -0.273
REMARK UNBOUND:                -0.203
REMARK SMILES CC1=CCC[C@H](C)C(=O)C[C@H](C(C)C)C(=O)C1
REMARK SMILES IDX 8 1 9 2 6 3 7 4 5 5 4 6 3 7 2 8 1 9 10 11 11 12 15 13 16 14
REMARK SMILES IDX 17 15 12 17 13 18 14 19
REMARK H PARENT
REMARK Flexibility Score: 70.00
ROOT
ATOM      1  C   UNL     1      19.667  32.845  31.139  1.00  0.00     0.136 C 
ATOM      2  O   UNL     1      19.528  34.029  31.409  1.00  0.00    -0.299 OA
ENDROOT
BRANCH   1   3
ATOM      3  C   UNL     1      20.981  32.350  30.565  1.00  0.00     0.053 C 
ATOM      4  C   UNL     1      21.716  33.506  29.876  1.00  0.00     0.016 C 
BRANCH   3   5
ATOM      5  C   UNL     1      21.895  31.688  31.626  1.00  0.00     0.015 C 
BRANCH   5   6
ATOM      6  C   UNL     1      21.671  30.179  31.851  1.00  0.00     0.028 C 
BRANCH   6   7
ATOM      7  C   UNL     1      21.519  29.409  30.558  1.00  0.00    -0.028 C 
ATOM      8  C   UNL     1      20.351  28.930  30.062  1.00  0.00    -0.070 CG0
ATOM      9  C   UNL     1      20.389  28.217  28.735  1.00  0.00     0.039 C 
ATOM     10  G   UNL     1      19.023  29.048  30.793  1.00  0.00     0.000 G0
ENDBRANCH   6   7
ENDBRANCH   5   6
ENDBRANCH   3   5
ENDBRANCH   1   3
BRANCH   1  11
ATOM     11  C   UNL     1      18.503  31.891  31.315  1.00  0.00     0.087 C 
BRANCH  11  12
ATOM     12  C   UNL     1      17.911  31.317  29.994  1.00  0.00     0.066 C 
BRANCH  12  13
ATOM     13  C   UNL     1      17.955  29.795  30.007  1.00  0.00     0.140 C 
ATOM     14  O   UNL     1      17.121  29.161  29.375  1.00  0.00    -0.299 OA
BRANCH  13  15
ATOM     15  C   UNL     1      19.005  29.038  30.781  1.00  0.00     0.106 CG0
ATOM     16  G   UNL     1      20.330  28.944  30.041  1.00  0.00     0.000 G0
ENDBRANCH  13  15
ENDBRANCH  12  13
BRANCH  12  17
ATOM     17  C   UNL     1      16.482  31.853  29.643  1.00  0.00    -0.006 C 
ATOM     18  C   UNL     1      15.548  31.909  30.867  1.00  0.00     0.008 C 
ATOM     19  C   UNL     1      16.560  33.263  29.024  1.00  0.00     0.008 C 
ENDBRANCH  12  17
ENDBRANCH  11  12
ENDBRANCH   1  11
TORSDOF 1
ENDMDL
MODEL 9
REMARK VINA RESULT:    -3.211      2.444      4.356
REMARK INTER + INTRA:          -5.103
REMARK INTER:                  -4.849
REMARK INTRA:                  -0.253
REMARK UNBOUND:                -0.203
REMARK SMILES CC1=CCC[C@H](C)C(=O)C[C@H](C(C)C)C(=O)C1
REMARK SMILES IDX 8 1 9 2 6 3 7 4 5 5 4 6 3 7 2 8 1 9 10 11 11 12 15 13 16 14
REMARK SMILES IDX 17 15 12 17 13 18 14 19
REMARK H PARENT
REMARK Flexibility Score: 70.00
ROOT
ATOM      1  C   UNL     1      18.689  29.260  29.047  1.00  0.00     0.136 C 
ATOM      2  O   UNL     1      18.997  29.102  27.874  1.00  0.00    -0.299 OA
ENDROOT
BRANCH   1   3
ATOM      3  C   UNL     1      17.457  30.072  29.401  1.00  0.00     0.053 C 
ATOM      4  C   UNL     1      16.929  29.645  30.775  1.00  0.00     0.016 C 
BRANCH   3   5
ATOM      5  C   UNL     1      17.711  31.600  29.373  1.00  0.00     0.015 C 
BRANCH   5   6
ATOM      6  C   UNL     1      18.362  32.190  30.641  1.00  0.00     0.028 C 
BRANCH   6   7
ATOM      7  C   UNL     1      19.766  32.699  30.397  1.00  0.00    -0.028 C 
ATOM      8  C   UNL     1      20.898  32.150  30.900  1.00  0.00    -0.070 CG0
ATOM      9  C   UNL     1      22.215  32.776  30.515  1.00  0.00     0.039 C 
ATOM     10  G   UNL     1      20.900  30.965  31.852  1.00  0.00     0.000 G0
ENDBRANCH   6   7
ENDBRANCH   5   6
ENDBRANCH   3   5
ENDBRANCH   1   3
BRANCH   1  11
ATOM     11  C   UNL     1      19.577  28.703  30.140  1.00  0.00     0.087 C 
BRANCH  11  12
ATOM     12  C   UNL     1      21.087  29.064  30.015  1.00  0.00     0.066 C 
BRANCH  12  13
ATOM     13  C   UNL     1      21.583  29.732  31.291  1.00  0.00     0.140 C 
ATOM     14  O   UNL     1      22.555  29.271  31.874  1.00  0.00    -0.299 OA
BRANCH  13  15
ATOM     15  C   UNL     1      20.908  30.954  31.861  1.00  0.00     0.106 CG0
ATOM     16  G   UNL     1      20.912  32.132  30.901  1.00  0.00     0.000 G0
ENDBRANCH  13  15
ENDBRANCH  12  13
BRANCH  12  17
ATOM     17  C   UNL     1      22.003  27.864  29.594  1.00  0.00    -0.006 C 
ATOM     18  C   UNL     1      21.199  26.628  29.150  1.00  0.00     0.008 C 
ATOM     19  C   UNL     1      22.947  28.271  28.445  1.00  0.00     0.008 C 
ENDBRANCH  12  17
ENDBRANCH  11  12
ENDBRANCH   1  11
TORSDOF 1
ENDMDL
