MODEL 1
REMARK VINA RESULT:    -5.240      0.000      0.000
REMARK INTER + INTRA:          -7.355
REMARK INTER:                  -7.078
REMARK INTRA:                  -0.277
REMARK UNBOUND:                -0.277
REMARK SMILES CCCCCCCC(=O)[O-]
REMARK SMILES IDX 5 1 6 2 7 3 8 4 9 5 10 6 4 7 3 8 2 9 1 10
REMARK H PARENT
REMARK Flexibility Score: inf
ROOT
ATOM      1  C   UNL     1      -6.521 -14.154  -2.810  1.00  0.00     0.000 C 
ENDROOT
BRANCH   1   2
ATOM      2  C   UNL     1      -6.735 -13.140  -3.940  1.00  0.00     0.006 C 
BRANCH   2   3
ATOM      3  C   UNL     1      -7.035 -13.848  -5.264  1.00  0.00     0.053 C 
BRANCH   3   4
ATOM      4  C   UNL     1      -8.475 -13.678  -5.634  1.00  0.00     0.041 C 
ATOM      5  O   UNL     1      -8.905 -12.555  -6.007  1.00  0.00    -0.550 OA
ATOM      6  O   UNL     1      -9.331 -14.772  -5.615  1.00  0.00    -0.550 OA
ENDBRANCH   3   4
ENDBRANCH   2   3
ENDBRANCH   1   2
BRANCH   1   7
ATOM      7  C   UNL     1      -6.486 -15.587  -3.354  1.00  0.00     0.000 C 
BRANCH   7   8
ATOM      8  C   UNL     1      -5.818 -16.540  -2.355  1.00  0.00    -0.000 C 
BRANCH   8   9
ATOM      9  C   UNL     1      -4.480 -15.974  -1.865  1.00  0.00    -0.003 C 
ATOM     10  C   UNL     1      -3.876 -16.856  -0.777  1.00  0.00     0.004 C 
ENDBRANCH   8   9
ENDBRANCH   7   8
ENDBRANCH   1   7
TORSDOF 6
ENDMDL
MODEL 2
REMARK VINA RESULT:    -5.213      2.603      4.493
REMARK INTER + INTRA:          -7.319
REMARK INTER:                  -6.810
REMARK INTRA:                  -0.510
REMARK UNBOUND:                -0.277
REMARK SMILES CCCCCCCC(=O)[O-]
REMARK SMILES IDX 5 1 6 2 7 3 8 4 9 5 10 6 4 7 3 8 2 9 1 10
REMARK H PARENT
REMARK Flexibility Score: inf
ROOT
ATOM      1  C   UNL     1      -6.490 -14.616  -2.707  1.00  0.00     0.000 C 
ENDROOT
BRANCH   1   2
ATOM      2  C   UNL     1      -6.264 -15.813  -3.638  1.00  0.00     0.006 C 
BRANCH   2   3
ATOM      3  C   UNL     1      -7.306 -16.907  -3.389  1.00  0.00     0.053 C 
BRANCH   3   4
ATOM      4  C   UNL     1      -7.568 -17.677  -4.645  1.00  0.00     0.041 C 
ATOM      5  O   UNL     1      -8.737 -18.053  -4.924  1.00  0.00    -0.550 OA
ATOM      6  O   UNL     1      -6.532 -17.935  -5.532  1.00  0.00    -0.550 OA
ENDBRANCH   3   4
ENDBRANCH   2   3
ENDBRANCH   1   2
BRANCH   1   7
ATOM      7  C   UNL     1      -6.803 -13.346  -3.507  1.00  0.00     0.000 C 
BRANCH   7   8
ATOM      8  C   UNL     1      -6.848 -13.639  -5.011  1.00  0.00    -0.000 C 
BRANCH   8   9
ATOM      9  C   UNL     1      -8.209 -13.261  -5.605  1.00  0.00    -0.003 C 
ATOM     10  C   UNL     1      -9.145 -14.465  -5.647  1.00  0.00     0.004 C 
ENDBRANCH   8   9
ENDBRANCH   7   8
ENDBRANCH   1   7
TORSDOF 6
ENDMDL
MODEL 3
REMARK VINA RESULT:    -5.171      1.275      1.741
REMARK INTER + INTRA:          -7.262
REMARK INTER:                  -6.981
REMARK INTRA:                  -0.281
REMARK UNBOUND:                -0.277
REMARK SMILES CCCCCCCC(=O)[O-]
REMARK SMILES IDX 5 1 6 2 7 3 8 4 9 5 10 6 4 7 3 8 2 9 1 10
REMARK H PARENT
REMARK Flexibility Score: inf
ROOT
ATOM      1  C   UNL     1      -7.623 -16.318  -3.581  1.00  0.00     0.000 C 
ENDROOT
BRANCH   1   2
ATOM      2  C   UNL     1      -8.209 -15.723  -4.867  1.00  0.00     0.006 C 
BRANCH   2   3
ATOM      3  C   UNL     1      -7.242 -14.716  -5.497  1.00  0.00     0.053 C 
BRANCH   3   4
ATOM      4  C   UNL     1      -7.677 -13.315  -5.198  1.00  0.00     0.041 C 
ATOM      5  O   UNL     1      -7.034 -12.616  -4.371  1.00  0.00    -0.550 OA
ATOM      6  O   UNL     1      -8.760 -12.765  -5.870  1.00  0.00    -0.550 OA
ENDBRANCH   3   4
ENDBRANCH   2   3
ENDBRANCH   1   2
BRANCH   1   7
ATOM      7  C   UNL     1      -6.091 -16.256  -3.593  1.00  0.00     0.000 C 
BRANCH   7   8
ATOM      8  C   UNL     1      -5.549 -15.756  -2.249  1.00  0.00    -0.000 C 
BRANCH   8   9
ATOM      9  C   UNL     1      -4.136 -16.292  -1.992  1.00  0.00    -0.003 C 
ATOM     10  C   UNL     1      -4.087 -17.126  -0.715  1.00  0.00     0.004 C 
ENDBRANCH   8   9
ENDBRANCH   7   8
ENDBRANCH   1   7
TORSDOF 6
ENDMDL
MODEL 4
REMARK VINA RESULT:    -5.131      4.157      6.079
REMARK INTER + INTRA:          -7.207
REMARK INTER:                  -6.941
REMARK INTRA:                  -0.267
REMARK UNBOUND:                -0.277
REMARK SMILES CCCCCCCC(=O)[O-]
REMARK SMILES IDX 5 1 6 2 7 3 8 4 9 5 10 6 4 7 3 8 2 9 1 10
REMARK H PARENT
REMARK Flexibility Score: inf
ROOT
ATOM      1  C   UNL     1      -5.637 -16.388  -3.058  1.00  0.00     0.000 C 
ENDROOT
BRANCH   1   2
ATOM      2  C   UNL     1      -4.897 -16.072  -1.753  1.00  0.00     0.006 C 
BRANCH   2   3
ATOM      3  C   UNL     1      -3.417 -16.454  -1.854  1.00  0.00     0.053 C 
BRANCH   3   4
ATOM      4  C   UNL     1      -3.007 -17.276  -0.673  1.00  0.00     0.041 C 
ATOM      5  O   UNL     1      -2.153 -18.193  -0.806  1.00  0.00    -0.550 OA
ATOM      6  O   UNL     1      -3.529 -16.998   0.583  1.00  0.00    -0.550 OA
ENDBRANCH   3   4
ENDBRANCH   2   3
ENDBRANCH   1   2
BRANCH   1   7
ATOM      7  C   UNL     1      -6.847 -15.465  -3.243  1.00  0.00     0.000 C 
BRANCH   7   8
ATOM      8  C   UNL     1      -6.495 -14.016  -2.885  1.00  0.00    -0.000 C 
BRANCH   8   9
ATOM      9  C   UNL     1      -6.829 -13.067  -4.042  1.00  0.00    -0.003 C 
ATOM     10  C   UNL     1      -7.200 -13.844  -5.302  1.00  0.00     0.004 C 
ENDBRANCH   8   9
ENDBRANCH   7   8
ENDBRANCH   1   7
TORSDOF 6
ENDMDL
MODEL 5
REMARK VINA RESULT:    -5.052      2.684      4.586
REMARK INTER + INTRA:          -7.101
REMARK INTER:                  -6.516
REMARK INTRA:                  -0.585
REMARK UNBOUND:                -0.277
REMARK SMILES CCCCCCCC(=O)[O-]
REMARK SMILES IDX 5 1 6 2 7 3 8 4 9 5 10 6 4 7 3 8 2 9 1 10
REMARK H PARENT
REMARK Flexibility Score: inf
ROOT
ATOM      1  C   UNL     1      -7.507 -15.542  -6.600  1.00  0.00     0.000 C 
ENDROOT
BRANCH   1   2
ATOM      2  C   UNL     1      -7.300 -16.917  -5.954  1.00  0.00     0.006 C 
BRANCH   2   3
ATOM      3  C   UNL     1      -6.257 -16.848  -4.836  1.00  0.00     0.053 C 
BRANCH   3   4
ATOM      4  C   UNL     1      -6.925 -16.817  -3.497  1.00  0.00     0.041 C 
ATOM      5  O   UNL     1      -8.156 -17.062  -3.398  1.00  0.00    -0.550 OA
ATOM      6  O   UNL     1      -6.178 -16.568  -2.353  1.00  0.00    -0.550 OA
ENDBRANCH   3   4
ENDBRANCH   2   3
ENDBRANCH   1   2
BRANCH   1   7
ATOM      7  C   UNL     1      -8.741 -14.841  -6.021  1.00  0.00     0.000 C 
BRANCH   7   8
ATOM      8  C   UNL     1      -8.424 -13.389  -5.642  1.00  0.00    -0.000 C 
BRANCH   8   9
ATOM      9  C   UNL     1      -6.944 -13.228  -5.276  1.00  0.00    -0.003 C 
ATOM     10  C   UNL     1      -6.754 -13.177  -3.763  1.00  0.00     0.004 C 
ENDBRANCH   8   9
ENDBRANCH   7   8
ENDBRANCH   1   7
TORSDOF 6
ENDMDL
MODEL 6
REMARK VINA RESULT:    -5.036      1.834      2.384
REMARK INTER + INTRA:          -7.080
REMARK INTER:                  -6.560
REMARK INTRA:                  -0.519
REMARK UNBOUND:                -0.277
REMARK SMILES CCCCCCCC(=O)[O-]
REMARK SMILES IDX 5 1 6 2 7 3 8 4 9 5 10 6 4 7 3 8 2 9 1 10
REMARK H PARENT
REMARK Flexibility Score: inf
ROOT
ATOM      1  C   UNL     1      -6.829 -13.149  -3.619  1.00  0.00     0.000 C 
ENDROOT
BRANCH   1   2
ATOM      2  C   UNL     1      -6.940 -13.578  -5.087  1.00  0.00     0.006 C 
BRANCH   2   3
ATOM      3  C   UNL     1      -8.366 -13.382  -5.610  1.00  0.00     0.053 C 
BRANCH   3   4
ATOM      4  C   UNL     1      -9.001 -14.703  -5.909  1.00  0.00     0.041 C 
ATOM      5  O   UNL     1      -8.538 -15.437  -6.822  1.00  0.00    -0.550 OA
ATOM      6  O   UNL     1     -10.073 -15.148  -5.145  1.00  0.00    -0.550 OA
ENDBRANCH   3   4
ENDBRANCH   2   3
ENDBRANCH   1   2
BRANCH   1   7
ATOM      7  C   UNL     1      -6.470 -14.340  -2.722  1.00  0.00     0.000 C 
BRANCH   7   8
ATOM      8  C   UNL     1      -6.293 -15.619  -3.550  1.00  0.00    -0.000 C 
BRANCH   8   9
ATOM      9  C   UNL     1      -7.124 -16.769  -2.969  1.00  0.00    -0.003 C 
ATOM     10  C   UNL     1      -7.787 -17.582  -4.077  1.00  0.00     0.004 C 
ENDBRANCH   8   9
ENDBRANCH   7   8
ENDBRANCH   1   7
TORSDOF 6
ENDMDL
MODEL 7
REMARK VINA RESULT:    -4.981     12.024     14.184
REMARK INTER + INTRA:          -7.006
REMARK INTER:                  -6.748
REMARK INTRA:                  -0.258
REMARK UNBOUND:                -0.277
REMARK SMILES CCCCCCCC(=O)[O-]
REMARK SMILES IDX 5 1 6 2 7 3 8 4 9 5 10 6 4 7 3 8 2 9 1 10
REMARK H PARENT
REMARK Flexibility Score: inf
ROOT
ATOM      1  C   UNL     1     -11.028  -2.760  -8.649  1.00  0.00     0.000 C 
ENDROOT
BRANCH   1   2
ATOM      2  C   UNL     1     -12.125  -1.695  -8.535  1.00  0.00     0.006 C 
BRANCH   2   3
ATOM      3  C   UNL     1     -12.796  -1.451  -9.889  1.00  0.00     0.053 C 
BRANCH   3   4
ATOM      4  C   UNL     1     -14.227  -1.890  -9.852  1.00  0.00     0.041 C 
ATOM      5  O   UNL     1     -14.821  -2.199 -10.919  1.00  0.00    -0.550 OA
ATOM      6  O   UNL     1     -14.887  -2.008  -8.637  1.00  0.00    -0.550 OA
ENDBRANCH   3   4
ENDBRANCH   2   3
ENDBRANCH   1   2
BRANCH   1   7
ATOM      7  C   UNL     1      -9.856  -2.255  -9.498  1.00  0.00     0.000 C 
BRANCH   7   8
ATOM      8  C   UNL     1      -8.556  -2.980  -9.131  1.00  0.00    -0.000 C 
BRANCH   8   9
ATOM      9  C   UNL     1      -8.847  -4.281  -8.374  1.00  0.00    -0.003 C 
ATOM     10  C   UNL     1      -8.189  -5.475  -9.058  1.00  0.00     0.004 C 
ENDBRANCH   8   9
ENDBRANCH   7   8
ENDBRANCH   1   7
TORSDOF 6
ENDMDL
MODEL 8
REMARK VINA RESULT:    -4.978      1.658      2.688
REMARK INTER + INTRA:          -7.001
REMARK INTER:                  -6.549
REMARK INTRA:                  -0.452
REMARK UNBOUND:                -0.277
REMARK SMILES CCCCCCCC(=O)[O-]
REMARK SMILES IDX 5 1 6 2 7 3 8 4 9 5 10 6 4 7 3 8 2 9 1 10
REMARK H PARENT
REMARK Flexibility Score: inf
ROOT
ATOM      1  C   UNL     1      -7.017 -14.026  -5.099  1.00  0.00     0.000 C 
ENDROOT
BRANCH   1   2
ATOM      2  C   UNL     1      -8.396 -13.801  -5.732  1.00  0.00     0.006 C 
BRANCH   2   3
ATOM      3  C   UNL     1      -9.349 -14.952  -5.395  1.00  0.00     0.053 C 
BRANCH   3   4
ATOM      4  C   UNL     1      -8.898 -16.216  -6.058  1.00  0.00     0.041 C 
ATOM      5  O   UNL     1      -8.681 -16.239  -7.298  1.00  0.00    -0.550 OA
ATOM      6  O   UNL     1      -8.669 -17.356  -5.298  1.00  0.00    -0.550 OA
ENDBRANCH   3   4
ENDBRANCH   2   3
ENDBRANCH   1   2
BRANCH   1   7
ATOM      7  C   UNL     1      -6.813 -13.113  -3.885  1.00  0.00     0.000 C 
BRANCH   7   8
ATOM      8  C   UNL     1      -6.417 -13.925  -2.645  1.00  0.00    -0.000 C 
BRANCH   8   9
ATOM      9  C   UNL     1      -6.550 -15.429  -2.908  1.00  0.00    -0.003 C 
ATOM     10  C   UNL     1      -5.384 -16.200  -2.295  1.00  0.00     0.004 C 
ENDBRANCH   8   9
ENDBRANCH   7   8
ENDBRANCH   1   7
TORSDOF 6
ENDMDL
MODEL 9
REMARK VINA RESULT:    -4.931      1.990      3.842
REMARK INTER + INTRA:          -6.937
REMARK INTER:                  -6.419
REMARK INTRA:                  -0.518
REMARK UNBOUND:                -0.277
REMARK SMILES CCCCCCCC(=O)[O-]
REMARK SMILES IDX 5 1 6 2 7 3 8 4 9 5 10 6 4 7 3 8 2 9 1 10
REMARK H PARENT
REMARK Flexibility Score: inf
ROOT
ATOM      1  C   UNL     1      -6.892 -16.022  -3.140  1.00  0.00     0.000 C 
ENDROOT
BRANCH   1   2
ATOM      2  C   UNL     1      -6.134 -16.763  -4.248  1.00  0.00     0.006 C 
BRANCH   2   3
ATOM      3  C   UNL     1      -6.896 -16.695  -5.575  1.00  0.00     0.053 C 
BRANCH   3   4
ATOM      4  C   UNL     1      -8.323 -17.102  -5.380  1.00  0.00     0.041 C 
ATOM      5  O   UNL     1      -9.254 -16.312  -5.688  1.00  0.00    -0.550 OA
ATOM      6  O   UNL     1      -8.626 -18.372  -4.908  1.00  0.00    -0.550 OA
ENDBRANCH   3   4
ENDBRANCH   2   3
ENDBRANCH   1   2
BRANCH   1   7
ATOM      7  C   UNL     1      -6.110 -14.791  -2.667  1.00  0.00     0.000 C 
BRANCH   7   8
ATOM      8  C   UNL     1      -6.854 -13.497  -3.019  1.00  0.00    -0.000 C 
BRANCH   8   9
ATOM      9  C   UNL     1      -6.603 -13.098  -4.477  1.00  0.00    -0.003 C 
ATOM     10  C   UNL     1      -7.895 -13.134  -5.288  1.00  0.00     0.004 C 
ENDBRANCH   8   9
ENDBRANCH   7   8
ENDBRANCH   1   7
TORSDOF 6
ENDMDL
