MODEL 1
REMARK VINA RESULT:    -3.631      0.000      0.000
REMARK INTER + INTRA:          -5.335
REMARK INTER:                  -5.117
REMARK INTRA:                  -0.218
REMARK UNBOUND:                -0.218
REMARK SMILES CC1=CCC(=C(C)C)CCC(C)=CCC1
REMARK SMILES IDX 5 1 6 2 7 3 8 4 9 5 10 6 11 7 12 8 13 9 4 11 3 12 2 13 1 14
REMARK SMILES IDX 15 15 14 16
REMARK H PARENT
REMARK Flexibility Score: 60.00
ROOT
ATOM      1  C   UNL     1      23.490  62.780  16.140  1.00  0.00    -0.067 C 
ATOM      2  C   UNL     1      24.268  61.757  15.657  1.00  0.00    -0.077 C 
ATOM      3  C   UNL     1      24.411  61.520  14.166  1.00  0.00     0.039 C 
ATOM      4  C   UNL     1      25.030  60.823  16.575  1.00  0.00     0.039 C 
ENDROOT
BRANCH   1   5
ATOM      5  C   UNL     1      23.254  62.961  17.649  1.00  0.00     0.035 C 
BRANCH   5   6
ATOM      6  C   UNL     1      21.769  62.907  18.080  1.00  0.00     0.035 C 
BRANCH   6   7
ATOM      7  C   UNL     1      21.246  64.222  18.633  1.00  0.00    -0.077 C 
ATOM      8  C   UNL     1      22.014  64.888  19.745  1.00  0.00     0.039 C 
ATOM      9  C   UNL     1      20.137  64.843  18.166  1.00  0.00    -0.028 CG0
ATOM     10  G   UNL     1      19.319  64.422  16.967  1.00  0.00     0.000 G0
ENDBRANCH   6   7
ENDBRANCH   5   6
ENDBRANCH   1   5
BRANCH   1  11
ATOM     11  C   UNL     1      22.805  63.729  15.157  1.00  0.00     0.058 C 
BRANCH  11  12
ATOM     12  C   UNL     1      21.540  63.169  14.551  1.00  0.00    -0.024 C 
ATOM     13  C   UNL     1      20.289  63.647  14.739  1.00  0.00    -0.077 C 
ATOM     14  C   UNL     1      19.160  62.975  13.999  1.00  0.00     0.039 C 
BRANCH  13  15
ATOM     15  C   UNL     1      19.960  64.841  15.618  1.00  0.00     0.034 C 
BRANCH  15  16
ATOM     16  C   UNL     1      19.318  64.435  16.956  1.00  0.00     0.032 CG0
ATOM     17  G   UNL     1      20.137  64.839  18.160  1.00  0.00     0.000 G0
ENDBRANCH  15  16
ENDBRANCH  13  15
ENDBRANCH  11  12
ENDBRANCH   1  11
TORSDOF 0
ENDMDL
MODEL 2
REMARK VINA RESULT:    -3.374      1.797      4.269
REMARK INTER + INTRA:          -4.974
REMARK INTER:                  -4.886
REMARK INTRA:                  -0.087
REMARK UNBOUND:                -0.218
REMARK SMILES CC1=CCC(=C(C)C)CCC(C)=CCC1
REMARK SMILES IDX 5 1 6 2 7 3 8 4 9 5 10 6 11 7 12 8 13 9 4 11 3 12 2 13 1 14
REMARK SMILES IDX 15 15 14 16
REMARK H PARENT
REMARK Flexibility Score: 60.00
ROOT
ATOM      1  C   UNL     1      21.766  63.135  18.471  1.00  0.00    -0.067 C 
ATOM      2  C   UNL     1      22.094  63.830  19.609  1.00  0.00    -0.077 C 
ATOM      3  C   UNL     1      21.046  64.610  20.380  1.00  0.00     0.039 C 
ATOM      4  C   UNL     1      23.505  63.851  20.160  1.00  0.00     0.039 C 
ENDROOT
BRANCH   1   5
ATOM      5  C   UNL     1      22.840  62.432  17.625  1.00  0.00     0.035 C 
BRANCH   5   6
ATOM      6  C   UNL     1      23.419  63.291  16.475  1.00  0.00     0.035 C 
BRANCH   6   7
ATOM      7  C   UNL     1      23.634  62.517  15.185  1.00  0.00    -0.077 C 
ATOM      8  C   UNL     1      24.729  61.483  15.144  1.00  0.00     0.039 C 
ATOM      9  C   UNL     1      22.880  62.689  14.074  1.00  0.00    -0.028 CG0
ATOM     10  G   UNL     1      21.649  63.559  13.959  1.00  0.00     0.000 G0
ENDBRANCH   6   7
ENDBRANCH   5   6
ENDBRANCH   1   5
BRANCH   1  11
ATOM     11  C   UNL     1      20.309  63.099  18.009  1.00  0.00     0.058 C 
BRANCH  11  12
ATOM     12  C   UNL     1      19.923  64.257  17.119  1.00  0.00    -0.024 C 
ATOM     13  C   UNL     1      20.002  64.282  15.769  1.00  0.00    -0.077 C 
ATOM     14  C   UNL     1      19.517  65.520  15.059  1.00  0.00     0.039 C 
BRANCH  13  15
ATOM     15  C   UNL     1      20.512  63.125  14.928  1.00  0.00     0.034 C 
BRANCH  15  16
ATOM     16  C   UNL     1      21.633  63.543  13.960  1.00  0.00     0.032 CG0
ATOM     17  G   UNL     1      22.872  62.685  14.071  1.00  0.00     0.000 G0
ENDBRANCH  15  16
ENDBRANCH  13  15
ENDBRANCH  11  12
ENDBRANCH   1  11
TORSDOF 0
ENDMDL
MODEL 3
REMARK VINA RESULT:    -3.141      2.246      5.135
REMARK INTER + INTRA:          -4.645
REMARK INTER:                  -4.343
REMARK INTRA:                  -0.302
REMARK UNBOUND:                -0.218
REMARK SMILES CC1=CCC(=C(C)C)CCC(C)=CCC1
REMARK SMILES IDX 5 1 6 2 7 3 8 4 9 5 10 6 11 7 12 8 13 9 4 11 3 12 2 13 1 14
REMARK SMILES IDX 15 15 14 16
REMARK H PARENT
REMARK Flexibility Score: 60.00
ROOT
ATOM      1  C   UNL     1      17.564  65.816  16.569  1.00  0.00    -0.067 C 
ATOM      2  C   UNL     1      16.239  65.678  16.901  1.00  0.00    -0.077 C 
ATOM      3  C   UNL     1      15.174  65.540  15.830  1.00  0.00     0.039 C 
ATOM      4  C   UNL     1      15.770  65.645  18.341  1.00  0.00     0.039 C 
ENDROOT
BRANCH   1   5
ATOM      5  C   UNL     1      18.636  66.064  17.642  1.00  0.00     0.035 C 
BRANCH   5   6
ATOM      6  C   UNL     1      19.489  64.824  18.000  1.00  0.00     0.035 C 
BRANCH   6   7
ATOM      7  C   UNL     1      20.981  65.106  18.056  1.00  0.00    -0.077 C 
ATOM      8  C   UNL     1      21.525  65.857  19.244  1.00  0.00     0.039 C 
ATOM      9  C   UNL     1      21.857  64.698  17.107  1.00  0.00    -0.028 CG0
ATOM     10  G   UNL     1      21.541  63.811  15.925  1.00  0.00     0.000 G0
ENDBRANCH   6   7
ENDBRANCH   5   6
ENDBRANCH   1   5
BRANCH   1  11
ATOM     11  C   UNL     1      17.976  65.771  15.097  1.00  0.00     0.058 C 
BRANCH  11  12
ATOM     12  C   UNL     1      18.251  64.377  14.584  1.00  0.00    -0.024 C 
ATOM     13  C   UNL     1      19.470  63.807  14.446  1.00  0.00    -0.077 C 
ATOM     14  C   UNL     1      19.527  62.380  13.963  1.00  0.00     0.039 C 
BRANCH  13  15
ATOM     15  C   UNL     1      20.775  64.504  14.785  1.00  0.00     0.034 C 
BRANCH  15  16
ATOM     16  C   UNL     1      21.549  63.800  15.913  1.00  0.00     0.032 CG0
ATOM     17  G   UNL     1      21.851  64.703  17.087  1.00  0.00     0.000 G0
ENDBRANCH  15  16
ENDBRANCH  13  15
ENDBRANCH  11  12
ENDBRANCH   1  11
TORSDOF 0
ENDMDL
MODEL 4
REMARK VINA RESULT:    -3.073      2.323      5.842
REMARK INTER + INTRA:          -4.549
REMARK INTER:                  -4.405
REMARK INTRA:                  -0.143
REMARK UNBOUND:                -0.218
REMARK SMILES CC1=CCC(=C(C)C)CCC(C)=CCC1
REMARK SMILES IDX 5 1 6 2 7 3 8 4 9 5 10 6 11 7 12 8 13 9 4 11 3 12 2 13 1 14
REMARK SMILES IDX 15 15 14 16
REMARK H PARENT
REMARK Flexibility Score: 60.00
ROOT
ATOM      1  C   UNL     1      18.082  65.529  15.988  1.00  0.00    -0.067 C 
ATOM      2  C   UNL     1      16.761  65.175  16.106  1.00  0.00    -0.077 C 
ATOM      3  C   UNL     1      16.121  64.987  17.468  1.00  0.00     0.039 C 
ATOM      4  C   UNL     1      15.873  64.965  14.897  1.00  0.00     0.039 C 
ENDROOT
BRANCH   1   5
ATOM      5  C   UNL     1      18.767  65.617  14.613  1.00  0.00     0.035 C 
BRANCH   5   6
ATOM      6  C   UNL     1      19.589  64.366  14.221  1.00  0.00     0.035 C 
BRANCH   6   7
ATOM      7  C   UNL     1      20.944  64.693  13.615  1.00  0.00    -0.077 C 
ATOM      8  C   UNL     1      20.982  65.386  12.278  1.00  0.00     0.039 C 
ATOM      9  C   UNL     1      22.122  64.416  14.222  1.00  0.00    -0.028 CG0
ATOM     10  G   UNL     1      22.298  63.867  15.619  1.00  0.00     0.000 G0
ENDBRANCH   6   7
ENDBRANCH   5   6
ENDBRANCH   1   5
BRANCH   1  11
ATOM     11  C   UNL     1      18.903  65.795  17.250  1.00  0.00     0.058 C 
BRANCH  11  12
ATOM     12  C   UNL     1      19.517  64.552  17.850  1.00  0.00    -0.024 C 
ATOM     13  C   UNL     1      20.774  64.101  17.633  1.00  0.00    -0.077 C 
ATOM     14  C   UNL     1      21.213  62.863  18.372  1.00  0.00     0.039 C 
BRANCH  13  15
ATOM     15  C   UNL     1      21.776  64.789  16.723  1.00  0.00     0.034 C 
BRANCH  15  16
ATOM     16  C   UNL     1      22.310  63.861  15.619  1.00  0.00     0.032 CG0
ATOM     17  G   UNL     1      22.129  64.421  14.226  1.00  0.00     0.000 G0
ENDBRANCH  15  16
ENDBRANCH  13  15
ENDBRANCH  11  12
ENDBRANCH   1  11
TORSDOF 0
ENDMDL
MODEL 5
REMARK VINA RESULT:    -3.057      1.784      4.629
REMARK INTER + INTRA:          -4.527
REMARK INTER:                  -4.536
REMARK INTRA:                   0.009
REMARK UNBOUND:                -0.218
REMARK SMILES CC1=CCC(=C(C)C)CCC(C)=CCC1
REMARK SMILES IDX 5 1 6 2 7 3 8 4 9 5 10 6 11 7 12 8 13 9 4 11 3 12 2 13 1 14
REMARK SMILES IDX 15 15 14 16
REMARK H PARENT
REMARK Flexibility Score: 60.00
ROOT
ATOM      1  C   UNL     1      20.717  64.170  15.596  1.00  0.00    -0.067 C 
ATOM      2  C   UNL     1      20.308  63.853  14.324  1.00  0.00    -0.077 C 
ATOM      3  C   UNL     1      19.395  62.669  14.068  1.00  0.00     0.039 C 
ATOM      4  C   UNL     1      20.733  64.663  13.117  1.00  0.00     0.039 C 
ENDROOT
BRANCH   1   5
ATOM      5  C   UNL     1      21.727  65.301  15.853  1.00  0.00     0.035 C 
BRANCH   5   6
ATOM      6  C   UNL     1      23.198  64.935  15.542  1.00  0.00     0.035 C 
BRANCH   6   7
ATOM      7  C   UNL     1      23.495  63.450  15.666  1.00  0.00    -0.077 C 
ATOM      8  C   UNL     1      23.766  62.665  14.408  1.00  0.00     0.039 C 
ATOM      9  C   UNL     1      23.554  62.794  16.849  1.00  0.00    -0.028 CG0
ATOM     10  G   UNL     1      23.464  63.421  18.221  1.00  0.00     0.000 G0
ENDBRANCH   6   7
ENDBRANCH   5   6
ENDBRANCH   1   5
BRANCH   1  11
ATOM     11  C   UNL     1      20.194  63.352  16.777  1.00  0.00     0.058 C 
BRANCH  11  12
ATOM     12  C   UNL     1      20.220  64.096  18.091  1.00  0.00    -0.024 C 
ATOM     13  C   UNL     1      21.115  63.916  19.089  1.00  0.00    -0.077 C 
ATOM     14  C   UNL     1      20.999  64.799  20.305  1.00  0.00     0.039 C 
BRANCH  13  15
ATOM     15  C   UNL     1      22.250  62.909  19.039  1.00  0.00     0.034 C 
BRANCH  15  16
ATOM     16  C   UNL     1      23.457  63.413  18.228  1.00  0.00     0.032 CG0
ATOM     17  G   UNL     1      23.553  62.798  16.851  1.00  0.00     0.000 G0
ENDBRANCH  15  16
ENDBRANCH  13  15
ENDBRANCH  11  12
ENDBRANCH   1  11
TORSDOF 0
ENDMDL
MODEL 6
REMARK VINA RESULT:    -2.992      1.769      4.542
REMARK INTER + INTRA:          -4.435
REMARK INTER:                  -4.133
REMARK INTRA:                  -0.302
REMARK UNBOUND:                -0.218
REMARK SMILES CC1=CCC(=C(C)C)CCC(C)=CCC1
REMARK SMILES IDX 5 1 6 2 7 3 8 4 9 5 10 6 11 7 12 8 13 9 4 11 3 12 2 13 1 14
REMARK SMILES IDX 15 15 14 16
REMARK H PARENT
REMARK Flexibility Score: 60.00
ROOT
ATOM      1  C   UNL     1      20.890  63.899  18.546  1.00  0.00    -0.067 C 
ATOM      2  C   UNL     1      21.285  64.241  19.816  1.00  0.00    -0.077 C 
ATOM      3  C   UNL     1      22.415  63.504  20.509  1.00  0.00     0.039 C 
ATOM      4  C   UNL     1      20.629  65.369  20.586  1.00  0.00     0.039 C 
ENDROOT
BRANCH   1   5
ATOM      5  C   UNL     1      19.677  64.568  17.878  1.00  0.00     0.035 C 
BRANCH   5   6
ATOM      6  C   UNL     1      20.001  65.340  16.578  1.00  0.00     0.035 C 
BRANCH   6   7
ATOM      7  C   UNL     1      19.259  64.819  15.358  1.00  0.00    -0.077 C 
ATOM      8  C   UNL     1      17.758  64.944  15.324  1.00  0.00     0.039 C 
ATOM      9  C   UNL     1      19.876  64.268  14.286  1.00  0.00    -0.028 CG0
ATOM     10  G   UNL     1      21.368  64.189  14.059  1.00  0.00     0.000 G0
ENDBRANCH   6   7
ENDBRANCH   5   6
ENDBRANCH   1   5
BRANCH   1  11
ATOM     11  C   UNL     1      21.642  62.797  17.799  1.00  0.00     0.058 C 
BRANCH  11  12
ATOM     12  C   UNL     1      22.890  63.279  17.098  1.00  0.00    -0.024 C 
ATOM     13  C   UNL     1      23.067  63.363  15.759  1.00  0.00    -0.077 C 
ATOM     14  C   UNL     1      24.375  63.921  15.258  1.00  0.00     0.039 C 
BRANCH  13  15
ATOM     15  C   UNL     1      22.016  62.966  14.738  1.00  0.00     0.034 C 
BRANCH  15  16
ATOM     16  C   UNL     1      21.367  64.180  14.051  1.00  0.00     0.032 CG0
ATOM     17  G   UNL     1      19.876  64.271  14.280  1.00  0.00     0.000 G0
ENDBRANCH  15  16
ENDBRANCH  13  15
ENDBRANCH  11  12
ENDBRANCH   1  11
TORSDOF 0
ENDMDL
MODEL 7
REMARK VINA RESULT:    -2.981      1.633      3.921
REMARK INTER + INTRA:          -4.420
REMARK INTER:                  -4.429
REMARK INTRA:                   0.009
REMARK UNBOUND:                -0.218
REMARK SMILES CC1=CCC(=C(C)C)CCC(C)=CCC1
REMARK SMILES IDX 5 1 6 2 7 3 8 4 9 5 10 6 11 7 12 8 13 9 4 11 3 12 2 13 1 14
REMARK SMILES IDX 15 15 14 16
REMARK H PARENT
REMARK Flexibility Score: 60.00
ROOT
ATOM      1  C   UNL     1      21.154  63.853  15.840  1.00  0.00    -0.067 C 
ATOM      2  C   UNL     1      20.897  63.368  14.582  1.00  0.00    -0.077 C 
ATOM      3  C   UNL     1      22.011  63.203  13.565  1.00  0.00     0.039 C 
ATOM      4  C   UNL     1      19.504  62.965  14.143  1.00  0.00     0.039 C 
ENDROOT
BRANCH   1   5
ATOM      5  C   UNL     1      20.017  64.126  16.840  1.00  0.00     0.035 C 
BRANCH   5   6
ATOM      6  C   UNL     1      20.274  63.593  18.269  1.00  0.00     0.035 C 
BRANCH   6   7
ATOM      7  C   UNL     1      20.883  64.624  19.205  1.00  0.00    -0.077 C 
ATOM      8  C   UNL     1      20.071  65.845  19.552  1.00  0.00     0.039 C 
ATOM      9  C   UNL     1      22.109  64.495  19.764  1.00  0.00    -0.028 CG0
ATOM     10  G   UNL     1      23.012  63.287  19.666  1.00  0.00     0.000 G0
ENDBRANCH   6   7
ENDBRANCH   5   6
ENDBRANCH   1   5
BRANCH   1  11
ATOM     11  C   UNL     1      22.594  64.175  16.241  1.00  0.00     0.058 C 
BRANCH  11  12
ATOM     12  C   UNL     1      23.467  62.953  16.409  1.00  0.00    -0.024 C 
ATOM     13  C   UNL     1      24.192  62.639  17.507  1.00  0.00    -0.077 C 
ATOM     14  C   UNL     1      24.960  61.342  17.495  1.00  0.00     0.039 C 
BRANCH  13  15
ATOM     15  C   UNL     1      24.245  63.494  18.761  1.00  0.00     0.034 C 
BRANCH  15  16
ATOM     16  C   UNL     1      23.030  63.280  19.678  1.00  0.00     0.032 CG0
ATOM     17  G   UNL     1      22.120  64.485  19.759  1.00  0.00     0.000 G0
ENDBRANCH  15  16
ENDBRANCH  13  15
ENDBRANCH  11  12
ENDBRANCH   1  11
TORSDOF 0
ENDMDL
MODEL 8
REMARK VINA RESULT:    -2.864      1.779      4.107
REMARK INTER + INTRA:          -4.255
REMARK INTER:                  -3.973
REMARK INTRA:                  -0.282
REMARK UNBOUND:                -0.218
REMARK SMILES CC1=CCC(=C(C)C)CCC(C)=CCC1
REMARK SMILES IDX 5 1 6 2 7 3 8 4 9 5 10 6 11 7 12 8 13 9 4 11 3 12 2 13 1 14
REMARK SMILES IDX 15 15 14 16
REMARK H PARENT
REMARK Flexibility Score: 60.00
ROOT
ATOM      1  C   UNL     1      20.939  64.355  15.558  1.00  0.00    -0.067 C 
ATOM      2  C   UNL     1      20.038  64.230  14.529  1.00  0.00    -0.077 C 
ATOM      3  C   UNL     1      20.478  64.364  13.084  1.00  0.00     0.039 C 
ATOM      4  C   UNL     1      18.571  63.943  14.776  1.00  0.00     0.039 C 
ENDROOT
BRANCH   1   5
ATOM      5  C   UNL     1      20.485  64.327  17.027  1.00  0.00     0.035 C 
BRANCH   5   6
ATOM      6  C   UNL     1      21.015  63.125  17.843  1.00  0.00     0.035 C 
BRANCH   6   7
ATOM      7  C   UNL     1      21.992  63.515  18.940  1.00  0.00    -0.077 C 
ATOM      8  C   UNL     1      21.467  64.279  20.128  1.00  0.00     0.039 C 
ATOM      9  C   UNL     1      23.307  63.193  18.922  1.00  0.00    -0.028 CG0
ATOM     10  G   UNL     1      23.994  62.309  17.906  1.00  0.00     0.000 G0
ENDBRANCH   6   7
ENDBRANCH   5   6
ENDBRANCH   1   5
BRANCH   1  11
ATOM     11  C   UNL     1      22.418  64.574  15.237  1.00  0.00     0.058 C 
BRANCH  11  12
ATOM     12  C   UNL     1      23.125  63.332  14.747  1.00  0.00    -0.024 C 
ATOM     13  C   UNL     1      24.101  62.663  15.403  1.00  0.00    -0.077 C 
ATOM     14  C   UNL     1      24.645  61.410  14.765  1.00  0.00     0.039 C 
BRANCH  13  15
ATOM     15  C   UNL     1      24.651  63.076  16.756  1.00  0.00     0.034 C 
BRANCH  15  16
ATOM     16  C   UNL     1      24.006  62.306  17.921  1.00  0.00     0.032 CG0
ATOM     17  G   UNL     1      23.303  63.201  18.915  1.00  0.00     0.000 G0
ENDBRANCH  15  16
ENDBRANCH  13  15
ENDBRANCH  11  12
ENDBRANCH   1  11
TORSDOF 0
ENDMDL
MODEL 9
REMARK VINA RESULT:    -2.804      2.102      4.706
REMARK INTER + INTRA:          -4.170
REMARK INTER:                  -4.053
REMARK INTRA:                  -0.117
REMARK UNBOUND:                -0.218
REMARK SMILES CC1=CCC(=C(C)C)CCC(C)=CCC1
REMARK SMILES IDX 5 1 6 2 7 3 8 4 9 5 10 6 11 7 12 8 13 9 4 11 3 12 2 13 1 14
REMARK SMILES IDX 15 15 14 16
REMARK H PARENT
REMARK Flexibility Score: 60.00
ROOT
ATOM      1  C   UNL     1      18.774  64.609  16.439  1.00  0.00    -0.067 C 
ATOM      2  C   UNL     1      17.505  65.112  16.293  1.00  0.00    -0.077 C 
ATOM      3  C   UNL     1      16.714  64.883  15.019  1.00  0.00     0.039 C 
ATOM      4  C   UNL     1      16.824  65.906  17.389  1.00  0.00     0.039 C 
ENDROOT
BRANCH   1   5
ATOM      5  C   UNL     1      19.623  64.927  17.682  1.00  0.00     0.035 C 
BRANCH   5   6
ATOM      6  C   UNL     1      21.100  65.276  17.381  1.00  0.00     0.035 C 
BRANCH   6   7
ATOM      7  C   UNL     1      22.044  64.092  17.506  1.00  0.00    -0.077 C 
ATOM      8  C   UNL     1      21.973  63.246  18.751  1.00  0.00     0.039 C 
ATOM      9  C   UNL     1      22.933  63.739  16.547  1.00  0.00    -0.028 CG0
ATOM     10  G   UNL     1      23.055  64.359  15.174  1.00  0.00     0.000 G0
ENDBRANCH   6   7
ENDBRANCH   5   6
ENDBRANCH   1   5
BRANCH   1  11
ATOM     11  C   UNL     1      19.375  63.756  15.322  1.00  0.00     0.058 C 
BRANCH  11  12
ATOM     12  C   UNL     1      19.843  64.556  14.129  1.00  0.00    -0.024 C 
ATOM     13  C   UNL     1      21.078  64.514  13.578  1.00  0.00    -0.077 C 
ATOM     14  C   UNL     1      21.330  65.355  12.353  1.00  0.00     0.039 C 
BRANCH  13  15
ATOM     15  C   UNL     1      22.208  63.643  14.096  1.00  0.00     0.034 C 
BRANCH  15  16
ATOM     16  C   UNL     1      23.060  64.349  15.165  1.00  0.00     0.032 CG0
ATOM     17  G   UNL     1      22.923  63.737  16.541  1.00  0.00     0.000 G0
ENDBRANCH  15  16
ENDBRANCH  13  15
ENDBRANCH  11  12
ENDBRANCH   1  11
TORSDOF 0
ENDMDL
