MODEL 1
REMARK VINA RESULT:    -3.574      0.000      0.000
REMARK INTER + INTRA:          -4.238
REMARK INTER:                  -4.201
REMARK INTRA:                  -0.037
REMARK UNBOUND:                -0.037
REMARK SMILES CCCCC(=O)[O-]
REMARK SMILES IDX 4 1 5 2 6 3 7 4 3 5 2 6 1 7
REMARK H PARENT
REMARK Flexibility Score: inf
ROOT
ATOM      1  C   UNL     1     -12.700  11.760   9.770  1.00  0.00     0.053 C 
ENDROOT
BRANCH   1   2
ATOM      2  C   UNL     1     -12.931  10.284   9.699  1.00  0.00     0.041 C 
ATOM      3  O   UNL     1     -12.016   9.519   9.294  1.00  0.00    -0.550 OA
ATOM      4  O   UNL     1     -14.138   9.747  10.125  1.00  0.00    -0.550 OA
ENDBRANCH   1   2
BRANCH   1   5
ATOM      5  C   UNL     1     -11.234  12.057  10.111  1.00  0.00     0.006 C 
BRANCH   5   6
ATOM      6  C   UNL     1     -10.870  13.537   9.912  1.00  0.00    -0.003 C 
ATOM      7  C   UNL     1     -12.063  14.384   9.470  1.00  0.00     0.004 C 
ENDBRANCH   5   6
ENDBRANCH   1   5
TORSDOF 3
ENDMDL
MODEL 2
REMARK VINA RESULT:    -3.516     14.513     15.184
REMARK INTER + INTRA:          -4.170
REMARK INTER:                  -4.067
REMARK INTRA:                  -0.103
REMARK UNBOUND:                -0.037
REMARK SMILES CCCCC(=O)[O-]
REMARK SMILES IDX 4 1 5 2 6 3 7 4 3 5 2 6 1 7
REMARK H PARENT
REMARK Flexibility Score: inf
ROOT
ATOM      1  C   UNL     1     -17.063  -0.537   1.419  1.00  0.00     0.053 C 
ENDROOT
BRANCH   1   2
ATOM      2  C   UNL     1     -16.067  -0.522   2.534  1.00  0.00     0.041 C 
ATOM      3  O   UNL     1     -16.443  -0.698   3.723  1.00  0.00    -0.550 OA
ATOM      4  O   UNL     1     -14.715  -0.363   2.258  1.00  0.00    -0.550 OA
ENDBRANCH   1   2
BRANCH   1   5
ATOM      5  C   UNL     1     -16.351  -0.663   0.066  1.00  0.00     0.006 C 
BRANCH   5   6
ATOM      6  C   UNL     1     -16.627   0.533  -0.859  1.00  0.00    -0.003 C 
ATOM      7  C   UNL     1     -16.009   1.833  -0.345  1.00  0.00     0.004 C 
ENDBRANCH   5   6
ENDBRANCH   1   5
TORSDOF 3
ENDMDL
MODEL 3
REMARK VINA RESULT:    -3.457      1.524      2.061
REMARK INTER + INTRA:          -4.100
REMARK INTER:                  -4.055
REMARK INTRA:                  -0.045
REMARK UNBOUND:                -0.037
REMARK SMILES CCCCC(=O)[O-]
REMARK SMILES IDX 4 1 5 2 6 3 7 4 3 5 2 6 1 7
REMARK H PARENT
REMARK Flexibility Score: inf
ROOT
ATOM      1  C   UNL     1     -10.914  11.748  10.125  1.00  0.00     0.053 C 
ENDROOT
BRANCH   1   2
ATOM      2  C   UNL     1     -12.120  11.155   9.469  1.00  0.00     0.041 C 
ATOM      3  O   UNL     1     -12.240   9.904   9.375  1.00  0.00    -0.550 OA
ATOM      4  O   UNL     1     -13.135  11.979   9.003  1.00  0.00    -0.550 OA
ENDBRANCH   1   2
BRANCH   1   5
ATOM      5  C   UNL     1     -10.991  13.280  10.102  1.00  0.00     0.006 C 
BRANCH   5   6
ATOM      6  C   UNL     1      -9.604  13.940  10.106  1.00  0.00    -0.003 C 
ATOM      7  C   UNL     1      -8.538  13.081   9.427  1.00  0.00     0.004 C 
ENDBRANCH   5   6
ENDBRANCH   1   5
TORSDOF 3
ENDMDL
MODEL 4
REMARK VINA RESULT:    -3.284     14.925     15.809
REMARK INTER + INTRA:          -3.897
REMARK INTER:                  -3.867
REMARK INTRA:                  -0.030
REMARK UNBOUND:                -0.037
REMARK SMILES CCCCC(=O)[O-]
REMARK SMILES IDX 4 1 5 2 6 3 7 4 3 5 2 6 1 7
REMARK H PARENT
REMARK Flexibility Score: inf
ROOT
ATOM      1  C   UNL     1       2.262   9.586   4.342  1.00  0.00     0.053 C 
ENDROOT
BRANCH   1   2
ATOM      2  C   UNL     1       1.235   8.891   3.505  1.00  0.00     0.041 C 
ATOM      3  O   UNL     1       0.036   8.838   3.887  1.00  0.00    -0.550 OA
ATOM      4  O   UNL     1       1.591   8.344   2.279  1.00  0.00    -0.550 OA
ENDBRANCH   1   2
BRANCH   1   5
ATOM      5  C   UNL     1       3.125   8.562   5.091  1.00  0.00     0.006 C 
BRANCH   5   6
ATOM      6  C   UNL     1       2.316   7.741   6.107  1.00  0.00    -0.003 C 
ATOM      7  C   UNL     1       2.967   6.397   6.433  1.00  0.00     0.004 C 
ENDBRANCH   5   6
ENDBRANCH   1   5
TORSDOF 3
ENDMDL
MODEL 5
REMARK VINA RESULT:    -3.064     20.101     21.136
REMARK INTER + INTRA:          -3.638
REMARK INTER:                  -3.603
REMARK INTRA:                  -0.035
REMARK UNBOUND:                -0.037
REMARK SMILES CCCCC(=O)[O-]
REMARK SMILES IDX 4 1 5 2 6 3 7 4 3 5 2 6 1 7
REMARK H PARENT
REMARK Flexibility Score: inf
ROOT
ATOM      1  C   UNL     1     -12.974  -4.765  -3.120  1.00  0.00     0.053 C 
ENDROOT
BRANCH   1   2
ATOM      2  C   UNL     1     -13.783  -4.703  -1.863  1.00  0.00     0.041 C 
ATOM      3  O   UNL     1     -13.288  -5.089  -0.771  1.00  0.00    -0.550 OA
ATOM      4  O   UNL     1     -15.067  -4.176  -1.887  1.00  0.00    -0.550 OA
ENDBRANCH   1   2
BRANCH   1   5
ATOM      5  C   UNL     1     -13.686  -4.015  -4.253  1.00  0.00     0.006 C 
BRANCH   5   6
ATOM      6  C   UNL     1     -13.623  -4.769  -5.590  1.00  0.00    -0.003 C 
ATOM      7  C   UNL     1     -12.195  -5.125  -6.001  1.00  0.00     0.004 C 
ENDBRANCH   5   6
ENDBRANCH   1   5
TORSDOF 3
ENDMDL
MODEL 6
REMARK VINA RESULT:    -3.042     20.653     21.527
REMARK INTER + INTRA:          -3.612
REMARK INTER:                  -3.576
REMARK INTRA:                  -0.036
REMARK UNBOUND:                -0.037
REMARK SMILES CCCCC(=O)[O-]
REMARK SMILES IDX 4 1 5 2 6 3 7 4 3 5 2 6 1 7
REMARK H PARENT
REMARK Flexibility Score: inf
ROOT
ATOM      1  C   UNL     1     -12.963  -4.793  -3.861  1.00  0.00     0.053 C 
ENDROOT
BRANCH   1   2
ATOM      2  C   UNL     1     -13.064  -4.740  -5.352  1.00  0.00     0.041 C 
ATOM      3  O   UNL     1     -14.117  -4.321  -5.901  1.00  0.00    -0.550 OA
ATOM      4  O   UNL     1     -11.979  -5.109  -6.137  1.00  0.00    -0.550 OA
ENDBRANCH   1   2
BRANCH   1   5
ATOM      5  C   UNL     1     -14.268  -4.304  -3.219  1.00  0.00     0.006 C 
BRANCH   5   6
ATOM      6  C   UNL     1     -14.228  -4.366  -1.684  1.00  0.00    -0.003 C 
ATOM      7  C   UNL     1     -13.012  -5.125  -1.154  1.00  0.00     0.004 C 
ENDBRANCH   5   6
ENDBRANCH   1   5
TORSDOF 3
ENDMDL
MODEL 7
REMARK VINA RESULT:    -3.017     20.451     21.423
REMARK INTER + INTRA:          -3.583
REMARK INTER:                  -3.545
REMARK INTRA:                  -0.039
REMARK UNBOUND:                -0.037
REMARK SMILES CCCCC(=O)[O-]
REMARK SMILES IDX 4 1 5 2 6 3 7 4 3 5 2 6 1 7
REMARK H PARENT
REMARK Flexibility Score: inf
ROOT
ATOM      1  C   UNL     1     -14.257  -3.736  -4.168  1.00  0.00     0.053 C 
ENDROOT
BRANCH   1   2
ATOM      2  C   UNL     1     -14.615  -3.679  -5.619  1.00  0.00     0.041 C 
ATOM      3  O   UNL     1     -14.368  -4.659  -6.372  1.00  0.00    -0.550 OA
ATOM      4  O   UNL     1     -15.265  -2.565  -6.132  1.00  0.00    -0.550 OA
ENDBRANCH   1   2
BRANCH   1   5
ATOM      5  C   UNL     1     -13.185  -4.807  -3.923  1.00  0.00     0.006 C 
BRANCH   5   6
ATOM      6  C   UNL     1     -13.000  -5.125  -2.431  1.00  0.00    -0.003 C 
ATOM      7  C   UNL     1     -14.109  -4.536  -1.559  1.00  0.00     0.004 C 
ENDBRANCH   5   6
ENDBRANCH   1   5
TORSDOF 3
ENDMDL
MODEL 8
REMARK VINA RESULT:    -3.013     15.254     16.059
REMARK INTER + INTRA:          -3.579
REMARK INTER:                  -3.528
REMARK INTRA:                  -0.051
REMARK UNBOUND:                -0.037
REMARK SMILES CCCCC(=O)[O-]
REMARK SMILES IDX 4 1 5 2 6 3 7 4 3 5 2 6 1 7
REMARK H PARENT
REMARK Flexibility Score: inf
ROOT
ATOM      1  C   UNL     1       1.989   8.780   2.963  1.00  0.00     0.053 C 
ENDROOT
BRANCH   1   2
ATOM      2  C   UNL     1       1.897   8.472   4.424  1.00  0.00     0.041 C 
ATOM      3  O   UNL     1       0.776   8.453   4.998  1.00  0.00    -0.550 OA
ATOM      4  O   UNL     1       3.043   8.157   5.142  1.00  0.00    -0.550 OA
ENDBRANCH   1   2
BRANCH   1   5
ATOM      5  C   UNL     1       3.073   9.835   2.705  1.00  0.00     0.006 C 
BRANCH   5   6
ATOM      6  C   UNL     1       2.824  11.138   3.482  1.00  0.00    -0.003 C 
ATOM      7  C   UNL     1       3.020  12.385   2.621  1.00  0.00     0.004 C 
ENDBRANCH   5   6
ENDBRANCH   1   5
TORSDOF 3
ENDMDL
MODEL 9
REMARK VINA RESULT:    -3.011     20.569     21.817
REMARK INTER + INTRA:          -3.576
REMARK INTER:                  -3.468
REMARK INTRA:                  -0.108
REMARK UNBOUND:                -0.037
REMARK SMILES CCCCC(=O)[O-]
REMARK SMILES IDX 4 1 5 2 6 3 7 4 3 5 2 6 1 7
REMARK H PARENT
REMARK Flexibility Score: inf
ROOT
ATOM      1  C   UNL     1     -14.312  -4.632  -5.790  1.00  0.00     0.053 C 
ENDROOT
BRANCH   1   2
ATOM      2  C   UNL     1     -15.106  -3.416  -6.147  1.00  0.00     0.041 C 
ATOM      3  O   UNL     1     -15.201  -2.460  -5.333  1.00  0.00    -0.550 OA
ATOM      4  O   UNL     1     -15.701  -3.315  -7.397  1.00  0.00    -0.550 OA
ENDBRANCH   1   2
BRANCH   1   5
ATOM      5  C   UNL     1     -13.151  -4.259  -4.858  1.00  0.00     0.006 C 
BRANCH   5   6
ATOM      6  C   UNL     1     -13.164  -5.065  -3.550  1.00  0.00    -0.003 C 
ATOM      7  C   UNL     1     -14.046  -4.432  -2.474  1.00  0.00     0.004 C 
ENDBRANCH   5   6
ENDBRANCH   1   5
TORSDOF 3
ENDMDL
