MODEL 1
REMARK VINA RESULT:    -4.038      0.000      0.000
REMARK INTER + INTRA:          -8.241
REMARK INTER:                  -6.871
REMARK INTRA:                  -1.370
REMARK UNBOUND:                -1.370
REMARK SMILES CCCCCCCCCCCCCC(=O)[O-]
REMARK SMILES IDX 8 1 9 2 10 3 11 4 12 5 13 6 14 7 15 8 16 9 7 10 6 11 5 12
REMARK SMILES IDX 4 13 3 14 2 15 1 16
REMARK H PARENT
REMARK Flexibility Score: inf
ROOT
ATOM      1  C   UNL     1      12.285  26.594  33.897  1.00  0.00     0.000 C 
ENDROOT
BRANCH   1   2
ATOM      2  C   UNL     1      12.829  25.242  33.394  1.00  0.00     0.000 C 
BRANCH   2   3
ATOM      3  C   UNL     1      14.190  24.827  33.982  1.00  0.00     0.000 C 
BRANCH   3   4
ATOM      4  C   UNL     1      15.047  24.020  32.991  1.00  0.00     0.000 C 
BRANCH   4   5
ATOM      5  C   UNL     1      16.274  23.379  33.659  1.00  0.00     0.006 C 
BRANCH   5   6
ATOM      6  C   UNL     1      16.436  21.896  33.300  1.00  0.00     0.053 C 
BRANCH   6   7
ATOM      7  C   UNL     1      15.852  21.033  34.374  1.00  0.00     0.041 C 
ATOM      8  O   UNL     1      15.732  19.792  34.194  1.00  0.00    -0.550 OA
ATOM      9  O   UNL     1      15.488  21.591  35.592  1.00  0.00    -0.550 OA
ENDBRANCH   6   7
ENDBRANCH   5   6
ENDBRANCH   4   5
ENDBRANCH   3   4
ENDBRANCH   2   3
ENDBRANCH   1   2
BRANCH   1  10
ATOM     10  C   UNL     1      12.669  26.957  35.346  1.00  0.00     0.000 C 
BRANCH  10  11
ATOM     11  C   UNL     1      13.344  28.330  35.514  1.00  0.00    -0.000 C 
BRANCH  11  12
ATOM     12  C   UNL     1      14.702  28.243  36.226  1.00  0.00    -0.000 C 
BRANCH  12  13
ATOM     13  C   UNL     1      15.783  27.696  35.281  1.00  0.00    -0.000 C 
BRANCH  13  14
ATOM     14  C   UNL     1      15.757  28.370  33.900  1.00  0.00    -0.000 C 
BRANCH  14  15
ATOM     15  C   UNL     1      16.429  27.517  32.813  1.00  0.00    -0.003 C 
ATOM     16  C   UNL     1      16.982  28.394  31.692  1.00  0.00     0.004 C 
ENDBRANCH  14  15
ENDBRANCH  13  14
ENDBRANCH  12  13
ENDBRANCH  11  12
ENDBRANCH  10  11
ENDBRANCH   1  10
TORSDOF 12
ENDMDL
MODEL 2
REMARK VINA RESULT:    -3.992      1.088      1.688
REMARK INTER + INTRA:          -8.162
REMARK INTER:                  -6.972
REMARK INTRA:                  -1.190
REMARK UNBOUND:                -1.370
REMARK SMILES CCCCCCCCCCCCCC(=O)[O-]
REMARK SMILES IDX 8 1 9 2 10 3 11 4 12 5 13 6 14 7 15 8 16 9 7 10 6 11 5 12
REMARK SMILES IDX 4 13 3 14 2 15 1 16
REMARK H PARENT
REMARK Flexibility Score: inf
ROOT
ATOM      1  C   UNL     1      11.472  27.481  34.170  1.00  0.00     0.000 C 
ENDROOT
BRANCH   1   2
ATOM      2  C   UNL     1      12.607  26.486  34.485  1.00  0.00     0.000 C 
BRANCH   2   3
ATOM      3  C   UNL     1      12.760  25.330  33.480  1.00  0.00     0.000 C 
BRANCH   3   4
ATOM      4  C   UNL     1      14.197  25.184  32.953  1.00  0.00     0.000 C 
BRANCH   4   5
ATOM      5  C   UNL     1      15.118  24.454  33.944  1.00  0.00     0.006 C 
BRANCH   5   6
ATOM      6  C   UNL     1      15.784  23.215  33.331  1.00  0.00     0.053 C 
BRANCH   6   7
ATOM      7  C   UNL     1      15.702  22.058  34.276  1.00  0.00     0.041 C 
ATOM      8  O   UNL     1      15.468  22.254  35.499  1.00  0.00    -0.550 OA
ATOM      9  O   UNL     1      15.834  20.761  33.800  1.00  0.00    -0.550 OA
ENDBRANCH   6   7
ENDBRANCH   5   6
ENDBRANCH   4   5
ENDBRANCH   3   4
ENDBRANCH   2   3
ENDBRANCH   1   2
BRANCH   1  10
ATOM     10  C   UNL     1      11.205  28.539  35.259  1.00  0.00     0.000 C 
BRANCH  10  11
ATOM     11  C   UNL     1      12.258  28.600  36.380  1.00  0.00    -0.000 C 
BRANCH  11  12
ATOM     12  C   UNL     1      13.374  29.615  36.095  1.00  0.00    -0.000 C 
BRANCH  12  13
ATOM     13  C   UNL     1      14.749  28.928  36.079  1.00  0.00    -0.000 C 
BRANCH  13  14
ATOM     14  C   UNL     1      15.570  29.277  34.828  1.00  0.00    -0.000 C 
BRANCH  14  15
ATOM     15  C   UNL     1      16.251  28.049  34.205  1.00  0.00    -0.003 C 
ATOM     16  C   UNL     1      16.323  28.174  32.686  1.00  0.00     0.004 C 
ENDBRANCH  14  15
ENDBRANCH  13  14
ENDBRANCH  12  13
ENDBRANCH  11  12
ENDBRANCH  10  11
ENDBRANCH   1  10
TORSDOF 12
ENDMDL
MODEL 3
REMARK VINA RESULT:    -3.980      3.480      4.999
REMARK INTER + INTRA:          -8.142
REMARK INTER:                  -7.212
REMARK INTRA:                  -0.929
REMARK UNBOUND:                -1.370
REMARK SMILES CCCCCCCCCCCCCC(=O)[O-]
REMARK SMILES IDX 8 1 9 2 10 3 11 4 12 5 13 6 14 7 15 8 16 9 7 10 6 11 5 12
REMARK SMILES IDX 4 13 3 14 2 15 1 16
REMARK H PARENT
REMARK Flexibility Score: inf
ROOT
ATOM      1  C   UNL     1      16.384  26.452  33.059  1.00  0.00     0.000 C 
ENDROOT
BRANCH   1   2
ATOM      2  C   UNL     1      16.312  25.352  34.136  1.00  0.00     0.000 C 
BRANCH   2   3
ATOM      3  C   UNL     1      14.949  24.647  34.259  1.00  0.00     0.000 C 
BRANCH   3   4
ATOM      4  C   UNL     1      14.032  24.907  33.052  1.00  0.00     0.000 C 
BRANCH   4   5
ATOM      5  C   UNL     1      12.690  25.541  33.455  1.00  0.00     0.006 C 
BRANCH   5   6
ATOM      6  C   UNL     1      12.782  26.337  34.763  1.00  0.00     0.053 C 
BRANCH   6   7
ATOM      7  C   UNL     1      11.743  27.414  34.792  1.00  0.00     0.041 C 
ATOM      8  O   UNL     1      11.080  27.682  33.755  1.00  0.00    -0.550 OA
ATOM      9  O   UNL     1      11.471  28.086  35.975  1.00  0.00    -0.550 OA
ENDBRANCH   6   7
ENDBRANCH   5   6
ENDBRANCH   4   5
ENDBRANCH   3   4
ENDBRANCH   2   3
ENDBRANCH   1   2
BRANCH   1  10
ATOM     10  C   UNL     1      16.995  27.789  33.525  1.00  0.00     0.000 C 
BRANCH  10  11
ATOM     11  C   UNL     1      15.979  28.824  34.040  1.00  0.00    -0.000 C 
BRANCH  11  12
ATOM     12  C   UNL     1      16.368  30.267  33.689  1.00  0.00    -0.000 C 
BRANCH  12  13
ATOM     13  C   UNL     1      16.867  30.363  32.239  1.00  0.00    -0.000 C 
BRANCH  13  14
ATOM     14  C   UNL     1      16.290  31.577  31.493  1.00  0.00    -0.000 C 
BRANCH  14  15
ATOM     15  C   UNL     1      16.760  31.652  30.033  1.00  0.00    -0.003 C 
ATOM     16  C   UNL     1      16.463  30.350  29.294  1.00  0.00     0.004 C 
ENDBRANCH  14  15
ENDBRANCH  13  14
ENDBRANCH  12  13
ENDBRANCH  11  12
ENDBRANCH  10  11
ENDBRANCH   1  10
TORSDOF 12
ENDMDL
MODEL 4
REMARK VINA RESULT:    -3.925      3.416      6.432
REMARK INTER + INTRA:          -8.049
REMARK INTER:                  -6.656
REMARK INTRA:                  -1.393
REMARK UNBOUND:                -1.370
REMARK SMILES CCCCCCCCCCCCCC(=O)[O-]
REMARK SMILES IDX 8 1 9 2 10 3 11 4 12 5 13 6 14 7 15 8 16 9 7 10 6 11 5 12
REMARK SMILES IDX 4 13 3 14 2 15 1 16
REMARK H PARENT
REMARK Flexibility Score: inf
ROOT
ATOM      1  C   UNL     1      12.594  26.123  34.000  1.00  0.00     0.000 C 
ENDROOT
BRANCH   1   2
ATOM      2  C   UNL     1      12.831  26.138  35.523  1.00  0.00     0.000 C 
BRANCH   2   3
ATOM      3  C   UNL     1      11.923  27.096  36.315  1.00  0.00     0.000 C 
BRANCH   3   4
ATOM      4  C   UNL     1      11.363  28.238  35.451  1.00  0.00     0.000 C 
BRANCH   4   5
ATOM      5  C   UNL     1      11.792  29.626  35.957  1.00  0.00     0.006 C 
BRANCH   5   6
ATOM      6  C   UNL     1      13.104  29.586  36.751  1.00  0.00     0.053 C 
BRANCH   6   7
ATOM      7  C   UNL     1      14.255  29.964  35.873  1.00  0.00     0.041 C 
ATOM      8  O   UNL     1      14.614  31.169  35.781  1.00  0.00    -0.550 OA
ATOM      9  O   UNL     1      14.965  28.982  35.196  1.00  0.00    -0.550 OA
ENDBRANCH   6   7
ENDBRANCH   5   6
ENDBRANCH   4   5
ENDBRANCH   3   4
ENDBRANCH   2   3
ENDBRANCH   1   2
BRANCH   1  10
ATOM     10  C   UNL     1      13.674  25.395  33.174  1.00  0.00     0.000 C 
BRANCH  10  11
ATOM     11  C   UNL     1      15.106  25.926  33.366  1.00  0.00    -0.000 C 
BRANCH  11  12
ATOM     12  C   UNL     1      16.157  24.807  33.409  1.00  0.00    -0.000 C 
BRANCH  12  13
ATOM     13  C   UNL     1      15.509  23.437  33.153  1.00  0.00    -0.000 C 
BRANCH  13  14
ATOM     14  C   UNL     1      15.779  22.434  34.285  1.00  0.00    -0.000 C 
BRANCH  14  15
ATOM     15  C   UNL     1      16.113  23.121  35.617  1.00  0.00    -0.003 C 
ATOM     16  C   UNL     1      14.885  23.193  36.521  1.00  0.00     0.004 C 
ENDBRANCH  14  15
ENDBRANCH  13  14
ENDBRANCH  12  13
ENDBRANCH  11  12
ENDBRANCH  10  11
ENDBRANCH   1  10
TORSDOF 12
ENDMDL
MODEL 5
REMARK VINA RESULT:    -3.792      1.009      1.323
REMARK INTER + INTRA:          -7.821
REMARK INTER:                  -6.306
REMARK INTRA:                  -1.515
REMARK UNBOUND:                -1.370
REMARK SMILES CCCCCCCCCCCCCC(=O)[O-]
REMARK SMILES IDX 8 1 9 2 10 3 11 4 12 5 13 6 14 7 15 8 16 9 7 10 6 11 5 12
REMARK SMILES IDX 4 13 3 14 2 15 1 16
REMARK H PARENT
REMARK Flexibility Score: inf
ROOT
ATOM      1  C   UNL     1      13.012  25.602  34.416  1.00  0.00     0.000 C 
ENDROOT
BRANCH   1   2
ATOM      2  C   UNL     1      13.687  25.347  33.054  1.00  0.00     0.000 C 
BRANCH   2   3
ATOM      3  C   UNL     1      14.631  24.132  33.010  1.00  0.00     0.000 C 
BRANCH   3   4
ATOM      4  C   UNL     1      15.246  23.805  34.381  1.00  0.00     0.000 C 
BRANCH   4   5
ATOM      5  C   UNL     1      16.615  23.116  34.265  1.00  0.00     0.006 C 
BRANCH   5   6
ATOM      6  C   UNL     1      16.546  21.784  33.507  1.00  0.00     0.053 C 
BRANCH   6   7
ATOM      7  C   UNL     1      16.174  20.673  34.437  1.00  0.00     0.041 C 
ATOM      8  O   UNL     1      15.409  19.751  34.050  1.00  0.00    -0.550 OA
ATOM      9  O   UNL     1      16.713  20.629  35.716  1.00  0.00    -0.550 OA
ENDBRANCH   6   7
ENDBRANCH   5   6
ENDBRANCH   4   5
ENDBRANCH   3   4
ENDBRANCH   2   3
ENDBRANCH   1   2
BRANCH   1  10
ATOM     10  C   UNL     1      13.454  26.891  35.138  1.00  0.00     0.000 C 
BRANCH  10  11
ATOM     11  C   UNL     1      14.589  27.667  34.446  1.00  0.00    -0.000 C 
BRANCH  11  12
ATOM     12  C   UNL     1      15.950  27.469  35.130  1.00  0.00    -0.000 C 
BRANCH  12  13
ATOM     13  C   UNL     1      17.094  27.557  34.108  1.00  0.00    -0.000 C 
BRANCH  13  14
ATOM     14  C   UNL     1      16.624  27.296  32.668  1.00  0.00    -0.000 C 
BRANCH  14  15
ATOM     15  C   UNL     1      17.125  28.360  31.680  1.00  0.00    -0.003 C 
ATOM     16  C   UNL     1      16.707  29.760  32.123  1.00  0.00     0.004 C 
ENDBRANCH  14  15
ENDBRANCH  13  14
ENDBRANCH  12  13
ENDBRANCH  11  12
ENDBRANCH  10  11
ENDBRANCH   1  10
TORSDOF 12
ENDMDL
MODEL 6
REMARK VINA RESULT:    -3.786      2.989      5.636
REMARK INTER + INTRA:          -7.811
REMARK INTER:                  -6.640
REMARK INTRA:                  -1.171
REMARK UNBOUND:                -1.370
REMARK SMILES CCCCCCCCCCCCCC(=O)[O-]
REMARK SMILES IDX 8 1 9 2 10 3 11 4 12 5 13 6 14 7 15 8 16 9 7 10 6 11 5 12
REMARK SMILES IDX 4 13 3 14 2 15 1 16
REMARK H PARENT
REMARK Flexibility Score: inf
ROOT
ATOM      1  C   UNL     1      11.665  27.507  35.238  1.00  0.00     0.000 C 
ENDROOT
BRANCH   1   2
ATOM      2  C   UNL     1      12.599  28.699  35.527  1.00  0.00     0.000 C 
BRANCH   2   3
ATOM      3  C   UNL     1      13.995  28.322  36.055  1.00  0.00     0.000 C 
BRANCH   3   4
ATOM      4  C   UNL     1      15.099  29.266  35.548  1.00  0.00     0.000 C 
BRANCH   4   5
ATOM      5  C   UNL     1      16.009  28.601  34.502  1.00  0.00     0.006 C 
BRANCH   5   6
ATOM      6  C   UNL     1      16.403  29.556  33.368  1.00  0.00     0.053 C 
BRANCH   6   7
ATOM      7  C   UNL     1      16.773  28.783  32.141  1.00  0.00     0.041 C 
ATOM      8  O   UNL     1      16.812  29.356  31.019  1.00  0.00    -0.550 OA
ATOM      9  O   UNL     1      17.125  27.444  32.243  1.00  0.00    -0.550 OA
ENDBRANCH   6   7
ENDBRANCH   5   6
ENDBRANCH   4   5
ENDBRANCH   3   4
ENDBRANCH   2   3
ENDBRANCH   1   2
BRANCH   1  10
ATOM     10  C   UNL     1      11.780  26.911  33.821  1.00  0.00     0.000 C 
BRANCH  10  11
ATOM     11  C   UNL     1      12.599  25.612  33.725  1.00  0.00    -0.000 C 
BRANCH  11  12
ATOM     12  C   UNL     1      14.032  25.846  33.226  1.00  0.00    -0.000 C 
BRANCH  12  13
ATOM     13  C   UNL     1      15.035  24.990  34.016  1.00  0.00    -0.000 C 
BRANCH  13  14
ATOM     14  C   UNL     1      15.660  23.874  33.164  1.00  0.00    -0.000 C 
BRANCH  14  15
ATOM     15  C   UNL     1      15.837  22.563  33.944  1.00  0.00    -0.003 C 
ATOM     16  C   UNL     1      16.713  21.580  33.171  1.00  0.00     0.004 C 
ENDBRANCH  14  15
ENDBRANCH  13  14
ENDBRANCH  12  13
ENDBRANCH  11  12
ENDBRANCH  10  11
ENDBRANCH   1  10
TORSDOF 12
ENDMDL
MODEL 7
REMARK VINA RESULT:    -3.765      1.243      2.171
REMARK INTER + INTRA:          -7.775
REMARK INTER:                  -6.518
REMARK INTRA:                  -1.257
REMARK UNBOUND:                -1.370
REMARK SMILES CCCCCCCCCCCCCC(=O)[O-]
REMARK SMILES IDX 8 1 9 2 10 3 11 4 12 5 13 6 14 7 15 8 16 9 7 10 6 11 5 12
REMARK SMILES IDX 4 13 3 14 2 15 1 16
REMARK H PARENT
REMARK Flexibility Score: inf
ROOT
ATOM      1  C   UNL     1      12.794  25.721  34.301  1.00  0.00     0.000 C 
ENDROOT
BRANCH   1   2
ATOM      2  C   UNL     1      13.870  25.226  33.315  1.00  0.00     0.000 C 
BRANCH   2   3
ATOM      3  C   UNL     1      14.993  24.380  33.944  1.00  0.00     0.000 C 
BRANCH   3   4
ATOM      4  C   UNL     1      15.608  23.375  32.956  1.00  0.00     0.000 C 
BRANCH   4   5
ATOM      5  C   UNL     1      16.351  22.230  33.664  1.00  0.00     0.006 C 
BRANCH   5   6
ATOM      6  C   UNL     1      15.774  21.919  35.051  1.00  0.00     0.053 C 
BRANCH   6   7
ATOM      7  C   UNL     1      15.581  20.445  35.216  1.00  0.00     0.041 C 
ATOM      8  O   UNL     1      15.632  19.924  36.362  1.00  0.00    -0.550 OA
ATOM      9  O   UNL     1      15.294  19.653  34.112  1.00  0.00    -0.550 OA
ENDBRANCH   6   7
ENDBRANCH   5   6
ENDBRANCH   4   5
ENDBRANCH   3   4
ENDBRANCH   2   3
ENDBRANCH   1   2
BRANCH   1  10
ATOM     10  C   UNL     1      11.862  26.823  33.758  1.00  0.00     0.000 C 
BRANCH  10  11
ATOM     11  C   UNL     1      11.489  27.917  34.773  1.00  0.00    -0.000 C 
BRANCH  11  12
ATOM     12  C   UNL     1      11.836  27.534  36.219  1.00  0.00    -0.000 C 
BRANCH  12  13
ATOM     13  C   UNL     1      12.815  28.546  36.835  1.00  0.00    -0.000 C 
BRANCH  13  14
ATOM     14  C   UNL     1      13.794  29.126  35.802  1.00  0.00    -0.000 C 
BRANCH  14  15
ATOM     15  C   UNL     1      15.070  28.282  35.657  1.00  0.00    -0.003 C 
ATOM     16  C   UNL     1      15.637  28.384  34.244  1.00  0.00     0.004 C 
ENDBRANCH  14  15
ENDBRANCH  13  14
ENDBRANCH  12  13
ENDBRANCH  11  12
ENDBRANCH  10  11
ENDBRANCH   1  10
TORSDOF 12
ENDMDL
MODEL 8
REMARK VINA RESULT:    -3.728      2.481      5.671
REMARK INTER + INTRA:          -7.714
REMARK INTER:                  -6.105
REMARK INTRA:                  -1.609
REMARK UNBOUND:                -1.370
REMARK SMILES CCCCCCCCCCCCCC(=O)[O-]
REMARK SMILES IDX 8 1 9 2 10 3 11 4 12 5 13 6 14 7 15 8 16 9 7 10 6 11 5 12
REMARK SMILES IDX 4 13 3 14 2 15 1 16
REMARK H PARENT
REMARK Flexibility Score: inf
ROOT
ATOM      1  C   UNL     1      16.577  27.297  34.177  1.00  0.00     0.000 C 
ENDROOT
BRANCH   1   2
ATOM      2  C   UNL     1      15.550  28.446  34.125  1.00  0.00     0.000 C 
BRANCH   2   3
ATOM      3  C   UNL     1      14.832  28.739  35.455  1.00  0.00     0.000 C 
BRANCH   3   4
ATOM      4  C   UNL     1      14.769  27.513  36.382  1.00  0.00     0.000 C 
BRANCH   4   5
ATOM      5  C   UNL     1      13.386  26.842  36.381  1.00  0.00     0.006 C 
BRANCH   5   6
ATOM      6  C   UNL     1      13.316  25.633  35.439  1.00  0.00     0.053 C 
BRANCH   6   7
ATOM      7  C   UNL     1      12.613  26.001  34.171  1.00  0.00     0.041 C 
ATOM      8  O   UNL     1      12.616  25.209  33.192  1.00  0.00    -0.550 OA
ATOM      9  O   UNL     1      11.911  27.196  34.087  1.00  0.00    -0.550 OA
ENDBRANCH   6   7
ENDBRANCH   5   6
ENDBRANCH   4   5
ENDBRANCH   3   4
ENDBRANCH   2   3
ENDBRANCH   1   2
BRANCH   1  10
ATOM     10  C   UNL     1      16.303  26.127  33.211  1.00  0.00     0.000 C 
BRANCH  10  11
ATOM     11  C   UNL     1      16.523  24.726  33.808  1.00  0.00    -0.000 C 
BRANCH  11  12
ATOM     12  C   UNL     1      15.682  23.643  33.117  1.00  0.00    -0.000 C 
BRANCH  12  13
ATOM     13  C   UNL     1      16.288  22.249  33.344  1.00  0.00    -0.000 C 
BRANCH  13  14
ATOM     14  C   UNL     1      16.730  22.026  34.798  1.00  0.00    -0.000 C 
BRANCH  14  15
ATOM     15  C   UNL     1      15.581  21.550  35.699  1.00  0.00    -0.003 C 
ATOM     16  C   UNL     1      15.165  22.642  36.681  1.00  0.00     0.004 C 
ENDBRANCH  14  15
ENDBRANCH  13  14
ENDBRANCH  12  13
ENDBRANCH  11  12
ENDBRANCH  10  11
ENDBRANCH   1  10
TORSDOF 12
ENDMDL
MODEL 9
REMARK VINA RESULT:    -3.707      3.778      6.567
REMARK INTER + INTRA:          -7.678
REMARK INTER:                  -6.275
REMARK INTRA:                  -1.403
REMARK UNBOUND:                -1.370
REMARK SMILES CCCCCCCCCCCCCC(=O)[O-]
REMARK SMILES IDX 8 1 9 2 10 3 11 4 12 5 13 6 14 7 15 8 16 9 7 10 6 11 5 12
REMARK SMILES IDX 4 13 3 14 2 15 1 16
REMARK H PARENT
REMARK Flexibility Score: inf
ROOT
ATOM      1  C   UNL     1      14.364  24.857  33.147  1.00  0.00     0.000 C 
ENDROOT
BRANCH   1   2
ATOM      2  C   UNL     1      13.913  26.243  33.649  1.00  0.00     0.000 C 
BRANCH   2   3
ATOM      3  C   UNL     1      12.645  26.240  34.522  1.00  0.00     0.000 C 
BRANCH   3   4
ATOM      4  C   UNL     1      11.537  27.152  33.969  1.00  0.00     0.000 C 
BRANCH   4   5
ATOM      5  C   UNL     1      11.142  28.264  34.954  1.00  0.00     0.006 C 
BRANCH   5   6
ATOM      6  C   UNL     1      11.964  28.228  36.249  1.00  0.00     0.053 C 
BRANCH   6   7
ATOM      7  C   UNL     1      12.714  29.510  36.426  1.00  0.00     0.041 C 
ATOM      8  O   UNL     1      13.972  29.504  36.490  1.00  0.00    -0.550 OA
ATOM      9  O   UNL     1      12.028  30.716  36.471  1.00  0.00    -0.550 OA
ENDBRANCH   6   7
ENDBRANCH   5   6
ENDBRANCH   4   5
ENDBRANCH   3   4
ENDBRANCH   2   3
ENDBRANCH   1   2
BRANCH   1  10
ATOM     10  C   UNL     1      15.859  24.539  33.349  1.00  0.00     0.000 C 
BRANCH  10  11
ATOM     11  C   UNL     1      16.208  23.041  33.371  1.00  0.00    -0.000 C 
BRANCH  11  12
ATOM     12  C   UNL     1      15.445  22.265  34.454  1.00  0.00    -0.000 C 
BRANCH  12  13
ATOM     13  C   UNL     1      16.167  22.360  35.807  1.00  0.00    -0.000 C 
BRANCH  13  14
ATOM     14  C   UNL     1      15.206  22.633  36.974  1.00  0.00    -0.000 C 
BRANCH  14  15
ATOM     15  C   UNL     1      14.381  23.913  36.775  1.00  0.00    -0.003 C 
ATOM     16  C   UNL     1      15.227  25.156  37.039  1.00  0.00     0.004 C 
ENDBRANCH  14  15
ENDBRANCH  13  14
ENDBRANCH  12  13
ENDBRANCH  11  12
ENDBRANCH  10  11
ENDBRANCH   1  10
TORSDOF 12
ENDMDL
