MODEL 1
REMARK VINA RESULT:    -5.343      0.000      0.000
REMARK INTER + INTRA:          -6.038
REMARK INTER:                  -5.968
REMARK INTRA:                  -0.069
REMARK UNBOUND:                -0.069
REMARK SMILES COc1cc2ccc(=O)oc2c(O)c1O
REMARK SMILES IDX 3 1 14 2 12 3 11 4 5 5 4 6 6 7 7 8 8 9 9 10 10 11 2 12 1 13
REMARK SMILES IDX 15 14 13 16
REMARK H PARENT 15 15 13 17
REMARK Flexibility Score: inf
ROOT
ATOM      1  C   UNL     1     182.805 181.380 174.564  1.00  0.00     0.165 A 
ATOM      2  C   UNL     1     183.519 180.243 174.992  1.00  0.00     0.204 A 
ATOM      3  C   UNL     1     183.070 179.498 176.098  1.00  0.00     0.205 A 
ATOM      4  C   UNL     1     181.909 179.885 176.777  1.00  0.00     0.184 A 
ATOM      5  C   UNL     1     181.191 181.023 176.353  1.00  0.00     0.025 A 
ATOM      6  C   UNL     1     181.638 181.764 175.253  1.00  0.00     0.062 A 
ATOM      7  C   UNL     1     180.035 181.382 177.054  1.00  0.00     0.020 A 
ATOM      8  C   UNL     1     179.627 180.615 178.144  1.00  0.00     0.094 A 
ATOM      9  C   UNL     1     180.389 179.500 178.508  1.00  0.00     0.336 A 
ATOM     10  O   UNL     1     180.038 178.793 179.489  1.00  0.00    -0.246 OA
ATOM     11  O   UNL     1     181.484 179.180 177.824  1.00  0.00    -0.419 OA
ENDROOT
BRANCH   1  12
ATOM     12  O   UNL     1     183.282 182.100 173.457  1.00  0.00    -0.493 OA
ATOM     13  C   UNL     1     184.050 183.295 173.538  1.00  0.00     0.278 C 
ENDBRANCH   1  12
BRANCH   2  14
ATOM     14  O   UNL     1     184.678 179.843 174.325  1.00  0.00    -0.502 OA
ATOM     15  H   UNL     1     184.754 178.948 173.858  1.00  0.00     0.293 HD
ENDBRANCH   2  14
BRANCH   3  16
ATOM     16  O   UNL     1     183.767 178.370 176.532  1.00  0.00    -0.502 OA
ATOM     17  H   UNL     1     184.195 177.718 175.887  1.00  0.00     0.293 HD
ENDBRANCH   3  16
TORSDOF 3
ENDMDL
MODEL 2
REMARK VINA RESULT:    -5.289      3.876      5.348
REMARK INTER + INTRA:          -5.977
REMARK INTER:                  -5.908
REMARK INTRA:                  -0.069
REMARK UNBOUND:                -0.069
REMARK SMILES COc1cc2ccc(=O)oc2c(O)c1O
REMARK SMILES IDX 3 1 14 2 12 3 11 4 5 5 4 6 6 7 7 8 8 9 9 10 10 11 2 12 1 13
REMARK SMILES IDX 15 14 13 16
REMARK H PARENT 15 15 13 17
REMARK Flexibility Score: inf
ROOT
ATOM      1  C   UNL     1     177.981 179.240 174.584  1.00  0.00     0.165 A 
ATOM      2  C   UNL     1     177.258 180.377 174.997  1.00  0.00     0.204 A 
ATOM      3  C   UNL     1     177.695 181.132 176.102  1.00  0.00     0.205 A 
ATOM      4  C   UNL     1     178.851 180.754 176.794  1.00  0.00     0.184 A 
ATOM      5  C   UNL     1     179.577 179.616 176.384  1.00  0.00     0.025 A 
ATOM      6  C   UNL     1     179.143 178.865 175.286  1.00  0.00     0.062 A 
ATOM      7  C   UNL     1     180.727 179.266 177.098  1.00  0.00     0.020 A 
ATOM      8  C   UNL     1     181.122 180.043 178.187  1.00  0.00     0.094 A 
ATOM      9  C   UNL     1     180.353 181.157 178.537  1.00  0.00     0.336 A 
ATOM     10  O   UNL     1     180.692 181.872 179.516  1.00  0.00    -0.246 OA
ATOM     11  O   UNL     1     179.263 181.468 177.840  1.00  0.00    -0.419 OA
ENDROOT
BRANCH   1  12
ATOM     12  O   UNL     1     177.517 178.511 173.477  1.00  0.00    -0.493 OA
ATOM     13  C   UNL     1     176.727 177.329 173.559  1.00  0.00     0.278 C 
ENDBRANCH   1  12
BRANCH   2  14
ATOM     14  O   UNL     1     176.104 180.768 174.317  1.00  0.00    -0.502 OA
ATOM     15  H   UNL     1     175.319 181.202 174.785  1.00  0.00     0.293 HD
ENDBRANCH   2  14
BRANCH   3  16
ATOM     16  O   UNL     1     176.989 182.260 176.522  1.00  0.00    -0.502 OA
ATOM     17  H   UNL     1     177.390 182.944 177.152  1.00  0.00     0.293 HD
ENDBRANCH   3  16
TORSDOF 3
ENDMDL
MODEL 3
REMARK VINA RESULT:    -5.257      4.912      5.367
REMARK INTER + INTRA:          -5.941
REMARK INTER:                  -5.890
REMARK INTRA:                  -0.051
REMARK UNBOUND:                -0.069
REMARK SMILES COc1cc2ccc(=O)oc2c(O)c1O
REMARK SMILES IDX 3 1 14 2 12 3 11 4 5 5 4 6 6 7 7 8 8 9 9 10 10 11 2 12 1 13
REMARK SMILES IDX 15 14 13 16
REMARK H PARENT 15 15 13 17
REMARK Flexibility Score: inf
ROOT
ATOM      1  C   UNL     1     183.360 176.922 172.430  1.00  0.00     0.165 A 
ATOM      2  C   UNL     1     182.843 175.715 171.916  1.00  0.00     0.204 A 
ATOM      3  C   UNL     1     181.584 175.248 172.337  1.00  0.00     0.205 A 
ATOM      4  C   UNL     1     180.840 175.982 173.267  1.00  0.00     0.184 A 
ATOM      5  C   UNL     1     181.353 177.190 173.784  1.00  0.00     0.025 A 
ATOM      6  C   UNL     1     182.606 177.655 173.366  1.00  0.00     0.062 A 
ATOM      7  C   UNL     1     180.584 177.899 174.712  1.00  0.00     0.020 A 
ATOM      8  C   UNL     1     179.342 177.397 175.100  1.00  0.00     0.094 A 
ATOM      9  C   UNL     1     178.897 176.192 174.546  1.00  0.00     0.336 A 
ATOM     10  O   UNL     1     177.779 175.722 174.882  1.00  0.00    -0.246 OA
ATOM     11  O   UNL     1     179.648 175.539 173.665  1.00  0.00    -0.419 OA
ENDROOT
BRANCH   1  12
ATOM     12  O   UNL     1     184.619 177.359 171.988  1.00  0.00    -0.493 OA
ATOM     13  C   UNL     1     185.041 178.719 171.963  1.00  0.00     0.278 C 
ENDBRANCH   1  12
BRANCH   2  14
ATOM     14  O   UNL     1     183.572 174.972 170.987  1.00  0.00    -0.502 OA
ATOM     15  H   UNL     1     183.907 174.037 171.182  1.00  0.00     0.293 HD
ENDBRANCH   2  14
BRANCH   3  16
ATOM     16  O   UNL     1     181.060 174.055 171.836  1.00  0.00    -0.502 OA
ATOM     17  H   UNL     1     181.624 173.222 171.724  1.00  0.00     0.293 HD
ENDBRANCH   3  16
TORSDOF 3
ENDMDL
MODEL 4
REMARK VINA RESULT:    -5.240      4.939      7.167
REMARK INTER + INTRA:          -5.922
REMARK INTER:                  -5.871
REMARK INTRA:                  -0.050
REMARK UNBOUND:                -0.069
REMARK SMILES COc1cc2ccc(=O)oc2c(O)c1O
REMARK SMILES IDX 3 1 14 2 12 3 11 4 5 5 4 6 6 7 7 8 8 9 9 10 10 11 2 12 1 13
REMARK SMILES IDX 15 14 13 16
REMARK H PARENT 15 15 13 17
REMARK Flexibility Score: inf
ROOT
ATOM      1  C   UNL     1     177.404 183.806 172.451  1.00  0.00     0.165 A 
ATOM      2  C   UNL     1     177.925 185.005 171.927  1.00  0.00     0.204 A 
ATOM      3  C   UNL     1     179.192 185.465 172.335  1.00  0.00     0.205 A 
ATOM      4  C   UNL     1     179.937 184.730 173.264  1.00  0.00     0.184 A 
ATOM      5  C   UNL     1     179.418 183.528 173.791  1.00  0.00     0.025 A 
ATOM      6  C   UNL     1     178.159 183.071 173.385  1.00  0.00     0.062 A 
ATOM      7  C   UNL     1     180.189 182.818 174.717  1.00  0.00     0.020 A 
ATOM      8  C   UNL     1     181.438 183.312 175.093  1.00  0.00     0.094 A 
ATOM      9  C   UNL     1     181.888 184.510 174.529  1.00  0.00     0.336 A 
ATOM     10  O   UNL     1     183.013 184.973 174.854  1.00  0.00    -0.246 OA
ATOM     11  O   UNL     1     181.135 185.165 173.650  1.00  0.00    -0.419 OA
ENDROOT
BRANCH   1  12
ATOM     12  O   UNL     1     176.137 183.376 172.021  1.00  0.00    -0.493 OA
ATOM     13  C   UNL     1     175.707 182.019 172.000  1.00  0.00     0.278 C 
ENDBRANCH   1  12
BRANCH   2  14
ATOM     14  O   UNL     1     177.196 185.750 170.999  1.00  0.00    -0.502 OA
ATOM     15  H   UNL     1     177.564 185.992 170.088  1.00  0.00     0.293 HD
ENDBRANCH   2  14
BRANCH   3  16
ATOM     16  O   UNL     1     179.721 186.651 171.825  1.00  0.00    -0.502 OA
ATOM     17  H   UNL     1     179.547 186.955 170.875  1.00  0.00     0.293 HD
ENDBRANCH   3  16
TORSDOF 3
ENDMDL
MODEL 5
REMARK VINA RESULT:    -5.204      3.539      3.995
REMARK INTER + INTRA:          -5.882
REMARK INTER:                  -5.852
REMARK INTRA:                  -0.030
REMARK UNBOUND:                -0.069
REMARK SMILES COc1cc2ccc(=O)oc2c(O)c1O
REMARK SMILES IDX 3 1 14 2 12 3 11 4 5 5 4 6 6 7 7 8 8 9 9 10 10 11 2 12 1 13
REMARK SMILES IDX 15 14 13 16
REMARK H PARENT 15 15 13 17
REMARK Flexibility Score: inf
ROOT
ATOM      1  C   UNL     1     177.893 180.977 175.176  1.00  0.00     0.165 A 
ATOM      2  C   UNL     1     178.525 179.760 174.853  1.00  0.00     0.204 A 
ATOM      3  C   UNL     1     179.430 179.170 175.756  1.00  0.00     0.205 A 
ATOM      4  C   UNL     1     179.704 179.792 176.979  1.00  0.00     0.184 A 
ATOM      5  C   UNL     1     179.073 181.011 177.306  1.00  0.00     0.025 A 
ATOM      6  C   UNL     1     178.174 181.598 176.408  1.00  0.00     0.062 A 
ATOM      7  C   UNL     1     179.369 181.606 178.536  1.00  0.00     0.020 A 
ATOM      8  C   UNL     1     180.272 180.986 179.399  1.00  0.00     0.094 A 
ATOM      9  C   UNL     1     180.860 179.778 179.009  1.00  0.00     0.336 A 
ATOM     10  O   UNL     1     181.677 179.201 179.773  1.00  0.00    -0.246 OA
ATOM     11  O   UNL     1     180.560 179.234 177.833  1.00  0.00    -0.419 OA
ENDROOT
BRANCH   1  12
ATOM     12  O   UNL     1     176.996 181.537 174.252  1.00  0.00    -0.493 OA
ATOM     13  C   UNL     1     177.373 182.367 173.159  1.00  0.00     0.278 C 
ENDBRANCH   1  12
BRANCH   2  14
ATOM     14  O   UNL     1     178.263 179.125 173.638  1.00  0.00    -0.502 OA
ATOM     15  H   UNL     1     178.456 178.143 173.486  1.00  0.00     0.293 HD
ENDBRANCH   2  14
BRANCH   3  16
ATOM     16  O   UNL     1     180.063 177.964 175.450  1.00  0.00    -0.502 OA
ATOM     17  H   UNL     1     180.818 177.906 174.778  1.00  0.00     0.293 HD
ENDBRANCH   3  16
TORSDOF 3
ENDMDL
MODEL 6
REMARK VINA RESULT:    -5.192      3.793      5.467
REMARK INTER + INTRA:          -5.868
REMARK INTER:                  -5.819
REMARK INTRA:                  -0.049
REMARK UNBOUND:                -0.069
REMARK SMILES COc1cc2ccc(=O)oc2c(O)c1O
REMARK SMILES IDX 3 1 14 2 12 3 11 4 5 5 4 6 6 7 7 8 8 9 9 10 10 11 2 12 1 13
REMARK SMILES IDX 15 14 13 16
REMARK H PARENT 15 15 13 17
REMARK Flexibility Score: inf
ROOT
ATOM      1  C   UNL     1     180.119 176.351 174.036  1.00  0.00     0.165 A 
ATOM      2  C   UNL     1     181.260 175.932 173.324  1.00  0.00     0.204 A 
ATOM      3  C   UNL     1     182.436 176.705 173.349  1.00  0.00     0.205 A 
ATOM      4  C   UNL     1     182.475 177.895 174.084  1.00  0.00     0.184 A 
ATOM      5  C   UNL     1     181.335 178.319 174.799  1.00  0.00     0.025 A 
ATOM      6  C   UNL     1     180.165 177.551 174.773  1.00  0.00     0.062 A 
ATOM      7  C   UNL     1     181.408 179.513 175.523  1.00  0.00     0.020 A 
ATOM      8  C   UNL     1     182.593 180.247 175.519  1.00  0.00     0.094 A 
ATOM      9  C   UNL     1     183.684 179.765 174.788  1.00  0.00     0.336 A 
ATOM     10  O   UNL     1     184.764 180.412 174.771  1.00  0.00    -0.246 OA
ATOM     11  O   UNL     1     183.588 178.626 174.108  1.00  0.00    -0.419 OA
ENDROOT
BRANCH   1  12
ATOM     12  O   UNL     1     178.963 175.556 173.989  1.00  0.00    -0.493 OA
ATOM     13  C   UNL     1     177.716 175.903 174.583  1.00  0.00     0.278 C 
ENDBRANCH   1  12
BRANCH   2  14
ATOM     14  O   UNL     1     181.238 174.747 172.587  1.00  0.00    -0.502 OA
ATOM     15  H   UNL     1     181.257 174.736 171.575  1.00  0.00     0.293 HD
ENDBRANCH   2  14
BRANCH   3  16
ATOM     16  O   UNL     1     183.573 176.301 172.649  1.00  0.00    -0.502 OA
ATOM     17  H   UNL     1     183.630 176.344 171.639  1.00  0.00     0.293 HD
ENDBRANCH   3  16
TORSDOF 3
ENDMDL
MODEL 7
REMARK VINA RESULT:    -5.167      1.652      2.926
REMARK INTER + INTRA:          -5.840
REMARK INTER:                  -5.816
REMARK INTRA:                  -0.024
REMARK UNBOUND:                -0.069
REMARK SMILES COc1cc2ccc(=O)oc2c(O)c1O
REMARK SMILES IDX 3 1 14 2 12 3 11 4 5 5 4 6 6 7 7 8 8 9 9 10 10 11 2 12 1 13
REMARK SMILES IDX 15 14 13 16
REMARK H PARENT 15 15 13 17
REMARK Flexibility Score: inf
ROOT
ATOM      1  C   UNL     1     182.860 179.841 175.162  1.00  0.00     0.165 A 
ATOM      2  C   UNL     1     182.320 181.098 174.825  1.00  0.00     0.204 A 
ATOM      3  C   UNL     1     181.380 181.716 175.671  1.00  0.00     0.205 A 
ATOM      4  C   UNL     1     180.979 181.082 176.853  1.00  0.00     0.184 A 
ATOM      5  C   UNL     1     181.517 179.823 177.194  1.00  0.00     0.025 A 
ATOM      6  C   UNL     1     182.451 179.208 176.352  1.00  0.00     0.062 A 
ATOM      7  C   UNL     1     181.095 179.217 178.381  1.00  0.00     0.020 A 
ATOM      8  C   UNL     1     180.162 179.866 179.189  1.00  0.00     0.094 A 
ATOM      9  C   UNL     1     179.672 181.113 178.787  1.00  0.00     0.336 A 
ATOM     10  O   UNL     1     178.829 181.716 179.502  1.00  0.00    -0.246 OA
ATOM     11  O   UNL     1     180.090 181.667 177.653  1.00  0.00    -0.419 OA
ENDROOT
BRANCH   1  12
ATOM     12  O   UNL     1     183.795 179.253 174.295  1.00  0.00    -0.493 OA
ATOM     13  C   UNL     1     183.461 178.483 173.145  1.00  0.00     0.278 C 
ENDBRANCH   1  12
BRANCH   2  14
ATOM     14  O   UNL     1     182.710 181.744 173.651  1.00  0.00    -0.502 OA
ATOM     15  H   UNL     1     182.791 181.260 172.766  1.00  0.00     0.293 HD
ENDBRANCH   2  14
BRANCH   3  16
ATOM     16  O   UNL     1     180.838 182.961 175.350  1.00  0.00    -0.502 OA
ATOM     17  H   UNL     1     180.467 183.587 176.055  1.00  0.00     0.293 HD
ENDBRANCH   3  16
TORSDOF 3
ENDMDL
MODEL 8
REMARK VINA RESULT:    -5.046      4.859      5.999
REMARK INTER + INTRA:          -5.705
REMARK INTER:                  -5.642
REMARK INTRA:                  -0.063
REMARK UNBOUND:                -0.069
REMARK SMILES COc1cc2ccc(=O)oc2c(O)c1O
REMARK SMILES IDX 3 1 14 2 12 3 11 4 5 5 4 6 6 7 7 8 8 9 9 10 10 11 2 12 1 13
REMARK SMILES IDX 15 14 13 16
REMARK H PARENT 15 15 13 17
REMARK Flexibility Score: inf
ROOT
ATOM      1  C   UNL     1     178.906 180.532 175.711  1.00  0.00     0.165 A 
ATOM      2  C   UNL     1     177.575 180.655 175.266  1.00  0.00     0.204 A 
ATOM      3  C   UNL     1     176.902 179.542 174.728  1.00  0.00     0.205 A 
ATOM      4  C   UNL     1     177.554 178.308 174.635  1.00  0.00     0.184 A 
ATOM      5  C   UNL     1     178.887 178.180 175.079  1.00  0.00     0.025 A 
ATOM      6  C   UNL     1     179.557 179.287 175.614  1.00  0.00     0.062 A 
ATOM      7  C   UNL     1     179.509 176.932 174.971  1.00  0.00     0.020 A 
ATOM      8  C   UNL     1     178.803 175.857 174.432  1.00  0.00     0.094 A 
ATOM      9  C   UNL     1     177.485 176.058 174.011  1.00  0.00     0.336 A 
ATOM     10  O   UNL     1     176.829 175.101 173.521  1.00  0.00    -0.246 OA
ATOM     11  O   UNL     1     176.916 177.255 174.125  1.00  0.00    -0.419 OA
ENDROOT
BRANCH   1  12
ATOM     12  O   UNL     1     179.548 181.662 176.243  1.00  0.00    -0.493 OA
ATOM     13  C   UNL     1     180.064 181.753 177.567  1.00  0.00     0.278 C 
ENDBRANCH   1  12
BRANCH   2  14
ATOM     14  O   UNL     1     176.910 181.879 175.353  1.00  0.00    -0.502 OA
ATOM     15  H   UNL     1     175.904 181.957 175.270  1.00  0.00     0.293 HD
ENDBRANCH   2  14
BRANCH   3  16
ATOM     16  O   UNL     1     175.583 179.650 174.283  1.00  0.00    -0.502 OA
ATOM     17  H   UNL     1     174.971 178.847 174.210  1.00  0.00     0.293 HD
ENDBRANCH   3  16
TORSDOF 3
ENDMDL
MODEL 9
REMARK VINA RESULT:    -5.030      1.714      4.809
REMARK INTER + INTRA:          -5.687
REMARK INTER:                  -5.623
REMARK INTRA:                  -0.064
REMARK UNBOUND:                -0.069
REMARK SMILES COc1cc2ccc(=O)oc2c(O)c1O
REMARK SMILES IDX 3 1 14 2 12 3 11 4 5 5 4 6 6 7 7 8 8 9 9 10 10 11 2 12 1 13
REMARK SMILES IDX 15 14 13 16
REMARK H PARENT 15 15 13 17
REMARK Flexibility Score: inf
ROOT
ATOM      1  C   UNL     1     181.801 180.185 175.723  1.00  0.00     0.165 A 
ATOM      2  C   UNL     1     183.123 180.085 175.247  1.00  0.00     0.204 A 
ATOM      3  C   UNL     1     183.772 181.216 174.715  1.00  0.00     0.205 A 
ATOM      4  C   UNL     1     183.104 182.444 174.658  1.00  0.00     0.184 A 
ATOM      5  C   UNL     1     181.779 182.547 175.133  1.00  0.00     0.025 A 
ATOM      6  C   UNL     1     181.134 181.423 175.662  1.00  0.00     0.062 A 
ATOM      7  C   UNL     1     181.140 183.789 175.061  1.00  0.00     0.020 A 
ATOM      8  C   UNL     1     181.821 184.882 174.526  1.00  0.00     0.094 A 
ATOM      9  C   UNL     1     183.133 184.705 174.074  1.00  0.00     0.336 A 
ATOM     10  O   UNL     1     183.767 185.678 173.588  1.00  0.00    -0.246 OA
ATOM     11  O   UNL     1     183.718 183.513 174.154  1.00  0.00    -0.419 OA
ENDROOT
BRANCH   1  12
ATOM     12  O   UNL     1     181.184 179.037 176.248  1.00  0.00    -0.493 OA
ATOM     13  C   UNL     1     180.741 178.900 177.594  1.00  0.00     0.278 C 
ENDBRANCH   1  12
BRANCH   2  14
ATOM     14  O   UNL     1     183.805 178.869 175.298  1.00  0.00    -0.502 OA
ATOM     15  H   UNL     1     184.205 178.506 176.154  1.00  0.00     0.293 HD
ENDBRANCH   2  14
BRANCH   3  16
ATOM     16  O   UNL     1     185.082 181.132 174.241  1.00  0.00    -0.502 OA
ATOM     17  H   UNL     1     185.301 180.769 173.321  1.00  0.00     0.293 HD
ENDBRANCH   3  16
TORSDOF 3
ENDMDL
