MODEL 1
REMARK VINA RESULT:    -3.945      0.000      0.000
REMARK INTER + INTRA:          -9.411
REMARK INTER:                  -7.405
REMARK INTRA:                  -2.006
REMARK UNBOUND:                -2.006
REMARK SMILES O=C([O-])CCCCCCCCCCCCCCC(=O)[O-]
REMARK SMILES IDX 10 1 9 2 8 3 7 4 6 5 5 6 4 7 2 8 1 9 3 10 11 11 12 12 13 13
REMARK SMILES IDX 14 14 15 15 16 16 17 17 18 18 19 19 20 20
REMARK H PARENT
REMARK Flexibility Score: inf
ROOT
ATOM      1  C   UNL     1      51.812 -51.766  -8.866  1.00  0.00     0.000 C 
ENDROOT
BRANCH   1   2
ATOM      2  C   UNL     1      51.295 -50.704  -7.884  1.00  0.00     0.000 C 
BRANCH   2   3
ATOM      3  C   UNL     1      52.065 -49.386  -8.045  1.00  0.00     0.000 C 
BRANCH   3   4
ATOM      4  C   UNL     1      51.295 -48.335  -8.865  1.00  0.00     0.000 C 
BRANCH   4   5
ATOM      5  C   UNL     1      52.051 -47.780 -10.086  1.00  0.00     0.000 C 
BRANCH   5   6
ATOM      6  C   UNL     1      51.113 -47.204 -11.160  1.00  0.00     0.006 C 
BRANCH   6   7
ATOM      7  C   UNL     1      49.664 -47.677 -10.979  1.00  0.00     0.053 C 
BRANCH   7   8
ATOM      8  C   UNL     1      48.720 -46.528 -10.809  1.00  0.00     0.041 C 
ATOM      9  O   UNL     1      49.161 -45.380 -10.535  1.00  0.00    -0.550 OA
ATOM     10  O   UNL     1      47.354 -46.717 -10.980  1.00  0.00    -0.550 OA
ENDBRANCH   7   8
ENDBRANCH   6   7
ENDBRANCH   5   6
ENDBRANCH   4   5
ENDBRANCH   3   4
ENDBRANCH   2   3
ENDBRANCH   1   2
BRANCH   1  11
ATOM     11  C   UNL     1      53.158 -51.386  -9.510  1.00  0.00     0.000 C 
BRANCH  11  12
ATOM     12  C   UNL     1      53.132 -51.245 -11.043  1.00  0.00     0.000 C 
BRANCH  12  13
ATOM     13  C   UNL     1      51.706 -51.231 -11.619  1.00  0.00     0.000 C 
BRANCH  13  14
ATOM     14  C   UNL     1      51.645 -50.619 -13.028  1.00  0.00     0.000 C 
BRANCH  14  15
ATOM     15  C   UNL     1      50.211 -50.294 -13.472  1.00  0.00     0.000 C 
BRANCH  15  16
ATOM     16  C   UNL     1      49.601 -51.462 -14.256  1.00  0.00     0.006 C 
BRANCH  16  17
ATOM     17  C   UNL     1      48.354 -52.007 -13.553  1.00  0.00     0.053 C 
BRANCH  17  18
ATOM     18  C   UNL     1      47.162 -51.161 -13.870  1.00  0.00     0.041 C 
ATOM     19  O   UNL     1      46.344 -50.853 -12.963  1.00  0.00    -0.550 OA
ATOM     20  O   UNL     1      46.928 -50.751 -15.177  1.00  0.00    -0.550 OA
ENDBRANCH  17  18
ENDBRANCH  16  17
ENDBRANCH  15  16
ENDBRANCH  14  15
ENDBRANCH  13  14
ENDBRANCH  12  13
ENDBRANCH  11  12
ENDBRANCH   1  11
TORSDOF 15
ENDMDL
MODEL 2
REMARK VINA RESULT:    -3.889     11.622     14.507
REMARK INTER + INTRA:          -9.305
REMARK INTER:                  -6.740
REMARK INTRA:                  -2.565
REMARK UNBOUND:                -2.006
REMARK SMILES O=C([O-])CCCCCCCCCCCCCCC(=O)[O-]
REMARK SMILES IDX 10 1 9 2 8 3 7 4 6 5 5 6 4 7 2 8 1 9 3 10 11 11 12 12 13 13
REMARK SMILES IDX 14 14 15 15 16 16 17 17 18 18 19 19 20 20
REMARK H PARENT
REMARK Flexibility Score: inf
ROOT
ATOM      1  C   UNL     1      36.643 -51.110 -15.798  1.00  0.00     0.000 C 
ENDROOT
BRANCH   1   2
ATOM      2  C   UNL     1      35.607 -49.979 -15.733  1.00  0.00     0.000 C 
BRANCH   2   3
ATOM      3  C   UNL     1      34.876 -49.825 -17.075  1.00  0.00     0.000 C 
BRANCH   3   4
ATOM      4  C   UNL     1      35.026 -48.420 -17.685  1.00  0.00     0.000 C 
BRANCH   4   5
ATOM      5  C   UNL     1      35.997 -47.487 -16.938  1.00  0.00     0.000 C 
BRANCH   5   6
ATOM      6  C   UNL     1      36.710 -46.494 -17.872  1.00  0.00     0.006 C 
BRANCH   6   7
ATOM      7  C   UNL     1      36.689 -46.957 -19.335  1.00  0.00     0.053 C 
BRANCH   7   8
ATOM      8  C   UNL     1      37.957 -46.604 -20.050  1.00  0.00     0.041 C 
ATOM      9  O   UNL     1      38.873 -45.985 -19.447  1.00  0.00    -0.550 OA
ATOM     10  O   UNL     1      38.138 -46.982 -21.374  1.00  0.00    -0.550 OA
ENDBRANCH   7   8
ENDBRANCH   6   7
ENDBRANCH   5   6
ENDBRANCH   4   5
ENDBRANCH   3   4
ENDBRANCH   2   3
ENDBRANCH   1   2
BRANCH   1  11
ATOM     11  C   UNL     1      36.728 -51.769 -17.188  1.00  0.00     0.000 C 
BRANCH  11  12
ATOM     12  C   UNL     1      38.054 -51.544 -17.938  1.00  0.00     0.000 C 
BRANCH  12  13
ATOM     13  C   UNL     1      39.068 -50.720 -17.126  1.00  0.00     0.000 C 
BRANCH  13  14
ATOM     14  C   UNL     1      39.202 -49.278 -17.642  1.00  0.00     0.000 C 
BRANCH  14  15
ATOM     15  C   UNL     1      39.623 -48.291 -16.542  1.00  0.00     0.000 C 
BRANCH  15  16
ATOM     16  C   UNL     1      39.582 -48.958 -15.162  1.00  0.00     0.006 C 
BRANCH  16  17
ATOM     17  C   UNL     1      38.560 -48.273 -14.250  1.00  0.00     0.053 C 
BRANCH  17  18
ATOM     18  C   UNL     1      38.999 -48.348 -12.821  1.00  0.00     0.041 C 
ATOM     19  O   UNL     1      38.867 -49.419 -12.174  1.00  0.00    -0.550 OA
ATOM     20  O   UNL     1      39.510 -47.220 -12.192  1.00  0.00    -0.550 OA
ENDBRANCH  17  18
ENDBRANCH  16  17
ENDBRANCH  15  16
ENDBRANCH  14  15
ENDBRANCH  13  14
ENDBRANCH  12  13
ENDBRANCH  11  12
ENDBRANCH   1  11
TORSDOF 15
ENDMDL
MODEL 3
REMARK VINA RESULT:    -3.817      0.838      4.741
REMARK INTER + INTRA:          -9.171
REMARK INTER:                  -7.015
REMARK INTRA:                  -2.156
REMARK UNBOUND:                -2.006
REMARK SMILES O=C([O-])CCCCCCCCCCCCCCC(=O)[O-]
REMARK SMILES IDX 10 1 9 2 8 3 7 4 6 5 5 6 4 7 2 8 1 9 3 10 11 11 12 12 13 13
REMARK SMILES IDX 14 14 15 15 16 16 17 17 18 18 19 19 20 20
REMARK H PARENT
REMARK Flexibility Score: inf
ROOT
ATOM      1  C   UNL     1      53.251 -51.377  -9.866  1.00  0.00     0.000 C 
ENDROOT
BRANCH   1   2
ATOM      2  C   UNL     1      53.240 -51.364 -11.401  1.00  0.00     0.000 C 
BRANCH   2   3
ATOM      3  C   UNL     1      51.877 -50.900 -11.936  1.00  0.00     0.000 C 
BRANCH   3   4
ATOM      4  C   UNL     1      51.988 -50.087 -13.239  1.00  0.00     0.000 C 
BRANCH   4   5
ATOM      5  C   UNL     1      50.648 -49.580 -13.806  1.00  0.00     0.000 C 
BRANCH   5   6
ATOM      6  C   UNL     1      49.487 -50.558 -13.565  1.00  0.00     0.006 C 
BRANCH   6   7
ATOM      7  C   UNL     1      48.124 -49.852 -13.569  1.00  0.00     0.053 C 
BRANCH   7   8
ATOM      8  C   UNL     1      47.019 -50.775 -13.981  1.00  0.00     0.041 C 
ATOM      9  O   UNL     1      47.071 -51.370 -15.091  1.00  0.00    -0.550 OA
ATOM     10  O   UNL     1      45.945 -51.001 -13.130  1.00  0.00    -0.550 OA
ENDBRANCH   7   8
ENDBRANCH   6   7
ENDBRANCH   5   6
ENDBRANCH   4   5
ENDBRANCH   3   4
ENDBRANCH   2   3
ENDBRANCH   1   2
BRANCH   1  11
ATOM     11  C   UNL     1      51.883 -51.739  -9.256  1.00  0.00     0.000 C 
BRANCH  11  12
ATOM     12  C   UNL     1      51.383 -50.780  -8.160  1.00  0.00     0.000 C 
BRANCH  12  13
ATOM     13  C   UNL     1      52.155 -49.450  -8.129  1.00  0.00     0.000 C 
BRANCH  13  14
ATOM     14  C   UNL     1      51.383 -48.305  -8.805  1.00  0.00     0.000 C 
BRANCH  14  15
ATOM     15  C   UNL     1      52.080 -47.788 -10.074  1.00  0.00     0.000 C 
BRANCH  15  16
ATOM     16  C   UNL     1      51.070 -47.137 -11.027  1.00  0.00     0.006 C 
BRANCH  16  17
ATOM     17  C   UNL     1      49.632 -47.409 -10.575  1.00  0.00     0.053 C 
BRANCH  17  18
ATOM     18  C   UNL     1      48.658 -46.875 -11.578  1.00  0.00     0.041 C 
ATOM     19  O   UNL     1      49.069 -46.397 -12.668  1.00  0.00    -0.550 OA
ATOM     20  O   UNL     1      47.300 -46.861 -11.288  1.00  0.00    -0.550 OA
ENDBRANCH  17  18
ENDBRANCH  16  17
ENDBRANCH  15  16
ENDBRANCH  14  15
ENDBRANCH  13  14
ENDBRANCH  12  13
ENDBRANCH  11  12
ENDBRANCH   1  11
TORSDOF 15
ENDMDL
MODEL 4
REMARK VINA RESULT:    -3.787     10.680     13.680
REMARK INTER + INTRA:          -9.114
REMARK INTER:                  -6.749
REMARK INTRA:                  -2.365
REMARK UNBOUND:                -2.006
REMARK SMILES O=C([O-])CCCCCCCCCCCCCCC(=O)[O-]
REMARK SMILES IDX 10 1 9 2 8 3 7 4 6 5 5 6 4 7 2 8 1 9 3 10 11 11 12 12 13 13
REMARK SMILES IDX 14 14 15 15 16 16 17 17 18 18 19 19 20 20
REMARK H PARENT
REMARK Flexibility Score: inf
ROOT
ATOM      1  C   UNL     1      38.511 -50.565 -18.243  1.00  0.00     0.000 C 
ENDROOT
BRANCH   1   2
ATOM      2  C   UNL     1      39.706 -49.935 -17.511  1.00  0.00     0.000 C 
BRANCH   2   3
ATOM      3  C   UNL     1      39.243 -48.811 -16.572  1.00  0.00     0.000 C 
BRANCH   3   4
ATOM      4  C   UNL     1      39.743 -48.990 -15.127  1.00  0.00     0.000 C 
BRANCH   4   5
ATOM      5  C   UNL     1      38.874 -48.316 -14.049  1.00  0.00     0.000 C 
BRANCH   5   6
ATOM      6  C   UNL     1      38.573 -49.240 -12.858  1.00  0.00     0.006 C 
BRANCH   6   7
ATOM      7  C   UNL     1      39.710 -49.243 -11.826  1.00  0.00     0.053 C 
BRANCH   7   8
ATOM      8  C   UNL     1      40.006 -47.866 -11.318  1.00  0.00     0.041 C 
ATOM      9  O   UNL     1      41.136 -47.347 -11.516  1.00  0.00    -0.550 OA
ATOM     10  O   UNL     1      39.025 -47.144 -10.649  1.00  0.00    -0.550 OA
ENDBRANCH   7   8
ENDBRANCH   6   7
ENDBRANCH   5   6
ENDBRANCH   4   5
ENDBRANCH   3   4
ENDBRANCH   2   3
ENDBRANCH   1   2
BRANCH   1  11
ATOM     11  C   UNL     1      37.927 -51.785 -17.505  1.00  0.00     0.000 C 
BRANCH  11  12
ATOM     12  C   UNL     1      36.528 -51.573 -16.899  1.00  0.00     0.000 C 
BRANCH  12  13
ATOM     13  C   UNL     1      36.562 -51.359 -15.376  1.00  0.00     0.000 C 
BRANCH  13  14
ATOM     14  C   UNL     1      35.683 -50.180 -14.927  1.00  0.00     0.000 C 
BRANCH  14  15
ATOM     15  C   UNL     1      35.020 -49.451 -16.106  1.00  0.00     0.000 C 
BRANCH  15  16
ATOM     16  C   UNL     1      35.631 -48.059 -16.304  1.00  0.00     0.006 C 
BRANCH  16  17
ATOM     17  C   UNL     1      35.854 -47.761 -17.789  1.00  0.00     0.053 C 
BRANCH  17  18
ATOM     18  C   UNL     1      36.637 -46.497 -17.958  1.00  0.00     0.041 C 
ATOM     19  O   UNL     1      36.521 -45.563 -17.122  1.00  0.00    -0.550 OA
ATOM     20  O   UNL     1      37.459 -46.332 -19.066  1.00  0.00    -0.550 OA
ENDBRANCH  17  18
ENDBRANCH  16  17
ENDBRANCH  15  16
ENDBRANCH  14  15
ENDBRANCH  13  14
ENDBRANCH  12  13
ENDBRANCH  11  12
ENDBRANCH   1  11
TORSDOF 15
ENDMDL
MODEL 5
REMARK VINA RESULT:    -3.719      1.790      4.255
REMARK INTER + INTRA:          -8.986
REMARK INTER:                  -7.071
REMARK INTRA:                  -1.915
REMARK UNBOUND:                -2.006
REMARK SMILES O=C([O-])CCCCCCCCCCCCCCC(=O)[O-]
REMARK SMILES IDX 10 1 9 2 8 3 7 4 6 5 5 6 4 7 2 8 1 9 3 10 11 11 12 12 13 13
REMARK SMILES IDX 14 14 15 15 16 16 17 17 18 18 19 19 20 20
REMARK H PARENT
REMARK Flexibility Score: inf
ROOT
ATOM      1  C   UNL     1      52.135 -49.409  -8.194  1.00  0.00     0.000 C 
ENDROOT
BRANCH   1   2
ATOM      2  C   UNL     1      51.389 -50.747  -8.086  1.00  0.00     0.000 C 
BRANCH   2   3
ATOM      3  C   UNL     1      52.090 -51.835  -8.913  1.00  0.00     0.000 C 
BRANCH   3   4
ATOM      4  C   UNL     1      53.270 -51.296  -9.740  1.00  0.00     0.000 C 
BRANCH   4   5
ATOM      5  C   UNL     1      53.048 -51.289 -11.264  1.00  0.00     0.000 C 
BRANCH   5   6
ATOM      6  C   UNL     1      51.560 -51.305 -11.653  1.00  0.00     0.006 C 
BRANCH   6   7
ATOM      7  C   UNL     1      51.358 -51.284 -13.174  1.00  0.00     0.053 C 
BRANCH   7   8
ATOM      8  C   UNL     1      50.356 -50.251 -13.589  1.00  0.00     0.041 C 
ATOM      9  O   UNL     1      50.609 -49.026 -13.438  1.00  0.00    -0.550 OA
ATOM     10  O   UNL     1      49.155 -50.639 -14.169  1.00  0.00    -0.550 OA
ENDBRANCH   7   8
ENDBRANCH   6   7
ENDBRANCH   5   6
ENDBRANCH   4   5
ENDBRANCH   3   4
ENDBRANCH   2   3
ENDBRANCH   1   2
BRANCH   1  11
ATOM     11  C   UNL     1      51.311 -48.315  -8.898  1.00  0.00     0.000 C 
BRANCH  11  12
ATOM     12  C   UNL     1      51.851 -47.871 -10.270  1.00  0.00     0.000 C 
BRANCH  12  13
ATOM     13  C   UNL     1      51.322 -46.494 -10.704  1.00  0.00     0.000 C 
BRANCH  13  14
ATOM     14  C   UNL     1      50.202 -45.976  -9.787  1.00  0.00     0.000 C 
BRANCH  14  15
ATOM     15  C   UNL     1      48.936 -45.579 -10.562  1.00  0.00     0.000 C 
BRANCH  15  16
ATOM     16  C   UNL     1      48.810 -46.388 -11.858  1.00  0.00     0.006 C 
BRANCH  16  17
ATOM     17  C   UNL     1      47.863 -47.578 -11.675  1.00  0.00     0.053 C 
BRANCH  17  18
ATOM     18  C   UNL     1      47.246 -47.963 -12.983  1.00  0.00     0.041 C 
ATOM     19  O   UNL     1      47.500 -47.300 -14.022  1.00  0.00    -0.550 OA
ATOM     20  O   UNL     1      46.353 -49.024 -13.044  1.00  0.00    -0.550 OA
ENDBRANCH  17  18
ENDBRANCH  16  17
ENDBRANCH  15  16
ENDBRANCH  14  15
ENDBRANCH  13  14
ENDBRANCH  12  13
ENDBRANCH  11  12
ENDBRANCH   1  11
TORSDOF 15
ENDMDL
MODEL 6
REMARK VINA RESULT:    -3.715      2.088      3.773
REMARK INTER + INTRA:          -8.979
REMARK INTER:                  -7.360
REMARK INTRA:                  -1.619
REMARK UNBOUND:                -2.006
REMARK SMILES O=C([O-])CCCCCCCCCCCCCCC(=O)[O-]
REMARK SMILES IDX 10 1 9 2 8 3 7 4 6 5 5 6 4 7 2 8 1 9 3 10 11 11 12 12 13 13
REMARK SMILES IDX 14 14 15 15 16 16 17 17 18 18 19 19 20 20
REMARK H PARENT
REMARK Flexibility Score: inf
ROOT
ATOM      1  C   UNL     1      51.212 -48.447  -9.022  1.00  0.00     0.000 C 
ENDROOT
BRANCH   1   2
ATOM      2  C   UNL     1      52.127 -47.729 -10.025  1.00  0.00     0.000 C 
BRANCH   2   3
ATOM      3  C   UNL     1      51.375 -46.599 -10.743  1.00  0.00     0.000 C 
BRANCH   3   4
ATOM      4  C   UNL     1      50.024 -46.263 -10.086  1.00  0.00     0.000 C 
BRANCH   4   5
ATOM      5  C   UNL     1      49.443 -44.886 -10.459  1.00  0.00     0.000 C 
BRANCH   5   6
ATOM      6  C   UNL     1      47.951 -44.945 -10.827  1.00  0.00     0.006 C 
BRANCH   6   7
ATOM      7  C   UNL     1      47.390 -46.371 -10.743  1.00  0.00     0.053 C 
BRANCH   7   8
ATOM      8  C   UNL     1      47.189 -46.973 -12.099  1.00  0.00     0.041 C 
ATOM      9  O   UNL     1      47.310 -48.215 -12.266  1.00  0.00    -0.550 OA
ATOM     10  O   UNL     1      46.839 -46.165 -13.174  1.00  0.00    -0.550 OA
ENDBRANCH   7   8
ENDBRANCH   6   7
ENDBRANCH   5   6
ENDBRANCH   4   5
ENDBRANCH   3   4
ENDBRANCH   2   3
ENDBRANCH   1   2
BRANCH   1  11
ATOM     11  C   UNL     1      51.986 -49.336  -8.030  1.00  0.00     0.000 C 
BRANCH  11  12
ATOM     12  C   UNL     1      51.364 -50.720  -7.770  1.00  0.00     0.000 C 
BRANCH  12  13
ATOM     13  C   UNL     1      51.927 -51.813  -8.694  1.00  0.00     0.000 C 
BRANCH  13  14
ATOM     14  C   UNL     1      53.303 -51.444  -9.272  1.00  0.00     0.000 C 
BRANCH  14  15
ATOM     15  C   UNL     1      53.286 -51.302 -10.803  1.00  0.00     0.000 C 
BRANCH  15  16
ATOM     16  C   UNL     1      51.848 -51.289 -11.335  1.00  0.00     0.006 C 
BRANCH  16  17
ATOM     17  C   UNL     1      51.736 -50.429 -12.598  1.00  0.00     0.053 C 
BRANCH  17  18
ATOM     18  C   UNL     1      51.769 -51.289 -13.822  1.00  0.00     0.041 C 
ATOM     19  O   UNL     1      50.746 -51.936 -14.169  1.00  0.00    -0.550 OA
ATOM     20  O   UNL     1      52.944 -51.413 -14.553  1.00  0.00    -0.550 OA
ENDBRANCH  17  18
ENDBRANCH  16  17
ENDBRANCH  15  16
ENDBRANCH  14  15
ENDBRANCH  13  14
ENDBRANCH  12  13
ENDBRANCH  11  12
ENDBRANCH   1  11
TORSDOF 15
ENDMDL
MODEL 7
REMARK VINA RESULT:    -3.683     11.242     14.734
REMARK INTER + INTRA:          -8.919
REMARK INTER:                  -6.887
REMARK INTRA:                  -2.032
REMARK UNBOUND:                -2.006
REMARK SMILES O=C([O-])CCCCCCCCCCCCCCC(=O)[O-]
REMARK SMILES IDX 10 1 9 2 8 3 7 4 6 5 5 6 4 7 2 8 1 9 3 10 11 11 12 12 13 13
REMARK SMILES IDX 14 14 15 15 16 16 17 17 18 18 19 19 20 20
REMARK H PARENT
REMARK Flexibility Score: inf
ROOT
ATOM      1  C   UNL     1      38.633 -48.066 -21.190  1.00  0.00     0.000 C 
ENDROOT
BRANCH   1   2
ATOM      2  C   UNL     1      38.166 -46.634 -20.888  1.00  0.00     0.000 C 
BRANCH   2   3
ATOM      3  C   UNL     1      36.904 -46.642 -20.012  1.00  0.00     0.000 C 
BRANCH   3   4
ATOM      4  C   UNL     1      37.133 -46.022 -18.622  1.00  0.00     0.000 C 
BRANCH   4   5
ATOM      5  C   UNL     1      36.984 -46.998 -17.441  1.00  0.00     0.000 C 
BRANCH   5   6
ATOM      6  C   UNL     1      35.758 -47.918 -17.574  1.00  0.00     0.006 C 
BRANCH   6   7
ATOM      7  C   UNL     1      35.216 -48.362 -16.209  1.00  0.00     0.053 C 
BRANCH   7   8
ATOM      8  C   UNL     1      35.159 -49.854 -16.090  1.00  0.00     0.041 C 
ATOM      9  O   UNL     1      35.185 -50.574 -17.124  1.00  0.00    -0.550 OA
ATOM     10  O   UNL     1      35.106 -50.451 -14.837  1.00  0.00    -0.550 OA
ENDBRANCH   7   8
ENDBRANCH   6   7
ENDBRANCH   5   6
ENDBRANCH   4   5
ENDBRANCH   3   4
ENDBRANCH   2   3
ENDBRANCH   1   2
BRANCH   1  11
ATOM     11  C   UNL     1      39.381 -48.717 -20.012  1.00  0.00     0.000 C 
BRANCH  11  12
ATOM     12  C   UNL     1      39.164 -50.234 -19.859  1.00  0.00     0.000 C 
BRANCH  12  13
ATOM     13  C   UNL     1      38.612 -50.623 -18.477  1.00  0.00     0.000 C 
BRANCH  13  14
ATOM     14  C   UNL     1      39.521 -50.159 -17.327  1.00  0.00     0.000 C 
BRANCH  14  15
ATOM     15  C   UNL     1      38.751 -49.932 -16.016  1.00  0.00     0.000 C 
BRANCH  15  16
ATOM     16  C   UNL     1      39.342 -48.757 -15.229  1.00  0.00     0.006 C 
BRANCH  16  17
ATOM     17  C   UNL     1      38.559 -48.510 -13.936  1.00  0.00     0.053 C 
BRANCH  17  18
ATOM     18  C   UNL     1      39.425 -48.759 -12.742  1.00  0.00     0.041 C 
ATOM     19  O   UNL     1      39.011 -48.475 -11.588  1.00  0.00    -0.550 OA
ATOM     20  O   UNL     1      40.710 -49.260 -12.909  1.00  0.00    -0.550 OA
ENDBRANCH  17  18
ENDBRANCH  16  17
ENDBRANCH  15  16
ENDBRANCH  14  15
ENDBRANCH  13  14
ENDBRANCH  12  13
ENDBRANCH  11  12
ENDBRANCH   1  11
TORSDOF 15
ENDMDL
MODEL 8
REMARK VINA RESULT:    -3.659     10.008     13.619
REMARK INTER + INTRA:          -8.874
REMARK INTER:                  -6.892
REMARK INTRA:                  -1.982
REMARK UNBOUND:                -2.006
REMARK SMILES O=C([O-])CCCCCCCCCCCCCCC(=O)[O-]
REMARK SMILES IDX 10 1 9 2 8 3 7 4 6 5 5 6 4 7 2 8 1 9 3 10 11 11 12 12 13 13
REMARK SMILES IDX 14 14 15 15 16 16 17 17 18 18 19 19 20 20
REMARK H PARENT
REMARK Flexibility Score: inf
ROOT
ATOM      1  C   UNL     1      38.191 -50.574 -16.936  1.00  0.00     0.000 C 
ENDROOT
BRANCH   1   2
ATOM      2  C   UNL     1      38.784 -49.277 -16.365  1.00  0.00     0.000 C 
BRANCH   2   3
ATOM      3  C   UNL     1      38.569 -49.197 -14.847  1.00  0.00     0.000 C 
BRANCH   3   4
ATOM      4  C   UNL     1      38.636 -47.758 -14.305  1.00  0.00     0.000 C 
BRANCH   4   5
ATOM      5  C   UNL     1      38.875 -47.644 -12.788  1.00  0.00     0.000 C 
BRANCH   5   6
ATOM      6  C   UNL     1      39.271 -48.982 -12.141  1.00  0.00     0.006 C 
BRANCH   6   7
ATOM      7  C   UNL     1      40.647 -48.913 -11.464  1.00  0.00     0.053 C 
BRANCH   7   8
ATOM      8  C   UNL     1      41.755 -48.782 -12.463  1.00  0.00     0.041 C 
ATOM      9  O   UNL     1      42.656 -47.917 -12.301  1.00  0.00    -0.550 OA
ATOM     10  O   UNL     1      41.808 -49.634 -13.559  1.00  0.00    -0.550 OA
ENDBRANCH   7   8
ENDBRANCH   6   7
ENDBRANCH   5   6
ENDBRANCH   4   5
ENDBRANCH   3   4
ENDBRANCH   2   3
ENDBRANCH   1   2
BRANCH   1  11
ATOM     11  C   UNL     1      36.962 -51.071 -16.151  1.00  0.00     0.000 C 
BRANCH  11  12
ATOM     12  C   UNL     1      35.604 -50.583 -16.687  1.00  0.00     0.000 C 
BRANCH  12  13
ATOM     13  C   UNL     1      34.945 -49.531 -15.779  1.00  0.00     0.000 C 
BRANCH  13  14
ATOM     14  C   UNL     1      35.248 -48.092 -16.228  1.00  0.00     0.000 C 
BRANCH  14  15
ATOM     15  C   UNL     1      35.468 -47.978 -17.745  1.00  0.00     0.000 C 
BRANCH  15  16
ATOM     16  C   UNL     1      36.513 -46.902 -18.068  1.00  0.00     0.006 C 
BRANCH  16  17
ATOM     17  C   UNL     1      36.742 -46.794 -19.578  1.00  0.00     0.053 C 
BRANCH  17  18
ATOM     18  C   UNL     1      38.206 -46.724 -19.882  1.00  0.00     0.041 C 
ATOM     19  O   UNL     1      38.709 -45.663 -20.334  1.00  0.00    -0.550 OA
ATOM     20  O   UNL     1      39.005 -47.848 -19.711  1.00  0.00    -0.550 OA
ENDBRANCH  17  18
ENDBRANCH  16  17
ENDBRANCH  15  16
ENDBRANCH  14  15
ENDBRANCH  13  14
ENDBRANCH  12  13
ENDBRANCH  11  12
ENDBRANCH   1  11
TORSDOF 15
ENDMDL
MODEL 9
REMARK VINA RESULT:    -3.630      2.151      4.115
REMARK INTER + INTRA:          -8.819
REMARK INTER:                  -7.078
REMARK INTRA:                  -1.741
REMARK UNBOUND:                -2.006
REMARK SMILES O=C([O-])CCCCCCCCCCCCCCC(=O)[O-]
REMARK SMILES IDX 10 1 9 2 8 3 7 4 6 5 5 6 4 7 2 8 1 9 3 10 11 11 12 12 13 13
REMARK SMILES IDX 14 14 15 15 16 16 17 17 18 18 19 19 20 20
REMARK H PARENT
REMARK Flexibility Score: inf
ROOT
ATOM      1  C   UNL     1      51.332 -48.365  -8.911  1.00  0.00     0.000 C 
ENDROOT
BRANCH   1   2
ATOM      2  C   UNL     1      52.131 -49.399  -8.103  1.00  0.00     0.000 C 
BRANCH   2   3
ATOM      3  C   UNL     1      51.400 -50.749  -8.065  1.00  0.00     0.000 C 
BRANCH   3   4
ATOM      4  C   UNL     1      52.057 -51.815  -8.961  1.00  0.00     0.000 C 
BRANCH   4   5
ATOM      5  C   UNL     1      53.295 -51.335  -9.741  1.00  0.00     0.000 C 
BRANCH   5   6
ATOM      6  C   UNL     1      53.060 -51.278 -11.260  1.00  0.00     0.006 C 
BRANCH   6   7
ATOM      7  C   UNL     1      51.567 -51.278 -11.616  1.00  0.00     0.053 C 
BRANCH   7   8
ATOM      8  C   UNL     1      51.337 -50.921 -13.052  1.00  0.00     0.041 C 
ATOM      9  O   UNL     1      50.455 -51.524 -13.721  1.00  0.00    -0.550 OA
ATOM     10  O   UNL     1      52.075 -49.905 -13.645  1.00  0.00    -0.550 OA
ENDBRANCH   7   8
ENDBRANCH   6   7
ENDBRANCH   5   6
ENDBRANCH   4   5
ENDBRANCH   3   4
ENDBRANCH   2   3
ENDBRANCH   1   2
BRANCH   1  11
ATOM     11  C   UNL     1      52.154 -47.719 -10.042  1.00  0.00     0.000 C 
BRANCH  11  12
ATOM     12  C   UNL     1      51.343 -47.296 -11.280  1.00  0.00     0.000 C 
BRANCH  12  13
ATOM     13  C   UNL     1      49.965 -47.977 -11.354  1.00  0.00     0.000 C 
BRANCH  13  14
ATOM     14  C   UNL     1      48.806 -46.983 -11.169  1.00  0.00     0.000 C 
BRANCH  14  15
ATOM     15  C   UNL     1      47.503 -47.462 -11.827  1.00  0.00     0.000 C 
BRANCH  15  16
ATOM     16  C   UNL     1      47.796 -48.396 -13.008  1.00  0.00     0.006 C 
BRANCH  16  17
ATOM     17  C   UNL     1      46.798 -49.557 -13.053  1.00  0.00     0.053 C 
BRANCH  17  18
ATOM     18  C   UNL     1      45.758 -49.314 -14.100  1.00  0.00     0.041 C 
ATOM     19  O   UNL     1      46.098 -48.978 -15.265  1.00  0.00    -0.550 OA
ATOM     20  O   UNL     1      44.410 -49.411 -13.777  1.00  0.00    -0.550 OA
ENDBRANCH  17  18
ENDBRANCH  16  17
ENDBRANCH  15  16
ENDBRANCH  14  15
ENDBRANCH  13  14
ENDBRANCH  12  13
ENDBRANCH  11  12
ENDBRANCH   1  11
TORSDOF 15
ENDMDL
