MODEL 1
REMARK VINA RESULT:    24.948      0.000      0.000
REMARK INTER + INTRA:          45.565
REMARK INTER:                  37.344
REMARK INTRA:                   8.221
REMARK UNBOUND:                 8.221
REMARK SMILES C=C(CC[C@@H](C(=O)[O-])[C@H]1[C@@H](O)C[C@@]2(C)C3=C(CC[C@@]12C)[C@@]1(C)CC[C@@H](OC(C)=O)C(C)(C)[C@H]1CC3)C(C)C
REMARK SMILES IDX 4 1 5 2 6 3 7 4 8 5 9 6 10 7 19 8 12 9 13 10 18 11 20 12
REMARK SMILES IDX 14 13 15 14 17 15 16 16 35 17 21 18 34 19 33 20 23 21 22 22
REMARK SMILES IDX 30 23 24 24 25 25 31 26 32 27 11 28 26 30 27 31 29 32 28 33
REMARK SMILES IDX 3 34 2 35 1 36 36 37 37 38 38 39
REMARK H PARENT 11 29
REMARK Flexibility Score: inf
ROOT
ATOM      1  C   UNL     1      -4.279  34.044  24.708  1.00  0.00     0.014 C 
ENDROOT
BRANCH   1   2
ATOM      2  C   UNL     1      -4.308  34.523  26.185  1.00  0.00     0.042 C 
BRANCH   2   3
ATOM      3  C   UNL     1      -4.989  35.870  26.239  1.00  0.00     0.045 C 
ATOM      4  O   UNL     1      -5.325  36.373  27.343  1.00  0.00    -0.550 OA
ATOM      5  O   UNL     1      -5.290  36.545  25.063  1.00  0.00    -0.550 OA
ENDBRANCH   2   3
BRANCH   2   6
ATOM      6  C   UNL     1      -5.009  33.480  27.126  1.00  0.00     0.033 C 
ATOM      7  C   UNL     1      -6.125  32.638  26.447  1.00  0.00     0.119 C 
ATOM      8  C   UNL     1      -4.097  32.440  27.874  1.00  0.00    -0.017 C 
ATOM      9  C   UNL     1      -6.064  31.228  27.044  1.00  0.00     0.043 C 
ATOM     10  C   UNL     1      -5.079  31.263  28.232  1.00  0.00    -0.003 C 
ATOM     11  C   UNL     1      -2.980  31.898  26.946  1.00  0.00     0.012 C 
ATOM     12  C   UNL     1      -3.438  33.071  29.140  1.00  0.00     0.013 C 
ATOM     13  C   UNL     1      -5.877  31.580  29.537  1.00  0.00     0.017 C 
ATOM     14  C   UNL     1      -4.405  29.872  28.360  1.00  0.00    -0.064 C 
ATOM     15  C   UNL     1      -2.196  30.784  27.623  1.00  0.00     0.032 C 
ATOM     16  C   UNL     1      -3.081  29.642  28.099  1.00  0.00    -0.064 C 
ATOM     17  C   UNL     1      -5.280  28.682  28.664  1.00  0.00     0.032 C 
ATOM     18  C   UNL     1      -2.438  28.221  28.235  1.00  0.00    -0.008 C 
ATOM     19  C   UNL     1      -4.578  27.811  29.683  1.00  0.00     0.009 C 
ATOM     20  C   UNL     1      -3.346  27.162  29.020  1.00  0.00     0.009 C 
ATOM     21  C   UNL     1      -1.063  28.378  28.946  1.00  0.00     0.015 C 
ATOM     22  C   UNL     1      -2.209  27.716  26.782  1.00  0.00     0.016 C 
ATOM     23  C   UNL     1      -2.595  26.157  29.996  1.00  0.00     0.005 C 
ATOM     24  C   UNL     1      -0.307  27.072  29.236  1.00  0.00     0.047 C 
ATOM     25  C   UNL     1      -1.189  25.826  29.416  1.00  0.00     0.182 C 
ATOM     26  C   UNL     1      -2.465  26.700  31.448  1.00  0.00     0.015 C 
ATOM     27  C   UNL     1      -3.402  24.832  30.079  1.00  0.00     0.015 C 
BRANCH   7  28
ATOM     28  O   UNL     1      -6.038  32.589  25.043  1.00  0.00    -0.393 OA
ATOM     29  H   UNL     1      -6.876  32.198  24.688  1.00  0.00     0.210 HD
ENDBRANCH   7  28
BRANCH  25  30
ATOM     30  O   UNL     1      -0.484  24.899  30.254  1.00  0.00    -0.462 OA
BRANCH  30  31
ATOM     31  C   UNL     1       0.089  25.225  31.490  1.00  0.00     0.302 C 
ATOM     32  O   UNL     1      -0.270  26.256  32.123  1.00  0.00    -0.253 OA
ATOM     33  C   UNL     1       1.108  24.315  32.085  1.00  0.00     0.139 C 
ENDBRANCH  30  31
ENDBRANCH  25  30
ENDBRANCH   2   6
ENDBRANCH   1   2
BRANCH   1  34
ATOM     34  C   UNL     1      -5.681  33.842  24.098  1.00  0.00     0.031 C 
BRANCH  34  35
ATOM     35  C   UNL     1      -5.674  33.783  22.581  1.00  0.00    -0.075 C 
ATOM     36  C   UNL     1      -5.925  34.902  21.876  1.00  0.00     0.008 C 
BRANCH  35  37
ATOM     37  C   UNL     1      -5.286  32.487  21.876  1.00  0.00     0.008 C 
ATOM     38  C   UNL     1      -3.786  32.184  22.003  1.00  0.00     0.012 C 
ATOM     39  C   UNL     1      -6.123  31.312  22.396  1.00  0.00     0.012 C 
ENDBRANCH  35  37
ENDBRANCH  34  35
ENDBRANCH   1  34
TORSDOF 9
ENDMDL
MODEL 2
REMARK VINA RESULT:    27.223      0.735      1.285
REMARK INTER + INTRA:          48.971
REMARK INTER:                  36.970
REMARK INTRA:                  12.000
REMARK UNBOUND:                 8.221
REMARK SMILES C=C(CC[C@@H](C(=O)[O-])[C@H]1[C@@H](O)C[C@@]2(C)C3=C(CC[C@@]12C)[C@@]1(C)CC[C@@H](OC(C)=O)C(C)(C)[C@H]1CC3)C(C)C
REMARK SMILES IDX 4 1 5 2 6 3 7 4 8 5 9 6 10 7 19 8 12 9 13 10 18 11 20 12
REMARK SMILES IDX 14 13 15 14 17 15 16 16 35 17 21 18 34 19 33 20 23 21 22 22
REMARK SMILES IDX 30 23 24 24 25 25 31 26 32 27 11 28 26 30 27 31 29 32 28 33
REMARK SMILES IDX 3 34 2 35 1 36 36 37 37 38 38 39
REMARK H PARENT 11 29
REMARK Flexibility Score: inf
ROOT
ATOM      1  C   UNL     1      -3.908  33.847  24.717  1.00  0.00     0.014 C 
ENDROOT
BRANCH   1   2
ATOM      2  C   UNL     1      -4.285  34.495  26.077  1.00  0.00     0.042 C 
BRANCH   2   3
ATOM      3  C   UNL     1      -5.143  35.708  25.807  1.00  0.00     0.045 C 
ATOM      4  O   UNL     1      -6.042  35.673  24.926  1.00  0.00    -0.550 OA
ATOM      5  O   UNL     1      -4.917  36.890  26.502  1.00  0.00    -0.550 OA
ENDBRANCH   2   3
BRANCH   2   6
ATOM      6  C   UNL     1      -5.001  33.478  27.033  1.00  0.00     0.033 C 
ATOM      7  C   UNL     1      -6.125  32.637  26.366  1.00  0.00     0.119 C 
ATOM      8  C   UNL     1      -4.105  32.441  27.804  1.00  0.00    -0.017 C 
ATOM      9  C   UNL     1      -6.083  31.237  26.989  1.00  0.00     0.043 C 
ATOM     10  C   UNL     1      -5.103  31.283  28.179  1.00  0.00    -0.003 C 
ATOM     11  C   UNL     1      -2.991  31.869  26.890  1.00  0.00     0.012 C 
ATOM     12  C   UNL     1      -3.444  33.087  29.061  1.00  0.00     0.013 C 
ATOM     13  C   UNL     1      -5.901  31.633  29.475  1.00  0.00     0.017 C 
ATOM     14  C   UNL     1      -4.446  29.887  28.336  1.00  0.00    -0.064 C 
ATOM     15  C   UNL     1      -2.223  30.759  27.591  1.00  0.00     0.032 C 
ATOM     16  C   UNL     1      -3.124  29.636  28.084  1.00  0.00    -0.064 C 
ATOM     17  C   UNL     1      -5.336  28.712  28.658  1.00  0.00     0.032 C 
ATOM     18  C   UNL     1      -2.498  28.210  28.249  1.00  0.00    -0.008 C 
ATOM     19  C   UNL     1      -4.648  27.852  29.695  1.00  0.00     0.009 C 
ATOM     20  C   UNL     1      -3.422  27.176  29.049  1.00  0.00     0.009 C 
ATOM     21  C   UNL     1      -1.124  28.364  28.962  1.00  0.00     0.015 C 
ATOM     22  C   UNL     1      -2.270  27.675  26.805  1.00  0.00     0.016 C 
ATOM     23  C   UNL     1      -2.686  26.181  30.046  1.00  0.00     0.005 C 
ATOM     24  C   UNL     1      -0.385  27.054  29.279  1.00  0.00     0.047 C 
ATOM     25  C   UNL     1      -1.282  25.822  29.478  1.00  0.00     0.182 C 
ATOM     26  C   UNL     1      -2.556  26.748  31.489  1.00  0.00     0.015 C 
ATOM     27  C   UNL     1      -3.510  24.867  30.150  1.00  0.00     0.015 C 
BRANCH   7  28
ATOM     28  O   UNL     1      -6.033  32.562  24.963  1.00  0.00    -0.393 OA
ATOM     29  H   UNL     1      -5.181  32.114  24.726  1.00  0.00     0.210 HD
ENDBRANCH   7  28
BRANCH  25  30
ATOM     30  O   UNL     1      -0.592  24.902  30.335  1.00  0.00    -0.462 OA
BRANCH  30  31
ATOM     31  C   UNL     1      -0.552  24.997  31.733  1.00  0.00     0.302 C 
ATOM     32  O   UNL     1      -1.580  24.776  32.430  1.00  0.00    -0.253 OA
ATOM     33  C   UNL     1       0.736  25.324  32.406  1.00  0.00     0.139 C 
ENDBRANCH  30  31
ENDBRANCH  25  30
ENDBRANCH   2   6
ENDBRANCH   1   2
BRANCH   1  34
ATOM     34  C   UNL     1      -5.043  33.004  24.101  1.00  0.00     0.031 C 
BRANCH  34  35
ATOM     35  C   UNL     1      -5.273  33.290  22.627  1.00  0.00    -0.075 C 
ATOM     36  C   UNL     1      -6.085  32.485  21.918  1.00  0.00     0.008 C 
BRANCH  35  37
ATOM     37  C   UNL     1      -4.663  34.538  21.996  1.00  0.00     0.008 C 
ATOM     38  C   UNL     1      -5.261  35.830  22.570  1.00  0.00     0.012 C 
ATOM     39  C   UNL     1      -3.136  34.534  22.143  1.00  0.00     0.012 C 
ENDBRANCH  35  37
ENDBRANCH  34  35
ENDBRANCH   1  34
TORSDOF 9
ENDMDL
MODEL 3
REMARK VINA RESULT:    27.260      1.155      1.383
REMARK INTER + INTRA:          49.027
REMARK INTER:                  45.260
REMARK INTRA:                   3.766
REMARK UNBOUND:                 8.221
REMARK SMILES C=C(CC[C@@H](C(=O)[O-])[C@H]1[C@@H](O)C[C@@]2(C)C3=C(CC[C@@]12C)[C@@]1(C)CC[C@@H](OC(C)=O)C(C)(C)[C@H]1CC3)C(C)C
REMARK SMILES IDX 4 1 5 2 6 3 7 4 8 5 9 6 10 7 19 8 12 9 13 10 18 11 20 12
REMARK SMILES IDX 14 13 15 14 17 15 16 16 35 17 21 18 34 19 33 20 23 21 22 22
REMARK SMILES IDX 30 23 24 24 25 25 31 26 32 27 11 28 26 30 27 31 29 32 28 33
REMARK SMILES IDX 3 34 2 35 1 36 36 37 37 38 38 39
REMARK H PARENT 11 29
REMARK Flexibility Score: inf
ROOT
ATOM      1  C   UNL     1      -4.334  34.102  24.984  1.00  0.00     0.014 C 
ENDROOT
BRANCH   1   2
ATOM      2  C   UNL     1      -4.454  34.475  26.486  1.00  0.00     0.042 C 
BRANCH   2   3
ATOM      3  C   UNL     1      -5.311  35.713  26.605  1.00  0.00     0.045 C 
ATOM      4  O   UNL     1      -5.808  36.042  27.714  1.00  0.00    -0.550 OA
ATOM      5  O   UNL     1      -5.592  36.477  25.480  1.00  0.00    -0.550 OA
ENDBRANCH   2   3
BRANCH   2   6
ATOM      6  C   UNL     1      -5.025  33.289  27.341  1.00  0.00     0.033 C 
ATOM      7  C   UNL     1      -6.125  32.448  26.635  1.00  0.00     0.119 C 
ATOM      8  C   UNL     1      -4.003  32.243  27.917  1.00  0.00    -0.017 C 
ATOM      9  C   UNL     1      -5.936  30.989  27.066  1.00  0.00     0.043 C 
ATOM     10  C   UNL     1      -4.883  30.967  28.194  1.00  0.00    -0.003 C 
ATOM     11  C   UNL     1      -2.914  31.885  26.874  1.00  0.00     0.012 C 
ATOM     12  C   UNL     1      -3.309  32.778  29.208  1.00  0.00     0.013 C 
ATOM     13  C   UNL     1      -5.616  31.083  29.569  1.00  0.00     0.017 C 
ATOM     14  C   UNL     1      -4.113  29.622  28.129  1.00  0.00    -0.064 C 
ATOM     15  C   UNL     1      -2.018  30.763  27.379  1.00  0.00     0.032 C 
ATOM     16  C   UNL     1      -2.796  29.516  27.772  1.00  0.00    -0.064 C 
ATOM     17  C   UNL     1      -4.889  28.346  28.345  1.00  0.00     0.032 C 
ATOM     18  C   UNL     1      -2.054  28.138  27.712  1.00  0.00    -0.008 C 
ATOM     19  C   UNL     1      -4.069  27.423  29.221  1.00  0.00     0.009 C 
ATOM     20  C   UNL     1      -2.842  26.939  28.422  1.00  0.00     0.009 C 
ATOM     21  C   UNL     1      -0.651  28.316  28.359  1.00  0.00     0.015 C 
ATOM     22  C   UNL     1      -1.885  27.810  26.201  1.00  0.00     0.016 C 
ATOM     23  C   UNL     1      -1.967  25.891  29.237  1.00  0.00     0.005 C 
ATOM     24  C   UNL     1       0.205  27.043  28.459  1.00  0.00     0.047 C 
ATOM     25  C   UNL     1      -0.581  25.725  28.548  1.00  0.00     0.182 C 
ATOM     26  C   UNL     1      -1.782  26.281  30.731  1.00  0.00     0.015 C 
ATOM     27  C   UNL     1      -2.680  24.510  29.215  1.00  0.00     0.015 C 
BRANCH   7  28
ATOM     28  O   UNL     1      -6.123  32.557  25.231  1.00  0.00    -0.393 OA
ATOM     29  H   UNL     1      -6.396  33.477  24.986  1.00  0.00     0.210 HD
ENDBRANCH   7  28
BRANCH  25  30
ATOM     30  O   UNL     1       0.233  24.766  29.236  1.00  0.00    -0.462 OA
BRANCH  30  31
ATOM     31  C   UNL     1       0.887  23.692  28.617  1.00  0.00     0.302 C 
ATOM     32  O   UNL     1       0.457  22.511  28.737  1.00  0.00    -0.253 OA
ATOM     33  C   UNL     1       2.084  23.955  27.771  1.00  0.00     0.139 C 
ENDBRANCH  30  31
ENDBRANCH  25  30
ENDBRANCH   2   6
ENDBRANCH   1   2
BRANCH   1  34
ATOM     34  C   UNL     1      -5.552  34.535  24.142  1.00  0.00     0.031 C 
BRANCH  34  35
ATOM     35  C   UNL     1      -5.328  34.398  22.646  1.00  0.00    -0.075 C 
ATOM     36  C   UNL     1      -5.321  35.501  21.876  1.00  0.00     0.008 C 
BRANCH  35  37
ATOM     37  C   UNL     1      -5.016  33.028  22.052  1.00  0.00     0.008 C 
ATOM     38  C   UNL     1      -3.645  32.501  22.498  1.00  0.00     0.012 C 
ATOM     39  C   UNL     1      -6.122  32.021  22.391  1.00  0.00     0.012 C 
ENDBRANCH  35  37
ENDBRANCH  34  35
ENDBRANCH   1  34
TORSDOF 9
ENDMDL
