MODEL 1
REMARK VINA RESULT:    -2.930      0.000      0.000
REMARK INTER + INTRA:          -3.292
REMARK INTER:                  -4.301
REMARK INTRA:                   1.009
REMARK UNBOUND:                 1.009
REMARK SMILES C=C1CC=CC(C)(C)CC=C(C)CCC1
REMARK SMILES IDX 2 1 1 2 15 3 14 4 13 5 11 6 12 7 10 8 3 10 4 11 5 12 6 13
REMARK SMILES IDX 7 14 8 15 9 16
REMARK H PARENT
REMARK Flexibility Score: 60.00
ROOT
ATOM      1  C   UNL     1     147.157 145.621 132.895  1.00  0.00    -0.074 C 
ATOM      2  C   UNL     1     147.654 145.377 134.122  1.00  0.00     0.008 C 
ENDROOT
BRANCH   1   3
ATOM      3  C   UNL     1     146.699 147.022 132.545  1.00  0.00     0.031 C 
BRANCH   3   4
ATOM      4  C   UNL     1     145.854 147.713 133.633  1.00  0.00     0.009 C 
BRANCH   4   5
ATOM      5  C   UNL     1     144.544 146.996 134.012  1.00  0.00     0.030 C 
BRANCH   5   6
ATOM      6  C   UNL     1     143.569 146.881 132.851  1.00  0.00    -0.077 C 
ATOM      7  C   UNL     1     143.028 148.154 132.251  1.00  0.00     0.039 C 
ATOM      8  C   UNL     1     143.159 145.703 132.320  1.00  0.00    -0.027 CG0
ATOM      9  G   UNL     1     143.512 144.325 132.854  1.00  0.00     0.000 G0
ENDBRANCH   5   6
ENDBRANCH   4   5
ENDBRANCH   3   4
ENDBRANCH   1   3
BRANCH   1  10
ATOM     10  C   UNL     1     147.270 144.608 131.764  1.00  0.00     0.057 C 
BRANCH  10  11
ATOM     11  C   UNL     1     146.200 144.721 130.702  1.00  0.00    -0.026 C 
ATOM     12  C   UNL     1     144.960 144.186 130.730  1.00  0.00    -0.024 C 
BRANCH  12  13
ATOM     13  C   UNL     1     144.300 143.387 131.861  1.00  0.00    -0.014 C 
ATOM     14  C   UNL     1     145.441 142.714 132.664  1.00  0.00     0.016 C 
ATOM     15  C   UNL     1     143.461 142.241 131.245  1.00  0.00     0.016 C 
BRANCH  13  16
ATOM     16  C   UNL     1     143.518 144.334 132.849  1.00  0.00     0.038 CG0
ATOM     17  G   UNL     1     143.155 145.714 132.325  1.00  0.00     0.000 G0
ENDBRANCH  13  16
ENDBRANCH  12  13
ENDBRANCH  10  11
ENDBRANCH   1  10
TORSDOF 0
ENDMDL
MODEL 2
REMARK VINA RESULT:    -2.726      1.563      2.936
REMARK INTER + INTRA:          -2.992
REMARK INTER:                  -4.127
REMARK INTRA:                   1.135
REMARK UNBOUND:                 1.009
REMARK SMILES C=C1CC=CC(C)(C)CC=C(C)CCC1
REMARK SMILES IDX 2 1 1 2 15 3 14 4 13 5 11 6 12 7 10 8 3 10 4 11 5 12 6 13
REMARK SMILES IDX 7 14 8 15 9 16
REMARK H PARENT
REMARK Flexibility Score: 60.00
ROOT
ATOM      1  C   UNL     1     145.783 147.379 131.401  1.00  0.00    -0.074 C 
ATOM      2  C   UNL     1     146.848 147.796 130.691  1.00  0.00     0.008 C 
ENDROOT
BRANCH   1   3
ATOM      3  C   UNL     1     145.484 148.027 132.738  1.00  0.00     0.031 C 
BRANCH   3   4
ATOM      4  C   UNL     1     146.035 147.266 133.959  1.00  0.00     0.009 C 
BRANCH   4   5
ATOM      5  C   UNL     1     145.530 145.820 134.124  1.00  0.00     0.030 C 
BRANCH   5   6
ATOM      6  C   UNL     1     146.570 144.778 133.747  1.00  0.00    -0.077 C 
ATOM      7  C   UNL     1     148.023 145.176 133.796  1.00  0.00     0.039 C 
ATOM      8  C   UNL     1     146.271 143.510 133.370  1.00  0.00    -0.027 CG0
ATOM      9  G   UNL     1     144.869 142.960 133.161  1.00  0.00     0.000 G0
ENDBRANCH   5   6
ENDBRANCH   4   5
ENDBRANCH   3   4
ENDBRANCH   1   3
BRANCH   1  10
ATOM     10  C   UNL     1     144.724 146.463 130.803  1.00  0.00     0.057 C 
BRANCH  10  11
ATOM     11  C   UNL     1     145.247 145.143 130.286  1.00  0.00    -0.026 C 
ATOM     12  C   UNL     1     144.986 143.910 130.775  1.00  0.00    -0.024 C 
BRANCH  12  13
ATOM     13  C   UNL     1     144.052 143.531 131.932  1.00  0.00    -0.014 C 
ATOM     14  C   UNL     1     143.132 142.396 131.416  1.00  0.00     0.016 C 
ATOM     15  C   UNL     1     143.129 144.733 132.248  1.00  0.00     0.016 C 
BRANCH  13  16
ATOM     16  C   UNL     1     144.862 142.965 133.159  1.00  0.00     0.038 CG0
ATOM     17  G   UNL     1     146.269 143.505 133.353  1.00  0.00     0.000 G0
ENDBRANCH  13  16
ENDBRANCH  12  13
ENDBRANCH  10  11
ENDBRANCH   1  10
TORSDOF 0
ENDMDL
MODEL 3
REMARK VINA RESULT:    -2.586      1.574      4.600
REMARK INTER + INTRA:          -2.787
REMARK INTER:                  -4.567
REMARK INTRA:                   1.780
REMARK UNBOUND:                 1.009
REMARK SMILES C=C1CC=CC(C)(C)CC=C(C)CCC1
REMARK SMILES IDX 2 1 1 2 15 3 14 4 13 5 11 6 12 7 10 8 3 10 4 11 5 12 6 13
REMARK SMILES IDX 7 14 8 15 9 16
REMARK H PARENT
REMARK Flexibility Score: 60.00
ROOT
ATOM      1  C   UNL     1     143.955 144.213 133.198  1.00  0.00    -0.074 C 
ATOM      2  C   UNL     1     144.688 143.546 134.110  1.00  0.00     0.008 C 
ENDROOT
BRANCH   1   3
ATOM      3  C   UNL     1     143.548 143.513 131.918  1.00  0.00     0.031 C 
BRANCH   3   4
ATOM      4  C   UNL     1     144.691 143.309 130.904  1.00  0.00     0.009 C 
BRANCH   4   5
ATOM      5  C   UNL     1     145.504 144.570 130.558  1.00  0.00     0.030 C 
BRANCH   5   6
ATOM      6  C   UNL     1     146.901 144.563 131.159  1.00  0.00    -0.077 C 
ATOM      7  C   UNL     1     147.979 143.796 130.436  1.00  0.00     0.039 C 
ATOM      8  C   UNL     1     147.237 145.206 132.304  1.00  0.00    -0.027 CG0
ATOM      9  G   UNL     1     146.270 145.938 133.221  1.00  0.00     0.000 G0
ENDBRANCH   5   6
ENDBRANCH   4   5
ENDBRANCH   3   4
ENDBRANCH   1   3
BRANCH   1  10
ATOM     10  C   UNL     1     143.306 145.554 133.512  1.00  0.00     0.057 C 
BRANCH  10  11
ATOM     11  C   UNL     1     143.415 146.584 132.412  1.00  0.00    -0.026 C 
ATOM     12  C   UNL     1     144.474 147.377 132.134  1.00  0.00    -0.024 C 
BRANCH  12  13
ATOM     13  C   UNL     1     145.848 147.392 132.816  1.00  0.00    -0.014 C 
ATOM     14  C   UNL     1     145.702 148.237 134.106  1.00  0.00     0.016 C 
ATOM     15  C   UNL     1     146.852 148.145 131.910  1.00  0.00     0.016 C 
BRANCH  13  16
ATOM     16  C   UNL     1     146.289 145.941 133.246  1.00  0.00     0.038 CG0
ATOM     17  G   UNL     1     147.228 145.208 132.301  1.00  0.00     0.000 G0
ENDBRANCH  13  16
ENDBRANCH  12  13
ENDBRANCH  10  11
ENDBRANCH   1  10
TORSDOF 0
ENDMDL
MODEL 4
REMARK VINA RESULT:    -2.555      1.668      4.648
REMARK INTER + INTRA:          -2.741
REMARK INTER:                  -3.933
REMARK INTRA:                   1.191
REMARK UNBOUND:                 1.009
REMARK SMILES C=C1CC=CC(C)(C)CC=C(C)CCC1
REMARK SMILES IDX 2 1 1 2 15 3 14 4 13 5 11 6 12 7 10 8 3 10 4 11 5 12 6 13
REMARK SMILES IDX 7 14 8 15 9 16
REMARK H PARENT
REMARK Flexibility Score: 60.00
ROOT
ATOM      1  C   UNL     1     144.539 144.767 130.712  1.00  0.00    -0.074 C 
ATOM      2  C   UNL     1     145.719 144.649 130.073  1.00  0.00     0.008 C 
ENDROOT
BRANCH   1   3
ATOM      3  C   UNL     1     143.962 143.563 131.429  1.00  0.00     0.031 C 
BRANCH   3   4
ATOM      4  C   UNL     1     144.988 142.739 132.230  1.00  0.00     0.009 C 
BRANCH   4   5
ATOM      5  C   UNL     1     145.685 143.485 133.384  1.00  0.00     0.030 C 
BRANCH   5   6
ATOM      6  C   UNL     1     147.013 144.104 132.978  1.00  0.00    -0.077 C 
ATOM      7  C   UNL     1     147.980 143.255 132.193  1.00  0.00     0.039 C 
ATOM      8  C   UNL     1     147.380 145.374 133.277  1.00  0.00    -0.027 CG0
ATOM      9  G   UNL     1     146.588 146.340 134.144  1.00  0.00     0.000 G0
ENDBRANCH   5   6
ENDBRANCH   4   5
ENDBRANCH   3   4
ENDBRANCH   1   3
BRANCH   1  10
ATOM     10  C   UNL     1     143.888 146.120 130.959  1.00  0.00     0.057 C 
BRANCH  10  11
ATOM     11  C   UNL     1     143.442 146.360 132.383  1.00  0.00    -0.026 C 
ATOM     12  C   UNL     1     144.184 146.846 133.403  1.00  0.00    -0.024 C 
BRANCH  12  13
ATOM     13  C   UNL     1     145.638 147.336 133.364  1.00  0.00    -0.014 C 
ATOM     14  C   UNL     1     145.678 148.692 134.113  1.00  0.00     0.016 C 
ATOM     15  C   UNL     1     146.029 147.635 131.896  1.00  0.00     0.016 C 
BRANCH  13  16
ATOM     16  C   UNL     1     146.596 146.344 134.125  1.00  0.00     0.038 CG0
ATOM     17  G   UNL     1     147.368 145.353 133.269  1.00  0.00     0.000 G0
ENDBRANCH  13  16
ENDBRANCH  12  13
ENDBRANCH  10  11
ENDBRANCH   1  10
TORSDOF 0
ENDMDL
MODEL 5
REMARK VINA RESULT:    -2.436      1.398      3.330
REMARK INTER + INTRA:          -2.567
REMARK INTER:                  -3.596
REMARK INTRA:                   1.029
REMARK UNBOUND:                 1.009
REMARK SMILES C=C1CC=CC(C)(C)CC=C(C)CCC1
REMARK SMILES IDX 2 1 1 2 15 3 14 4 13 5 11 6 12 7 10 8 3 10 4 11 5 12 6 13
REMARK SMILES IDX 7 14 8 15 9 16
REMARK H PARENT
REMARK Flexibility Score: 60.00
ROOT
ATOM      1  C   UNL     1     145.594 143.564 132.869  1.00  0.00    -0.074 C 
ATOM      2  C   UNL     1     145.284 143.190 134.125  1.00  0.00     0.008 C 
ENDROOT
BRANCH   1   3
ATOM      3  C   UNL     1     147.038 143.865 132.521  1.00  0.00     0.031 C 
BRANCH   3   4
ATOM      4  C   UNL     1     147.743 144.839 133.485  1.00  0.00     0.009 C 
BRANCH   4   5
ATOM      5  C   UNL     1     146.960 146.123 133.821  1.00  0.00     0.030 C 
BRANCH   5   6
ATOM      6  C   UNL     1     146.915 147.113 132.669  1.00  0.00    -0.077 C 
ATOM      7  C   UNL     1     148.223 147.616 132.114  1.00  0.00     0.039 C 
ATOM      8  C   UNL     1     145.769 147.570 132.107  1.00  0.00    -0.027 CG0
ATOM      9  G   UNL     1     144.363 147.261 132.596  1.00  0.00     0.000 G0
ENDBRANCH   5   6
ENDBRANCH   4   5
ENDBRANCH   3   4
ENDBRANCH   1   3
BRANCH   1  10
ATOM     10  C   UNL     1     144.596 143.452 131.725  1.00  0.00     0.057 C 
BRANCH  10  11
ATOM     11  C   UNL     1     144.789 144.460 130.615  1.00  0.00    -0.026 C 
ATOM     12  C   UNL     1     144.285 145.712 130.549  1.00  0.00    -0.024 C 
BRANCH  12  13
ATOM     13  C   UNL     1     143.447 146.450 131.601  1.00  0.00    -0.014 C 
ATOM     14  C   UNL     1     142.711 145.369 132.432  1.00  0.00     0.016 C 
ATOM     15  C   UNL     1     142.349 147.273 130.883  1.00  0.00     0.016 C 
BRANCH  13  16
ATOM     16  C   UNL     1     144.361 147.268 132.589  1.00  0.00     0.038 CG0
ATOM     17  G   UNL     1     145.771 147.577 132.113  1.00  0.00     0.000 G0
ENDBRANCH  13  16
ENDBRANCH  12  13
ENDBRANCH  10  11
ENDBRANCH   1  10
TORSDOF 0
ENDMDL
MODEL 6
REMARK VINA RESULT:    -2.384      1.888      4.690
REMARK INTER + INTRA:          -2.490
REMARK INTER:                  -3.193
REMARK INTRA:                   0.704
REMARK UNBOUND:                 1.009
REMARK SMILES C=C1CC=CC(C)(C)CC=C(C)CCC1
REMARK SMILES IDX 2 1 1 2 15 3 14 4 13 5 11 6 12 7 10 8 3 10 4 11 5 12 6 13
REMARK SMILES IDX 7 14 8 15 9 16
REMARK H PARENT
REMARK Flexibility Score: 60.00
ROOT
ATOM      1  C   UNL     1     143.848 144.727 131.912  1.00  0.00    -0.074 C 
ATOM      2  C   UNL     1     144.296 143.792 131.053  1.00  0.00     0.008 C 
ENDROOT
BRANCH   1   3
ATOM      3  C   UNL     1     143.919 144.459 133.402  1.00  0.00     0.031 C 
BRANCH   3   4
ATOM      4  C   UNL     1     144.850 143.298 133.803  1.00  0.00     0.009 C 
BRANCH   4   5
ATOM      5  C   UNL     1     146.304 143.693 134.125  1.00  0.00     0.030 C 
BRANCH   5   6
ATOM      6  C   UNL     1     147.170 143.842 132.885  1.00  0.00    -0.077 C 
ATOM      7  C   UNL     1     147.665 142.588 132.210  1.00  0.00     0.039 C 
ATOM      8  C   UNL     1     147.524 145.035 132.346  1.00  0.00    -0.027 CG0
ATOM      9  G   UNL     1     147.211 146.399 132.941  1.00  0.00     0.000 G0
ENDBRANCH   5   6
ENDBRANCH   4   5
ENDBRANCH   3   4
ENDBRANCH   1   3
BRANCH   1  10
ATOM     10  C   UNL     1     143.510 146.141 131.460  1.00  0.00     0.057 C 
BRANCH  10  11
ATOM     11  C   UNL     1     143.836 147.222 132.464  1.00  0.00    -0.026 C 
ATOM     12  C   UNL     1     145.052 147.742 132.743  1.00  0.00    -0.024 C 
BRANCH  12  13
ATOM     13  C   UNL     1     146.394 147.416 132.075  1.00  0.00    -0.014 C 
ATOM     14  C   UNL     1     147.192 148.742 131.991  1.00  0.00     0.016 C 
ATOM     15  C   UNL     1     146.134 146.969 130.615  1.00  0.00     0.016 C 
BRANCH  13  16
ATOM     16  C   UNL     1     147.237 146.408 132.945  1.00  0.00     0.038 CG0
ATOM     17  G   UNL     1     147.512 145.045 132.332  1.00  0.00     0.000 G0
ENDBRANCH  13  16
ENDBRANCH  12  13
ENDBRANCH  10  11
ENDBRANCH   1  10
TORSDOF 0
ENDMDL
MODEL 7
REMARK VINA RESULT:    -2.328      1.159      3.590
REMARK INTER + INTRA:          -2.407
REMARK INTER:                  -3.174
REMARK INTRA:                   0.767
REMARK UNBOUND:                 1.009
REMARK SMILES C=C1CC=CC(C)(C)CC=C(C)CCC1
REMARK SMILES IDX 2 1 1 2 15 3 14 4 13 5 11 6 12 7 10 8 3 10 4 11 5 12 6 13
REMARK SMILES IDX 7 14 8 15 9 16
REMARK H PARENT
REMARK Flexibility Score: 60.00
ROOT
ATOM      1  C   UNL     1     147.323 144.418 131.743  1.00  0.00    -0.074 C 
ATOM      2  C   UNL     1     147.838 143.899 130.612  1.00  0.00     0.008 C 
ENDROOT
BRANCH   1   3
ATOM      3  C   UNL     1     147.254 143.559 132.989  1.00  0.00     0.031 C 
BRANCH   3   4
ATOM      4  C   UNL     1     146.061 143.864 133.916  1.00  0.00     0.009 C 
BRANCH   4   5
ATOM      5  C   UNL     1     144.798 143.017 133.674  1.00  0.00     0.030 C 
BRANCH   5   6
ATOM      6  C   UNL     1     144.013 143.453 132.447  1.00  0.00    -0.077 C 
ATOM      7  C   UNL     1     143.813 142.450 131.339  1.00  0.00     0.039 C 
ATOM      8  C   UNL     1     143.480 144.689 132.288  1.00  0.00    -0.027 CG0
ATOM      9  G   UNL     1     143.664 145.858 133.242  1.00  0.00     0.000 G0
ENDBRANCH   5   6
ENDBRANCH   4   5
ENDBRANCH   3   4
ENDBRANCH   1   3
BRANCH   1  10
ATOM     10  C   UNL     1     147.042 145.907 131.891  1.00  0.00     0.057 C 
BRANCH  10  11
ATOM     11  C   UNL     1     146.017 146.458 130.926  1.00  0.00    -0.026 C 
ATOM     12  C   UNL     1     144.809 146.983 131.227  1.00  0.00    -0.024 C 
BRANCH  12  13
ATOM     13  C   UNL     1     144.196 147.211 132.615  1.00  0.00    -0.014 C 
ATOM     14  C   UNL     1     142.976 148.146 132.423  1.00  0.00     0.016 C 
ATOM     15  C   UNL     1     145.210 147.987 133.491  1.00  0.00     0.016 C 
BRANCH  13  16
ATOM     16  C   UNL     1     143.668 145.862 133.235  1.00  0.00     0.038 CG0
ATOM     17  G   UNL     1     143.481 144.698 132.275  1.00  0.00     0.000 G0
ENDBRANCH  13  16
ENDBRANCH  12  13
ENDBRANCH  10  11
ENDBRANCH   1  10
TORSDOF 0
ENDMDL
MODEL 8
REMARK VINA RESULT:    -2.281      1.718      3.409
REMARK INTER + INTRA:          -2.339
REMARK INTER:                  -3.194
REMARK INTRA:                   0.855
REMARK UNBOUND:                 1.009
REMARK SMILES C=C1CC=CC(C)(C)CC=C(C)CCC1
REMARK SMILES IDX 2 1 1 2 15 3 14 4 13 5 11 6 12 7 10 8 3 10 4 11 5 12 6 13
REMARK SMILES IDX 7 14 8 15 9 16
REMARK H PARENT
REMARK Flexibility Score: 60.00
ROOT
ATOM      1  C   UNL     1     143.380 146.416 131.688  1.00  0.00    -0.074 C 
ATOM      2  C   UNL     1     142.757 146.862 130.581  1.00  0.00     0.008 C 
ENDROOT
BRANCH   1   3
ATOM      3  C   UNL     1     143.502 147.332 132.889  1.00  0.00     0.031 C 
BRANCH   3   4
ATOM      4  C   UNL     1     144.720 147.051 133.792  1.00  0.00     0.009 C 
BRANCH   4   5
ATOM      5  C   UNL     1     145.962 147.921 133.521  1.00  0.00     0.030 C 
BRANCH   5   6
ATOM      6  C   UNL     1     146.771 147.449 132.324  1.00  0.00    -0.077 C 
ATOM      7  C   UNL     1     147.015 148.426 131.202  1.00  0.00     0.039 C 
ATOM      8  C   UNL     1     147.289 146.201 132.203  1.00  0.00    -0.027 CG0
ATOM      9  G   UNL     1     147.062 145.055 133.175  1.00  0.00     0.000 G0
ENDBRANCH   5   6
ENDBRANCH   4   5
ENDBRANCH   3   4
ENDBRANCH   1   3
BRANCH   1  10
ATOM     10  C   UNL     1     143.742 144.949 131.875  1.00  0.00     0.057 C 
BRANCH  10  11
ATOM     11  C   UNL     1     144.744 144.412 130.879  1.00  0.00    -0.026 C 
ATOM     12  C   UNL     1     145.967 143.903 131.142  1.00  0.00    -0.024 C 
BRANCH  12  13
ATOM     13  C   UNL     1     146.625 143.682 132.511  1.00  0.00    -0.014 C 
ATOM     14  C   UNL     1     147.908 142.848 132.267  1.00  0.00     0.016 C 
ATOM     15  C   UNL     1     145.692 142.806 133.382  1.00  0.00     0.016 C 
BRANCH  13  16
ATOM     16  C   UNL     1     147.063 145.049 133.162  1.00  0.00     0.038 CG0
ATOM     17  G   UNL     1     147.301 146.210 132.210  1.00  0.00     0.000 G0
ENDBRANCH  13  16
ENDBRANCH  12  13
ENDBRANCH  10  11
ENDBRANCH   1  10
TORSDOF 0
ENDMDL
MODEL 9
REMARK VINA RESULT:    -2.144      1.345      3.400
REMARK INTER + INTRA:          -2.137
REMARK INTER:                  -2.580
REMARK INTRA:                   0.442
REMARK UNBOUND:                 1.009
REMARK SMILES C=C1CC=CC(C)(C)CC=C(C)CCC1
REMARK SMILES IDX 2 1 1 2 15 3 14 4 13 5 11 6 12 7 10 8 3 10 4 11 5 12 6 13
REMARK SMILES IDX 7 14 8 15 9 16
REMARK H PARENT
REMARK Flexibility Score: 60.00
ROOT
ATOM      1  C   UNL     1     145.443 147.351 132.904  1.00  0.00    -0.074 C 
ATOM      2  C   UNL     1     146.197 148.015 132.008  1.00  0.00     0.008 C 
ENDROOT
BRANCH   1   3
ATOM      3  C   UNL     1     143.944 147.270 132.697  1.00  0.00     0.031 C 
BRANCH   3   4
ATOM      4  C   UNL     1     143.455 145.964 132.041  1.00  0.00     0.009 C 
BRANCH   4   5
ATOM      5  C   UNL     1     143.269 144.770 132.996  1.00  0.00     0.030 C 
BRANCH   5   6
ATOM      6  C   UNL     1     143.594 143.433 132.351  1.00  0.00    -0.077 C 
ATOM      7  C   UNL     1     142.485 142.700 131.639  1.00  0.00     0.039 C 
ATOM      8  C   UNL     1     144.822 142.859 132.374  1.00  0.00    -0.027 CG0
ATOM      9  G   UNL     1     146.031 143.392 133.126  1.00  0.00     0.000 G0
ENDBRANCH   5   6
ENDBRANCH   4   5
ENDBRANCH   3   4
ENDBRANCH   1   3
BRANCH   1  10
ATOM     10  C   UNL     1     146.060 146.464 133.977  1.00  0.00     0.057 C 
BRANCH  10  11
ATOM     11  C   UNL     1     147.509 146.104 133.746  1.00  0.00    -0.026 C 
ATOM     12  C   UNL     1     147.990 145.054 133.044  1.00  0.00    -0.024 C 
BRANCH  12  13
ATOM     13  C   UNL     1     147.199 144.002 132.255  1.00  0.00    -0.014 C 
ATOM     14  C   UNL     1     148.182 142.852 131.923  1.00  0.00     0.016 C 
ATOM     15  C   UNL     1     146.763 144.612 130.900  1.00  0.00     0.016 C 
BRANCH  13  16
ATOM     16  C   UNL     1     146.033 143.395 133.124  1.00  0.00     0.038 CG0
ATOM     17  G   UNL     1     144.820 142.877 132.367  1.00  0.00     0.000 G0
ENDBRANCH  13  16
ENDBRANCH  12  13
ENDBRANCH  10  11
ENDBRANCH   1  10
TORSDOF 0
ENDMDL
