MODEL 1
REMARK VINA RESULT:    -6.396      0.000      0.000
REMARK INTER + INTRA:         -10.652
REMARK INTER:                  -9.948
REMARK INTRA:                  -0.704
REMARK UNBOUND:                -0.704
REMARK SMILES COc1cc(CNC(=O)CCCCC=CC(C)C)ccc1O
REMARK SMILES IDX 11 1 12 2 13 3 14 4 15 5 16 6 17 7 18 8 10 9 8 10 9 11 7 12
REMARK SMILES IDX 6 14 5 15 4 16 19 17 3 18 20 19 21 20 2 21 1 22 22 23
REMARK H PARENT 7 13 22 24
REMARK Flexibility Score: inf
ROOT
ATOM      1  C   UNL     1      10.712   8.308 -15.623  1.00  0.00     0.010 C 
ENDROOT
BRANCH   1   2
ATOM      2  C   UNL     1       9.408   7.518 -15.831  1.00  0.00     0.005 C 
BRANCH   2   3
ATOM      3  C   UNL     1       8.844   6.984 -14.504  1.00  0.00     0.027 C 
BRANCH   3   4
ATOM      4  C   UNL     1       7.334   6.995 -14.486  1.00  0.00    -0.031 C 
ATOM      5  C   UNL     1       6.577   7.492 -13.490  1.00  0.00    -0.028 C 
BRANCH   5   6
ATOM      6  C   UNL     1       7.104   8.065 -12.190  1.00  0.00     0.005 C 
ATOM      7  C   UNL     1       7.033   9.595 -12.231  1.00  0.00     0.012 C 
ATOM      8  C   UNL     1       6.281   7.517 -11.019  1.00  0.00     0.012 C 
ENDBRANCH   5   6
ENDBRANCH   3   4
ENDBRANCH   2   3
ENDBRANCH   1   2
BRANCH   1   9
ATOM      9  C   UNL     1      10.873   9.444 -16.642  1.00  0.00     0.100 C 
BRANCH   9  10
ATOM     10  C   UNL     1      10.407  10.774 -16.111  1.00  0.00     0.220 C 
ATOM     11  O   UNL     1       9.313  10.850 -15.484  1.00  0.00    -0.275 OA
ATOM     12  N   UNL     1      11.162  11.960 -16.388  1.00  0.00    -0.352 N 
ATOM     13  H   UNL     1      12.054  11.882 -16.925  1.00  0.00     0.163 HD
BRANCH  12  14
ATOM     14  C   UNL     1      10.732  13.284 -15.948  1.00  0.00     0.151 C 
BRANCH  14  15
ATOM     15  C   UNL     1      10.455  14.160 -17.138  1.00  0.00    -0.025 A 
ATOM     16  C   UNL     1       9.474  13.785 -18.067  1.00  0.00     0.056 A 
ATOM     17  C   UNL     1      11.184  15.340 -17.342  1.00  0.00     0.009 A 
ATOM     18  C   UNL     1       9.196  14.596 -19.185  1.00  0.00     0.160 A 
ATOM     19  C   UNL     1      10.913  16.148 -18.446  1.00  0.00     0.050 A 
ATOM     20  C   UNL     1       9.926  15.786 -19.367  1.00  0.00     0.157 A 
BRANCH  18  21
ATOM     21  O   UNL     1       8.209  14.256 -20.124  1.00  0.00    -0.493 OA
ATOM     22  C   UNL     1       7.854  12.924 -20.473  1.00  0.00     0.278 C 
ENDBRANCH  18  21
BRANCH  20  23
ATOM     23  O   UNL     1       9.683  16.621 -20.457  1.00  0.00    -0.504 OA
ATOM     24  H   UNL     1       9.190  16.302 -21.284  1.00  0.00     0.293 HD
ENDBRANCH  20  23
ENDBRANCH  14  15
ENDBRANCH  12  14
ENDBRANCH   9  10
ENDBRANCH   1   9
TORSDOF 10
ENDMDL
MODEL 2
REMARK VINA RESULT:    -6.391      1.452      2.052
REMARK INTER + INTRA:         -10.645
REMARK INTER:                 -10.061
REMARK INTRA:                  -0.584
REMARK UNBOUND:                -0.704
REMARK SMILES COc1cc(CNC(=O)CCCCC=CC(C)C)ccc1O
REMARK SMILES IDX 11 1 12 2 13 3 14 4 15 5 16 6 17 7 18 8 10 9 8 10 9 11 7 12
REMARK SMILES IDX 6 14 5 15 4 16 19 17 3 18 20 19 21 20 2 21 1 22 22 23
REMARK H PARENT 7 13 22 24
REMARK Flexibility Score: inf
ROOT
ATOM      1  C   UNL     1      10.569   8.981 -15.994  1.00  0.00     0.010 C 
ENDROOT
BRANCH   1   2
ATOM      2  C   UNL     1       9.837   7.655 -15.719  1.00  0.00     0.005 C 
BRANCH   2   3
ATOM      3  C   UNL     1       9.200   7.632 -14.320  1.00  0.00     0.027 C 
BRANCH   3   4
ATOM      4  C   UNL     1       7.750   7.213 -14.365  1.00  0.00    -0.031 C 
ATOM      5  C   UNL     1       6.849   7.440 -13.390  1.00  0.00    -0.028 C 
BRANCH   5   6
ATOM      6  C   UNL     1       7.147   8.093 -12.056  1.00  0.00     0.005 C 
ATOM      7  C   UNL     1       6.926   9.605 -12.159  1.00  0.00     0.012 C 
ATOM      8  C   UNL     1       6.244   7.486 -10.977  1.00  0.00     0.012 C 
ENDBRANCH   5   6
ENDBRANCH   3   4
ENDBRANCH   2   3
ENDBRANCH   1   2
BRANCH   1   9
ATOM      9  C   UNL     1      10.646   9.303 -17.492  1.00  0.00     0.100 C 
BRANCH   9  10
ATOM     10  C   UNL     1       9.544  10.222 -17.949  1.00  0.00     0.220 C 
ATOM     11  O   UNL     1       8.389  10.113 -17.449  1.00  0.00    -0.275 OA
ATOM     12  N   UNL     1       9.785  11.162 -19.004  1.00  0.00    -0.352 N 
ATOM     13  H   UNL     1      10.741  11.225 -19.420  1.00  0.00     0.163 HD
BRANCH  12  14
ATOM     14  C   UNL     1       8.742  12.039 -19.527  1.00  0.00     0.151 C 
BRANCH  14  15
ATOM     15  C   UNL     1       9.142  13.478 -19.356  1.00  0.00    -0.025 A 
ATOM     16  C   UNL     1       8.957  14.382 -20.412  1.00  0.00     0.056 A 
ATOM     17  C   UNL     1       9.719  13.922 -18.159  1.00  0.00     0.009 A 
ATOM     18  C   UNL     1       9.321  15.736 -20.269  1.00  0.00     0.160 A 
ATOM     19  C   UNL     1      10.080  15.261 -18.010  1.00  0.00     0.050 A 
ATOM     20  C   UNL     1       9.885  16.170 -19.055  1.00  0.00     0.157 A 
BRANCH  18  21
ATOM     21  O   UNL     1       9.133  16.670 -21.301  1.00  0.00    -0.493 OA
ATOM     22  C   UNL     1       9.205  16.363 -22.687  1.00  0.00     0.278 C 
ENDBRANCH  18  21
BRANCH  20  23
ATOM     23  O   UNL     1      10.257  17.501 -18.867  1.00  0.00    -0.504 OA
ATOM     24  H   UNL     1      10.267  17.936 -17.951  1.00  0.00     0.293 HD
ENDBRANCH  20  23
ENDBRANCH  14  15
ENDBRANCH  12  14
ENDBRANCH   9  10
ENDBRANCH   1   9
TORSDOF 10
ENDMDL
MODEL 3
REMARK VINA RESULT:    -6.386      2.535      9.141
REMARK INTER + INTRA:         -10.636
REMARK INTER:                  -9.921
REMARK INTRA:                  -0.715
REMARK UNBOUND:                -0.704
REMARK SMILES COc1cc(CNC(=O)CCCCC=CC(C)C)ccc1O
REMARK SMILES IDX 11 1 12 2 13 3 14 4 15 5 16 6 17 7 18 8 10 9 8 10 9 11 7 12
REMARK SMILES IDX 6 14 5 15 4 16 19 17 3 18 20 19 21 20 2 21 1 22 22 23
REMARK H PARENT 7 13 22 24
REMARK Flexibility Score: inf
ROOT
ATOM      1  C   UNL     1      10.313  15.473 -18.302  1.00  0.00     0.010 C 
ENDROOT
BRANCH   1   2
ATOM      2  C   UNL     1       9.129  16.281 -18.860  1.00  0.00     0.005 C 
BRANCH   2   3
ATOM      3  C   UNL     1       9.279  16.553 -20.365  1.00  0.00     0.027 C 
BRANCH   3   4
ATOM      4  C   UNL     1       8.752  15.412 -21.202  1.00  0.00    -0.031 C 
ATOM      5  C   UNL     1       8.962  15.261 -22.524  1.00  0.00    -0.028 C 
BRANCH   5   6
ATOM      6  C   UNL     1       9.703  16.241 -23.411  1.00  0.00     0.005 C 
ATOM      7  C   UNL     1      10.283  15.505 -24.623  1.00  0.00     0.012 C 
ATOM      8  C   UNL     1       8.746  17.350 -23.858  1.00  0.00     0.012 C 
ENDBRANCH   5   6
ENDBRANCH   3   4
ENDBRANCH   2   3
ENDBRANCH   1   2
BRANCH   1   9
ATOM      9  C   UNL     1       9.881  14.485 -17.210  1.00  0.00     0.100 C 
BRANCH   9  10
ATOM     10  C   UNL     1      10.004  13.048 -17.640  1.00  0.00     0.220 C 
ATOM     11  O   UNL     1       9.523  12.682 -18.750  1.00  0.00    -0.275 OA
ATOM     12  N   UNL     1      10.593  12.083 -16.759  1.00  0.00    -0.352 N 
ATOM     13  H   UNL     1      10.968  12.399 -15.837  1.00  0.00     0.163 HD
BRANCH  12  14
ATOM     14  C   UNL     1      10.688  10.666 -17.098  1.00  0.00     0.151 C 
BRANCH  14  15
ATOM     15  C   UNL     1      10.030   9.833 -16.033  1.00  0.00    -0.025 A 
ATOM     16  C   UNL     1       9.165  10.438 -15.111  1.00  0.00     0.056 A 
ATOM     17  C   UNL     1      10.291   8.460 -15.938  1.00  0.00     0.009 A 
ATOM     18  C   UNL     1       8.535   9.673 -14.109  1.00  0.00     0.160 A 
ATOM     19  C   UNL     1       9.669   7.695 -14.950  1.00  0.00     0.050 A 
ATOM     20  C   UNL     1       8.794   8.291 -14.037  1.00  0.00     0.157 A 
BRANCH  18  21
ATOM     21  O   UNL     1       7.650  10.245 -13.181  1.00  0.00    -0.493 OA
ATOM     22  C   UNL     1       7.738  11.582 -12.704  1.00  0.00     0.278 C 
ENDBRANCH  18  21
BRANCH  20  23
ATOM     23  O   UNL     1       8.191   7.494 -13.065  1.00  0.00    -0.504 OA
ATOM     24  H   UNL     1       8.323   6.489 -13.030  1.00  0.00     0.293 HD
ENDBRANCH  20  23
ENDBRANCH  14  15
ENDBRANCH  12  14
ENDBRANCH   9  10
ENDBRANCH   1   9
TORSDOF 10
ENDMDL
MODEL 4
REMARK VINA RESULT:    -6.253      2.605      8.956
REMARK INTER + INTRA:         -10.430
REMARK INTER:                  -9.739
REMARK INTRA:                  -0.691
REMARK UNBOUND:                -0.704
REMARK SMILES COc1cc(CNC(=O)CCCCC=CC(C)C)ccc1O
REMARK SMILES IDX 11 1 12 2 13 3 14 4 15 5 16 6 17 7 18 8 10 9 8 10 9 11 7 12
REMARK SMILES IDX 6 14 5 15 4 16 19 17 3 18 20 19 21 20 2 21 1 22 22 23
REMARK H PARENT 7 13 22 24
REMARK Flexibility Score: inf
ROOT
ATOM      1  C   UNL     1       9.673  14.909 -18.137  1.00  0.00     0.010 C 
ENDROOT
BRANCH   1   2
ATOM      2  C   UNL     1      10.083  16.287 -18.687  1.00  0.00     0.005 C 
BRANCH   2   3
ATOM      3  C   UNL     1       9.247  16.686 -19.913  1.00  0.00     0.027 C 
BRANCH   3   4
ATOM      4  C   UNL     1       8.784  15.482 -20.698  1.00  0.00    -0.031 C 
ATOM      5  C   UNL     1       8.871  15.352 -22.036  1.00  0.00    -0.028 C 
BRANCH   5   6
ATOM      6  C   UNL     1       9.385  16.413 -22.989  1.00  0.00     0.005 C 
ATOM      7  C   UNL     1       9.992  15.747 -24.227  1.00  0.00     0.012 C 
ATOM      8  C   UNL     1       8.234  17.344 -23.385  1.00  0.00     0.012 C 
ENDBRANCH   5   6
ENDBRANCH   3   4
ENDBRANCH   2   3
ENDBRANCH   1   2
BRANCH   1   9
ATOM      9  C   UNL     1      10.649  14.393 -17.071  1.00  0.00     0.100 C 
BRANCH   9  10
ATOM     10  C   UNL     1       9.955  13.942 -15.813  1.00  0.00     0.220 C 
ATOM     11  O   UNL     1      10.211  14.514 -14.716  1.00  0.00    -0.275 OA
ATOM     12  N   UNL     1       9.071  12.815 -15.848  1.00  0.00    -0.352 N 
ATOM     13  H   UNL     1       8.886  12.341 -16.760  1.00  0.00     0.163 HD
BRANCH  12  14
ATOM     14  C   UNL     1       8.414  12.297 -14.651  1.00  0.00     0.151 C 
BRANCH  14  15
ATOM     15  C   UNL     1       8.611  10.809 -14.555  1.00  0.00    -0.025 A 
ATOM     16  C   UNL     1       9.526  10.171 -15.405  1.00  0.00     0.056 A 
ATOM     17  C   UNL     1       7.872  10.048 -13.640  1.00  0.00     0.009 A 
ATOM     18  C   UNL     1       9.729   8.779 -15.325  1.00  0.00     0.160 A 
ATOM     19  C   UNL     1       8.069   8.669 -13.555  1.00  0.00     0.050 A 
ATOM     20  C   UNL     1       8.991   8.031 -14.389  1.00  0.00     0.157 A 
BRANCH  18  21
ATOM     21  O   UNL     1      10.650   8.113 -16.150  1.00  0.00    -0.493 OA
ATOM     22  C   UNL     1      11.147   8.626 -17.380  1.00  0.00     0.278 C 
ENDBRANCH  18  21
BRANCH  20  23
ATOM     23  O   UNL     1       9.161   6.652 -14.274  1.00  0.00    -0.504 OA
ATOM     24  H   UNL     1       9.540   6.088 -15.026  1.00  0.00     0.293 HD
ENDBRANCH  20  23
ENDBRANCH  14  15
ENDBRANCH  12  14
ENDBRANCH   9  10
ENDBRANCH   1   9
TORSDOF 10
ENDMDL
MODEL 5
REMARK VINA RESULT:    -6.240      2.719      9.252
REMARK INTER + INTRA:         -10.410
REMARK INTER:                  -9.716
REMARK INTRA:                  -0.694
REMARK UNBOUND:                -0.704
REMARK SMILES COc1cc(CNC(=O)CCCCC=CC(C)C)ccc1O
REMARK SMILES IDX 11 1 12 2 13 3 14 4 15 5 16 6 17 7 18 8 10 9 8 10 9 11 7 12
REMARK SMILES IDX 6 14 5 15 4 16 19 17 3 18 20 19 21 20 2 21 1 22 22 23
REMARK H PARENT 7 13 22 24
REMARK Flexibility Score: inf
ROOT
ATOM      1  C   UNL     1      10.015  14.958 -18.276  1.00  0.00     0.010 C 
ENDROOT
BRANCH   1   2
ATOM      2  C   UNL     1       9.873  16.478 -18.468  1.00  0.00     0.005 C 
BRANCH   2   3
ATOM      3  C   UNL     1       9.286  16.830 -19.844  1.00  0.00     0.027 C 
BRANCH   3   4
ATOM      4  C   UNL     1       8.811  15.604 -20.587  1.00  0.00    -0.031 C 
ATOM      5  C   UNL     1       8.878  15.435 -21.922  1.00  0.00    -0.028 C 
BRANCH   5   6
ATOM      6  C   UNL     1       9.375  16.468 -22.912  1.00  0.00     0.005 C 
ATOM      7  C   UNL     1      10.015  15.766 -24.114  1.00  0.00     0.012 C 
ATOM      8  C   UNL     1       8.206  17.351 -23.360  1.00  0.00     0.012 C 
ENDBRANCH   5   6
ENDBRANCH   3   4
ENDBRANCH   2   3
ENDBRANCH   1   2
BRANCH   1   9
ATOM      9  C   UNL     1      10.311  14.580 -16.819  1.00  0.00     0.100 C 
BRANCH   9  10
ATOM     10  C   UNL     1       9.153  13.892 -16.146  1.00  0.00     0.220 C 
ATOM     11  O   UNL     1       7.970  14.203 -16.463  1.00  0.00    -0.275 OA
ATOM     12  N   UNL     1       9.391  12.949 -15.094  1.00  0.00    -0.352 N 
ATOM     13  H   UNL     1      10.375  12.719 -14.831  1.00  0.00     0.163 HD
BRANCH  12  14
ATOM     14  C   UNL     1       8.308  12.294 -14.368  1.00  0.00     0.151 C 
BRANCH  14  15
ATOM     15  C   UNL     1       8.511  10.804 -14.368  1.00  0.00    -0.025 A 
ATOM     16  C   UNL     1       7.854  10.010 -13.417  1.00  0.00     0.056 A 
ATOM     17  C   UNL     1       9.371  10.200 -15.296  1.00  0.00     0.009 A 
ATOM     18  C   UNL     1       8.028   8.612 -13.405  1.00  0.00     0.160 A 
ATOM     19  C   UNL     1       9.546   8.816 -15.291  1.00  0.00     0.050 A 
ATOM     20  C   UNL     1       8.882   8.020 -14.354  1.00  0.00     0.157 A 
BRANCH  18  21
ATOM     21  O   UNL     1       7.371   7.789 -12.476  1.00  0.00    -0.493 OA
ATOM     22  C   UNL     1       7.135   8.136 -11.117  1.00  0.00     0.278 C 
ENDBRANCH  18  21
BRANCH  20  23
ATOM     23  O   UNL     1       9.082   6.640 -14.381  1.00  0.00    -0.504 OA
ATOM     24  H   UNL     1       9.991   6.228 -14.561  1.00  0.00     0.293 HD
ENDBRANCH  20  23
ENDBRANCH  14  15
ENDBRANCH  12  14
ENDBRANCH   9  10
ENDBRANCH   1   9
TORSDOF 10
ENDMDL
MODEL 6
REMARK VINA RESULT:    -6.217      1.699      3.594
REMARK INTER + INTRA:         -10.374
REMARK INTER:                  -8.747
REMARK INTRA:                  -1.628
REMARK UNBOUND:                -0.704
REMARK SMILES COc1cc(CNC(=O)CCCCC=CC(C)C)ccc1O
REMARK SMILES IDX 11 1 12 2 13 3 14 4 15 5 16 6 17 7 18 8 10 9 8 10 9 11 7 12
REMARK SMILES IDX 6 14 5 15 4 16 19 17 3 18 20 19 21 20 2 21 1 22 22 23
REMARK H PARENT 7 13 22 24
REMARK Flexibility Score: inf
ROOT
ATOM      1  C   UNL     1       6.703  10.134 -13.424  1.00  0.00     0.010 C 
ENDROOT
BRANCH   1   2
ATOM      2  C   UNL     1       6.713   8.652 -13.009  1.00  0.00     0.005 C 
BRANCH   2   3
ATOM      3  C   UNL     1       6.646   7.716 -14.226  1.00  0.00     0.027 C 
BRANCH   3   4
ATOM      4  C   UNL     1       7.817   6.764 -14.274  1.00  0.00    -0.031 C 
ATOM      5  C   UNL     1       8.972   6.992 -14.927  1.00  0.00    -0.028 C 
BRANCH   5   6
ATOM      6  C   UNL     1       9.271   8.208 -15.781  1.00  0.00     0.005 C 
ATOM      7  C   UNL     1      10.762   8.551 -15.689  1.00  0.00     0.012 C 
ATOM      8  C   UNL     1       8.869   7.925 -17.232  1.00  0.00     0.012 C 
ENDBRANCH   5   6
ENDBRANCH   3   4
ENDBRANCH   2   3
ENDBRANCH   1   2
BRANCH   1   9
ATOM      9  C   UNL     1       8.098  10.768 -13.351  1.00  0.00     0.100 C 
BRANCH   9  10
ATOM     10  C   UNL     1       8.234  11.986 -14.227  1.00  0.00     0.220 C 
ATOM     11  O   UNL     1       7.211  12.674 -14.506  1.00  0.00    -0.275 OA
ATOM     12  N   UNL     1       9.502  12.314 -14.807  1.00  0.00    -0.352 N 
ATOM     13  H   UNL     1      10.333  11.722 -14.582  1.00  0.00     0.163 HD
BRANCH  12  14
ATOM     14  C   UNL     1       9.683  13.448 -15.709  1.00  0.00     0.151 C 
BRANCH  14  15
ATOM     15  C   UNL     1       9.590  12.993 -17.139  1.00  0.00    -0.025 A 
ATOM     16  C   UNL     1       9.310  13.923 -18.150  1.00  0.00     0.056 A 
ATOM     17  C   UNL     1       9.756  11.641 -17.470  1.00  0.00     0.009 A 
ATOM     18  C   UNL     1       9.225  13.516 -19.496  1.00  0.00     0.160 A 
ATOM     19  C   UNL     1       9.674  11.232 -18.802  1.00  0.00     0.050 A 
ATOM     20  C   UNL     1       9.411  12.158 -19.815  1.00  0.00     0.157 A 
BRANCH  18  21
ATOM     21  O   UNL     1       8.963  14.426 -20.533  1.00  0.00    -0.493 OA
ATOM     22  C   UNL     1       9.188  15.828 -20.451  1.00  0.00     0.278 C 
ENDBRANCH  18  21
BRANCH  20  23
ATOM     23  O   UNL     1       9.338  11.711 -21.134  1.00  0.00    -0.504 OA
ATOM     24  H   UNL     1       9.899  12.116 -21.875  1.00  0.00     0.293 HD
ENDBRANCH  20  23
ENDBRANCH  14  15
ENDBRANCH  12  14
ENDBRANCH   9  10
ENDBRANCH   1   9
TORSDOF 10
ENDMDL
MODEL 7
REMARK VINA RESULT:    -6.201      2.209      8.526
REMARK INTER + INTRA:         -10.349
REMARK INTER:                  -9.371
REMARK INTRA:                  -0.979
REMARK UNBOUND:                -0.704
REMARK SMILES COc1cc(CNC(=O)CCCCC=CC(C)C)ccc1O
REMARK SMILES IDX 11 1 12 2 13 3 14 4 15 5 16 6 17 7 18 8 10 9 8 10 9 11 7 12
REMARK SMILES IDX 6 14 5 15 4 16 19 17 3 18 20 19 21 20 2 21 1 22 22 23
REMARK H PARENT 7 13 22 24
REMARK Flexibility Score: inf
ROOT
ATOM      1  C   UNL     1       7.972  14.105 -20.464  1.00  0.00     0.010 C 
ENDROOT
BRANCH   1   2
ATOM      2  C   UNL     1       8.509  14.871 -21.686  1.00  0.00     0.005 C 
BRANCH   2   3
ATOM      3  C   UNL     1       8.776  16.349 -21.363  1.00  0.00     0.027 C 
BRANCH   3   4
ATOM      4  C   UNL     1       9.603  16.515 -20.111  1.00  0.00    -0.031 C 
ATOM      5  C   UNL     1       9.256  17.268 -19.049  1.00  0.00    -0.028 C 
BRANCH   5   6
ATOM      6  C   UNL     1       8.012  18.129 -18.954  1.00  0.00     0.005 C 
ATOM      7  C   UNL     1       6.913  17.370 -18.204  1.00  0.00     0.012 C 
ATOM      8  C   UNL     1       8.352  19.439 -18.236  1.00  0.00     0.012 C 
ENDBRANCH   5   6
ENDBRANCH   3   4
ENDBRANCH   2   3
ENDBRANCH   1   2
BRANCH   1   9
ATOM      9  C   UNL     1       8.893  12.950 -20.050  1.00  0.00     0.100 C 
BRANCH   9  10
ATOM     10  C   UNL     1       9.198  12.946 -18.575  1.00  0.00     0.220 C 
ATOM     11  O   UNL     1       8.794  13.898 -17.849  1.00  0.00    -0.275 OA
ATOM     12  N   UNL     1      10.013  11.909 -18.014  1.00  0.00    -0.352 N 
ATOM     13  H   UNL     1      10.355  11.140 -18.633  1.00  0.00     0.163 HD
BRANCH  12  14
ATOM     14  C   UNL     1      10.389  11.883 -16.604  1.00  0.00     0.151 C 
BRANCH  14  15
ATOM     15  C   UNL     1      10.080  10.536 -16.010  1.00  0.00    -0.025 A 
ATOM     16  C   UNL     1       9.112  10.424 -15.002  1.00  0.00     0.056 A 
ATOM     17  C   UNL     1      10.766   9.392 -16.439  1.00  0.00     0.009 A 
ATOM     18  C   UNL     1       8.805   9.170 -14.438  1.00  0.00     0.160 A 
ATOM     19  C   UNL     1      10.466   8.147 -15.885  1.00  0.00     0.050 A 
ATOM     20  C   UNL     1       9.492   8.028 -14.890  1.00  0.00     0.157 A 
BRANCH  18  21
ATOM     21  O   UNL     1       7.829   9.023 -13.438  1.00  0.00    -0.493 OA
ATOM     22  C   UNL     1       6.866  10.013 -13.101  1.00  0.00     0.278 C 
ENDBRANCH  18  21
BRANCH  20  23
ATOM     23  O   UNL     1       9.218   6.766 -14.363  1.00  0.00    -0.504 OA
ATOM     24  H   UNL     1       9.164   6.597 -13.364  1.00  0.00     0.293 HD
ENDBRANCH  20  23
ENDBRANCH  14  15
ENDBRANCH  12  14
ENDBRANCH   9  10
ENDBRANCH   1   9
TORSDOF 10
ENDMDL
MODEL 8
REMARK VINA RESULT:    -6.157      1.779      3.313
REMARK INTER + INTRA:         -10.281
REMARK INTER:                  -9.387
REMARK INTRA:                  -0.894
REMARK UNBOUND:                -0.704
REMARK SMILES COc1cc(CNC(=O)CCCCC=CC(C)C)ccc1O
REMARK SMILES IDX 11 1 12 2 13 3 14 4 15 5 16 6 17 7 18 8 10 9 8 10 9 11 7 12
REMARK SMILES IDX 6 14 5 15 4 16 19 17 3 18 20 19 21 20 2 21 1 22 22 23
REMARK H PARENT 7 13 22 24
REMARK Flexibility Score: inf
ROOT
ATOM      1  C   UNL     1       8.590  11.111 -14.337  1.00  0.00     0.010 C 
ENDROOT
BRANCH   1   2
ATOM      2  C   UNL     1       7.754  11.316 -13.061  1.00  0.00     0.005 C 
BRANCH   2   3
ATOM      3  C   UNL     1       6.588  10.318 -12.974  1.00  0.00     0.027 C 
BRANCH   3   4
ATOM      4  C   UNL     1       6.958   9.084 -12.185  1.00  0.00    -0.031 C 
ATOM      5  C   UNL     1       7.366   7.918 -12.722  1.00  0.00    -0.028 C 
BRANCH   5   6
ATOM      6  C   UNL     1       7.460   7.620 -14.204  1.00  0.00     0.005 C 
ATOM      7  C   UNL     1       8.919   7.353 -14.587  1.00  0.00     0.012 C 
ATOM      8  C   UNL     1       6.582   6.410 -14.539  1.00  0.00     0.012 C 
ENDBRANCH   5   6
ENDBRANCH   3   4
ENDBRANCH   2   3
ENDBRANCH   1   2
BRANCH   1   9
ATOM      9  C   UNL     1       9.137  12.432 -14.893  1.00  0.00     0.100 C 
BRANCH   9  10
ATOM     10  C   UNL     1       9.772  12.277 -16.249  1.00  0.00     0.220 C 
ATOM     11  O   UNL     1      11.029  12.186 -16.346  1.00  0.00    -0.275 OA
ATOM     12  N   UNL     1       8.961  12.315 -17.430  1.00  0.00    -0.352 N 
ATOM     13  H   UNL     1       7.926  12.412 -17.333  1.00  0.00     0.163 HD
BRANCH  12  14
ATOM     14  C   UNL     1       9.526  12.227 -18.773  1.00  0.00     0.151 C 
BRANCH  14  15
ATOM     15  C   UNL     1       9.238  13.487 -19.541  1.00  0.00    -0.025 A 
ATOM     16  C   UNL     1       9.525  14.734 -18.967  1.00  0.00     0.056 A 
ATOM     17  C   UNL     1       8.662  13.431 -20.817  1.00  0.00     0.009 A 
ATOM     18  C   UNL     1       9.267  15.925 -19.673  1.00  0.00     0.160 A 
ATOM     19  C   UNL     1       8.406  14.607 -21.523  1.00  0.00     0.050 A 
ATOM     20  C   UNL     1       8.704  15.851 -20.960  1.00  0.00     0.157 A 
BRANCH  18  21
ATOM     21  O   UNL     1       9.559  17.188 -19.132  1.00  0.00    -0.493 OA
ATOM     22  C   UNL     1       8.628  17.995 -18.423  1.00  0.00     0.278 C 
ENDBRANCH  18  21
BRANCH  20  23
ATOM     23  O   UNL     1       8.435  17.004 -21.697  1.00  0.00    -0.504 OA
ATOM     24  H   UNL     1       7.500  17.240 -22.011  1.00  0.00     0.293 HD
ENDBRANCH  20  23
ENDBRANCH  14  15
ENDBRANCH  12  14
ENDBRANCH   9  10
ENDBRANCH   1   9
TORSDOF 10
ENDMDL
MODEL 9
REMARK VINA RESULT:    -6.056      1.511      2.811
REMARK INTER + INTRA:         -10.124
REMARK INTER:                  -9.059
REMARK INTRA:                  -1.064
REMARK UNBOUND:                -0.704
REMARK SMILES COc1cc(CNC(=O)CCCCC=CC(C)C)ccc1O
REMARK SMILES IDX 11 1 12 2 13 3 14 4 15 5 16 6 17 7 18 8 10 9 8 10 9 11 7 12
REMARK SMILES IDX 6 14 5 15 4 16 19 17 3 18 20 19 21 20 2 21 1 22 22 23
REMARK H PARENT 7 13 22 24
REMARK Flexibility Score: inf
ROOT
ATOM      1  C   UNL     1       8.303  11.746 -14.380  1.00  0.00     0.010 C 
ENDROOT
BRANCH   1   2
ATOM      2  C   UNL     1       7.744  11.359 -12.999  1.00  0.00     0.005 C 
BRANCH   2   3
ATOM      3  C   UNL     1       6.652  10.283 -13.104  1.00  0.00     0.027 C 
BRANCH   3   4
ATOM      4  C   UNL     1       6.974   9.067 -12.267  1.00  0.00    -0.031 C 
ATOM      5  C   UNL     1       7.371   7.876 -12.755  1.00  0.00    -0.028 C 
BRANCH   5   6
ATOM      6  C   UNL     1       7.499   7.529 -14.224  1.00  0.00     0.005 C 
ATOM      7  C   UNL     1       8.941   7.119 -14.535  1.00  0.00     0.012 C 
ATOM      8  C   UNL     1       6.527   6.395 -14.567  1.00  0.00     0.012 C 
ENDBRANCH   5   6
ENDBRANCH   3   4
ENDBRANCH   2   3
ENDBRANCH   1   2
BRANCH   1   9
ATOM      9  C   UNL     1       9.240  10.672 -14.949  1.00  0.00     0.100 C 
BRANCH   9  10
ATOM     10  C   UNL     1       9.683  10.971 -16.357  1.00  0.00     0.220 C 
ATOM     11  O   UNL     1      10.822  10.590 -16.749  1.00  0.00    -0.275 OA
ATOM     12  N   UNL     1       8.850  11.755 -17.220  1.00  0.00    -0.352 N 
ATOM     13  H   UNL     1       7.920  12.078 -16.873  1.00  0.00     0.163 HD
BRANCH  12  14
ATOM     14  C   UNL     1       9.251  12.123 -18.575  1.00  0.00     0.151 C 
BRANCH  14  15
ATOM     15  C   UNL     1       9.495  13.605 -18.657  1.00  0.00    -0.025 A 
ATOM     16  C   UNL     1       9.053  14.323 -19.778  1.00  0.00     0.056 A 
ATOM     17  C   UNL     1      10.181  14.274 -17.635  1.00  0.00     0.009 A 
ATOM     18  C   UNL     1       9.268  15.712 -19.870  1.00  0.00     0.160 A 
ATOM     19  C   UNL     1      10.396  15.650 -17.719  1.00  0.00     0.050 A 
ATOM     20  C   UNL     1       9.944  16.372 -18.827  1.00  0.00     0.157 A 
BRANCH  18  21
ATOM     21  O   UNL     1       8.823  16.462 -20.971  1.00  0.00    -0.493 OA
ATOM     22  C   UNL     1       9.271  16.274 -22.307  1.00  0.00     0.278 C 
ENDBRANCH  18  21
BRANCH  20  23
ATOM     23  O   UNL     1      10.176  17.747 -18.874  1.00  0.00    -0.504 OA
ATOM     24  H   UNL     1      10.836  18.163 -19.523  1.00  0.00     0.293 HD
ENDBRANCH  20  23
ENDBRANCH  14  15
ENDBRANCH  12  14
ENDBRANCH   9  10
ENDBRANCH   1   9
TORSDOF 10
ENDMDL
