MODEL 1
REMARK VINA RESULT:    12.438      0.000      0.000
REMARK INTER + INTRA:          16.105
REMARK INTER:                  16.801
REMARK INTRA:                  -0.696
REMARK UNBOUND:                -0.696
REMARK SMILES O=c1c(-c2ccc(O)cc2)coc2c([C@@H]3O[C@H](CO)[C@H](O)[C@H](O)[C@H]3O)c(O)ccc12
REMARK SMILES IDX 3 1 11 2 12 3 13 4 30 5 2 6 1 7 29 8 28 9 26 10 14 11 4 12
REMARK SMILES IDX 5 13 6 14 7 15 10 16 9 17 8 18 15 20 24 21 16 22 22 23 17 24
REMARK SMILES IDX 20 25 25 26 23 28 18 30 19 31 21 33 27 35
REMARK H PARENT 8 19 25 27 23 29 19 32 21 34 27 36
REMARK Flexibility Score: inf
ROOT
ATOM      1  C   UNL     1      13.309  -7.299 -28.461  1.00  0.00     0.065 A 
ATOM      2  C   UNL     1      12.062  -7.805 -28.073  1.00  0.00     0.208 A 
ATOM      3  O   UNL     1      11.948  -9.040 -27.601  1.00  0.00    -0.463 OA
ATOM      4  C   UNL     1      12.977  -9.872 -27.456  1.00  0.00     0.147 A 
ATOM      5  C   UNL     1      14.272  -9.436 -27.822  1.00  0.00     0.066 A 
ATOM      6  C   UNL     1      14.433  -8.131 -28.323  1.00  0.00     0.200 A 
ATOM      7  O   UNL     1      15.580  -7.701 -28.623  1.00  0.00    -0.288 OA
ATOM      8  C   UNL     1      15.364 -10.300 -27.663  1.00  0.00     0.020 A 
ATOM      9  C   UNL     1      15.179 -11.573 -27.137  1.00  0.00     0.047 A 
ATOM     10  C   UNL     1      13.912 -12.019 -26.761  1.00  0.00     0.125 A 
ATOM     11  C   UNL     1      12.776 -11.179 -26.932  1.00  0.00     0.069 A 
ENDROOT
BRANCH   1  12
ATOM     12  C   UNL     1      13.413  -5.914 -28.987  1.00  0.00    -0.011 A 
ATOM     13  C   UNL     1      12.284  -5.077 -29.031  1.00  0.00     0.013 A 
ATOM     14  C   UNL     1      12.393  -3.769 -29.511  1.00  0.00     0.047 A 
ATOM     15  C   UNL     1      13.630  -3.280 -29.949  1.00  0.00     0.115 A 
ATOM     16  C   UNL     1      14.652  -5.416 -29.425  1.00  0.00     0.013 A 
ATOM     17  C   UNL     1      14.757  -4.106 -29.905  1.00  0.00     0.047 A 
BRANCH  15  18
ATOM     18  O   UNL     1      13.751  -1.976 -30.426  1.00  0.00    -0.508 OA
ATOM     19  H   UNL     1      14.604  -1.441 -30.297  1.00  0.00     0.293 HD
ENDBRANCH  15  18
ENDBRANCH   1  12
BRANCH  11  20
ATOM     20  C   UNL     1      11.382 -11.658 -26.504  1.00  0.00     0.188 C 
ATOM     21  C   UNL     1      10.753 -12.597 -27.596  1.00  0.00     0.179 C 
ATOM     22  O   UNL     1      11.435 -12.202 -25.190  1.00  0.00    -0.362 OA
ATOM     23  C   UNL     1      10.877 -14.105 -27.256  1.00  0.00     0.177 C 
ATOM     24  C   UNL     1      10.404 -13.134 -24.944  1.00  0.00     0.176 C 
ATOM     25  C   UNL     1      10.685 -14.422 -25.743  1.00  0.00     0.177 C 
BRANCH  21  26
ATOM     26  O   UNL     1       9.386 -12.292 -27.744  1.00  0.00    -0.387 OA
ATOM     27  H   UNL     1       8.886 -13.148 -27.715  1.00  0.00     0.211 HD
ENDBRANCH  21  26
BRANCH  23  28
ATOM     28  O   UNL     1      12.073 -14.645 -27.767  1.00  0.00    -0.387 OA
ATOM     29  H   UNL     1      12.543 -15.098 -27.025  1.00  0.00     0.211 HD
ENDBRANCH  23  28
BRANCH  24  30
ATOM     30  C   UNL     1      10.321 -13.412 -23.436  1.00  0.00     0.191 C 
BRANCH  30  31
ATOM     31  O   UNL     1       9.866 -14.719 -23.206  1.00  0.00    -0.394 OA
ATOM     32  H   UNL     1       9.117 -14.877 -23.839  1.00  0.00     0.210 HD
ENDBRANCH  30  31
ENDBRANCH  24  30
BRANCH  25  33
ATOM     33  O   UNL     1      11.817 -15.070 -25.218  1.00  0.00    -0.388 OA
ATOM     34  H   UNL     1      12.047 -15.806 -25.842  1.00  0.00     0.211 HD
ENDBRANCH  25  33
ENDBRANCH  11  20
BRANCH  10  35
ATOM     35  O   UNL     1      13.831 -13.302 -26.212  1.00  0.00    -0.507 OA
ATOM     36  H   UNL     1      14.572 -13.750 -25.695  1.00  0.00     0.293 HD
ENDBRANCH  10  35
TORSDOF 9
ENDMDL
MODEL 2
REMARK VINA RESULT:    12.479      1.797      3.447
REMARK INTER + INTRA:          16.160
REMARK INTER:                  13.442
REMARK INTRA:                   2.718
REMARK UNBOUND:                -0.696
REMARK SMILES O=c1c(-c2ccc(O)cc2)coc2c([C@@H]3O[C@H](CO)[C@H](O)[C@H](O)[C@H]3O)c(O)ccc12
REMARK SMILES IDX 3 1 11 2 12 3 13 4 30 5 2 6 1 7 29 8 28 9 26 10 14 11 4 12
REMARK SMILES IDX 5 13 6 14 7 15 10 16 9 17 8 18 15 20 24 21 16 22 22 23 17 24
REMARK SMILES IDX 20 25 25 26 23 28 18 30 19 31 21 33 27 35
REMARK H PARENT 8 19 25 27 23 29 19 32 21 34 27 36
REMARK Flexibility Score: inf
ROOT
ATOM      1  C   UNL     1      12.810  -9.365 -28.422  1.00  0.00     0.065 A 
ATOM      2  C   UNL     1      13.136 -10.091 -27.270  1.00  0.00     0.208 A 
ATOM      3  O   UNL     1      12.629 -11.299 -27.062  1.00  0.00    -0.463 OA
ATOM      4  C   UNL     1      11.799 -11.906 -27.907  1.00  0.00     0.147 A 
ATOM      5  C   UNL     1      11.422 -11.242 -29.098  1.00  0.00     0.066 A 
ATOM      6  C   UNL     1      11.942  -9.960 -29.354  1.00  0.00     0.200 A 
ATOM      7  O   UNL     1      11.654  -9.358 -30.425  1.00  0.00    -0.288 OA
ATOM      8  C   UNL     1      10.557 -11.876 -30.000  1.00  0.00     0.020 A 
ATOM      9  C   UNL     1      10.082 -13.154 -29.734  1.00  0.00     0.047 A 
ATOM     10  C   UNL     1      10.449 -13.831 -28.570  1.00  0.00     0.125 A 
ATOM     11  C   UNL     1      11.305 -13.209 -27.619  1.00  0.00     0.069 A 
ENDROOT
BRANCH   1  12
ATOM     12  C   UNL     1      13.389  -8.014 -28.633  1.00  0.00    -0.011 A 
ATOM     13  C   UNL     1      14.616  -7.856 -29.301  1.00  0.00     0.013 A 
ATOM     14  C   UNL     1      15.146  -6.580 -29.512  1.00  0.00     0.047 A 
ATOM     15  C   UNL     1      14.455  -5.447 -29.063  1.00  0.00     0.115 A 
ATOM     16  C   UNL     1      12.699  -6.873 -28.189  1.00  0.00     0.013 A 
ATOM     17  C   UNL     1      13.233  -5.598 -28.402  1.00  0.00     0.047 A 
BRANCH  15  18
ATOM     18  O   UNL     1      14.972  -4.170 -29.271  1.00  0.00    -0.508 OA
ATOM     19  H   UNL     1      15.971  -3.992 -29.249  1.00  0.00     0.293 HD
ENDBRANCH  15  18
ENDBRANCH   1  12
BRANCH  11  20
ATOM     20  C   UNL     1      11.726 -13.954 -26.345  1.00  0.00     0.188 C 
ATOM     21  C   UNL     1      13.039 -13.335 -25.742  1.00  0.00     0.179 C 
ATOM     22  O   UNL     1      10.625 -14.043 -25.447  1.00  0.00    -0.362 OA
ATOM     23  C   UNL     1      12.776 -12.377 -24.550  1.00  0.00     0.177 C 
ATOM     24  C   UNL     1      11.031 -14.184 -24.102  1.00  0.00     0.176 C 
ATOM     25  C   UNL     1      11.628 -12.850 -23.610  1.00  0.00     0.177 C 
BRANCH  21  26
ATOM     26  O   UNL     1      13.882 -14.371 -25.295  1.00  0.00    -0.387 OA
ATOM     27  H   UNL     1      14.727 -14.308 -25.809  1.00  0.00     0.211 HD
ENDBRANCH  21  26
BRANCH  23  28
ATOM     28  O   UNL     1      12.593 -11.053 -24.993  1.00  0.00    -0.387 OA
ATOM     29  H   UNL     1      12.335 -11.085 -25.946  1.00  0.00     0.211 HD
ENDBRANCH  23  28
BRANCH  24  30
ATOM     30  C   UNL     1       9.825 -14.610 -23.251  1.00  0.00     0.191 C 
BRANCH  30  31
ATOM     31  O   UNL     1      10.255 -15.125 -22.020  1.00  0.00    -0.394 OA
ATOM     32  H   UNL     1      11.206 -14.858 -21.914  1.00  0.00     0.210 HD
ENDBRANCH  30  31
ENDBRANCH  24  30
BRANCH  25  33
ATOM     33  O   UNL     1      10.615 -11.878 -23.527  1.00  0.00    -0.388 OA
ATOM     34  H   UNL     1      10.959 -11.148 -22.949  1.00  0.00     0.211 HD
ENDBRANCH  25  33
ENDBRANCH  11  20
BRANCH  10  35
ATOM     35  O   UNL     1       9.947 -15.125 -28.406  1.00  0.00    -0.507 OA
ATOM     36  H   UNL     1       9.018 -15.415 -28.677  1.00  0.00     0.293 HD
ENDBRANCH  10  35
TORSDOF 9
ENDMDL
MODEL 3
REMARK VINA RESULT:    12.882      1.744      3.320
REMARK INTER + INTRA:          16.704
REMARK INTER:                  16.559
REMARK INTRA:                   0.145
REMARK UNBOUND:                -0.696
REMARK SMILES O=c1c(-c2ccc(O)cc2)coc2c([C@@H]3O[C@H](CO)[C@H](O)[C@H](O)[C@H]3O)c(O)ccc12
REMARK SMILES IDX 3 1 11 2 12 3 13 4 30 5 2 6 1 7 29 8 28 9 26 10 14 11 4 12
REMARK SMILES IDX 5 13 6 14 7 15 10 16 9 17 8 18 15 20 24 21 16 22 22 23 17 24
REMARK SMILES IDX 20 25 25 26 23 28 18 30 19 31 21 33 27 35
REMARK H PARENT 8 19 25 27 23 29 19 32 21 34 27 36
REMARK Flexibility Score: inf
ROOT
ATOM      1  C   UNL     1      13.082  -6.750 -28.507  1.00  0.00     0.065 A 
ATOM      2  C   UNL     1      13.792  -7.418 -27.501  1.00  0.00     0.208 A 
ATOM      3  O   UNL     1      13.590  -8.709 -27.271  1.00  0.00    -0.463 OA
ATOM      4  C   UNL     1      12.728  -9.455 -27.959  1.00  0.00     0.147 A 
ATOM      5  C   UNL     1      11.973  -8.857 -28.995  1.00  0.00     0.066 A 
ATOM      6  C   UNL     1      12.163  -7.489 -29.270  1.00  0.00     0.200 A 
ATOM      7  O   UNL     1      11.532  -6.936 -30.212  1.00  0.00    -0.288 OA
ATOM      8  C   UNL     1      11.071  -9.635 -29.732  1.00  0.00     0.020 A 
ATOM      9  C   UNL     1      10.927 -10.989 -29.458  1.00  0.00     0.047 A 
ATOM     10  C   UNL     1      11.669 -11.602 -28.447  1.00  0.00     0.125 A 
ATOM     11  C   UNL     1      12.576 -10.838 -27.660  1.00  0.00     0.069 A 
ENDROOT
BRANCH   1  12
ATOM     12  C   UNL     1      13.323  -5.305 -28.746  1.00  0.00    -0.011 A 
ATOM     13  C   UNL     1      14.587  -4.739 -28.501  1.00  0.00     0.013 A 
ATOM     14  C   UNL     1      14.812  -3.380 -28.745  1.00  0.00     0.047 A 
ATOM     15  C   UNL     1      13.780  -2.573 -29.241  1.00  0.00     0.115 A 
ATOM     16  C   UNL     1      12.293  -4.489 -29.246  1.00  0.00     0.013 A 
ATOM     17  C   UNL     1      12.522  -3.131 -29.489  1.00  0.00     0.047 A 
BRANCH  15  18
ATOM     18  O   UNL     1      13.994  -1.219 -29.491  1.00  0.00    -0.508 OA
ATOM     19  H   UNL     1      13.359  -0.509 -29.143  1.00  0.00     0.293 HD
ENDBRANCH  15  18
ENDBRANCH   1  12
BRANCH  11  20
ATOM     20  C   UNL     1      13.407 -11.508 -26.558  1.00  0.00     0.188 C 
ATOM     21  C   UNL     1      12.496 -11.933 -25.350  1.00  0.00     0.179 C 
ATOM     22  O   UNL     1      14.206 -12.547 -27.115  1.00  0.00    -0.362 OA
ATOM     23  C   UNL     1      12.127 -13.440 -25.359  1.00  0.00     0.177 C 
ATOM     24  C   UNL     1      14.544 -13.539 -26.169  1.00  0.00     0.176 C 
ATOM     25  C   UNL     1      13.287 -14.365 -25.830  1.00  0.00     0.177 C 
BRANCH  21  26
ATOM     26  O   UNL     1      13.161 -11.652 -24.141  1.00  0.00    -0.387 OA
ATOM     27  H   UNL     1      13.796 -10.910 -24.317  1.00  0.00     0.211 HD
ENDBRANCH  21  26
BRANCH  23  28
ATOM     28  O   UNL     1      10.937 -13.668 -26.077  1.00  0.00    -0.387 OA
ATOM     29  H   UNL     1      11.091 -13.391 -27.013  1.00  0.00     0.211 HD
ENDBRANCH  23  28
BRANCH  24  30
ATOM     30  C   UNL     1      15.663 -14.423 -26.740  1.00  0.00     0.191 C 
BRANCH  30  31
ATOM     31  O   UNL     1      16.598 -13.639 -27.431  1.00  0.00    -0.394 OA
ATOM     32  H   UNL     1      16.887 -14.168 -28.222  1.00  0.00     0.210 HD
ENDBRANCH  30  31
ENDBRANCH  24  30
BRANCH  25  33
ATOM     33  O   UNL     1      12.902 -15.125 -26.949  1.00  0.00    -0.388 OA
ATOM     34  H   UNL     1      13.320 -14.704 -27.745  1.00  0.00     0.211 HD
ENDBRANCH  25  33
ENDBRANCH  11  20
BRANCH  10  35
ATOM     35  O   UNL     1      11.479 -12.974 -28.267  1.00  0.00    -0.507 OA
ATOM     36  H   UNL     1      12.162 -13.597 -27.862  1.00  0.00     0.293 HD
ENDBRANCH  10  35
TORSDOF 9
ENDMDL
MODEL 4
REMARK VINA RESULT:    15.039      1.422      2.914
REMARK INTER + INTRA:          19.618
REMARK INTER:                  16.940
REMARK INTRA:                   2.678
REMARK UNBOUND:                -0.696
REMARK SMILES O=c1c(-c2ccc(O)cc2)coc2c([C@@H]3O[C@H](CO)[C@H](O)[C@H](O)[C@H]3O)c(O)ccc12
REMARK SMILES IDX 3 1 11 2 12 3 13 4 30 5 2 6 1 7 29 8 28 9 26 10 14 11 4 12
REMARK SMILES IDX 5 13 6 14 7 15 10 16 9 17 8 18 15 20 24 21 16 22 22 23 17 24
REMARK SMILES IDX 20 25 25 26 23 28 18 30 19 31 21 33 27 35
REMARK H PARENT 8 19 25 27 23 29 19 32 21 34 27 36
REMARK Flexibility Score: inf
ROOT
ATOM      1  C   UNL     1      13.256  -9.134 -27.998  1.00  0.00     0.065 A 
ATOM      2  C   UNL     1      12.151  -9.981 -27.849  1.00  0.00     0.208 A 
ATOM      3  O   UNL     1      12.310 -11.245 -27.481  1.00  0.00    -0.463 OA
ATOM      4  C   UNL     1      13.495 -11.796 -27.225  1.00  0.00     0.147 A 
ATOM      5  C   UNL     1      14.662 -11.006 -27.349  1.00  0.00     0.066 A 
ATOM      6  C   UNL     1      14.532  -9.659 -27.735  1.00  0.00     0.200 A 
ATOM      7  O   UNL     1      15.551  -8.919 -27.818  1.00  0.00    -0.288 OA
ATOM      8  C   UNL     1      15.914 -11.572 -27.072  1.00  0.00     0.020 A 
ATOM      9  C   UNL     1      16.009 -12.897 -26.665  1.00  0.00     0.047 A 
ATOM     10  C   UNL     1      14.869 -13.691 -26.526  1.00  0.00     0.125 A 
ATOM     11  C   UNL     1      13.584 -13.158 -26.824  1.00  0.00     0.069 A 
ENDROOT
BRANCH   1  12
ATOM     12  C   UNL     1      13.053  -7.722 -28.412  1.00  0.00    -0.011 A 
ATOM     13  C   UNL     1      11.846  -7.315 -29.006  1.00  0.00     0.013 A 
ATOM     14  C   UNL     1      11.655  -5.980 -29.376  1.00  0.00     0.047 A 
ATOM     15  C   UNL     1      12.666  -5.036 -29.154  1.00  0.00     0.115 A 
ATOM     16  C   UNL     1      14.062  -6.768 -28.189  1.00  0.00     0.013 A 
ATOM     17  C   UNL     1      13.868  -5.434 -28.561  1.00  0.00     0.047 A 
BRANCH  15  18
ATOM     18  O   UNL     1      12.486  -3.703 -29.516  1.00  0.00    -0.508 OA
ATOM     19  H   UNL     1      11.847  -3.098 -29.010  1.00  0.00     0.293 HD
ENDBRANCH  15  18
ENDBRANCH   1  12
BRANCH  11  20
ATOM     20  C   UNL     1      12.326 -14.021 -26.658  1.00  0.00     0.188 C 
ATOM     21  C   UNL     1      11.364 -13.406 -25.577  1.00  0.00     0.179 C 
ATOM     22  O   UNL     1      11.735 -14.270 -27.929  1.00  0.00    -0.362 OA
ATOM     23  C   UNL     1      10.184 -12.606 -26.188  1.00  0.00     0.177 C 
ATOM     24  C   UNL     1      10.352 -14.542 -27.842  1.00  0.00     0.176 C 
ATOM     25  C   UNL     1       9.602 -13.243 -27.484  1.00  0.00     0.177 C 
BRANCH  21  26
ATOM     26  O   UNL     1      10.830 -14.440 -24.785  1.00  0.00    -0.387 OA
ATOM     27  H   UNL     1      11.211 -15.295 -25.114  1.00  0.00     0.211 HD
ENDBRANCH  21  26
BRANCH  23  28
ATOM     28  O   UNL     1      10.525 -11.251 -26.364  1.00  0.00    -0.387 OA
ATOM     29  H   UNL     1      10.178 -10.748 -25.587  1.00  0.00     0.211 HD
ENDBRANCH  23  28
BRANCH  24  30
ATOM     30  C   UNL     1       9.866 -15.125 -29.177  1.00  0.00     0.191 C 
BRANCH  30  31
ATOM     31  O   UNL     1       9.127 -14.168 -29.887  1.00  0.00    -0.394 OA
ATOM     32  H   UNL     1       9.769 -13.466 -30.175  1.00  0.00     0.210 HD
ENDBRANCH  30  31
ENDBRANCH  24  30
BRANCH  25  33
ATOM     33  O   UNL     1       9.672 -12.342 -28.562  1.00  0.00    -0.388 OA
ATOM     34  H   UNL     1      10.540 -11.867 -28.488  1.00  0.00     0.211 HD
ENDBRANCH  25  33
ENDBRANCH  11  20
BRANCH  10  35
ATOM     35  O   UNL     1      15.063 -15.001 -26.081  1.00  0.00    -0.507 OA
ATOM     36  H   UNL     1      14.386 -15.743 -26.178  1.00  0.00     0.293 HD
ENDBRANCH  10  35
TORSDOF 9
ENDMDL
