MODEL 1
REMARK VINA RESULT:    -3.955      0.000      0.000
REMARK INTER + INTRA:          -5.439
REMARK INTER:                  -4.880
REMARK INTRA:                  -0.559
REMARK UNBOUND:                -0.559
REMARK SMILES C=CC(=C)CCC=C(C)C
REMARK SMILES IDX 5 1 6 2 7 3 9 4 8 5 10 6 3 7 4 8 2 9 1 10
REMARK H PARENT
REMARK Flexibility Score: inf
ROOT
ATOM      1  C   UNL     1       0.635  15.600  17.489  1.00  0.00     0.039 C 
ENDROOT
BRANCH   1   2
ATOM      2  C   UNL     1       1.612  14.421  17.572  1.00  0.00     0.032 C 
BRANCH   2   3
ATOM      3  C   UNL     1       1.187  13.309  16.647  1.00  0.00    -0.028 C 
ATOM      4  C   UNL     1       2.956  13.827  14.949  1.00  0.00     0.039 C 
ATOM      5  C   UNL     1       1.765  13.045  15.453  1.00  0.00    -0.080 C 
ATOM      6  C   UNL     1       1.205  11.925  14.617  1.00  0.00     0.039 C 
ENDBRANCH   2   3
ENDBRANCH   1   2
BRANCH   1   7
ATOM      7  C   UNL     1       1.284  16.789  16.816  1.00  0.00    -0.055 C 
ATOM      8  C   UNL     1       1.016  17.033  15.529  1.00  0.00     0.012 C 
BRANCH   7   9
ATOM      9  C   UNL     1       2.250  17.671  17.522  1.00  0.00    -0.005 C 
ATOM     10  C   UNL     1       2.397  18.972  17.267  1.00  0.00     0.009 C 
ENDBRANCH   7   9
ENDBRANCH   1   7
TORSDOF 4
ENDMDL
MODEL 2
REMARK VINA RESULT:    -3.906      1.637      4.439
REMARK INTER + INTRA:          -5.378
REMARK INTER:                  -4.656
REMARK INTRA:                  -0.721
REMARK UNBOUND:                -0.559
REMARK SMILES C=CC(=C)CCC=C(C)C
REMARK SMILES IDX 5 1 6 2 7 3 9 4 8 5 10 6 3 7 4 8 2 9 1 10
REMARK H PARENT
REMARK Flexibility Score: inf
ROOT
ATOM      1  C   UNL     1       1.275  12.804  15.747  1.00  0.00     0.039 C 
ENDROOT
BRANCH   1   2
ATOM      2  C   UNL     1       2.274  13.949  15.958  1.00  0.00     0.032 C 
BRANCH   2   3
ATOM      3  C   UNL     1       1.708  15.251  15.450  1.00  0.00    -0.028 C 
ATOM      4  C   UNL     1       1.662  16.303  17.724  1.00  0.00     0.039 C 
ATOM      5  C   UNL     1       1.404  16.310  16.234  1.00  0.00    -0.080 C 
ATOM      6  C   UNL     1       0.806  17.533  15.590  1.00  0.00     0.039 C 
ENDBRANCH   2   3
ENDBRANCH   1   2
BRANCH   1   7
ATOM      7  C   UNL     1       0.218  12.808  16.828  1.00  0.00    -0.055 C 
ATOM      8  C   UNL     1      -1.066  12.945  16.480  1.00  0.00     0.012 C 
BRANCH   7   9
ATOM      9  C   UNL     1       0.559  12.713  18.271  1.00  0.00    -0.005 C 
ATOM     10  C   UNL     1      -0.344  12.715  19.253  1.00  0.00     0.009 C 
ENDBRANCH   7   9
ENDBRANCH   1   7
TORSDOF 4
ENDMDL
MODEL 3
REMARK VINA RESULT:    -3.844      0.751      4.430
REMARK INTER + INTRA:          -5.302
REMARK INTER:                  -4.653
REMARK INTRA:                  -0.649
REMARK UNBOUND:                -0.559
REMARK SMILES C=CC(=C)CCC=C(C)C
REMARK SMILES IDX 5 1 6 2 7 3 9 4 8 5 10 6 3 7 4 8 2 9 1 10
REMARK H PARENT
REMARK Flexibility Score: inf
ROOT
ATOM      1  C   UNL     1       1.716  13.996  17.181  1.00  0.00     0.039 C 
ENDROOT
BRANCH   1   2
ATOM      2  C   UNL     1       0.731  15.171  17.231  1.00  0.00     0.032 C 
BRANCH   2   3
ATOM      3  C   UNL     1       1.440  16.445  17.617  1.00  0.00    -0.028 C 
ATOM      4  C   UNL     1       1.049  17.528  15.392  1.00  0.00     0.039 C 
ATOM      5  C   UNL     1       1.613  17.503  16.794  1.00  0.00    -0.080 C 
ATOM      6  C   UNL     1       2.378  18.695  17.308  1.00  0.00     0.039 C 
ENDBRANCH   2   3
ENDBRANCH   1   2
BRANCH   1   7
ATOM      7  C   UNL     1       1.852  13.469  15.770  1.00  0.00    -0.055 C 
ATOM      8  C   UNL     1       0.993  12.542  15.336  1.00  0.00     0.012 C 
BRANCH   7   9
ATOM      9  C   UNL     1       2.941  13.913  14.860  1.00  0.00    -0.005 C 
ATOM     10  C   UNL     1       2.737  14.568  13.716  1.00  0.00     0.009 C 
ENDBRANCH   7   9
ENDBRANCH   1   7
TORSDOF 4
ENDMDL
MODEL 4
REMARK VINA RESULT:    -3.798      1.126      4.206
REMARK INTER + INTRA:          -5.245
REMARK INTER:                  -4.341
REMARK INTRA:                  -0.904
REMARK UNBOUND:                -0.559
REMARK SMILES C=CC(=C)CCC=C(C)C
REMARK SMILES IDX 5 1 6 2 7 3 9 4 8 5 10 6 3 7 4 8 2 9 1 10
REMARK H PARENT
REMARK Flexibility Score: inf
ROOT
ATOM      1  C   UNL     1       1.864  14.665  17.563  1.00  0.00     0.039 C 
ENDROOT
BRANCH   1   2
ATOM      2  C   UNL     1       0.945  15.893  17.542  1.00  0.00     0.032 C 
BRANCH   2   3
ATOM      3  C   UNL     1       1.342  16.838  16.435  1.00  0.00    -0.028 C 
ATOM      4  C   UNL     1      -0.623  16.238  15.001  1.00  0.00     0.039 C 
ATOM      5  C   UNL     1       0.661  16.986  15.276  1.00  0.00    -0.080 C 
ATOM      6  C   UNL     1       1.201  17.940  14.244  1.00  0.00     0.039 C 
ENDBRANCH   2   3
ENDBRANCH   1   2
BRANCH   1   7
ATOM      7  C   UNL     1       1.314  13.569  16.677  1.00  0.00    -0.055 C 
ATOM      8  C   UNL     1       0.299  12.822  17.121  1.00  0.00     0.012 C 
BRANCH   7   9
ATOM      9  C   UNL     1       1.896  13.261  15.344  1.00  0.00    -0.005 C 
ATOM     10  C   UNL     1       2.961  13.880  14.833  1.00  0.00     0.009 C 
ENDBRANCH   7   9
ENDBRANCH   1   7
TORSDOF 4
ENDMDL
MODEL 5
REMARK VINA RESULT:    -3.735      1.272      4.453
REMARK INTER + INTRA:          -5.167
REMARK INTER:                  -4.491
REMARK INTRA:                  -0.676
REMARK UNBOUND:                -0.559
REMARK SMILES C=CC(=C)CCC=C(C)C
REMARK SMILES IDX 5 1 6 2 7 3 9 4 8 5 10 6 3 7 4 8 2 9 1 10
REMARK H PARENT
REMARK Flexibility Score: inf
ROOT
ATOM      1  C   UNL     1       1.881  14.514  17.590  1.00  0.00     0.039 C 
ENDROOT
BRANCH   1   2
ATOM      2  C   UNL     1       1.017  15.780  17.643  1.00  0.00     0.032 C 
BRANCH   2   3
ATOM      3  C   UNL     1       1.368  16.714  16.512  1.00  0.00    -0.028 C 
ATOM      4  C   UNL     1      -0.756  16.260  15.264  1.00  0.00     0.039 C 
ATOM      5  C   UNL     1       0.593  16.922  15.423  1.00  0.00    -0.080 C 
ATOM      6  C   UNL     1       1.094  17.855  14.353  1.00  0.00     0.039 C 
ENDBRANCH   2   3
ENDBRANCH   1   2
BRANCH   1   7
ATOM      7  C   UNL     1       1.151  13.396  16.879  1.00  0.00    -0.055 C 
ATOM      8  C   UNL     1       1.548  13.038  15.654  1.00  0.00     0.012 C 
BRANCH   7   9
ATOM      9  C   UNL     1      -0.025  12.712  17.476  1.00  0.00    -0.005 C 
ATOM     10  C   UNL     1      -0.092  12.314  18.747  1.00  0.00     0.009 C 
ENDBRANCH   7   9
ENDBRANCH   1   7
TORSDOF 4
ENDMDL
MODEL 6
REMARK VINA RESULT:    -3.657     13.734     15.959
REMARK INTER + INTRA:          -5.071
REMARK INTER:                  -4.852
REMARK INTRA:                  -0.219
REMARK UNBOUND:                -0.559
REMARK SMILES C=CC(=C)CCC=C(C)C
REMARK SMILES IDX 5 1 6 2 7 3 9 4 8 5 10 6 3 7 4 8 2 9 1 10
REMARK H PARENT
REMARK Flexibility Score: inf
ROOT
ATOM      1  C   UNL     1       0.253  19.410  30.280  1.00  0.00     0.039 C 
ENDROOT
BRANCH   1   2
ATOM      2  C   UNL     1      -0.915  20.364  30.008  1.00  0.00     0.032 C 
BRANCH   2   3
ATOM      3  C   UNL     1      -0.986  21.437  31.066  1.00  0.00    -0.028 C 
ATOM      4  C   UNL     1      -1.124  23.300  29.397  1.00  0.00     0.039 C 
ATOM      5  C   UNL     1      -1.055  22.762  30.808  1.00  0.00    -0.080 C 
ATOM      6  C   UNL     1      -1.080  23.720  31.970  1.00  0.00     0.039 C 
ENDBRANCH   2   3
ENDBRANCH   1   2
BRANCH   1   7
ATOM      7  C   UNL     1      -0.253  18.050  30.708  1.00  0.00    -0.055 C 
ATOM      8  C   UNL     1      -1.040  17.959  31.785  1.00  0.00     0.012 C 
BRANCH   7   9
ATOM      9  C   UNL     1       0.133  16.801  30.000  1.00  0.00    -0.005 C 
ATOM     10  C   UNL     1      -0.740  15.947  29.465  1.00  0.00     0.009 C 
ENDBRANCH   7   9
ENDBRANCH   1   7
TORSDOF 4
ENDMDL
MODEL 7
REMARK VINA RESULT:    -3.604      1.153      4.871
REMARK INTER + INTRA:          -5.006
REMARK INTER:                  -4.452
REMARK INTRA:                  -0.554
REMARK UNBOUND:                -0.559
REMARK SMILES C=CC(=C)CCC=C(C)C
REMARK SMILES IDX 5 1 6 2 7 3 9 4 8 5 10 6 3 7 4 8 2 9 1 10
REMARK H PARENT
REMARK Flexibility Score: inf
ROOT
ATOM      1  C   UNL     1       1.702  15.654  13.940  1.00  0.00     0.039 C 
ENDROOT
BRANCH   1   2
ATOM      2  C   UNL     1       0.776  16.204  15.033  1.00  0.00     0.032 C 
BRANCH   2   3
ATOM      3  C   UNL     1       1.301  17.514  15.567  1.00  0.00    -0.028 C 
ATOM      4  C   UNL     1       1.797  16.574  17.836  1.00  0.00     0.039 C 
ATOM      5  C   UNL     1       1.740  17.702  16.832  1.00  0.00    -0.080 C 
ATOM      6  C   UNL     1       2.198  19.079  17.235  1.00  0.00     0.039 C 
ENDBRANCH   2   3
ENDBRANCH   1   2
BRANCH   1   7
ATOM      7  C   UNL     1       2.483  14.464  14.449  1.00  0.00    -0.055 C 
ATOM      8  C   UNL     1       3.556  14.050  13.766  1.00  0.00     0.012 C 
BRANCH   7   9
ATOM      9  C   UNL     1       2.074  13.704  15.659  1.00  0.00    -0.005 C 
ATOM     10  C   UNL     1       1.314  12.608  15.631  1.00  0.00     0.009 C 
ENDBRANCH   7   9
ENDBRANCH   1   7
TORSDOF 4
ENDMDL
MODEL 8
REMARK VINA RESULT:    -3.576      2.261      3.580
REMARK INTER + INTRA:          -4.971
REMARK INTER:                  -4.300
REMARK INTRA:                  -0.671
REMARK UNBOUND:                -0.559
REMARK SMILES C=CC(=C)CCC=C(C)C
REMARK SMILES IDX 5 1 6 2 7 3 9 4 8 5 10 6 3 7 4 8 2 9 1 10
REMARK H PARENT
REMARK Flexibility Score: inf
ROOT
ATOM      1  C   UNL     1       1.872  14.435  17.501  1.00  0.00     0.039 C 
ENDROOT
BRANCH   1   2
ATOM      2  C   UNL     1       1.907  14.557  15.973  1.00  0.00     0.032 C 
BRANCH   2   3
ATOM      3  C   UNL     1       1.958  13.195  15.329  1.00  0.00    -0.028 C 
ATOM      4  C   UNL     1      -0.376  13.354  14.432  1.00  0.00     0.039 C 
ATOM      5  C   UNL     1       0.931  12.629  14.654  1.00  0.00    -0.080 C 
ATOM      6  C   UNL     1       1.115  11.242  14.099  1.00  0.00     0.039 C 
ENDBRANCH   2   3
ENDBRANCH   1   2
BRANCH   1   7
ATOM      7  C   UNL     1       0.481  14.085  17.979  1.00  0.00    -0.055 C 
ATOM      8  C   UNL     1      -0.491  14.997  17.875  1.00  0.00     0.012 C 
BRANCH   7   9
ATOM      9  C   UNL     1       0.164  12.775  18.608  1.00  0.00    -0.005 C 
ATOM     10  C   UNL     1      -0.753  12.608  19.562  1.00  0.00     0.009 C 
ENDBRANCH   7   9
ENDBRANCH   1   7
TORSDOF 4
ENDMDL
MODEL 9
REMARK VINA RESULT:    -3.568      2.548      3.971
REMARK INTER + INTRA:          -4.961
REMARK INTER:                  -4.715
REMARK INTRA:                  -0.247
REMARK UNBOUND:                -0.559
REMARK SMILES C=CC(=C)CCC=C(C)C
REMARK SMILES IDX 5 1 6 2 7 3 9 4 8 5 10 6 3 7 4 8 2 9 1 10
REMARK H PARENT
REMARK Flexibility Score: inf
ROOT
ATOM      1  C   UNL     1       0.998  13.102  16.471  1.00  0.00     0.039 C 
ENDROOT
BRANCH   1   2
ATOM      2  C   UNL     1       2.036  14.207  16.242  1.00  0.00     0.032 C 
BRANCH   2   3
ATOM      3  C   UNL     1       3.071  13.767  15.237  1.00  0.00    -0.028 C 
ATOM      4  C   UNL     1       2.215  15.293  13.445  1.00  0.00     0.039 C 
ATOM      5  C   UNL     1       3.150  14.227  13.969  1.00  0.00    -0.080 C 
ATOM      6  C   UNL     1       4.215  13.664  13.065  1.00  0.00     0.039 C 
ENDBRANCH   2   3
ENDBRANCH   1   2
BRANCH   1   7
ATOM      7  C   UNL     1       0.134  13.418  17.672  1.00  0.00    -0.055 C 
ATOM      8  C   UNL     1      -0.478  14.604  17.738  1.00  0.00     0.012 C 
BRANCH   7   9
ATOM      9  C   UNL     1      -0.021  12.472  18.809  1.00  0.00    -0.005 C 
ATOM     10  C   UNL     1      -0.888  12.642  19.808  1.00  0.00     0.009 C 
ENDBRANCH   7   9
ENDBRANCH   1   7
TORSDOF 4
ENDMDL
