MODEL 1
REMARK VINA RESULT:    30.517      0.000      0.000
REMARK INTER + INTRA:          37.975
REMARK INTER:                  37.653
REMARK INTRA:                   0.322
REMARK UNBOUND:                 0.322
REMARK SMILES O=c1c(O)c(-c2cc(O)c(O)c(O)c2)oc2cc(O)cc(O)c12
REMARK SMILES IDX 5 1 3 2 2 3 1 4 23 5 21 6 20 7 18 8 17 9 16 10 15 11 6 12
REMARK SMILES IDX 7 13 8 14 14 15 10 16 12 17 9 18 11 20 13 22 4 24 22 26
REMARK SMILES IDX 19 28
REMARK H PARENT 9 19 11 21 13 23 4 25 22 27 19 29
REMARK Flexibility Score: inf
ROOT
ATOM      1  C   UNL     1      -7.599  -4.873  21.083  1.00  0.00     0.180 A 
ATOM      2  C   UNL     1      -7.759  -5.616  19.898  1.00  0.00     0.208 A 
ATOM      3  C   UNL     1      -8.202  -6.945  19.984  1.00  0.00     0.238 A 
ATOM      4  O   UNL     1      -8.360  -7.617  18.929  1.00  0.00    -0.285 OA
ATOM      5  C   UNL     1      -8.455  -7.514  21.249  1.00  0.00     0.111 A 
ATOM      6  C   UNL     1      -8.899  -8.848  21.423  1.00  0.00     0.134 A 
ATOM      7  C   UNL     1      -9.121  -9.343  22.717  1.00  0.00     0.093 A 
ATOM      8  C   UNL     1      -8.906  -8.532  23.838  1.00  0.00     0.123 A 
ATOM      9  C   UNL     1      -8.469  -7.217  23.670  1.00  0.00     0.094 A 
ATOM     10  C   UNL     1      -8.244  -6.704  22.389  1.00  0.00     0.146 A 
ATOM     11  O   UNL     1      -7.833  -5.448  22.260  1.00  0.00    -0.452 OA
ENDROOT
BRANCH   1  12
ATOM     12  C   UNL     1      -7.155  -3.461  21.073  1.00  0.00     0.029 A 
ATOM     13  C   UNL     1      -7.490  -2.582  22.115  1.00  0.00     0.062 A 
ATOM     14  C   UNL     1      -7.042  -1.256  22.098  1.00  0.00     0.162 A 
ATOM     15  C   UNL     1      -6.335  -3.001  20.032  1.00  0.00     0.062 A 
ATOM     16  C   UNL     1      -6.242  -0.792  21.044  1.00  0.00     0.200 A 
ATOM     17  C   UNL     1      -5.880  -1.679  20.002  1.00  0.00     0.162 A 
BRANCH  14  18
ATOM     18  O   UNL     1      -7.385  -0.387  23.133  1.00  0.00    -0.504 OA
ATOM     19  H   UNL     1      -6.810  -0.296  23.962  1.00  0.00     0.293 HD
ENDBRANCH  14  18
BRANCH  16  20
ATOM     20  O   UNL     1      -5.827   0.542  21.072  1.00  0.00    -0.502 OA
ATOM     21  H   UNL     1      -5.829   1.118  21.902  1.00  0.00     0.293 HD
ENDBRANCH  16  20
BRANCH  17  22
ATOM     22  O   UNL     1      -5.078  -1.292  18.926  1.00  0.00    -0.504 OA
ATOM     23  H   UNL     1      -5.383  -0.679  18.184  1.00  0.00     0.293 HD
ENDBRANCH  17  22
ENDBRANCH   1  12
BRANCH   2  24
ATOM     24  O   UNL     1      -7.454  -5.044  18.660  1.00  0.00    -0.502 OA
ATOM     25  H   UNL     1      -7.168  -4.076  18.565  1.00  0.00     0.293 HD
ENDBRANCH   2  24
BRANCH   6  26
ATOM     26  O   UNL     1      -9.121  -9.680  20.326  1.00  0.00    -0.507 OA
ATOM     27  H   UNL     1      -8.712 -10.605  20.267  1.00  0.00     0.293 HD
ENDBRANCH   6  26
BRANCH   8  28
ATOM     28  O   UNL     1      -9.125  -9.024  25.122  1.00  0.00    -0.508 OA
ATOM     29  H   UNL     1      -9.704  -9.840  25.285  1.00  0.00     0.293 HD
ENDBRANCH   8  28
TORSDOF 7
ENDMDL
