MODEL 1
REMARK VINA RESULT:    -3.758      0.000      0.000
REMARK INTER + INTRA:          -4.727
REMARK INTER:                  -4.637
REMARK INTRA:                  -0.090
REMARK UNBOUND:                -0.090
REMARK SMILES CCCCCC(=O)[O-]
REMARK SMILES IDX 4 1 5 2 6 3 7 4 8 5 3 6 2 7 1 8
REMARK H PARENT
REMARK Flexibility Score: inf
ROOT
ATOM      1  C   UNL     1     -20.532  -8.077  17.461  1.00  0.00     0.006 C 
ENDROOT
BRANCH   1   2
ATOM      2  C   UNL     1     -19.754  -7.056  16.618  1.00  0.00     0.053 C 
BRANCH   2   3
ATOM      3  C   UNL     1     -18.992  -7.714  15.510  1.00  0.00     0.041 C 
ATOM      4  O   UNL     1     -18.915  -8.969  15.452  1.00  0.00    -0.550 OA
ATOM      5  O   UNL     1     -18.335  -6.941  14.561  1.00  0.00    -0.550 OA
ENDBRANCH   2   3
ENDBRANCH   1   2
BRANCH   1   6
ATOM      6  C   UNL     1     -21.640  -7.414  18.298  1.00  0.00     0.000 C 
BRANCH   6   7
ATOM      7  C   UNL     1     -21.377  -7.515  19.808  1.00  0.00    -0.003 C 
ATOM      8  C   UNL     1     -20.180  -6.677  20.257  1.00  0.00     0.004 C 
ENDBRANCH   6   7
ENDBRANCH   1   6
TORSDOF 4
ENDMDL
MODEL 2
REMARK VINA RESULT:    -3.733      2.815      4.711
REMARK INTER + INTRA:          -4.697
REMARK INTER:                  -4.640
REMARK INTRA:                  -0.057
REMARK UNBOUND:                -0.090
REMARK SMILES CCCCCC(=O)[O-]
REMARK SMILES IDX 4 1 5 2 6 3 7 4 8 5 3 6 2 7 1 8
REMARK H PARENT
REMARK Flexibility Score: inf
ROOT
ATOM      1  C   UNL     1     -19.974  -7.067  17.036  1.00  0.00     0.006 C 
ENDROOT
BRANCH   1   2
ATOM      2  C   UNL     1     -21.075  -7.775  17.838  1.00  0.00     0.053 C 
BRANCH   2   3
ATOM      3  C   UNL     1     -21.010  -7.433  19.294  1.00  0.00     0.041 C 
ATOM      4  O   UNL     1     -21.951  -7.759  20.065  1.00  0.00    -0.550 OA
ATOM      5  O   UNL     1     -19.927  -6.722  19.795  1.00  0.00    -0.550 OA
ENDBRANCH   2   3
ENDBRANCH   1   2
BRANCH   1   6
ATOM      6  C   UNL     1     -19.381  -7.972  15.940  1.00  0.00     0.000 C 
BRANCH   6   7
ATOM      7  C   UNL     1     -18.530  -7.191  14.929  1.00  0.00    -0.003 C 
ATOM      8  C   UNL     1     -18.706  -7.691  13.496  1.00  0.00     0.004 C 
ENDBRANCH   6   7
ENDBRANCH   1   6
TORSDOF 4
ENDMDL
MODEL 3
REMARK VINA RESULT:    -3.585     10.110     11.104
REMARK INTER + INTRA:          -4.514
REMARK INTER:                  -4.336
REMARK INTRA:                  -0.178
REMARK UNBOUND:                -0.090
REMARK SMILES CCCCCC(=O)[O-]
REMARK SMILES IDX 4 1 5 2 6 3 7 4 8 5 3 6 2 7 1 8
REMARK H PARENT
REMARK Flexibility Score: inf
ROOT
ATOM      1  C   UNL     1     -11.669 -14.148  16.489  1.00  0.00     0.006 C 
ENDROOT
BRANCH   1   2
ATOM      2  C   UNL     1     -10.602 -13.449  17.343  1.00  0.00     0.053 C 
BRANCH   2   3
ATOM      3  C   UNL     1     -11.018 -12.062  17.726  1.00  0.00     0.041 C 
ATOM      4  O   UNL     1     -12.049 -11.880  18.425  1.00  0.00    -0.550 OA
ATOM      5  O   UNL     1     -10.288 -10.968  17.280  1.00  0.00    -0.550 OA
ENDBRANCH   2   3
ENDBRANCH   1   2
BRANCH   1   6
ATOM      6  C   UNL     1     -12.005 -13.354  15.214  1.00  0.00     0.000 C 
BRANCH   6   7
ATOM      7  C   UNL     1     -11.283 -13.899  13.973  1.00  0.00    -0.003 C 
ATOM      8  C   UNL     1      -9.937 -13.218  13.725  1.00  0.00     0.004 C 
ENDBRANCH   6   7
ENDBRANCH   1   6
TORSDOF 4
ENDMDL
MODEL 4
REMARK VINA RESULT:    -3.563     10.148     10.927
REMARK INTER + INTRA:          -4.486
REMARK INTER:                  -4.267
REMARK INTRA:                  -0.219
REMARK UNBOUND:                -0.090
REMARK SMILES CCCCCC(=O)[O-]
REMARK SMILES IDX 4 1 5 2 6 3 7 4 8 5 3 6 2 7 1 8
REMARK H PARENT
REMARK Flexibility Score: inf
ROOT
ATOM      1  C   UNL     1     -10.983 -13.770  17.076  1.00  0.00     0.006 C 
ENDROOT
BRANCH   1   2
ATOM      2  C   UNL     1     -11.484 -12.491  17.761  1.00  0.00     0.053 C 
BRANCH   2   3
ATOM      3  C   UNL     1     -10.550 -11.341  17.545  1.00  0.00     0.041 C 
ATOM      4  O   UNL     1     -10.496 -10.401  18.381  1.00  0.00    -0.550 OA
ATOM      5  O   UNL     1      -9.763 -11.288  16.401  1.00  0.00    -0.550 OA
ENDBRANCH   2   3
ENDBRANCH   1   2
BRANCH   1   6
ATOM      6  C   UNL     1     -12.056 -14.405  16.174  1.00  0.00     0.000 C 
BRANCH   6   7
ATOM      7  C   UNL     1     -12.207 -13.672  14.833  1.00  0.00    -0.003 C 
ATOM      8  C   UNL     1     -10.933 -13.717  13.989  1.00  0.00     0.004 C 
ENDBRANCH   6   7
ENDBRANCH   1   6
TORSDOF 4
ENDMDL
MODEL 5
REMARK VINA RESULT:    -3.485      9.975     11.451
REMARK INTER + INTRA:          -4.391
REMARK INTER:                  -4.214
REMARK INTRA:                  -0.177
REMARK UNBOUND:                -0.090
REMARK SMILES CCCCCC(=O)[O-]
REMARK SMILES IDX 4 1 5 2 6 3 7 4 8 5 3 6 2 7 1 8
REMARK H PARENT
REMARK Flexibility Score: inf
ROOT
ATOM      1  C   UNL     1     -10.186 -11.636  15.563  1.00  0.00     0.006 C 
ENDROOT
BRANCH   1   2
ATOM      2  C   UNL     1     -10.155 -11.660  17.097  1.00  0.00     0.053 C 
BRANCH   2   3
ATOM      3  C   UNL     1     -11.381 -12.302  17.669  1.00  0.00     0.041 C 
ATOM      4  O   UNL     1     -12.109 -11.670  18.478  1.00  0.00    -0.550 OA
ATOM      5  O   UNL     1     -11.700 -13.613  17.336  1.00  0.00    -0.550 OA
ENDBRANCH   2   3
ENDBRANCH   1   2
BRANCH   1   6
ATOM      6  C   UNL     1      -9.209 -12.653  14.946  1.00  0.00     0.000 C 
BRANCH   6   7
ATOM      7  C   UNL     1      -9.797 -13.364  13.719  1.00  0.00    -0.003 C 
ATOM      8  C   UNL     1     -11.239 -13.822  13.934  1.00  0.00     0.004 C 
ENDBRANCH   6   7
ENDBRANCH   1   6
TORSDOF 4
ENDMDL
MODEL 6
REMARK VINA RESULT:    -3.380     10.358     11.372
REMARK INTER + INTRA:          -4.261
REMARK INTER:                  -4.083
REMARK INTRA:                  -0.178
REMARK UNBOUND:                -0.090
REMARK SMILES CCCCCC(=O)[O-]
REMARK SMILES IDX 4 1 5 2 6 3 7 4 8 5 3 6 2 7 1 8
REMARK H PARENT
REMARK Flexibility Score: inf
ROOT
ATOM      1  C   UNL     1     -11.736 -13.879  16.541  1.00  0.00     0.006 C 
ENDROOT
BRANCH   1   2
ATOM      2  C   UNL     1     -11.550 -12.673  17.472  1.00  0.00     0.053 C 
BRANCH   2   3
ATOM      3  C   UNL     1     -10.106 -12.422  17.776  1.00  0.00     0.041 C 
ATOM      4  O   UNL     1      -9.399 -13.329  18.290  1.00  0.00    -0.550 OA
ATOM      5  O   UNL     1      -9.547 -11.175  17.526  1.00  0.00    -0.550 OA
ENDBRANCH   2   3
ENDBRANCH   1   2
BRANCH   1   6
ATOM      6  C   UNL     1     -12.221 -13.463  15.141  1.00  0.00     0.000 C 
BRANCH   6   7
ATOM      7  C   UNL     1     -11.239 -13.869  14.033  1.00  0.00    -0.003 C 
ATOM      8  C   UNL     1      -9.958 -13.035  14.042  1.00  0.00     0.004 C 
ENDBRANCH   6   7
ENDBRANCH   1   6
TORSDOF 4
ENDMDL
MODEL 7
REMARK VINA RESULT:    -3.342      9.920     11.111
REMARK INTER + INTRA:          -4.214
REMARK INTER:                  -4.059
REMARK INTRA:                  -0.155
REMARK UNBOUND:                -0.090
REMARK SMILES CCCCCC(=O)[O-]
REMARK SMILES IDX 4 1 5 2 6 3 7 4 8 5 3 6 2 7 1 8
REMARK H PARENT
REMARK Flexibility Score: inf
ROOT
ATOM      1  C   UNL     1      -9.968 -11.407  15.138  1.00  0.00     0.006 C 
ENDROOT
BRANCH   1   2
ATOM      2  C   UNL     1      -9.431 -12.785  14.725  1.00  0.00     0.053 C 
BRANCH   2   3
ATOM      3  C   UNL     1     -10.313 -13.445  13.711  1.00  0.00     0.041 C 
ATOM      4  O   UNL     1     -11.481 -13.798  14.022  1.00  0.00    -0.550 OA
ATOM      5  O   UNL     1      -9.834 -13.704  12.433  1.00  0.00    -0.550 OA
ENDBRANCH   2   3
ENDBRANCH   1   2
BRANCH   1   6
ATOM      6  C   UNL     1      -9.978 -11.222  16.666  1.00  0.00     0.000 C 
BRANCH   6   7
ATOM      7  C   UNL     1     -10.594 -12.422  17.400  1.00  0.00    -0.003 C 
ATOM      8  C   UNL     1     -11.844 -12.050  18.196  1.00  0.00     0.004 C 
ENDBRANCH   6   7
ENDBRANCH   1   6
TORSDOF 4
ENDMDL
MODEL 8
REMARK VINA RESULT:    -3.327     10.618     11.317
REMARK INTER + INTRA:          -4.195
REMARK INTER:                  -3.968
REMARK INTRA:                  -0.226
REMARK UNBOUND:                -0.090
REMARK SMILES CCCCCC(=O)[O-]
REMARK SMILES IDX 4 1 5 2 6 3 7 4 8 5 3 6 2 7 1 8
REMARK H PARENT
REMARK Flexibility Score: inf
ROOT
ATOM      1  C   UNL     1      -9.641 -12.789  14.834  1.00  0.00     0.006 C 
ENDROOT
BRANCH   1   2
ATOM      2  C   UNL     1     -10.080 -11.394  15.298  1.00  0.00     0.053 C 
BRANCH   2   3
ATOM      3  C   UNL     1      -9.901 -11.217  16.774  1.00  0.00     0.041 C 
ATOM      4  O   UNL     1      -9.765 -10.065  17.263  1.00  0.00    -0.550 OA
ATOM      5  O   UNL     1      -9.848 -12.327  17.608  1.00  0.00    -0.550 OA
ENDBRANCH   2   3
ENDBRANCH   1   2
BRANCH   1   6
ATOM      6  C   UNL     1     -10.743 -13.509  14.035  1.00  0.00     0.000 C 
BRANCH   6   7
ATOM      7  C   UNL     1     -12.081 -13.554  14.787  1.00  0.00    -0.003 C 
ATOM      8  C   UNL     1     -12.055 -14.503  15.985  1.00  0.00     0.004 C 
ENDBRANCH   6   7
ENDBRANCH   1   6
TORSDOF 4
ENDMDL
MODEL 9
REMARK VINA RESULT:    -3.279      9.915     10.619
REMARK INTER + INTRA:          -4.136
REMARK INTER:                  -3.991
REMARK INTRA:                  -0.145
REMARK UNBOUND:                -0.090
REMARK SMILES CCCCCC(=O)[O-]
REMARK SMILES IDX 4 1 5 2 6 3 7 4 8 5 3 6 2 7 1 8
REMARK H PARENT
REMARK Flexibility Score: inf
ROOT
ATOM      1  C   UNL     1     -11.613 -13.703  17.004  1.00  0.00     0.006 C 
ENDROOT
BRANCH   1   2
ATOM      2  C   UNL     1     -10.563 -13.782  15.886  1.00  0.00     0.053 C 
BRANCH   2   3
ATOM      3  C   UNL     1     -11.171 -13.562  14.536  1.00  0.00     0.041 C 
ATOM      4  O   UNL     1     -12.422 -13.507  14.405  1.00  0.00    -0.550 OA
ATOM      5  O   UNL     1     -10.358 -13.454  13.415  1.00  0.00    -0.550 OA
ENDBRANCH   2   3
ENDBRANCH   1   2
BRANCH   1   6
ATOM      6  C   UNL     1     -11.533 -12.378  17.783  1.00  0.00     0.000 C 
BRANCH   6   7
ATOM      7  C   UNL     1     -10.160 -11.703  17.658  1.00  0.00    -0.003 C 
ATOM      8  C   UNL     1     -10.142 -10.287  18.233  1.00  0.00     0.004 C 
ENDBRANCH   6   7
ENDBRANCH   1   6
TORSDOF 4
ENDMDL
