MODEL 1
REMARK VINA RESULT:    -5.039      0.000      0.000
REMARK INTER + INTRA:          -6.104
REMARK INTER:                  -5.776
REMARK INTRA:                  -0.328
REMARK UNBOUND:                -0.328
REMARK SMILES COc1ccc(C(C)=O)c(O)c1
REMARK SMILES IDX 6 1 10 2 12 3 3 4 4 5 5 6 7 7 8 8 9 9 11 10 2 12 1 13
REMARK H PARENT 11 11
REMARK Flexibility Score: inf
ROOT
ATOM      1  C   UNL     1      -8.528  -6.477   4.770  1.00  0.00     0.059 A 
ATOM      2  C   UNL     1      -7.787  -6.001   5.878  1.00  0.00     0.130 A 
ATOM      3  C   UNL     1      -8.020  -4.712   6.382  1.00  0.00     0.093 A 
ATOM      4  C   UNL     1      -8.991  -3.880   5.799  1.00  0.00     0.122 A 
ATOM      5  C   UNL     1      -9.724  -4.351   4.708  1.00  0.00     0.047 A 
ATOM      6  C   UNL     1      -9.498  -5.631   4.197  1.00  0.00     0.019 A 
ENDROOT
BRANCH   1   7
ATOM      7  C   UNL     1      -8.293  -7.839   4.209  1.00  0.00     0.163 C 
ATOM      8  C   UNL     1      -8.323  -8.098   2.732  1.00  0.00     0.093 C 
ATOM      9  O   UNL     1      -8.033  -8.804   4.977  1.00  0.00    -0.294 OA
ENDBRANCH   1   7
BRANCH   2  10
ATOM     10  O   UNL     1      -6.827  -6.809   6.489  1.00  0.00    -0.507 OA
ATOM     11  H   UNL     1      -6.683  -7.773   6.207  1.00  0.00     0.293 HD
ENDBRANCH   2  10
BRANCH   4  12
ATOM     12  O   UNL     1      -9.256  -2.586   6.271  1.00  0.00    -0.497 OA
ATOM     13  C   UNL     1     -10.363  -1.791   5.859  1.00  0.00     0.278 C 
ENDBRANCH   4  12
TORSDOF 3
ENDMDL
MODEL 2
REMARK VINA RESULT:    -4.786      1.200      4.555
REMARK INTER + INTRA:          -5.813
REMARK INTER:                  -5.557
REMARK INTRA:                  -0.256
REMARK UNBOUND:                -0.328
REMARK SMILES COc1ccc(C(C)=O)c(O)c1
REMARK SMILES IDX 6 1 10 2 12 3 3 4 4 5 5 6 7 7 8 8 9 9 11 10 2 12 1 13
REMARK H PARENT 11 11
REMARK Flexibility Score: inf
ROOT
ATOM      1  C   UNL     1      -9.025  -4.804   5.381  1.00  0.00     0.059 A 
ATOM      2  C   UNL     1      -7.912  -5.298   6.102  1.00  0.00     0.130 A 
ATOM      3  C   UNL     1      -7.418  -6.585   5.841  1.00  0.00     0.093 A 
ATOM      4  C   UNL     1      -8.015  -7.397   4.862  1.00  0.00     0.122 A 
ATOM      5  C   UNL     1      -9.111  -6.908   4.150  1.00  0.00     0.047 A 
ATOM      6  C   UNL     1      -9.612  -5.629   4.403  1.00  0.00     0.019 A 
ENDROOT
BRANCH   1   7
ATOM      7  C   UNL     1      -9.577  -3.444   5.646  1.00  0.00     0.163 C 
ATOM      8  C   UNL     1     -10.412  -2.720   4.631  1.00  0.00     0.093 C 
ATOM      9  O   UNL     1      -9.372  -2.882   6.756  1.00  0.00    -0.294 OA
ENDBRANCH   1   7
BRANCH   2  10
ATOM     10  O   UNL     1      -7.287  -4.510   7.070  1.00  0.00    -0.507 OA
ATOM     11  H   UNL     1      -7.698  -4.363   7.986  1.00  0.00     0.293 HD
ENDBRANCH   2  10
BRANCH   4  12
ATOM     12  O   UNL     1      -7.553  -8.688   4.570  1.00  0.00    -0.497 OA
ATOM     13  C   UNL     1      -8.385  -9.840   4.483  1.00  0.00     0.278 C 
ENDBRANCH   4  12
TORSDOF 3
ENDMDL
MODEL 3
REMARK VINA RESULT:    -4.766      1.728      2.434
REMARK INTER + INTRA:          -5.791
REMARK INTER:                  -5.474
REMARK INTRA:                  -0.317
REMARK UNBOUND:                -0.328
REMARK SMILES COc1ccc(C(C)=O)c(O)c1
REMARK SMILES IDX 6 1 10 2 12 3 3 4 4 5 5 6 7 7 8 8 9 9 11 10 2 12 1 13
REMARK H PARENT 11 11
REMARK Flexibility Score: inf
ROOT
ATOM      1  C   UNL     1      -8.928  -5.859   4.438  1.00  0.00     0.059 A 
ATOM      2  C   UNL     1      -9.827  -4.942   3.844  1.00  0.00     0.130 A 
ATOM      3  C   UNL     1     -10.108  -3.720   4.475  1.00  0.00     0.093 A 
ATOM      4  C   UNL     1      -9.501  -3.389   5.698  1.00  0.00     0.122 A 
ATOM      5  C   UNL     1      -8.612  -4.294   6.282  1.00  0.00     0.047 A 
ATOM      6  C   UNL     1      -8.327  -5.513   5.664  1.00  0.00     0.019 A 
ENDROOT
BRANCH   1   7
ATOM      7  C   UNL     1      -8.620  -7.168   3.794  1.00  0.00     0.163 C 
ATOM      8  C   UNL     1      -8.412  -8.414   4.601  1.00  0.00     0.093 C 
ATOM      9  O   UNL     1      -8.557  -7.257   2.537  1.00  0.00    -0.294 OA
ENDBRANCH   1   7
BRANCH   2  10
ATOM     10  O   UNL     1     -10.435  -5.234   2.622  1.00  0.00    -0.507 OA
ATOM     11  H   UNL     1     -11.313  -4.807   2.347  1.00  0.00     0.293 HD
ENDBRANCH   2  10
BRANCH   4  12
ATOM     12  O   UNL     1      -9.753  -2.180   6.362  1.00  0.00    -0.497 OA
ATOM     13  C   UNL     1     -10.638  -1.171   5.887  1.00  0.00     0.278 C 
ENDBRANCH   4  12
TORSDOF 3
ENDMDL
MODEL 4
REMARK VINA RESULT:    -4.747      2.065      2.966
REMARK INTER + INTRA:          -5.768
REMARK INTER:                  -5.443
REMARK INTRA:                  -0.326
REMARK UNBOUND:                -0.328
REMARK SMILES COc1ccc(C(C)=O)c(O)c1
REMARK SMILES IDX 6 1 10 2 12 3 3 4 4 5 5 6 7 7 8 8 9 9 11 10 2 12 1 13
REMARK H PARENT 11 11
REMARK Flexibility Score: inf
ROOT
ATOM      1  C   UNL     1      -8.242  -6.265   4.834  1.00  0.00     0.059 A 
ATOM      2  C   UNL     1      -9.015  -5.146   5.226  1.00  0.00     0.130 A 
ATOM      3  C   UNL     1      -8.797  -4.542   6.474  1.00  0.00     0.093 A 
ATOM      4  C   UNL     1      -7.811  -5.033   7.346  1.00  0.00     0.122 A 
ATOM      5  C   UNL     1      -7.047  -6.135   6.956  1.00  0.00     0.047 A 
ATOM      6  C   UNL     1      -7.257  -6.746   5.718  1.00  0.00     0.019 A 
ENDROOT
BRANCH   1   7
ATOM      7  C   UNL     1      -8.460  -6.933   3.518  1.00  0.00     0.163 C 
ATOM      8  C   UNL     1      -8.488  -8.427   3.388  1.00  0.00     0.093 C 
ATOM      9  O   UNL     1      -8.657  -6.243   2.482  1.00  0.00    -0.294 OA
ENDBRANCH   1   7
BRANCH   2  10
ATOM     10  O   UNL     1      -9.991  -4.625   4.376  1.00  0.00    -0.507 OA
ATOM     11  H   UNL     1      -9.749  -4.151   3.513  1.00  0.00     0.293 HD
ENDBRANCH   2  10
BRANCH   4  12
ATOM     12  O   UNL     1      -7.560  -4.458   8.600  1.00  0.00    -0.497 OA
ATOM     13  C   UNL     1      -8.398  -4.620   9.740  1.00  0.00     0.278 C 
ENDBRANCH   4  12
TORSDOF 3
ENDMDL
MODEL 5
REMARK VINA RESULT:    -4.649      1.972      4.848
REMARK INTER + INTRA:          -5.656
REMARK INTER:                  -5.362
REMARK INTRA:                  -0.294
REMARK UNBOUND:                -0.328
REMARK SMILES COc1ccc(C(C)=O)c(O)c1
REMARK SMILES IDX 6 1 10 2 12 3 3 4 4 5 5 6 7 7 8 8 9 9 11 10 2 12 1 13
REMARK H PARENT 11 11
REMARK Flexibility Score: inf
ROOT
ATOM      1  C   UNL     1      -8.161  -5.823   5.589  1.00  0.00     0.059 A 
ATOM      2  C   UNL     1      -9.278  -5.531   4.771  1.00  0.00     0.130 A 
ATOM      3  C   UNL     1      -9.738  -6.476   3.841  1.00  0.00     0.093 A 
ATOM      4  C   UNL     1      -9.101  -7.723   3.713  1.00  0.00     0.122 A 
ATOM      5  C   UNL     1      -8.001  -8.010   4.522  1.00  0.00     0.047 A 
ATOM      6  C   UNL     1      -7.534  -7.076   5.449  1.00  0.00     0.019 A 
ENDROOT
BRANCH   1   7
ATOM      7  C   UNL     1      -7.647  -4.832   6.578  1.00  0.00     0.163 C 
ATOM      8  C   UNL     1      -6.897  -5.259   7.805  1.00  0.00     0.093 C 
ATOM      9  O   UNL     1      -7.810  -3.597   6.381  1.00  0.00    -0.294 OA
ENDBRANCH   1   7
BRANCH   2  10
ATOM     10  O   UNL     1      -9.943  -4.309   4.886  1.00  0.00    -0.507 OA
ATOM     11  H   UNL     1     -10.672  -4.160   5.574  1.00  0.00     0.293 HD
ENDBRANCH   2  10
BRANCH   4  12
ATOM     12  O   UNL     1      -9.527  -8.696   2.797  1.00  0.00    -0.497 OA
ATOM     13  C   UNL     1      -8.790  -9.095   1.646  1.00  0.00     0.278 C 
ENDBRANCH   4  12
TORSDOF 3
ENDMDL
MODEL 6
REMARK VINA RESULT:    -4.608      1.737      2.485
REMARK INTER + INTRA:          -5.609
REMARK INTER:                  -5.318
REMARK INTRA:                  -0.292
REMARK UNBOUND:                -0.328
REMARK SMILES COc1ccc(C(C)=O)c(O)c1
REMARK SMILES IDX 6 1 10 2 12 3 3 4 4 5 5 6 7 7 8 8 9 9 11 10 2 12 1 13
REMARK H PARENT 11 11
REMARK Flexibility Score: inf
ROOT
ATOM      1  C   UNL     1      -8.696  -6.137   4.525  1.00  0.00     0.059 A 
ATOM      2  C   UNL     1      -7.731  -6.833   5.292  1.00  0.00     0.130 A 
ATOM      3  C   UNL     1      -7.314  -6.322   6.531  1.00  0.00     0.093 A 
ATOM      4  C   UNL     1      -7.848  -5.121   7.027  1.00  0.00     0.122 A 
ATOM      5  C   UNL     1      -8.801  -4.437   6.270  1.00  0.00     0.047 A 
ATOM      6  C   UNL     1      -9.222  -4.935   5.035  1.00  0.00     0.019 A 
ENDROOT
BRANCH   1   7
ATOM      7  C   UNL     1      -9.149  -6.653   3.200  1.00  0.00     0.163 C 
ATOM      8  C   UNL     1      -9.594  -5.730   2.106  1.00  0.00     0.093 C 
ATOM      9  O   UNL     1      -9.137  -7.892   2.965  1.00  0.00    -0.294 OA
ENDBRANCH   1   7
BRANCH   2  10
ATOM     10  O   UNL     1      -7.194  -8.037   4.835  1.00  0.00    -0.507 OA
ATOM     11  H   UNL     1      -7.274  -8.323   3.865  1.00  0.00     0.293 HD
ENDBRANCH   2  10
BRANCH   4  12
ATOM     12  O   UNL     1      -7.459  -4.575   8.259  1.00  0.00    -0.497 OA
ATOM     13  C   UNL     1      -8.047  -4.916   9.511  1.00  0.00     0.278 C 
ENDBRANCH   4  12
TORSDOF 3
ENDMDL
MODEL 7
REMARK VINA RESULT:    -4.530      1.353      4.643
REMARK INTER + INTRA:          -5.520
REMARK INTER:                  -5.358
REMARK INTRA:                  -0.162
REMARK UNBOUND:                -0.328
REMARK SMILES COc1ccc(C(C)=O)c(O)c1
REMARK SMILES IDX 6 1 10 2 12 3 3 4 4 5 5 6 7 7 8 8 9 9 11 10 2 12 1 13
REMARK H PARENT 11 11
REMARK Flexibility Score: inf
ROOT
ATOM      1  C   UNL     1      -8.603  -5.674   5.277  1.00  0.00     0.059 A 
ATOM      2  C   UNL     1      -7.734  -6.753   5.563  1.00  0.00     0.130 A 
ATOM      3  C   UNL     1      -7.695  -7.871   4.715  1.00  0.00     0.093 A 
ATOM      4  C   UNL     1      -8.511  -7.932   3.572  1.00  0.00     0.122 A 
ATOM      5  C   UNL     1      -9.366  -6.865   3.290  1.00  0.00     0.047 A 
ATOM      6  C   UNL     1      -9.415  -5.749   4.129  1.00  0.00     0.019 A 
ENDROOT
BRANCH   1   7
ATOM      7  C   UNL     1      -8.672  -4.479   6.168  1.00  0.00     0.163 C 
ATOM      8  C   UNL     1      -9.454  -3.257   5.788  1.00  0.00     0.093 C 
ATOM      9  O   UNL     1      -8.088  -4.488   7.285  1.00  0.00    -0.294 OA
ENDBRANCH   1   7
BRANCH   2  10
ATOM     10  O   UNL     1      -6.899  -6.716   6.681  1.00  0.00    -0.507 OA
ATOM     11  H   UNL     1      -6.338  -5.900   6.900  1.00  0.00     0.293 HD
ENDBRANCH   2  10
BRANCH   4  12
ATOM     12  O   UNL     1      -8.504  -9.029   2.698  1.00  0.00    -0.497 OA
ATOM     13  C   UNL     1      -7.434  -9.962   2.588  1.00  0.00     0.278 C 
ENDBRANCH   4  12
TORSDOF 3
ENDMDL
MODEL 8
REMARK VINA RESULT:    -4.477      2.580      3.579
REMARK INTER + INTRA:          -5.459
REMARK INTER:                  -5.136
REMARK INTRA:                  -0.323
REMARK UNBOUND:                -0.328
REMARK SMILES COc1ccc(C(C)=O)c(O)c1
REMARK SMILES IDX 6 1 10 2 12 3 3 4 4 5 5 6 7 7 8 8 9 9 11 10 2 12 1 13
REMARK H PARENT 11 11
REMARK Flexibility Score: inf
ROOT
ATOM      1  C   UNL     1      -9.111  -6.957   2.405  1.00  0.00     0.059 A 
ATOM      2  C   UNL     1      -9.880  -5.774   2.515  1.00  0.00     0.130 A 
ATOM      3  C   UNL     1      -9.894  -5.052   3.718  1.00  0.00     0.093 A 
ATOM      4  C   UNL     1      -9.144  -5.488   4.824  1.00  0.00     0.122 A 
ATOM      5  C   UNL     1      -8.384  -6.653   4.713  1.00  0.00     0.047 A 
ATOM      6  C   UNL     1      -8.365  -7.381   3.521  1.00  0.00     0.019 A 
ENDROOT
BRANCH   1   7
ATOM      7  C   UNL     1      -9.087  -7.749   1.141  1.00  0.00     0.163 C 
ATOM      8  C   UNL     1      -9.062  -9.248   1.150  1.00  0.00     0.093 C 
ATOM      9  O   UNL     1      -9.118  -7.162   0.025  1.00  0.00    -0.294 OA
ENDBRANCH   1   7
BRANCH   2  10
ATOM     10  O   UNL     1     -10.623  -5.306   1.430  1.00  0.00    -0.507 OA
ATOM     11  H   UNL     1     -10.862  -4.325   1.330  1.00  0.00     0.293 HD
ENDBRANCH   2  10
BRANCH   4  12
ATOM     12  O   UNL     1      -9.130  -4.797   6.045  1.00  0.00    -0.497 OA
ATOM     13  C   UNL     1      -8.029  -4.783   6.948  1.00  0.00     0.278 C 
ENDBRANCH   4  12
TORSDOF 3
ENDMDL
MODEL 9
REMARK VINA RESULT:    -4.475      1.914      3.859
REMARK INTER + INTRA:          -5.456
REMARK INTER:                  -5.121
REMARK INTRA:                  -0.335
REMARK UNBOUND:                -0.328
REMARK SMILES COc1ccc(C(C)=O)c(O)c1
REMARK SMILES IDX 6 1 10 2 12 3 3 4 4 5 5 6 7 7 8 8 9 9 11 10 2 12 1 13
REMARK H PARENT 11 11
REMARK Flexibility Score: inf
ROOT
ATOM      1  C   UNL     1      -8.162  -5.233   6.065  1.00  0.00     0.059 A 
ATOM      2  C   UNL     1      -7.990  -6.375   5.247  1.00  0.00     0.130 A 
ATOM      3  C   UNL     1      -8.733  -6.513   4.064  1.00  0.00     0.093 A 
ATOM      4  C   UNL     1      -9.651  -5.523   3.674  1.00  0.00     0.122 A 
ATOM      5  C   UNL     1      -9.817  -4.396   4.481  1.00  0.00     0.047 A 
ATOM      6  C   UNL     1      -9.085  -4.249   5.661  1.00  0.00     0.019 A 
ENDROOT
BRANCH   1   7
ATOM      7  C   UNL     1      -7.393  -5.066   7.332  1.00  0.00     0.163 C 
ATOM      8  C   UNL     1      -8.078  -4.962   8.662  1.00  0.00     0.093 C 
ATOM      9  O   UNL     1      -6.132  -5.039   7.309  1.00  0.00    -0.294 OA
ENDBRANCH   1   7
BRANCH   2  10
ATOM     10  O   UNL     1      -7.075  -7.369   5.598  1.00  0.00    -0.507 OA
ATOM     11  H   UNL     1      -6.415  -7.242   6.358  1.00  0.00     0.293 HD
ENDBRANCH   2  10
BRANCH   4  12
ATOM     12  O   UNL     1     -10.413  -5.621   2.501  1.00  0.00    -0.497 OA
ATOM     13  C   UNL     1     -10.014  -6.343   1.341  1.00  0.00     0.278 C 
ENDBRANCH   4  12
TORSDOF 3
ENDMDL
