MODEL 1
REMARK VINA RESULT:    -8.161      0.000      0.000
REMARK INTER + INTRA:         -12.761
REMARK INTER:                 -12.216
REMARK INTRA:                  -0.545
REMARK UNBOUND:                -0.545
REMARK SMILES C=C(CC[C@H](C(=O)[O-])[C@@H]1[C@H](O)C[C@]2(C)C3=C(CC[C@]12C)[C@]1(C)CC[C@H](OC(C)=O)C(C)(C)[C@@H]1CC3)C(C)C
REMARK SMILES IDX 4 1 5 2 6 3 7 4 8 5 9 6 10 7 19 8 12 9 13 10 18 11 20 12
REMARK SMILES IDX 14 13 15 14 17 15 16 16 35 17 21 18 34 19 33 20 23 21 22 22
REMARK SMILES IDX 30 23 24 24 25 25 31 26 32 27 11 28 26 30 27 31 29 32 28 33
REMARK SMILES IDX 3 34 2 35 1 36 36 37 37 38 38 39
REMARK H PARENT 11 29
REMARK Flexibility Score: inf
ROOT
ATOM      1  C   UNL     1      21.833 -23.037  25.946  1.00  0.00     0.014 C 
ENDROOT
BRANCH   1   2
ATOM      2  C   UNL     1      21.983 -23.277  27.472  1.00  0.00     0.042 C 
BRANCH   2   3
ATOM      3  C   UNL     1      22.309 -21.962  28.134  1.00  0.00     0.045 C 
ATOM      4  O   UNL     1      23.288 -21.268  27.748  1.00  0.00    -0.550 OA
ATOM      5  O   UNL     1      21.487 -21.478  29.148  1.00  0.00    -0.550 OA
ENDBRANCH   2   3
BRANCH   2   6
ATOM      6  C   UNL     1      23.061 -24.382  27.785  1.00  0.00     0.033 C 
ATOM      7  C   UNL     1      22.719 -25.773  27.194  1.00  0.00     0.119 C 
ATOM      8  C   UNL     1      23.405 -24.657  29.291  1.00  0.00    -0.017 C 
ATOM      9  C   UNL     1      23.213 -26.826  28.199  1.00  0.00     0.043 C 
ATOM     10  C   UNL     1      24.035 -26.097  29.281  1.00  0.00    -0.003 C 
ATOM     11  C   UNL     1      22.116 -24.676  30.147  1.00  0.00     0.012 C 
ATOM     12  C   UNL     1      24.394 -23.595  29.862  1.00  0.00     0.013 C 
ATOM     13  C   UNL     1      25.524 -26.058  28.819  1.00  0.00     0.017 C 
ATOM     14  C   UNL     1      23.927 -26.873  30.626  1.00  0.00    -0.064 C 
ATOM     15  C   UNL     1      22.407 -25.106  31.570  1.00  0.00     0.032 C 
ATOM     16  C   UNL     1      23.136 -26.439  31.659  1.00  0.00    -0.064 C 
ATOM     17  C   UNL     1      24.646 -28.220  30.679  1.00  0.00     0.032 C 
ATOM     18  C   UNL     1      22.890 -27.283  32.931  1.00  0.00    -0.008 C 
ATOM     19  C   UNL     1      24.421 -29.079  31.923  1.00  0.00     0.009 C 
ATOM     20  C   UNL     1      24.056 -28.300  33.203  1.00  0.00     0.009 C 
ATOM     21  C   UNL     1      22.682 -26.358  34.184  1.00  0.00     0.015 C 
ATOM     22  C   UNL     1      21.575 -28.076  32.698  1.00  0.00     0.016 C 
ATOM     23  C   UNL     1      25.249 -27.701  34.057  1.00  0.00     0.005 C 
ATOM     24  C   UNL     1      23.169 -26.995  35.480  1.00  0.00     0.047 C 
ATOM     25  C   UNL     1      24.701 -27.167  35.452  1.00  0.00     0.182 C 
ATOM     26  C   UNL     1      26.297 -28.808  34.366  1.00  0.00     0.015 C 
ATOM     27  C   UNL     1      26.001 -26.583  33.294  1.00  0.00     0.015 C 
BRANCH   7  28
ATOM     28  O   UNL     1      21.336 -25.934  26.988  1.00  0.00    -0.393 OA
ATOM     29  H   UNL     1      21.228 -26.691  26.357  1.00  0.00     0.210 HD
ENDBRANCH   7  28
BRANCH  25  30
ATOM     30  O   UNL     1      25.329 -25.927  35.800  1.00  0.00    -0.462 OA
BRANCH  30  31
ATOM     31  C   UNL     1      26.287 -25.780  36.809  1.00  0.00     0.302 C 
ATOM     32  O   UNL     1      25.949 -25.517  37.997  1.00  0.00    -0.253 OA
ATOM     33  C   UNL     1      27.727 -25.978  36.474  1.00  0.00     0.139 C 
ENDBRANCH  30  31
ENDBRANCH  25  30
ENDBRANCH   2   6
ENDBRANCH   1   2
BRANCH   1  34
ATOM     34  C   UNL     1      23.096 -22.404  25.340  1.00  0.00     0.031 C 
BRANCH  34  35
ATOM     35  C   UNL     1      23.860 -23.398  24.482  1.00  0.00    -0.075 C 
ATOM     36  C   UNL     1      23.358 -23.720  23.276  1.00  0.00     0.008 C 
BRANCH  35  37
ATOM     37  C   UNL     1      25.144 -24.076  24.950  1.00  0.00     0.008 C 
ATOM     38  C   UNL     1      26.060 -24.518  23.796  1.00  0.00     0.012 C 
ATOM     39  C   UNL     1      25.901 -23.171  25.928  1.00  0.00     0.012 C 
ENDBRANCH  35  37
ENDBRANCH  34  35
ENDBRANCH   1  34
TORSDOF 9
ENDMDL
MODEL 2
REMARK VINA RESULT:    -7.751      2.693      4.638
REMARK INTER + INTRA:         -12.147
REMARK INTER:                 -11.637
REMARK INTRA:                  -0.510
REMARK UNBOUND:                -0.545
REMARK SMILES C=C(CC[C@H](C(=O)[O-])[C@@H]1[C@H](O)C[C@]2(C)C3=C(CC[C@]12C)[C@]1(C)CC[C@H](OC(C)=O)C(C)(C)[C@@H]1CC3)C(C)C
REMARK SMILES IDX 4 1 5 2 6 3 7 4 8 5 9 6 10 7 19 8 12 9 13 10 18 11 20 12
REMARK SMILES IDX 14 13 15 14 17 15 16 16 35 17 21 18 34 19 33 20 23 21 22 22
REMARK SMILES IDX 30 23 24 24 25 25 31 26 32 27 11 28 26 30 27 31 29 32 28 33
REMARK SMILES IDX 3 34 2 35 1 36 36 37 37 38 38 39
REMARK H PARENT 11 29
REMARK Flexibility Score: inf
ROOT
ATOM      1  C   UNL     1      25.194 -23.442  24.498  1.00  0.00     0.014 C 
ENDROOT
BRANCH   1   2
ATOM      2  C   UNL     1      24.470 -24.471  25.408  1.00  0.00     0.042 C 
BRANCH   2   3
ATOM      3  C   UNL     1      23.375 -25.131  24.609  1.00  0.00     0.045 C 
ATOM      4  O   UNL     1      23.311 -26.386  24.513  1.00  0.00    -0.550 OA
ATOM      5  O   UNL     1      22.388 -24.351  24.014  1.00  0.00    -0.550 OA
ENDBRANCH   2   3
BRANCH   2   6
ATOM      6  C   UNL     1      23.924 -23.801  26.724  1.00  0.00     0.033 C 
ATOM      7  C   UNL     1      24.948 -22.873  27.425  1.00  0.00     0.119 C 
ATOM      8  C   UNL     1      23.397 -24.749  27.859  1.00  0.00    -0.017 C 
ATOM      9  C   UNL     1      24.734 -23.023  28.939  1.00  0.00     0.043 C 
ATOM     10  C   UNL     1      23.458 -23.862  29.155  1.00  0.00    -0.003 C 
ATOM     11  C   UNL     1      24.341 -25.963  28.032  1.00  0.00     0.012 C 
ATOM     12  C   UNL     1      21.950 -25.251  27.567  1.00  0.00     0.013 C 
ATOM     13  C   UNL     1      22.241 -22.890  29.231  1.00  0.00     0.017 C 
ATOM     14  C   UNL     1      23.577 -24.654  30.490  1.00  0.00    -0.064 C 
ATOM     15  C   UNL     1      23.945 -26.800  29.231  1.00  0.00     0.032 C 
ATOM     16  C   UNL     1      23.852 -25.998  30.521  1.00  0.00    -0.064 C 
ATOM     17  C   UNL     1      23.507 -23.821  31.769  1.00  0.00     0.032 C 
ATOM     18  C   UNL     1      24.137 -26.759  31.837  1.00  0.00    -0.008 C 
ATOM     19  C   UNL     1      23.786 -24.544  33.086  1.00  0.00     0.009 C 
ATOM     20  C   UNL     1      23.485 -26.057  33.081  1.00  0.00     0.009 C 
ATOM     21  C   UNL     1      23.643 -28.247  31.739  1.00  0.00     0.015 C 
ATOM     22  C   UNL     1      25.679 -26.779  32.020  1.00  0.00     0.016 C 
ATOM     23  C   UNL     1      21.991 -26.504  33.365  1.00  0.00     0.005 C 
ATOM     24  C   UNL     1      23.192 -28.812  33.081  1.00  0.00     0.047 C 
ATOM     25  C   UNL     1      21.929 -28.080  33.576  1.00  0.00     0.182 C 
ATOM     26  C   UNL     1      21.472 -25.843  34.674  1.00  0.00     0.015 C 
ATOM     27  C   UNL     1      21.031 -26.059  32.236  1.00  0.00     0.015 C 
BRANCH   7  28
ATOM     28  O   UNL     1      26.275 -23.213  27.103  1.00  0.00    -0.393 OA
ATOM     29  H   UNL     1      26.465 -24.076  27.553  1.00  0.00     0.210 HD
ENDBRANCH   7  28
BRANCH  25  30
ATOM     30  O   UNL     1      20.773 -28.629  32.931  1.00  0.00    -0.462 OA
BRANCH  30  31
ATOM     31  C   UNL     1      19.936 -29.598  33.496  1.00  0.00     0.302 C 
ATOM     32  O   UNL     1      20.322 -30.309  34.467  1.00  0.00    -0.253 OA
ATOM     33  C   UNL     1      18.553 -29.759  32.964  1.00  0.00     0.139 C 
ENDBRANCH  30  31
ENDBRANCH  25  30
ENDBRANCH   2   6
ENDBRANCH   1   2
BRANCH   1  34
ATOM     34  C   UNL     1      26.548 -23.974  24.000  1.00  0.00     0.031 C 
BRANCH  34  35
ATOM     35  C   UNL     1      27.547 -22.848  23.798  1.00  0.00    -0.075 C 
ATOM     36  C   UNL     1      27.148 -21.587  24.042  1.00  0.00     0.008 C 
BRANCH  35  37
ATOM     37  C   UNL     1      28.966 -23.086  23.288  1.00  0.00     0.008 C 
ATOM     38  C   UNL     1      29.236 -24.544  22.880  1.00  0.00     0.012 C 
ATOM     39  C   UNL     1      29.287 -22.130  22.134  1.00  0.00     0.012 C 
ENDBRANCH  35  37
ENDBRANCH  34  35
ENDBRANCH   1  34
TORSDOF 9
ENDMDL
MODEL 3
REMARK VINA RESULT:    -7.580      2.274      4.094
REMARK INTER + INTRA:         -11.891
REMARK INTER:                 -10.765
REMARK INTRA:                  -1.126
REMARK UNBOUND:                -0.545
REMARK SMILES C=C(CC[C@H](C(=O)[O-])[C@@H]1[C@H](O)C[C@]2(C)C3=C(CC[C@]12C)[C@]1(C)CC[C@H](OC(C)=O)C(C)(C)[C@@H]1CC3)C(C)C
REMARK SMILES IDX 4 1 5 2 6 3 7 4 8 5 9 6 10 7 19 8 12 9 13 10 18 11 20 12
REMARK SMILES IDX 14 13 15 14 17 15 16 16 35 17 21 18 34 19 33 20 23 21 22 22
REMARK SMILES IDX 30 23 24 24 25 25 31 26 32 27 11 28 26 30 27 31 29 32 28 33
REMARK SMILES IDX 3 34 2 35 1 36 36 37 37 38 38 39
REMARK H PARENT 11 29
REMARK Flexibility Score: inf
ROOT
ATOM      1  C   UNL     1      23.381 -22.200  25.984  1.00  0.00     0.014 C 
ENDROOT
BRANCH   1   2
ATOM      2  C   UNL     1      23.191 -23.549  26.727  1.00  0.00     0.042 C 
BRANCH   2   3
ATOM      3  C   UNL     1      22.139 -24.352  26.003  1.00  0.00     0.045 C 
ATOM      4  O   UNL     1      21.000 -23.865  25.771  1.00  0.00    -0.550 OA
ATOM      5  O   UNL     1      22.445 -25.626  25.534  1.00  0.00    -0.550 OA
ENDBRANCH   2   3
BRANCH   2   6
ATOM      6  C   UNL     1      22.832 -23.333  28.245  1.00  0.00     0.033 C 
ATOM      7  C   UNL     1      23.812 -22.392  28.991  1.00  0.00     0.119 C 
ATOM      8  C   UNL     1      22.722 -24.606  29.156  1.00  0.00    -0.017 C 
ATOM      9  C   UNL     1      23.951 -22.928  30.425  1.00  0.00     0.043 C 
ATOM     10  C   UNL     1      22.908 -24.047  30.614  1.00  0.00    -0.003 C 
ATOM     11  C   UNL     1      23.871 -25.595  28.844  1.00  0.00     0.012 C 
ATOM     12  C   UNL     1      21.351 -25.326  28.981  1.00  0.00     0.013 C 
ATOM     13  C   UNL     1      21.590 -23.403  31.143  1.00  0.00     0.017 C 
ATOM     14  C   UNL     1      23.437 -25.080  31.653  1.00  0.00    -0.064 C 
ATOM     15  C   UNL     1      23.883 -26.749  29.825  1.00  0.00     0.032 C 
ATOM     16  C   UNL     1      23.932 -26.304  31.279  1.00  0.00    -0.064 C 
ATOM     17  C   UNL     1      23.501 -24.597  33.100  1.00  0.00     0.032 C 
ATOM     18  C   UNL     1      24.612 -27.267  32.280  1.00  0.00    -0.008 C 
ATOM     19  C   UNL     1      24.170 -25.526  34.113  1.00  0.00     0.009 C 
ATOM     20  C   UNL     1      24.131 -27.026  33.755  1.00  0.00     0.009 C 
ATOM     21  C   UNL     1      24.363 -28.763  31.872  1.00  0.00     0.015 C 
ATOM     22  C   UNL     1      26.140 -26.997  32.198  1.00  0.00     0.016 C 
ATOM     23  C   UNL     1      22.827 -27.836  34.150  1.00  0.00     0.005 C 
ATOM     24  C   UNL     1      24.307 -29.704  33.070  1.00  0.00     0.047 C 
ATOM     25  C   UNL     1      23.074 -29.394  33.940  1.00  0.00     0.182 C 
ATOM     26  C   UNL     1      22.494 -27.619  35.654  1.00  0.00     0.015 C 
ATOM     27  C   UNL     1      21.589 -27.360  33.351  1.00  0.00     0.015 C 
BRANCH   7  28
ATOM     28  O   UNL     1      25.078 -22.356  28.379  1.00  0.00    -0.393 OA
ATOM     29  H   UNL     1      25.307 -23.292  28.141  1.00  0.00     0.210 HD
ENDBRANCH   7  28
BRANCH  25  30
ATOM     30  O   UNL     1      21.915 -30.016  33.370  1.00  0.00    -0.462 OA
BRANCH  30  31
ATOM     31  C   UNL     1      21.324 -31.187  33.857  1.00  0.00     0.302 C 
ATOM     32  O   UNL     1      21.060 -32.154  33.087  1.00  0.00    -0.253 OA
ATOM     33  C   UNL     1      21.043 -31.303  35.316  1.00  0.00     0.139 C 
ENDBRANCH  30  31
ENDBRANCH  25  30
ENDBRANCH   2   6
ENDBRANCH   1   2
BRANCH   1  34
ATOM     34  C   UNL     1      23.921 -22.405  24.558  1.00  0.00     0.031 C 
BRANCH  34  35
ATOM     35  C   UNL     1      25.281 -23.080  24.570  1.00  0.00    -0.075 C 
ATOM     36  C   UNL     1      26.343 -22.373  24.999  1.00  0.00     0.008 C 
BRANCH  35  37
ATOM     37  C   UNL     1      25.499 -24.508  24.077  1.00  0.00     0.008 C 
ATOM     38  C   UNL     1      24.571 -24.904  22.916  1.00  0.00     0.012 C 
ATOM     39  C   UNL     1      26.968 -24.725  23.698  1.00  0.00     0.012 C 
ENDBRANCH  35  37
ENDBRANCH  34  35
ENDBRANCH   1  34
TORSDOF 9
ENDMDL
MODEL 4
REMARK VINA RESULT:    -7.401      2.698      4.859
REMARK INTER + INTRA:         -11.623
REMARK INTER:                 -11.378
REMARK INTRA:                  -0.245
REMARK UNBOUND:                -0.545
REMARK SMILES C=C(CC[C@H](C(=O)[O-])[C@@H]1[C@H](O)C[C@]2(C)C3=C(CC[C@]12C)[C@]1(C)CC[C@H](OC(C)=O)C(C)(C)[C@@H]1CC3)C(C)C
REMARK SMILES IDX 4 1 5 2 6 3 7 4 8 5 9 6 10 7 19 8 12 9 13 10 18 11 20 12
REMARK SMILES IDX 14 13 15 14 17 15 16 16 35 17 21 18 34 19 33 20 23 21 22 22
REMARK SMILES IDX 30 23 24 24 25 25 31 26 32 27 11 28 26 30 27 31 29 32 28 33
REMARK SMILES IDX 3 34 2 35 1 36 36 37 37 38 38 39
REMARK H PARENT 11 29
REMARK Flexibility Score: inf
ROOT
ATOM      1  C   UNL     1      24.830 -26.894  28.919  1.00  0.00     0.014 C 
ENDROOT
BRANCH   1   2
ATOM      2  C   UNL     1      24.102 -26.778  30.285  1.00  0.00     0.042 C 
BRANCH   2   3
ATOM      3  C   UNL     1      23.404 -25.443  30.345  1.00  0.00     0.045 C 
ATOM      4  O   UNL     1      24.012 -24.381  30.042  1.00  0.00    -0.550 OA
ATOM      5  O   UNL     1      22.057 -25.384  30.685  1.00  0.00    -0.550 OA
ENDBRANCH   2   3
BRANCH   2   6
ATOM      6  C   UNL     1      25.093 -26.985  31.492  1.00  0.00     0.033 C 
ATOM      7  C   UNL     1      25.674 -28.419  31.585  1.00  0.00     0.119 C 
ATOM      8  C   UNL     1      24.558 -26.673  32.935  1.00  0.00    -0.017 C 
ATOM      9  C   UNL     1      25.813 -28.756  33.078  1.00  0.00     0.043 C 
ATOM     10  C   UNL     1      25.528 -27.471  33.880  1.00  0.00    -0.003 C 
ATOM     11  C   UNL     1      23.120 -27.218  33.109  1.00  0.00     0.012 C 
ATOM     12  C   UNL     1      24.577 -25.144  33.239  1.00  0.00     0.013 C 
ATOM     13  C   UNL     1      26.874 -26.710  34.080  1.00  0.00     0.017 C 
ATOM     14  C   UNL     1      24.931 -27.847  35.269  1.00  0.00    -0.064 C 
ATOM     15  C   UNL     1      22.650 -27.077  34.542  1.00  0.00     0.032 C 
ATOM     16  C   UNL     1      23.595 -27.711  35.552  1.00  0.00    -0.064 C 
ATOM     17  C   UNL     1      25.895 -28.507  36.253  1.00  0.00     0.032 C 
ATOM     18  C   UNL     1      22.965 -28.236  36.863  1.00  0.00    -0.008 C 
ATOM     19  C   UNL     1      25.302 -29.038  37.557  1.00  0.00     0.009 C 
ATOM     20  C   UNL     1      24.013 -28.333  38.027  1.00  0.00     0.009 C 
ATOM     21  C   UNL     1      21.757 -27.333  37.301  1.00  0.00     0.015 C 
ATOM     22  C   UNL     1      22.415 -29.657  36.560  1.00  0.00     0.016 C 
ATOM     23  C   UNL     1      24.177 -26.995  38.862  1.00  0.00     0.005 C 
ATOM     24  C   UNL     1      21.576 -27.276  38.813  1.00  0.00     0.047 C 
ATOM     25  C   UNL     1      22.772 -26.562  39.472  1.00  0.00     0.182 C 
ATOM     26  C   UNL     1      25.149 -27.221  40.055  1.00  0.00     0.015 C 
ATOM     27  C   UNL     1      24.784 -25.854  38.009  1.00  0.00     0.015 C 
BRANCH   7  28
ATOM     28  O   UNL     1      24.838 -29.368  30.967  1.00  0.00    -0.393 OA
ATOM     29  H   UNL     1      24.251 -29.737  31.676  1.00  0.00     0.210 HD
ENDBRANCH   7  28
BRANCH  25  30
ATOM     30  O   UNL     1      22.597 -25.143  39.375  1.00  0.00    -0.462 OA
BRANCH  30  31
ATOM     31  C   UNL     1      21.494 -24.520  38.782  1.00  0.00     0.302 C 
ATOM     32  O   UNL     1      20.378 -24.465  39.372  1.00  0.00    -0.253 OA
ATOM     33  C   UNL     1      21.658 -23.878  37.446  1.00  0.00     0.139 C 
ENDBRANCH  30  31
ENDBRANCH  25  30
ENDBRANCH   2   6
ENDBRANCH   1   2
BRANCH   1  34
ATOM     34  C   UNL     1      23.848 -27.188  27.773  1.00  0.00     0.031 C 
BRANCH  34  35
ATOM     35  C   UNL     1      23.641 -25.970  26.891  1.00  0.00    -0.075 C 
ATOM     36  C   UNL     1      24.721 -25.260  26.516  1.00  0.00     0.008 C 
BRANCH  35  37
ATOM     37  C   UNL     1      22.259 -25.495  26.451  1.00  0.00     0.008 C 
ATOM     38  C   UNL     1      21.787 -24.223  27.175  1.00  0.00     0.012 C 
ATOM     39  C   UNL     1      22.219 -25.301  24.931  1.00  0.00     0.012 C 
ENDBRANCH  35  37
ENDBRANCH  34  35
ENDBRANCH   1  34
TORSDOF 9
ENDMDL
MODEL 5
REMARK VINA RESULT:    -7.193      5.744      8.830
REMARK INTER + INTRA:         -11.312
REMARK INTER:                 -10.335
REMARK INTRA:                  -0.977
REMARK UNBOUND:                -0.545
REMARK SMILES C=C(CC[C@H](C(=O)[O-])[C@@H]1[C@H](O)C[C@]2(C)C3=C(CC[C@]12C)[C@]1(C)CC[C@H](OC(C)=O)C(C)(C)[C@@H]1CC3)C(C)C
REMARK SMILES IDX 4 1 5 2 6 3 7 4 8 5 9 6 10 7 19 8 12 9 13 10 18 11 20 12
REMARK SMILES IDX 14 13 15 14 17 15 16 16 35 17 21 18 34 19 33 20 23 21 22 22
REMARK SMILES IDX 30 23 24 24 25 25 31 26 32 27 11 28 26 30 27 31 29 32 28 33
REMARK SMILES IDX 3 34 2 35 1 36 36 37 37 38 38 39
REMARK H PARENT 11 29
REMARK Flexibility Score: inf
ROOT
ATOM      1  C   UNL     1      18.764 -31.858  33.059  1.00  0.00     0.014 C 
ENDROOT
BRANCH   1   2
ATOM      2  C   UNL     1      19.251 -30.607  33.840  1.00  0.00     0.042 C 
BRANCH   2   3
ATOM      3  C   UNL     1      18.205 -29.528  33.716  1.00  0.00     0.045 C 
ATOM      4  O   UNL     1      17.773 -29.172  32.586  1.00  0.00    -0.550 OA
ATOM      5  O   UNL     1      17.668 -28.953  34.863  1.00  0.00    -0.550 OA
ENDBRANCH   2   3
BRANCH   2   6
ATOM      6  C   UNL     1      20.665 -30.124  33.344  1.00  0.00     0.033 C 
ATOM      7  C   UNL     1      21.690 -31.273  33.164  1.00  0.00     0.119 C 
ATOM      8  C   UNL     1      21.412 -29.049  34.209  1.00  0.00    -0.017 C 
ATOM      9  C   UNL     1      23.065 -30.720  33.571  1.00  0.00     0.043 C 
ATOM     10  C   UNL     1      22.919 -29.201  33.788  1.00  0.00    -0.003 C 
ATOM     11  C   UNL     1      21.274 -29.376  35.716  1.00  0.00     0.012 C 
ATOM     12  C   UNL     1      20.874 -27.612  33.936  1.00  0.00     0.013 C 
ATOM     13  C   UNL     1      23.200 -28.484  32.432  1.00  0.00     0.017 C 
ATOM     14  C   UNL     1      23.952 -28.727  34.852  1.00  0.00    -0.064 C 
ATOM     15  C   UNL     1      22.125 -28.450  36.559  1.00  0.00     0.032 C 
ATOM     16  C   UNL     1      23.589 -28.430  36.142  1.00  0.00    -0.064 C 
ATOM     17  C   UNL     1      25.415 -28.742  34.415  1.00  0.00     0.032 C 
ATOM     18  C   UNL     1      24.625 -28.121  37.247  1.00  0.00    -0.008 C 
ATOM     19  C   UNL     1      26.464 -28.442  35.486  1.00  0.00     0.009 C 
ATOM     20  C   UNL     1      25.973 -27.570  36.660  1.00  0.00     0.009 C 
ATOM     21  C   UNL     1      24.039 -27.104  38.292  1.00  0.00     0.015 C 
ATOM     22  C   UNL     1      24.906 -29.457  37.987  1.00  0.00     0.016 C 
ATOM     23  C   UNL     1      25.996 -25.998  36.459  1.00  0.00     0.005 C 
ATOM     24  C   UNL     1      25.106 -26.208  38.911  1.00  0.00     0.047 C 
ATOM     25  C   UNL     1      25.707 -25.271  37.845  1.00  0.00     0.182 C 
ATOM     26  C   UNL     1      27.402 -25.538  35.980  1.00  0.00     0.015 C 
ATOM     27  C   UNL     1      24.990 -25.540  35.375  1.00  0.00     0.015 C 
BRANCH   7  28
ATOM     28  O   UNL     1      21.378 -32.389  33.962  1.00  0.00    -0.393 OA
ATOM     29  H   UNL     1      20.896 -32.045  34.757  1.00  0.00     0.210 HD
ENDBRANCH   7  28
BRANCH  25  30
ATOM     30  O   UNL     1      24.842 -24.145  37.653  1.00  0.00    -0.462 OA
BRANCH  30  31
ATOM     31  C   UNL     1      24.199 -23.455  38.687  1.00  0.00     0.302 C 
ATOM     32  O   UNL     1      24.851 -22.749  39.506  1.00  0.00    -0.253 OA
ATOM     33  C   UNL     1      22.713 -23.529  38.790  1.00  0.00     0.139 C 
ENDBRANCH  30  31
ENDBRANCH  25  30
ENDBRANCH   2   6
ENDBRANCH   1   2
BRANCH   1  34
ATOM     34  C   UNL     1      17.683 -32.630  33.833  1.00  0.00     0.031 C 
BRANCH  34  35
ATOM     35  C   UNL     1      18.290 -33.721  34.697  1.00  0.00    -0.075 C 
ATOM     36  C   UNL     1      18.868 -34.772  34.087  1.00  0.00     0.008 C 
BRANCH  35  37
ATOM     37  C   UNL     1      18.231 -33.696  36.221  1.00  0.00     0.008 C 
ATOM     38  C   UNL     1      17.592 -34.955  36.832  1.00  0.00     0.012 C 
ATOM     39  C   UNL     1      19.627 -33.456  36.807  1.00  0.00     0.012 C 
ENDBRANCH  35  37
ENDBRANCH  34  35
ENDBRANCH   1  34
TORSDOF 9
ENDMDL
MODEL 6
REMARK VINA RESULT:    -7.180      2.514      4.387
REMARK INTER + INTRA:         -11.292
REMARK INTER:                 -10.922
REMARK INTRA:                  -0.370
REMARK UNBOUND:                -0.545
REMARK SMILES C=C(CC[C@H](C(=O)[O-])[C@@H]1[C@H](O)C[C@]2(C)C3=C(CC[C@]12C)[C@]1(C)CC[C@H](OC(C)=O)C(C)(C)[C@@H]1CC3)C(C)C
REMARK SMILES IDX 4 1 5 2 6 3 7 4 8 5 9 6 10 7 19 8 12 9 13 10 18 11 20 12
REMARK SMILES IDX 14 13 15 14 17 15 16 16 35 17 21 18 34 19 33 20 23 21 22 22
REMARK SMILES IDX 30 23 24 24 25 25 31 26 32 27 11 28 26 30 27 31 29 32 28 33
REMARK SMILES IDX 3 34 2 35 1 36 36 37 37 38 38 39
REMARK H PARENT 11 29
REMARK Flexibility Score: inf
ROOT
ATOM      1  C   UNL     1      24.270 -22.717  27.760  1.00  0.00     0.014 C 
ENDROOT
BRANCH   1   2
ATOM      2  C   UNL     1      22.746 -22.493  27.945  1.00  0.00     0.042 C 
BRANCH   2   3
ATOM      3  C   UNL     1      22.391 -21.134  27.396  1.00  0.00     0.045 C 
ATOM      4  O   UNL     1      21.882 -21.013  26.249  1.00  0.00    -0.550 OA
ATOM      5  O   UNL     1      22.574 -20.002  28.184  1.00  0.00    -0.550 OA
ENDBRANCH   2   3
BRANCH   2   6
ATOM      6  C   UNL     1      22.310 -22.657  29.449  1.00  0.00     0.033 C 
ATOM      7  C   UNL     1      23.172 -21.837  30.443  1.00  0.00     0.119 C 
ATOM      8  C   UNL     1      22.281 -24.109  30.045  1.00  0.00    -0.017 C 
ATOM      9  C   UNL     1      23.304 -22.673  31.726  1.00  0.00     0.043 C 
ATOM     10  C   UNL     1      22.360 -23.885  31.599  1.00  0.00    -0.003 C 
ATOM     11  C   UNL     1      23.526 -24.907  29.586  1.00  0.00     0.012 C 
ATOM     12  C   UNL     1      20.989 -24.878  29.633  1.00  0.00     0.013 C 
ATOM     13  C   UNL     1      20.970 -23.486  32.181  1.00  0.00     0.017 C 
ATOM     14  C   UNL     1      22.940 -25.082  32.408  1.00  0.00    -0.064 C 
ATOM     15  C   UNL     1      23.605 -26.250  30.282  1.00  0.00     0.032 C 
ATOM     16  C   UNL     1      23.557 -26.146  31.800  1.00  0.00    -0.064 C 
ATOM     17  C   UNL     1      22.904 -24.939  33.929  1.00  0.00     0.032 C 
ATOM     18  C   UNL     1      24.283 -27.254  32.598  1.00  0.00    -0.008 C 
ATOM     19  C   UNL     1      23.614 -26.018  34.745  1.00  0.00     0.009 C 
ATOM     20  C   UNL     1      23.726 -27.395  34.059  1.00  0.00     0.009 C 
ATOM     21  C   UNL     1      24.187 -28.633  31.851  1.00  0.00     0.015 C 
ATOM     22  C   UNL     1      25.782 -26.852  32.667  1.00  0.00     0.016 C 
ATOM     23  C   UNL     1      22.486 -28.375  34.185  1.00  0.00     0.005 C 
ATOM     24  C   UNL     1      24.170 -29.824  32.802  1.00  0.00     0.047 C 
ATOM     25  C   UNL     1      22.881 -29.819  33.647  1.00  0.00     0.182 C 
ATOM     26  C   UNL     1      22.077 -28.534  35.677  1.00  0.00     0.015 C 
ATOM     27  C   UNL     1      21.242 -27.829  33.443  1.00  0.00     0.015 C 
BRANCH   7  28
ATOM     28  O   UNL     1      24.452 -21.562  29.929  1.00  0.00    -0.393 OA
ATOM     29  H   UNL     1      25.040 -21.381  30.707  1.00  0.00     0.210 HD
ENDBRANCH   7  28
BRANCH  25  30
ATOM     30  O   UNL     1      21.806 -30.385  32.886  1.00  0.00    -0.462 OA
BRANCH  30  31
ATOM     31  C   UNL     1      20.997 -31.440  33.321  1.00  0.00     0.302 C 
ATOM     32  O   UNL     1      21.450 -32.615  33.415  1.00  0.00    -0.253 OA
ATOM     33  C   UNL     1      19.588 -31.155  33.716  1.00  0.00     0.139 C 
ENDBRANCH  30  31
ENDBRANCH  25  30
ENDBRANCH   2   6
ENDBRANCH   1   2
BRANCH   1  34
ATOM     34  C   UNL     1      24.623 -23.075  26.307  1.00  0.00     0.031 C 
BRANCH  34  35
ATOM     35  C   UNL     1      24.133 -24.464  25.941  1.00  0.00    -0.075 C 
ATOM     36  C   UNL     1      24.781 -25.527  26.451  1.00  0.00     0.008 C 
BRANCH  35  37
ATOM     37  C   UNL     1      22.966 -24.703  24.986  1.00  0.00     0.008 C 
ATOM     38  C   UNL     1      21.662 -25.099  25.698  1.00  0.00     0.012 C 
ATOM     39  C   UNL     1      22.748 -23.478  24.091  1.00  0.00     0.012 C 
ENDBRANCH  35  37
ENDBRANCH  34  35
ENDBRANCH   1  34
TORSDOF 9
ENDMDL
MODEL 7
REMARK VINA RESULT:    -6.989      2.638      9.058
REMARK INTER + INTRA:         -11.007
REMARK INTER:                  -9.970
REMARK INTRA:                  -1.037
REMARK UNBOUND:                -0.545
REMARK SMILES C=C(CC[C@H](C(=O)[O-])[C@@H]1[C@H](O)C[C@]2(C)C3=C(CC[C@]12C)[C@]1(C)CC[C@H](OC(C)=O)C(C)(C)[C@@H]1CC3)C(C)C
REMARK SMILES IDX 4 1 5 2 6 3 7 4 8 5 9 6 10 7 19 8 12 9 13 10 18 11 20 12
REMARK SMILES IDX 14 13 15 14 17 15 16 16 35 17 21 18 34 19 33 20 23 21 22 22
REMARK SMILES IDX 30 23 24 24 25 25 31 26 32 27 11 28 26 30 27 31 29 32 28 33
REMARK SMILES IDX 3 34 2 35 1 36 36 37 37 38 38 39
REMARK H PARENT 11 29
REMARK Flexibility Score: inf
ROOT
ATOM      1  C   UNL     1      21.139 -26.582  33.451  1.00  0.00     0.014 C 
ENDROOT
BRANCH   1   2
ATOM      2  C   UNL     1      22.005 -26.684  32.167  1.00  0.00     0.042 C 
BRANCH   2   3
ATOM      3  C   UNL     1      23.261 -27.451  32.496  1.00  0.00     0.045 C 
ATOM      4  O   UNL     1      23.577 -28.484  31.846  1.00  0.00    -0.550 OA
ATOM      5  O   UNL     1      24.113 -26.985  33.492  1.00  0.00    -0.550 OA
ENDBRANCH   2   3
BRANCH   2   6
ATOM      6  C   UNL     1      22.318 -25.265  31.560  1.00  0.00     0.033 C 
ATOM      7  C   UNL     1      21.065 -24.368  31.390  1.00  0.00     0.119 C 
ATOM      8  C   UNL     1      23.043 -25.212  30.169  1.00  0.00    -0.017 C 
ATOM      9  C   UNL     1      21.268 -23.545  30.108  1.00  0.00     0.043 C 
ATOM     10  C   UNL     1      22.713 -23.776  29.623  1.00  0.00    -0.003 C 
ATOM     11  C   UNL     1      22.447 -26.268  29.207  1.00  0.00     0.012 C 
ATOM     12  C   UNL     1      24.579 -25.441  30.309  1.00  0.00     0.013 C 
ATOM     13  C   UNL     1      23.627 -22.698  30.280  1.00  0.00     0.017 C 
ATOM     14  C   UNL     1      22.768 -23.632  28.073  1.00  0.00    -0.064 C 
ATOM     15  C   UNL     1      23.015 -26.121  27.811  1.00  0.00     0.032 C 
ATOM     16  C   UNL     1      22.857 -24.719  27.241  1.00  0.00    -0.064 C 
ATOM     17  C   UNL     1      22.580 -22.217  27.527  1.00  0.00     0.032 C 
ATOM     18  C   UNL     1      22.745 -24.600  25.703  1.00  0.00    -0.008 C 
ATOM     19  C   UNL     1      22.464 -22.068  26.011  1.00  0.00     0.009 C 
ATOM     20  C   UNL     1      23.153 -23.175  25.186  1.00  0.00     0.009 C 
ATOM     21  C   UNL     1      23.617 -25.698  24.994  1.00  0.00     0.015 C 
ATOM     22  C   UNL     1      21.258 -24.862  25.338  1.00  0.00     0.016 C 
ATOM     23  C   UNL     1      24.703 -23.011  24.899  1.00  0.00     0.005 C 
ATOM     24  C   UNL     1      24.162 -25.244  23.645  1.00  0.00     0.047 C 
ATOM     25  C   UNL     1      25.173 -24.095  23.833  1.00  0.00     0.182 C 
ATOM     26  C   UNL     1      24.991 -21.609  24.290  1.00  0.00     0.015 C 
ATOM     27  C   UNL     1      25.544 -23.110  26.195  1.00  0.00     0.015 C 
BRANCH   7  28
ATOM     28  O   UNL     1      19.884 -25.126  31.279  1.00  0.00    -0.393 OA
ATOM     29  H   UNL     1      20.060 -25.995  31.724  1.00  0.00     0.210 HD
ENDBRANCH   7  28
BRANCH  25  30
ATOM     30  O   UNL     1      26.451 -24.634  24.192  1.00  0.00    -0.462 OA
BRANCH  30  31
ATOM     31  C   UNL     1      27.644 -24.365  23.512  1.00  0.00     0.302 C 
ATOM     32  O   UNL     1      28.273 -25.280  22.910  1.00  0.00    -0.253 OA
ATOM     33  C   UNL     1      28.152 -22.964  23.471  1.00  0.00     0.139 C 
ENDBRANCH  30  31
ENDBRANCH  25  30
ENDBRANCH   2   6
ENDBRANCH   1   2
BRANCH   1  34
ATOM     34  C   UNL     1      20.211 -27.797  33.612  1.00  0.00     0.031 C 
BRANCH  34  35
ATOM     35  C   UNL     1      20.478 -28.533  34.914  1.00  0.00    -0.075 C 
ATOM     36  C   UNL     1      19.991 -28.011  36.055  1.00  0.00     0.008 C 
BRANCH  35  37
ATOM     37  C   UNL     1      21.310 -29.810  34.984  1.00  0.00     0.008 C 
ATOM     38  C   UNL     1      21.405 -30.555  33.643  1.00  0.00     0.012 C 
ATOM     39  C   UNL     1      22.706 -29.509  35.540  1.00  0.00     0.012 C 
ENDBRANCH  35  37
ENDBRANCH  34  35
ENDBRANCH   1  34
TORSDOF 9
ENDMDL
MODEL 8
REMARK VINA RESULT:    -6.853      3.515      8.550
REMARK INTER + INTRA:         -10.804
REMARK INTER:                 -10.083
REMARK INTRA:                  -0.720
REMARK UNBOUND:                -0.545
REMARK SMILES C=C(CC[C@H](C(=O)[O-])[C@@H]1[C@H](O)C[C@]2(C)C3=C(CC[C@]12C)[C@]1(C)CC[C@H](OC(C)=O)C(C)(C)[C@@H]1CC3)C(C)C
REMARK SMILES IDX 4 1 5 2 6 3 7 4 8 5 9 6 10 7 19 8 12 9 13 10 18 11 20 12
REMARK SMILES IDX 14 13 15 14 17 15 16 16 35 17 21 18 34 19 33 20 23 21 22 22
REMARK SMILES IDX 30 23 24 24 25 25 31 26 32 27 11 28 26 30 27 31 29 32 28 33
REMARK SMILES IDX 3 34 2 35 1 36 36 37 37 38 38 39
REMARK H PARENT 11 29
REMARK Flexibility Score: inf
ROOT
ATOM      1  C   UNL     1      24.861 -28.122  32.190  1.00  0.00     0.014 C 
ENDROOT
BRANCH   1   2
ATOM      2  C   UNL     1      23.818 -27.088  32.692  1.00  0.00     0.042 C 
BRANCH   2   3
ATOM      3  C   UNL     1      22.866 -27.786  33.632  1.00  0.00     0.045 C 
ATOM      4  O   UNL     1      22.758 -27.418  34.833  1.00  0.00    -0.550 OA
ATOM      5  O   UNL     1      22.055 -28.811  33.157  1.00  0.00    -0.550 OA
ENDBRANCH   2   3
BRANCH   2   6
ATOM      6  C   UNL     1      23.067 -26.390  31.497  1.00  0.00     0.033 C 
ATOM      7  C   UNL     1      23.941 -26.210  30.230  1.00  0.00     0.119 C 
ATOM      8  C   UNL     1      22.439 -24.975  31.759  1.00  0.00    -0.017 C 
ATOM      9  C   UNL     1      23.532 -24.876  29.584  1.00  0.00     0.043 C 
ATOM     10  C   UNL     1      22.282 -24.357  30.322  1.00  0.00    -0.003 C 
ATOM     11  C   UNL     1      23.410 -24.096  32.583  1.00  0.00     0.012 C 
ATOM     12  C   UNL     1      21.071 -25.078  32.500  1.00  0.00     0.013 C 
ATOM     13  C   UNL     1      21.019 -24.921  29.601  1.00  0.00     0.017 C 
ATOM     14  C   UNL     1      22.259 -22.801  30.273  1.00  0.00    -0.064 C 
ATOM     15  C   UNL     1      22.899 -22.676  32.702  1.00  0.00     0.032 C 
ATOM     16  C   UNL     1      22.593 -22.031  31.358  1.00  0.00    -0.064 C 
ATOM     17  C   UNL     1      21.976 -22.181  28.906  1.00  0.00     0.032 C 
ATOM     18  C   UNL     1      22.735 -20.493  31.274  1.00  0.00    -0.008 C 
ATOM     19  C   UNL     1      22.111 -20.663  28.791  1.00  0.00     0.009 C 
ATOM     20  C   UNL     1      21.889 -19.882  30.102  1.00  0.00     0.009 C 
ATOM     21  C   UNL     1      22.333 -19.821  32.635  1.00  0.00     0.015 C 
ATOM     22  C   UNL     1      24.238 -20.194  31.019  1.00  0.00     0.016 C 
ATOM     23  C   UNL     1      20.394 -19.534  30.498  1.00  0.00     0.005 C 
ATOM     24  C   UNL     1      21.734 -18.430  32.457  1.00  0.00     0.047 C 
ATOM     25  C   UNL     1      20.381 -18.518  31.723  1.00  0.00     0.182 C 
ATOM     26  C   UNL     1      19.671 -18.836  29.311  1.00  0.00     0.015 C 
ATOM     27  C   UNL     1      19.573 -20.805  30.827  1.00  0.00     0.015 C 
BRANCH   7  28
ATOM     28  O   UNL     1      25.314 -26.182  30.535  1.00  0.00    -0.393 OA
ATOM     29  H   UNL     1      25.732 -26.932  30.040  1.00  0.00     0.210 HD
ENDBRANCH   7  28
BRANCH  25  30
ATOM     30  O   UNL     1      19.351 -18.865  32.656  1.00  0.00    -0.462 OA
BRANCH  30  31
ATOM     31  C   UNL     1      18.359 -17.986  33.105  1.00  0.00     0.302 C 
ATOM     32  O   UNL     1      17.321 -18.414  33.686  1.00  0.00    -0.253 OA
ATOM     33  C   UNL     1      18.557 -16.519  32.926  1.00  0.00     0.139 C 
ENDBRANCH  30  31
ENDBRANCH  25  30
ENDBRANCH   2   6
ENDBRANCH   1   2
BRANCH   1  34
ATOM     34  C   UNL     1      25.724 -28.667  33.340  1.00  0.00     0.031 C 
BRANCH  34  35
ATOM     35  C   UNL     1      26.435 -27.549  34.081  1.00  0.00    -0.075 C 
ATOM     36  C   UNL     1      27.257 -26.742  33.385  1.00  0.00     0.008 C 
BRANCH  35  37
ATOM     37  C   UNL     1      26.291 -27.334  35.585  1.00  0.00     0.008 C 
ATOM     38  C   UNL     1      26.127 -28.640  36.380  1.00  0.00     0.012 C 
ATOM     39  C   UNL     1      27.468 -26.513  36.123  1.00  0.00     0.012 C 
ENDBRANCH  35  37
ENDBRANCH  34  35
ENDBRANCH   1  34
TORSDOF 9
ENDMDL
MODEL 9
REMARK VINA RESULT:    -6.844      5.942      9.790
REMARK INTER + INTRA:         -10.789
REMARK INTER:                 -10.378
REMARK INTRA:                  -0.411
REMARK UNBOUND:                -0.545
REMARK SMILES C=C(CC[C@H](C(=O)[O-])[C@@H]1[C@H](O)C[C@]2(C)C3=C(CC[C@]12C)[C@]1(C)CC[C@H](OC(C)=O)C(C)(C)[C@@H]1CC3)C(C)C
REMARK SMILES IDX 4 1 5 2 6 3 7 4 8 5 9 6 10 7 19 8 12 9 13 10 18 11 20 12
REMARK SMILES IDX 14 13 15 14 17 15 16 16 35 17 21 18 34 19 33 20 23 21 22 22
REMARK SMILES IDX 30 23 24 24 25 25 31 26 32 27 11 28 26 30 27 31 29 32 28 33
REMARK SMILES IDX 3 34 2 35 1 36 36 37 37 38 38 39
REMARK H PARENT 11 29
REMARK Flexibility Score: inf
ROOT
ATOM      1  C   UNL     1      25.726 -26.509  37.166  1.00  0.00     0.014 C 
ENDROOT
BRANCH   1   2
ATOM      2  C   UNL     1      24.422 -26.319  37.987  1.00  0.00     0.042 C 
BRANCH   2   3
ATOM      3  C   UNL     1      24.723 -25.426  39.165  1.00  0.00     0.045 C 
ATOM      4  O   UNL     1      25.848 -24.871  39.285  1.00  0.00    -0.550 OA
ATOM      5  O   UNL     1      23.730 -25.165  40.104  1.00  0.00    -0.550 OA
ENDBRANCH   2   3
BRANCH   2   6
ATOM      6  C   UNL     1      23.805 -27.698  38.430  1.00  0.00     0.033 C 
ATOM      7  C   UNL     1      24.812 -28.876  38.386  1.00  0.00     0.119 C 
ATOM      8  C   UNL     1      22.545 -28.216  37.652  1.00  0.00    -0.017 C 
ATOM      9  C   UNL     1      24.030 -30.124  37.947  1.00  0.00     0.043 C 
ATOM     10  C   UNL     1      22.531 -29.762  37.934  1.00  0.00    -0.003 C 
ATOM     11  C   UNL     1      22.714 -27.982  36.131  1.00  0.00     0.012 C 
ATOM     12  C   UNL     1      21.237 -27.524  38.144  1.00  0.00     0.013 C 
ATOM     13  C   UNL     1      21.941 -30.073  39.344  1.00  0.00     0.017 C 
ATOM     14  C   UNL     1      21.798 -30.621  36.862  1.00  0.00    -0.064 C 
ATOM     15  C   UNL     1      21.587 -28.624  35.348  1.00  0.00     0.032 C 
ATOM     16  C   UNL     1      21.410 -30.105  35.652  1.00  0.00    -0.064 C 
ATOM     17  C   UNL     1      21.659 -32.109  37.181  1.00  0.00     0.032 C 
ATOM     18  C   UNL     1      20.835 -30.985  34.518  1.00  0.00    -0.008 C 
ATOM     19  C   UNL     1      21.095 -33.005  36.079  1.00  0.00     0.009 C 
ATOM     20  C   UNL     1      20.172 -32.299  35.065  1.00  0.00     0.009 C 
ATOM     21  C   UNL     1      19.798 -30.178  33.657  1.00  0.00     0.015 C 
ATOM     22  C   UNL     1      22.026 -31.367  33.596  1.00  0.00     0.016 C 
ATOM     23  C   UNL     1      18.645 -32.136  35.459  1.00  0.00     0.005 C 
ATOM     24  C   UNL     1      18.697 -31.057  33.075  1.00  0.00     0.047 C 
ATOM     25  C   UNL     1      17.813 -31.628  34.201  1.00  0.00     0.182 C 
ATOM     26  C   UNL     1      18.050 -33.509  35.883  1.00  0.00     0.015 C 
ATOM     27  C   UNL     1      18.460 -31.184  36.666  1.00  0.00     0.015 C 
BRANCH   7  28
ATOM     28  O   UNL     1      25.862 -28.639  37.480  1.00  0.00    -0.393 OA
ATOM     29  H   UNL     1      25.759 -29.296  36.744  1.00  0.00     0.210 HD
ENDBRANCH   7  28
BRANCH  25  30
ATOM     30  O   UNL     1      16.848 -30.646  34.598  1.00  0.00    -0.462 OA
BRANCH  30  31
ATOM     31  C   UNL     1      15.465 -30.784  34.439  1.00  0.00     0.302 C 
ATOM     32  O   UNL     1      14.750 -29.811  34.068  1.00  0.00    -0.253 OA
ATOM     33  C   UNL     1      14.839 -32.117  34.673  1.00  0.00     0.139 C 
ENDBRANCH  30  31
ENDBRANCH  25  30
ENDBRANCH   2   6
ENDBRANCH   1   2
BRANCH   1  34
ATOM     34  C   UNL     1      25.680 -25.740  35.836  1.00  0.00     0.031 C 
BRANCH  34  35
ATOM     35  C   UNL     1      26.537 -26.409  34.776  1.00  0.00    -0.075 C 
ATOM     36  C   UNL     1      27.868 -26.220  34.815  1.00  0.00     0.008 C 
BRANCH  35  37
ATOM     37  C   UNL     1      25.946 -27.249  33.647  1.00  0.00     0.008 C 
ATOM     38  C   UNL     1      25.721 -28.721  34.030  1.00  0.00     0.012 C 
ATOM     39  C   UNL     1      24.648 -26.616  33.132  1.00  0.00     0.012 C 
ENDBRANCH  35  37
ENDBRANCH  34  35
ENDBRANCH   1  34
TORSDOF 9
ENDMDL
