MODEL 1
REMARK VINA RESULT:     6.776      0.000      0.000
REMARK INTER + INTRA:          15.258
REMARK INTER:                  17.076
REMARK INTRA:                  -1.818
REMARK UNBOUND:                -1.818
REMARK SMILES CCCCCCCCCCCCCCCCCCCCCCCCCCCC(=O)[O-]
REMARK SMILES IDX 15 1 16 2 17 3 18 4 19 5 20 6 21 7 22 8 23 9 24 10 25 11
REMARK SMILES IDX 26 12 27 13 28 14 29 15 30 16 14 17 13 18 12 19 11 20 10 21
REMARK SMILES IDX 9 22 8 23 7 24 6 25 5 26 4 27 3 28 2 29 1 30
REMARK H PARENT
REMARK Flexibility Score: inf
ROOT
ATOM      1  C   UNL     1     -23.788   2.129 -33.592  1.00  0.00     0.000 C 
ENDROOT
BRANCH   1   2
ATOM      2  C   UNL     1     -22.357   1.602 -33.782  1.00  0.00     0.000 C 
BRANCH   2   3
ATOM      3  C   UNL     1     -21.999   0.494 -32.777  1.00  0.00     0.000 C 
BRANCH   3   4
ATOM      4  C   UNL     1     -23.226  -0.297 -32.284  1.00  0.00     0.000 C 
BRANCH   4   5
ATOM      5  C   UNL     1     -22.919  -1.476 -31.339  1.00  0.00     0.000 C 
BRANCH   5   6
ATOM      6  C   UNL     1     -22.463  -2.744 -32.083  1.00  0.00     0.000 C 
BRANCH   6   7
ATOM      7  C   UNL     1     -21.652  -3.694 -31.187  1.00  0.00     0.000 C 
BRANCH   7   8
ATOM      8  C   UNL     1     -22.540  -4.634 -30.353  1.00  0.00     0.000 C 
BRANCH   8   9
ATOM      9  C   UNL     1     -21.941  -6.045 -30.221  1.00  0.00     0.000 C 
BRANCH   9  10
ATOM     10  C   UNL     1     -21.170  -6.243 -28.906  1.00  0.00     0.000 C 
BRANCH  10  11
ATOM     11  C   UNL     1     -21.415  -7.640 -28.292  1.00  0.00     0.000 C 
BRANCH  11  12
ATOM     12  C   UNL     1     -22.539  -7.656 -27.239  1.00  0.00     0.006 C 
BRANCH  12  13
ATOM     13  C   UNL     1     -23.212  -9.027 -27.067  1.00  0.00     0.053 C 
BRANCH  13  14
ATOM     14  C   UNL     1     -24.464  -8.943 -26.250  1.00  0.00     0.041 C 
ATOM     15  O   UNL     1     -25.559  -8.639 -26.793  1.00  0.00    -0.550 OA
ATOM     16  O   UNL     1     -24.427  -9.224 -24.888  1.00  0.00    -0.550 OA
ENDBRANCH  13  14
ENDBRANCH  12  13
ENDBRANCH  11  12
ENDBRANCH  10  11
ENDBRANCH   9  10
ENDBRANCH   8   9
ENDBRANCH   7   8
ENDBRANCH   6   7
ENDBRANCH   5   6
ENDBRANCH   4   5
ENDBRANCH   3   4
ENDBRANCH   2   3
ENDBRANCH   1   2
BRANCH   1  17
ATOM     17  C   UNL     1     -23.932   3.057 -32.377  1.00  0.00     0.000 C 
BRANCH  17  18
ATOM     18  C   UNL     1     -25.233   3.862 -32.464  1.00  0.00     0.000 C 
BRANCH  18  19
ATOM     19  C   UNL     1     -26.351   3.051 -33.137  1.00  0.00     0.000 C 
BRANCH  19  20
ATOM     20  C   UNL     1     -27.311   3.944 -33.943  1.00  0.00     0.000 C 
BRANCH  20  21
ATOM     21  C   UNL     1     -26.589   5.123 -34.619  1.00  0.00     0.000 C 
BRANCH  21  22
ATOM     22  C   UNL     1     -26.133   4.788 -36.054  1.00  0.00    -0.000 C 
BRANCH  22  23
ATOM     23  C   UNL     1     -24.892   3.881 -36.123  1.00  0.00    -0.000 C 
BRANCH  23  24
ATOM     24  C   UNL     1     -23.573   4.673 -36.136  1.00  0.00    -0.000 C 
BRANCH  24  25
ATOM     25  C   UNL     1     -23.026   4.918 -37.555  1.00  0.00    -0.000 C 
BRANCH  25  26
ATOM     26  C   UNL     1     -23.645   4.042 -38.662  1.00  0.00    -0.000 C 
BRANCH  26  27
ATOM     27  C   UNL     1     -22.741   2.875 -39.088  1.00  0.00    -0.000 C 
BRANCH  27  28
ATOM     28  C   UNL     1     -23.299   1.537 -38.590  1.00  0.00    -0.000 C 
BRANCH  28  29
ATOM     29  C   UNL     1     -22.472   0.361 -39.124  1.00  0.00    -0.003 C 
ATOM     30  C   UNL     1     -23.054  -0.972 -38.666  1.00  0.00     0.004 C 
ENDBRANCH  28  29
ENDBRANCH  27  28
ENDBRANCH  26  27
ENDBRANCH  25  26
ENDBRANCH  24  25
ENDBRANCH  23  24
ENDBRANCH  22  23
ENDBRANCH  21  22
ENDBRANCH  20  21
ENDBRANCH  19  20
ENDBRANCH  18  19
ENDBRANCH  17  18
ENDBRANCH   1  17
TORSDOF 26
ENDMDL
MODEL 2
REMARK VINA RESULT:     6.863      1.810      2.957
REMARK INTER + INTRA:          15.475
REMARK INTER:                  16.319
REMARK INTRA:                  -0.844
REMARK UNBOUND:                -1.818
REMARK SMILES CCCCCCCCCCCCCCCCCCCCCCCCCCCC(=O)[O-]
REMARK SMILES IDX 15 1 16 2 17 3 18 4 19 5 20 6 21 7 22 8 23 9 24 10 25 11
REMARK SMILES IDX 26 12 27 13 28 14 29 15 30 16 14 17 13 18 12 19 11 20 10 21
REMARK SMILES IDX 9 22 8 23 7 24 6 25 5 26 4 27 3 28 2 29 1 30
REMARK H PARENT
REMARK Flexibility Score: inf
ROOT
ATOM      1  C   UNL     1     -25.420   2.407 -33.482  1.00  0.00     0.000 C 
ENDROOT
BRANCH   1   2
ATOM      2  C   UNL     1     -24.422   1.742 -34.444  1.00  0.00     0.000 C 
BRANCH   2   3
ATOM      3  C   UNL     1     -22.983   1.756 -33.901  1.00  0.00     0.000 C 
BRANCH   3   4
ATOM      4  C   UNL     1     -22.545   0.401 -33.312  1.00  0.00     0.000 C 
BRANCH   4   5
ATOM      5  C   UNL     1     -22.935   0.160 -31.840  1.00  0.00     0.000 C 
BRANCH   5   6
ATOM      6  C   UNL     1     -23.442  -1.268 -31.575  1.00  0.00     0.000 C 
BRANCH   6   7
ATOM      7  C   UNL     1     -22.297  -2.286 -31.446  1.00  0.00     0.000 C 
BRANCH   7   8
ATOM      8  C   UNL     1     -22.692  -3.531 -30.632  1.00  0.00     0.000 C 
BRANCH   8   9
ATOM      9  C   UNL     1     -21.882  -4.776 -31.033  1.00  0.00     0.000 C 
BRANCH   9  10
ATOM     10  C   UNL     1     -22.614  -6.090 -30.712  1.00  0.00     0.000 C 
BRANCH  10  11
ATOM     11  C   UNL     1     -21.726  -7.069 -29.911  1.00  0.00     0.000 C 
BRANCH  11  12
ATOM     12  C   UNL     1     -21.459  -6.610 -28.466  1.00  0.00     0.006 C 
BRANCH  12  13
ATOM     13  C   UNL     1     -21.395  -7.759 -27.448  1.00  0.00     0.053 C 
BRANCH  13  14
ATOM     14  C   UNL     1     -22.503  -8.748 -27.642  1.00  0.00     0.041 C 
ATOM     15  O   UNL     1     -22.338  -9.956 -27.327  1.00  0.00    -0.550 OA
ATOM     16  O   UNL     1     -23.729  -8.330 -28.150  1.00  0.00    -0.550 OA
ENDBRANCH  13  14
ENDBRANCH  12  13
ENDBRANCH  11  12
ENDBRANCH  10  11
ENDBRANCH   9  10
ENDBRANCH   8   9
ENDBRANCH   7   8
ENDBRANCH   6   7
ENDBRANCH   5   6
ENDBRANCH   4   5
ENDBRANCH   3   4
ENDBRANCH   2   3
ENDBRANCH   1   2
BRANCH   1  17
ATOM     17  C   UNL     1     -24.852   3.658 -32.796  1.00  0.00     0.000 C 
BRANCH  17  18
ATOM     18  C   UNL     1     -24.759   4.823 -33.788  1.00  0.00     0.000 C 
BRANCH  18  19
ATOM     19  C   UNL     1     -26.121   5.118 -34.436  1.00  0.00     0.000 C 
BRANCH  19  20
ATOM     20  C   UNL     1     -27.295   4.745 -33.514  1.00  0.00     0.000 C 
BRANCH  20  21
ATOM     21  C   UNL     1     -28.327   3.842 -34.212  1.00  0.00     0.000 C 
BRANCH  21  22
ATOM     22  C   UNL     1     -29.020   4.549 -35.396  1.00  0.00    -0.000 C 
BRANCH  22  23
ATOM     23  C   UNL     1     -28.780   3.875 -36.758  1.00  0.00    -0.000 C 
BRANCH  23  24
ATOM     24  C   UNL     1     -29.034   4.819 -37.945  1.00  0.00    -0.000 C 
BRANCH  24  25
ATOM     25  C   UNL     1     -27.781   5.059 -38.809  1.00  0.00    -0.000 C 
BRANCH  25  26
ATOM     26  C   UNL     1     -26.448   5.124 -38.036  1.00  0.00    -0.000 C 
BRANCH  26  27
ATOM     27  C   UNL     1     -25.251   4.612 -38.850  1.00  0.00    -0.000 C 
BRANCH  27  28
ATOM     28  C   UNL     1     -24.221   3.929 -37.942  1.00  0.00    -0.000 C 
BRANCH  28  29
ATOM     29  C   UNL     1     -23.123   4.912 -37.516  1.00  0.00    -0.003 C 
ATOM     30  C   UNL     1     -22.967   4.936 -35.999  1.00  0.00     0.004 C 
ENDBRANCH  28  29
ENDBRANCH  27  28
ENDBRANCH  26  27
ENDBRANCH  25  26
ENDBRANCH  24  25
ENDBRANCH  23  24
ENDBRANCH  22  23
ENDBRANCH  21  22
ENDBRANCH  20  21
ENDBRANCH  19  20
ENDBRANCH  18  19
ENDBRANCH  17  18
ENDBRANCH   1  17
TORSDOF 26
ENDMDL
MODEL 3
REMARK VINA RESULT:     6.898      4.903     10.929
REMARK INTER + INTRA:          15.563
REMARK INTER:                  16.607
REMARK INTRA:                  -1.043
REMARK UNBOUND:                -1.818
REMARK SMILES CCCCCCCCCCCCCCCCCCCCCCCCCCCC(=O)[O-]
REMARK SMILES IDX 15 1 16 2 17 3 18 4 19 5 20 6 21 7 22 8 23 9 24 10 25 11
REMARK SMILES IDX 26 12 27 13 28 14 29 15 30 16 14 17 13 18 12 19 11 20 10 21
REMARK SMILES IDX 9 22 8 23 7 24 6 25 5 26 4 27 3 28 2 29 1 30
REMARK H PARENT
REMARK Flexibility Score: inf
ROOT
ATOM      1  C   UNL     1     -23.992  -8.381 -27.120  1.00  0.00     0.000 C 
ENDROOT
BRANCH   1   2
ATOM      2  C   UNL     1     -24.256  -9.098 -25.787  1.00  0.00     0.000 C 
BRANCH   2   3
ATOM      3  C   UNL     1     -24.874 -10.493 -25.981  1.00  0.00     0.000 C 
BRANCH   3   4
ATOM      4  C   UNL     1     -24.092 -11.609 -25.260  1.00  0.00     0.000 C 
BRANCH   4   5
ATOM      5  C   UNL     1     -24.893 -12.891 -24.958  1.00  0.00     0.000 C 
BRANCH   5   6
ATOM      6  C   UNL     1     -24.078 -13.945 -24.187  1.00  0.00     0.000 C 
BRANCH   6   7
ATOM      7  C   UNL     1     -24.943 -14.765 -23.217  1.00  0.00     0.000 C 
BRANCH   7   8
ATOM      8  C   UNL     1     -24.612 -14.490 -21.740  1.00  0.00     0.000 C 
BRANCH   8   9
ATOM      9  C   UNL     1     -23.104 -14.583 -21.448  1.00  0.00     0.000 C 
BRANCH   9  10
ATOM     10  C   UNL     1     -22.801 -14.857 -19.966  1.00  0.00     0.000 C 
BRANCH  10  11
ATOM     11  C   UNL     1     -22.492 -13.560 -19.185  1.00  0.00     0.000 C 
BRANCH  11  12
ATOM     12  C   UNL     1     -21.014 -13.134 -19.268  1.00  0.00     0.006 C 
BRANCH  12  13
ATOM     13  C   UNL     1     -20.811 -11.624 -19.472  1.00  0.00     0.053 C 
BRANCH  13  14
ATOM     14  C   UNL     1     -19.372 -11.270 -19.682  1.00  0.00     0.041 C 
ATOM     15  O   UNL     1     -18.465 -12.092 -19.380  1.00  0.00    -0.550 OA
ATOM     16  O   UNL     1     -19.029 -10.040 -20.232  1.00  0.00    -0.550 OA
ENDBRANCH  13  14
ENDBRANCH  12  13
ENDBRANCH  11  12
ENDBRANCH  10  11
ENDBRANCH   9  10
ENDBRANCH   8   9
ENDBRANCH   7   8
ENDBRANCH   6   7
ENDBRANCH   5   6
ENDBRANCH   4   5
ENDBRANCH   3   4
ENDBRANCH   2   3
ENDBRANCH   1   2
BRANCH   1  17
ATOM     17  C   UNL     1     -22.575  -7.795 -27.219  1.00  0.00     0.000 C 
BRANCH  17  18
ATOM     18  C   UNL     1     -21.734  -8.586 -28.227  1.00  0.00     0.000 C 
BRANCH  18  19
ATOM     19  C   UNL     1     -21.020  -7.651 -29.217  1.00  0.00     0.000 C 
BRANCH  19  20
ATOM     20  C   UNL     1     -22.013  -6.877 -30.102  1.00  0.00     0.000 C 
BRANCH  20  21
ATOM     21  C   UNL     1     -21.995  -5.364 -29.820  1.00  0.00     0.000 C 
BRANCH  21  22
ATOM     22  C   UNL     1     -22.208  -4.526 -31.098  1.00  0.00    -0.000 C 
BRANCH  22  23
ATOM     23  C   UNL     1     -22.830  -3.143 -30.845  1.00  0.00    -0.000 C 
BRANCH  23  24
ATOM     24  C   UNL     1     -22.728  -2.209 -32.064  1.00  0.00    -0.000 C 
BRANCH  24  25
ATOM     25  C   UNL     1     -22.649  -0.718 -31.682  1.00  0.00    -0.000 C 
BRANCH  25  26
ATOM     26  C   UNL     1     -23.398   0.246 -32.623  1.00  0.00    -0.000 C 
BRANCH  26  27
ATOM     27  C   UNL     1     -22.487   1.310 -33.250  1.00  0.00    -0.000 C 
BRANCH  27  28
ATOM     28  C   UNL     1     -23.029   1.767 -34.610  1.00  0.00    -0.000 C 
BRANCH  28  29
ATOM     29  C   UNL     1     -24.389   2.459 -34.457  1.00  0.00    -0.003 C 
ATOM     30  C   UNL     1     -24.221   3.968 -34.303  1.00  0.00     0.004 C 
ENDBRANCH  28  29
ENDBRANCH  27  28
ENDBRANCH  26  27
ENDBRANCH  25  26
ENDBRANCH  24  25
ENDBRANCH  23  24
ENDBRANCH  22  23
ENDBRANCH  21  22
ENDBRANCH  20  21
ENDBRANCH  19  20
ENDBRANCH  18  19
ENDBRANCH  17  18
ENDBRANCH   1  17
TORSDOF 26
ENDMDL
MODEL 4
REMARK VINA RESULT:     6.902      4.854     12.434
REMARK INTER + INTRA:          15.575
REMARK INTER:                  16.160
REMARK INTRA:                  -0.586
REMARK UNBOUND:                -1.818
REMARK SMILES CCCCCCCCCCCCCCCCCCCCCCCCCCCC(=O)[O-]
REMARK SMILES IDX 15 1 16 2 17 3 18 4 19 5 20 6 21 7 22 8 23 9 24 10 25 11
REMARK SMILES IDX 26 12 27 13 28 14 29 15 30 16 14 17 13 18 12 19 11 20 10 21
REMARK SMILES IDX 9 22 8 23 7 24 6 25 5 26 4 27 3 28 2 29 1 30
REMARK H PARENT
REMARK Flexibility Score: inf
ROOT
ATOM      1  C   UNL     1     -25.263   2.284 -33.001  1.00  0.00     0.000 C 
ENDROOT
BRANCH   1   2
ATOM      2  C   UNL     1     -25.027   3.532 -32.137  1.00  0.00     0.000 C 
BRANCH   2   3
ATOM      3  C   UNL     1     -25.229   4.839 -32.922  1.00  0.00     0.000 C 
BRANCH   3   4
ATOM      4  C   UNL     1     -26.325   4.735 -34.001  1.00  0.00     0.000 C 
BRANCH   4   5
ATOM      5  C   UNL     1     -27.673   4.161 -33.523  1.00  0.00     0.000 C 
BRANCH   5   6
ATOM      6  C   UNL     1     -28.852   4.547 -34.434  1.00  0.00     0.000 C 
BRANCH   6   7
ATOM      7  C   UNL     1     -28.391   5.125 -35.782  1.00  0.00     0.000 C 
BRANCH   7   8
ATOM      8  C   UNL     1     -28.505   4.114 -36.937  1.00  0.00     0.000 C 
BRANCH   8   9
ATOM      9  C   UNL     1     -28.762   4.795 -38.291  1.00  0.00     0.000 C 
BRANCH   9  10
ATOM     10  C   UNL     1     -27.465   5.125 -39.048  1.00  0.00     0.000 C 
BRANCH  10  11
ATOM     11  C   UNL     1     -26.206   4.838 -38.197  1.00  0.00     0.000 C 
BRANCH  11  12
ATOM     12  C   UNL     1     -24.922   4.698 -39.035  1.00  0.00     0.006 C 
BRANCH  12  13
ATOM     13  C   UNL     1     -23.996   3.563 -38.571  1.00  0.00     0.053 C 
BRANCH  13  14
ATOM     14  C   UNL     1     -22.681   4.074 -38.070  1.00  0.00     0.041 C 
ATOM     15  O   UNL     1     -22.611   4.667 -36.961  1.00  0.00    -0.550 OA
ATOM     16  O   UNL     1     -21.525   3.877 -38.818  1.00  0.00    -0.550 OA
ENDBRANCH  13  14
ENDBRANCH  12  13
ENDBRANCH  11  12
ENDBRANCH  10  11
ENDBRANCH   9  10
ENDBRANCH   8   9
ENDBRANCH   7   8
ENDBRANCH   6   7
ENDBRANCH   5   6
ENDBRANCH   4   5
ENDBRANCH   3   4
ENDBRANCH   2   3
ENDBRANCH   1   2
BRANCH   1  17
ATOM     17  C   UNL     1     -24.202   2.100 -34.096  1.00  0.00     0.000 C 
BRANCH  17  18
ATOM     18  C   UNL     1     -22.999   1.317 -33.556  1.00  0.00     0.000 C 
BRANCH  18  19
ATOM     19  C   UNL     1     -23.367   0.526 -32.292  1.00  0.00     0.000 C 
BRANCH  19  20
ATOM     20  C   UNL     1     -23.287  -0.995 -32.516  1.00  0.00     0.000 C 
BRANCH  20  21
ATOM     21  C   UNL     1     -23.081  -1.772 -31.203  1.00  0.00     0.000 C 
BRANCH  21  22
ATOM     22  C   UNL     1     -22.814  -3.272 -31.445  1.00  0.00    -0.000 C 
BRANCH  22  23
ATOM     23  C   UNL     1     -21.636  -3.839 -30.635  1.00  0.00    -0.000 C 
BRANCH  23  24
ATOM     24  C   UNL     1     -22.023  -5.072 -29.800  1.00  0.00    -0.000 C 
BRANCH  24  25
ATOM     25  C   UNL     1     -21.338  -6.368 -30.277  1.00  0.00    -0.000 C 
BRANCH  25  26
ATOM     26  C   UNL     1     -21.906  -7.673 -29.685  1.00  0.00    -0.000 C 
BRANCH  26  27
ATOM     27  C   UNL     1     -21.120  -8.175 -28.465  1.00  0.00    -0.000 C 
BRANCH  27  28
ATOM     28  C   UNL     1     -21.591  -7.479 -27.182  1.00  0.00    -0.000 C 
BRANCH  28  29
ATOM     29  C   UNL     1     -22.706  -8.279 -26.498  1.00  0.00    -0.003 C 
ATOM     30  C   UNL     1     -23.971  -8.298 -27.350  1.00  0.00     0.004 C 
ENDBRANCH  28  29
ENDBRANCH  27  28
ENDBRANCH  26  27
ENDBRANCH  25  26
ENDBRANCH  24  25
ENDBRANCH  23  24
ENDBRANCH  22  23
ENDBRANCH  21  22
ENDBRANCH  20  21
ENDBRANCH  19  20
ENDBRANCH  18  19
ENDBRANCH  17  18
ENDBRANCH   1  17
TORSDOF 26
ENDMDL
MODEL 5
REMARK VINA RESULT:     6.954      4.010     11.662
REMARK INTER + INTRA:          15.707
REMARK INTER:                  17.025
REMARK INTRA:                  -1.319
REMARK UNBOUND:                -1.818
REMARK SMILES CCCCCCCCCCCCCCCCCCCCCCCCCCCC(=O)[O-]
REMARK SMILES IDX 15 1 16 2 17 3 18 4 19 5 20 6 21 7 22 8 23 9 24 10 25 11
REMARK SMILES IDX 26 12 27 13 28 14 29 15 30 16 14 17 13 18 12 19 11 20 10 21
REMARK SMILES IDX 9 22 8 23 7 24 6 25 5 26 4 27 3 28 2 29 1 30
REMARK H PARENT
REMARK Flexibility Score: inf
ROOT
ATOM      1  C   UNL     1     -24.094   2.269 -33.741  1.00  0.00     0.000 C 
ENDROOT
BRANCH   1   2
ATOM      2  C   UNL     1     -25.226   2.635 -32.769  1.00  0.00     0.000 C 
BRANCH   2   3
ATOM      3  C   UNL     1     -25.404   4.156 -32.617  1.00  0.00     0.000 C 
BRANCH   3   4
ATOM      4  C   UNL     1     -26.688   4.685 -33.285  1.00  0.00     0.000 C 
BRANCH   4   5
ATOM      5  C   UNL     1     -26.638   4.800 -34.821  1.00  0.00     0.000 C 
BRANCH   5   6
ATOM      6  C   UNL     1     -25.225   4.597 -35.397  1.00  0.00     0.000 C 
BRANCH   6   7
ATOM      7  C   UNL     1     -25.246   4.130 -36.861  1.00  0.00     0.000 C 
BRANCH   7   8
ATOM      8  C   UNL     1     -24.546   5.116 -37.813  1.00  0.00     0.000 C 
BRANCH   8   9
ATOM      9  C   UNL     1     -23.567   4.414 -38.770  1.00  0.00     0.000 C 
BRANCH   9  10
ATOM     10  C   UNL     1     -22.268   3.976 -38.074  1.00  0.00     0.000 C 
BRANCH  10  11
ATOM     11  C   UNL     1     -21.922   2.498 -38.364  1.00  0.00     0.000 C 
BRANCH  11  12
ATOM     12  C   UNL     1     -23.024   1.515 -37.925  1.00  0.00     0.006 C 
BRANCH  12  13
ATOM     13  C   UNL     1     -23.386   0.468 -38.990  1.00  0.00     0.053 C 
BRANCH  13  14
ATOM     14  C   UNL     1     -22.637  -0.814 -38.799  1.00  0.00     0.041 C 
ATOM     15  O   UNL     1     -21.470  -0.804 -38.324  1.00  0.00    -0.550 OA
ATOM     16  O   UNL     1     -23.236  -2.027 -39.125  1.00  0.00    -0.550 OA
ENDBRANCH  13  14
ENDBRANCH  12  13
ENDBRANCH  11  12
ENDBRANCH  10  11
ENDBRANCH   9  10
ENDBRANCH   8   9
ENDBRANCH   7   8
ENDBRANCH   6   7
ENDBRANCH   5   6
ENDBRANCH   4   5
ENDBRANCH   3   4
ENDBRANCH   2   3
ENDBRANCH   1   2
BRANCH   1  17
ATOM     17  C   UNL     1     -23.688   0.789 -33.663  1.00  0.00     0.000 C 
BRANCH  17  18
ATOM     18  C   UNL     1     -22.216   0.654 -33.257  1.00  0.00     0.000 C 
BRANCH  18  19
ATOM     19  C   UNL     1     -22.071  -0.064 -31.906  1.00  0.00     0.000 C 
BRANCH  19  20
ATOM     20  C   UNL     1     -23.213  -1.065 -31.655  1.00  0.00     0.000 C 
BRANCH  20  21
ATOM     21  C   UNL     1     -22.781  -2.522 -31.903  1.00  0.00     0.000 C 
BRANCH  21  22
ATOM     22  C   UNL     1     -22.622  -3.318 -30.592  1.00  0.00    -0.000 C 
BRANCH  22  23
ATOM     23  C   UNL     1     -21.693  -4.538 -30.706  1.00  0.00    -0.000 C 
BRANCH  23  24
ATOM     24  C   UNL     1     -22.225  -5.768 -29.951  1.00  0.00    -0.000 C 
BRANCH  24  25
ATOM     25  C   UNL     1     -21.657  -7.099 -30.482  1.00  0.00    -0.000 C 
BRANCH  25  26
ATOM     26  C   UNL     1     -21.170  -8.087 -29.403  1.00  0.00    -0.000 C 
BRANCH  26  27
ATOM     27  C   UNL     1     -21.732  -7.783 -28.007  1.00  0.00    -0.000 C 
BRANCH  27  28
ATOM     28  C   UNL     1     -22.987  -8.619 -27.727  1.00  0.00    -0.000 C 
BRANCH  28  29
ATOM     29  C   UNL     1     -23.659  -8.182 -26.419  1.00  0.00    -0.003 C 
ATOM     30  C   UNL     1     -24.967  -8.935 -26.197  1.00  0.00     0.004 C 
ENDBRANCH  28  29
ENDBRANCH  27  28
ENDBRANCH  26  27
ENDBRANCH  25  26
ENDBRANCH  24  25
ENDBRANCH  23  24
ENDBRANCH  22  23
ENDBRANCH  21  22
ENDBRANCH  20  21
ENDBRANCH  19  20
ENDBRANCH  18  19
ENDBRANCH  17  18
ENDBRANCH   1  17
TORSDOF 26
ENDMDL
MODEL 6
REMARK VINA RESULT:     6.971      4.848     12.573
REMARK INTER + INTRA:          15.748
REMARK INTER:                  16.567
REMARK INTRA:                  -0.819
REMARK UNBOUND:                -1.818
REMARK SMILES CCCCCCCCCCCCCCCCCCCCCCCCCCCC(=O)[O-]
REMARK SMILES IDX 15 1 16 2 17 3 18 4 19 5 20 6 21 7 22 8 23 9 24 10 25 11
REMARK SMILES IDX 26 12 27 13 28 14 29 15 30 16 14 17 13 18 12 19 11 20 10 21
REMARK SMILES IDX 9 22 8 23 7 24 6 25 5 26 4 27 3 28 2 29 1 30
REMARK H PARENT
REMARK Flexibility Score: inf
ROOT
ATOM      1  C   UNL     1     -23.408   1.168 -33.879  1.00  0.00     0.000 C 
ENDROOT
BRANCH   1   2
ATOM      2  C   UNL     1     -22.330   2.145 -34.372  1.00  0.00     0.000 C 
BRANCH   2   3
ATOM      3  C   UNL     1     -22.441   3.529 -33.711  1.00  0.00     0.000 C 
BRANCH   3   4
ATOM      4  C   UNL     1     -23.063   4.594 -34.634  1.00  0.00     0.000 C 
BRANCH   4   5
ATOM      5  C   UNL     1     -24.453   5.110 -34.210  1.00  0.00     0.000 C 
BRANCH   5   6
ATOM      6  C   UNL     1     -25.325   4.026 -33.552  1.00  0.00     0.000 C 
BRANCH   6   7
ATOM      7  C   UNL     1     -26.313   3.384 -34.539  1.00  0.00     0.000 C 
BRANCH   7   8
ATOM      8  C   UNL     1     -27.782   3.685 -34.196  1.00  0.00     0.000 C 
BRANCH   8   9
ATOM      9  C   UNL     1     -28.260   5.024 -34.783  1.00  0.00     0.000 C 
BRANCH   9  10
ATOM     10  C   UNL     1     -28.118   5.088 -36.312  1.00  0.00     0.000 C 
BRANCH  10  11
ATOM     11  C   UNL     1     -26.901   4.280 -36.818  1.00  0.00     0.000 C 
BRANCH  11  12
ATOM     12  C   UNL     1     -26.114   4.994 -37.933  1.00  0.00     0.006 C 
BRANCH  12  13
ATOM     13  C   UNL     1     -24.609   5.122 -37.648  1.00  0.00     0.053 C 
BRANCH  13  14
ATOM     14  C   UNL     1     -23.792   4.199 -38.498  1.00  0.00     0.041 C 
ATOM     15  O   UNL     1     -24.155   3.004 -38.668  1.00  0.00    -0.550 OA
ATOM     16  O   UNL     1     -22.640   4.663 -39.123  1.00  0.00    -0.550 OA
ENDBRANCH  13  14
ENDBRANCH  12  13
ENDBRANCH  11  12
ENDBRANCH  10  11
ENDBRANCH   9  10
ENDBRANCH   8   9
ENDBRANCH   7   8
ENDBRANCH   6   7
ENDBRANCH   5   6
ENDBRANCH   4   5
ENDBRANCH   3   4
ENDBRANCH   2   3
ENDBRANCH   1   2
BRANCH   1  17
ATOM     17  C   UNL     1     -23.502   1.099 -32.347  1.00  0.00     0.000 C 
BRANCH  17  18
ATOM     18  C   UNL     1     -23.798  -0.334 -31.888  1.00  0.00     0.000 C 
BRANCH  18  19
ATOM     19  C   UNL     1     -22.659  -1.292 -32.272  1.00  0.00     0.000 C 
BRANCH  19  20
ATOM     20  C   UNL     1     -22.345  -2.298 -31.150  1.00  0.00     0.000 C 
BRANCH  20  21
ATOM     21  C   UNL     1     -22.802  -3.726 -31.497  1.00  0.00     0.000 C 
BRANCH  21  22
ATOM     22  C   UNL     1     -22.132  -4.790 -30.602  1.00  0.00    -0.000 C 
BRANCH  22  23
ATOM     23  C   UNL     1     -22.771  -6.186 -30.701  1.00  0.00    -0.000 C 
BRANCH  23  24
ATOM     24  C   UNL     1     -21.785  -7.319 -30.370  1.00  0.00    -0.000 C 
BRANCH  24  25
ATOM     25  C   UNL     1     -20.810  -6.962 -29.231  1.00  0.00    -0.000 C 
BRANCH  25  26
ATOM     26  C   UNL     1     -20.833  -7.915 -28.019  1.00  0.00    -0.000 C 
BRANCH  26  27
ATOM     27  C   UNL     1     -21.987  -7.629 -27.046  1.00  0.00    -0.000 C 
BRANCH  27  28
ATOM     28  C   UNL     1     -23.015  -8.767 -27.063  1.00  0.00    -0.000 C 
BRANCH  28  29
ATOM     29  C   UNL     1     -24.181  -8.471 -26.112  1.00  0.00    -0.003 C 
ATOM     30  C   UNL     1     -25.370  -9.381 -26.403  1.00  0.00     0.004 C 
ENDBRANCH  28  29
ENDBRANCH  27  28
ENDBRANCH  26  27
ENDBRANCH  25  26
ENDBRANCH  24  25
ENDBRANCH  23  24
ENDBRANCH  22  23
ENDBRANCH  21  22
ENDBRANCH  20  21
ENDBRANCH  19  20
ENDBRANCH  18  19
ENDBRANCH  17  18
ENDBRANCH   1  17
TORSDOF 26
ENDMDL
MODEL 7
REMARK VINA RESULT:     7.309      3.871      8.259
REMARK INTER + INTRA:          16.601
REMARK INTER:                  17.666
REMARK INTRA:                  -1.065
REMARK UNBOUND:                -1.818
REMARK SMILES CCCCCCCCCCCCCCCCCCCCCCCCCCCC(=O)[O-]
REMARK SMILES IDX 15 1 16 2 17 3 18 4 19 5 20 6 21 7 22 8 23 9 24 10 25 11
REMARK SMILES IDX 26 12 27 13 28 14 29 15 30 16 14 17 13 18 12 19 11 20 10 21
REMARK SMILES IDX 9 22 8 23 7 24 6 25 5 26 4 27 3 28 2 29 1 30
REMARK H PARENT
REMARK Flexibility Score: inf
ROOT
ATOM      1  C   UNL     1     -22.082  -6.819 -30.152  1.00  0.00     0.000 C 
ENDROOT
BRANCH   1   2
ATOM      2  C   UNL     1     -21.212  -7.656 -29.201  1.00  0.00     0.000 C 
BRANCH   2   3
ATOM      3  C   UNL     1     -21.747  -7.657 -27.759  1.00  0.00     0.000 C 
BRANCH   3   4
ATOM      4  C   UNL     1     -22.621  -8.885 -27.437  1.00  0.00     0.000 C 
BRANCH   4   5
ATOM      5  C   UNL     1     -24.020  -8.573 -26.871  1.00  0.00     0.000 C 
BRANCH   5   6
ATOM      6  C   UNL     1     -24.287  -9.245 -25.513  1.00  0.00     0.000 C 
BRANCH   6   7
ATOM      7  C   UNL     1     -24.984 -10.607 -25.655  1.00  0.00     0.000 C 
BRANCH   7   8
ATOM      8  C   UNL     1     -24.079 -11.787 -25.260  1.00  0.00     0.000 C 
BRANCH   8   9
ATOM      9  C   UNL     1     -24.881 -13.052 -24.914  1.00  0.00     0.000 C 
BRANCH   9  10
ATOM     10  C   UNL     1     -24.144 -13.970 -23.923  1.00  0.00     0.000 C 
BRANCH  10  11
ATOM     11  C   UNL     1     -25.093 -14.545 -22.847  1.00  0.00     0.000 C 
BRANCH  11  12
ATOM     12  C   UNL     1     -24.353 -15.121 -21.625  1.00  0.00     0.006 C 
BRANCH  12  13
ATOM     13  C   UNL     1     -23.118 -14.309 -21.204  1.00  0.00     0.053 C 
BRANCH  13  14
ATOM     14  C   UNL     1     -22.819 -14.453 -19.743  1.00  0.00     0.041 C 
ATOM     15  O   UNL     1     -23.734 -14.307 -18.890  1.00  0.00    -0.550 OA
ATOM     16  O   UNL     1     -21.532 -14.770 -19.324  1.00  0.00    -0.550 OA
ENDBRANCH  13  14
ENDBRANCH  12  13
ENDBRANCH  11  12
ENDBRANCH  10  11
ENDBRANCH   9  10
ENDBRANCH   8   9
ENDBRANCH   7   8
ENDBRANCH   6   7
ENDBRANCH   5   6
ENDBRANCH   4   5
ENDBRANCH   3   4
ENDBRANCH   2   3
ENDBRANCH   1   2
BRANCH   1  17
ATOM     17  C   UNL     1     -21.988  -5.310 -29.882  1.00  0.00     0.000 C 
BRANCH  17  18
ATOM     18  C   UNL     1     -22.237  -4.515 -31.170  1.00  0.00     0.000 C 
BRANCH  18  19
ATOM     19  C   UNL     1     -22.648  -3.066 -30.863  1.00  0.00     0.000 C 
BRANCH  19  20
ATOM     20  C   UNL     1     -22.414  -2.131 -32.063  1.00  0.00     0.000 C 
BRANCH  20  21
ATOM     21  C   UNL     1     -23.274  -0.857 -31.992  1.00  0.00     0.000 C 
BRANCH  21  22
ATOM     22  C   UNL     1     -22.721   0.275 -32.884  1.00  0.00    -0.000 C 
BRANCH  22  23
ATOM     23  C   UNL     1     -23.718   1.418 -33.138  1.00  0.00    -0.000 C 
BRANCH  23  24
ATOM     24  C   UNL     1     -23.050   2.675 -33.720  1.00  0.00    -0.000 C 
BRANCH  24  25
ATOM     25  C   UNL     1     -23.690   3.987 -33.224  1.00  0.00    -0.000 C 
BRANCH  25  26
ATOM     26  C   UNL     1     -24.197   4.934 -34.330  1.00  0.00    -0.000 C 
BRANCH  26  27
ATOM     27  C   UNL     1     -25.661   4.681 -34.719  1.00  0.00    -0.000 C 
BRANCH  27  28
ATOM     28  C   UNL     1     -26.490   4.264 -33.498  1.00  0.00    -0.000 C 
BRANCH  28  29
ATOM     29  C   UNL     1     -27.992   4.382 -33.785  1.00  0.00    -0.003 C 
ATOM     30  C   UNL     1     -28.283   4.189 -35.270  1.00  0.00     0.004 C 
ENDBRANCH  28  29
ENDBRANCH  27  28
ENDBRANCH  26  27
ENDBRANCH  25  26
ENDBRANCH  24  25
ENDBRANCH  23  24
ENDBRANCH  22  23
ENDBRANCH  21  22
ENDBRANCH  20  21
ENDBRANCH  19  20
ENDBRANCH  18  19
ENDBRANCH  17  18
ENDBRANCH   1  17
TORSDOF 26
ENDMDL
MODEL 8
REMARK VINA RESULT:     7.326      1.476      2.827
REMARK INTER + INTRA:          16.643
REMARK INTER:                  17.341
REMARK INTRA:                  -0.698
REMARK UNBOUND:                -1.818
REMARK SMILES CCCCCCCCCCCCCCCCCCCCCCCCCCCC(=O)[O-]
REMARK SMILES IDX 15 1 16 2 17 3 18 4 19 5 20 6 21 7 22 8 23 9 24 10 25 11
REMARK SMILES IDX 26 12 27 13 28 14 29 15 30 16 14 17 13 18 12 19 11 20 10 21
REMARK SMILES IDX 9 22 8 23 7 24 6 25 5 26 4 27 3 28 2 29 1 30
REMARK H PARENT
REMARK Flexibility Score: inf
ROOT
ATOM      1  C   UNL     1     -24.948   3.432 -33.464  1.00  0.00     0.000 C 
ENDROOT
BRANCH   1   2
ATOM      2  C   UNL     1     -23.535   3.585 -32.879  1.00  0.00     0.000 C 
BRANCH   2   3
ATOM      3  C   UNL     1     -22.437   3.174 -33.874  1.00  0.00     0.000 C 
BRANCH   3   4
ATOM      4  C   UNL     1     -21.842   1.783 -33.580  1.00  0.00     0.000 C 
BRANCH   4   5
ATOM      5  C   UNL     1     -22.846   0.614 -33.599  1.00  0.00     0.000 C 
BRANCH   5   6
ATOM      6  C   UNL     1     -23.039  -0.040 -32.219  1.00  0.00     0.000 C 
BRANCH   6   7
ATOM      7  C   UNL     1     -23.026  -1.575 -32.287  1.00  0.00     0.000 C 
BRANCH   7   8
ATOM      8  C   UNL     1     -22.711  -2.231 -30.931  1.00  0.00     0.000 C 
BRANCH   8   9
ATOM      9  C   UNL     1     -21.841  -3.491 -31.075  1.00  0.00     0.000 C 
BRANCH   9  10
ATOM     10  C   UNL     1     -22.527  -4.753 -30.527  1.00  0.00     0.000 C 
BRANCH  10  11
ATOM     11  C   UNL     1     -21.757  -6.042 -30.897  1.00  0.00     0.000 C 
BRANCH  11  12
ATOM     12  C   UNL     1     -22.299  -7.301 -30.195  1.00  0.00     0.006 C 
BRANCH  12  13
ATOM     13  C   UNL     1     -21.318  -7.925 -29.191  1.00  0.00     0.053 C 
BRANCH  13  14
ATOM     14  C   UNL     1     -21.729  -7.679 -27.772  1.00  0.00     0.041 C 
ATOM     15  O   UNL     1     -21.051  -6.911 -27.039  1.00  0.00    -0.550 OA
ATOM     16  O   UNL     1     -22.874  -8.282 -27.263  1.00  0.00    -0.550 OA
ENDBRANCH  13  14
ENDBRANCH  12  13
ENDBRANCH  11  12
ENDBRANCH  10  11
ENDBRANCH   9  10
ENDBRANCH   8   9
ENDBRANCH   7   8
ENDBRANCH   6   7
ENDBRANCH   5   6
ENDBRANCH   4   5
ENDBRANCH   3   4
ENDBRANCH   2   3
ENDBRANCH   1   2
BRANCH   1  17
ATOM     17  C   UNL     1     -26.040   4.033 -32.567  1.00  0.00     0.000 C 
BRANCH  17  18
ATOM     18  C   UNL     1     -26.827   5.110 -33.322  1.00  0.00     0.000 C 
BRANCH  18  19
ATOM     19  C   UNL     1     -27.066   4.707 -34.786  1.00  0.00     0.000 C 
BRANCH  19  20
ATOM     20  C   UNL     1     -25.752   4.598 -35.579  1.00  0.00     0.000 C 
BRANCH  20  21
ATOM     21  C   UNL     1     -25.988   4.509 -37.098  1.00  0.00     0.000 C 
BRANCH  21  22
ATOM     22  C   UNL     1     -24.829   5.124 -37.909  1.00  0.00    -0.000 C 
BRANCH  22  23
ATOM     23  C   UNL     1     -23.725   4.122 -38.285  1.00  0.00    -0.000 C 
BRANCH  23  24
ATOM     24  C   UNL     1     -23.943   2.731 -37.664  1.00  0.00    -0.000 C 
BRANCH  24  25
ATOM     25  C   UNL     1     -22.630   1.959 -37.429  1.00  0.00    -0.000 C 
BRANCH  25  26
ATOM     26  C   UNL     1     -22.270   0.923 -38.513  1.00  0.00    -0.000 C 
BRANCH  26  27
ATOM     27  C   UNL     1     -23.430  -0.021 -38.857  1.00  0.00    -0.000 C 
BRANCH  27  28
ATOM     28  C   UNL     1     -22.981  -1.486 -38.805  1.00  0.00    -0.000 C 
BRANCH  28  29
ATOM     29  C   UNL     1     -21.483  -1.593 -38.496  1.00  0.00    -0.003 C 
ATOM     30  C   UNL     1     -21.228  -2.567 -37.349  1.00  0.00     0.004 C 
ENDBRANCH  28  29
ENDBRANCH  27  28
ENDBRANCH  26  27
ENDBRANCH  25  26
ENDBRANCH  24  25
ENDBRANCH  23  24
ENDBRANCH  22  23
ENDBRANCH  21  22
ENDBRANCH  20  21
ENDBRANCH  19  20
ENDBRANCH  18  19
ENDBRANCH  17  18
ENDBRANCH   1  17
TORSDOF 26
ENDMDL
MODEL 9
REMARK VINA RESULT:     7.335      3.858     11.784
REMARK INTER + INTRA:          16.666
REMARK INTER:                  17.149
REMARK INTRA:                  -0.483
REMARK UNBOUND:                -1.818
REMARK SMILES CCCCCCCCCCCCCCCCCCCCCCCCCCCC(=O)[O-]
REMARK SMILES IDX 15 1 16 2 17 3 18 4 19 5 20 6 21 7 22 8 23 9 24 10 25 11
REMARK SMILES IDX 26 12 27 13 28 14 29 15 30 16 14 17 13 18 12 19 11 20 10 21
REMARK SMILES IDX 9 22 8 23 7 24 6 25 5 26 4 27 3 28 2 29 1 30
REMARK H PARENT
REMARK Flexibility Score: inf
ROOT
ATOM      1  C   UNL     1     -22.728   2.679 -35.570  1.00  0.00     0.000 C 
ENDROOT
BRANCH   1   2
ATOM      2  C   UNL     1     -23.392   4.039 -35.836  1.00  0.00     0.000 C 
BRANCH   2   3
ATOM      3  C   UNL     1     -22.476   5.001 -36.611  1.00  0.00     0.000 C 
BRANCH   3   4
ATOM      4  C   UNL     1     -22.790   5.053 -38.119  1.00  0.00     0.000 C 
BRANCH   4   5
ATOM      5  C   UNL     1     -23.999   4.212 -38.575  1.00  0.00     0.000 C 
BRANCH   5   6
ATOM      6  C   UNL     1     -25.277   5.047 -38.768  1.00  0.00     0.000 C 
BRANCH   6   7
ATOM      7  C   UNL     1     -26.508   4.179 -39.077  1.00  0.00     0.000 C 
BRANCH   7   8
ATOM      8  C   UNL     1     -27.291   3.780 -37.813  1.00  0.00     0.000 C 
BRANCH   8   9
ATOM      9  C   UNL     1     -28.326   4.841 -37.404  1.00  0.00     0.000 C 
BRANCH   9  10
ATOM     10  C   UNL     1     -28.322   5.125 -35.893  1.00  0.00     0.000 C 
BRANCH  10  11
ATOM     11  C   UNL     1     -26.941   4.853 -35.254  1.00  0.00     0.000 C 
BRANCH  11  12
ATOM     12  C   UNL     1     -27.021   4.482 -33.761  1.00  0.00     0.006 C 
BRANCH  12  13
ATOM     13  C   UNL     1     -26.125   3.298 -33.365  1.00  0.00     0.053 C 
BRANCH  13  14
ATOM     14  C   UNL     1     -25.179   3.652 -32.259  1.00  0.00     0.041 C 
ATOM     15  O   UNL     1     -24.028   3.142 -32.220  1.00  0.00    -0.550 OA
ATOM     16  O   UNL     1     -25.559   4.565 -31.281  1.00  0.00    -0.550 OA
ENDBRANCH  13  14
ENDBRANCH  12  13
ENDBRANCH  11  12
ENDBRANCH  10  11
ENDBRANCH   9  10
ENDBRANCH   8   9
ENDBRANCH   7   8
ENDBRANCH   6   7
ENDBRANCH   5   6
ENDBRANCH   4   5
ENDBRANCH   3   4
ENDBRANCH   2   3
ENDBRANCH   1   2
BRANCH   1  17
ATOM     17  C   UNL     1     -23.039   2.120 -34.173  1.00  0.00     0.000 C 
BRANCH  17  18
ATOM     18  C   UNL     1     -22.538   0.677 -34.046  1.00  0.00     0.000 C 
BRANCH  18  19
ATOM     19  C   UNL     1     -22.951   0.056 -32.702  1.00  0.00     0.000 C 
BRANCH  19  20
ATOM     20  C   UNL     1     -22.404  -1.372 -32.530  1.00  0.00     0.000 C 
BRANCH  20  21
ATOM     21  C   UNL     1     -22.898  -2.038 -31.233  1.00  0.00     0.000 C 
BRANCH  21  22
ATOM     22  C   UNL     1     -23.117  -3.557 -31.401  1.00  0.00    -0.000 C 
BRANCH  22  23
ATOM     23  C   UNL     1     -22.702  -4.390 -30.176  1.00  0.00    -0.000 C 
BRANCH  23  24
ATOM     24  C   UNL     1     -22.016  -5.712 -30.558  1.00  0.00    -0.000 C 
BRANCH  24  25
ATOM     25  C   UNL     1     -21.213  -6.336 -29.399  1.00  0.00    -0.000 C 
BRANCH  25  26
ATOM     26  C   UNL     1     -21.311  -7.869 -29.277  1.00  0.00    -0.000 C 
BRANCH  26  27
ATOM     27  C   UNL     1     -21.342  -8.360 -27.822  1.00  0.00    -0.000 C 
BRANCH  27  28
ATOM     28  C   UNL     1     -22.587  -7.840 -27.094  1.00  0.00    -0.000 C 
BRANCH  28  29
ATOM     29  C   UNL     1     -23.826  -8.667 -27.460  1.00  0.00    -0.003 C 
ATOM     30  C   UNL     1     -24.762  -8.811 -26.264  1.00  0.00     0.004 C 
ENDBRANCH  28  29
ENDBRANCH  27  28
ENDBRANCH  26  27
ENDBRANCH  25  26
ENDBRANCH  24  25
ENDBRANCH  23  24
ENDBRANCH  22  23
ENDBRANCH  21  22
ENDBRANCH  20  21
ENDBRANCH  19  20
ENDBRANCH  18  19
ENDBRANCH  17  18
ENDBRANCH   1  17
TORSDOF 26
ENDMDL
