MODEL 1
REMARK VINA RESULT:    -3.440      0.000      0.000
REMARK INTER + INTRA:          -6.049
REMARK INTER:                  -5.452
REMARK INTRA:                  -0.597
REMARK UNBOUND:                -0.597
REMARK SMILES CCCCCCCCCCCC(=O)[O-]
REMARK SMILES IDX 7 1 8 2 9 3 10 4 11 5 12 6 13 7 14 8 6 9 5 10 4 11 3 12 2 13
REMARK SMILES IDX 1 14
REMARK H PARENT
REMARK Flexibility Score: inf
ROOT
ATOM      1  C   UNL     1       7.049   1.861  -5.724  1.00  0.00     0.000 C 
ENDROOT
BRANCH   1   2
ATOM      2  C   UNL     1       6.009   0.732  -5.754  1.00  0.00     0.000 C 
BRANCH   2   3
ATOM      3  C   UNL     1       5.528   0.318  -4.352  1.00  0.00     0.000 C 
BRANCH   3   4
ATOM      4  C   UNL     1       5.678  -1.180  -4.028  1.00  0.00     0.006 C 
BRANCH   4   5
ATOM      5  C   UNL     1       4.494  -2.021  -4.522  1.00  0.00     0.053 C 
BRANCH   5   6
ATOM      6  C   UNL     1       3.397  -2.028  -3.503  1.00  0.00     0.041 C 
ATOM      7  O   UNL     1       2.205  -2.233  -3.857  1.00  0.00    -0.550 OA
ATOM      8  O   UNL     1       3.683  -1.759  -2.171  1.00  0.00    -0.550 OA
ENDBRANCH   5   6
ENDBRANCH   4   5
ENDBRANCH   3   4
ENDBRANCH   2   3
ENDBRANCH   1   2
BRANCH   1   9
ATOM      9  C   UNL     1       7.813   1.868  -4.393  1.00  0.00     0.000 C 
BRANCH   9  10
ATOM     10  C   UNL     1       7.846   3.256  -3.729  1.00  0.00    -0.000 C 
BRANCH  10  11
ATOM     11  C   UNL     1       6.508   4.023  -3.743  1.00  0.00    -0.000 C 
BRANCH  11  12
ATOM     12  C   UNL     1       6.555   5.430  -3.122  1.00  0.00    -0.000 C 
BRANCH  12  13
ATOM     13  C   UNL     1       5.417   5.680  -2.123  1.00  0.00    -0.003 C 
ATOM     14  C   UNL     1       5.962   5.964  -0.727  1.00  0.00     0.004 C 
ENDBRANCH  12  13
ENDBRANCH  11  12
ENDBRANCH  10  11
ENDBRANCH   9  10
ENDBRANCH   1   9
TORSDOF 10
ENDMDL
MODEL 2
REMARK VINA RESULT:    -3.415      1.319      1.829
REMARK INTER + INTRA:          -6.009
REMARK INTER:                  -5.506
REMARK INTRA:                  -0.503
REMARK UNBOUND:                -0.597
REMARK SMILES CCCCCCCCCCCC(=O)[O-]
REMARK SMILES IDX 7 1 8 2 9 3 10 4 11 5 12 6 13 7 14 8 6 9 5 10 4 11 3 12 2 13
REMARK SMILES IDX 1 14
REMARK H PARENT
REMARK Flexibility Score: inf
ROOT
ATOM      1  C   UNL     1       5.613   0.413  -5.572  1.00  0.00     0.000 C 
ENDROOT
BRANCH   1   2
ATOM      2  C   UNL     1       5.451   0.015  -4.098  1.00  0.00     0.000 C 
BRANCH   2   3
ATOM      3  C   UNL     1       5.993  -1.393  -3.792  1.00  0.00     0.000 C 
BRANCH   3   4
ATOM      4  C   UNL     1       5.026  -2.309  -3.019  1.00  0.00     0.006 C 
BRANCH   4   5
ATOM      5  C   UNL     1       3.559  -1.877  -3.148  1.00  0.00     0.053 C 
BRANCH   5   6
ATOM      6  C   UNL     1       2.876  -2.662  -4.224  1.00  0.00     0.041 C 
ATOM      7  O   UNL     1       3.168  -3.874  -4.406  1.00  0.00    -0.550 OA
ATOM      8  O   UNL     1       1.953  -2.044  -5.057  1.00  0.00    -0.550 OA
ENDBRANCH   5   6
ENDBRANCH   4   5
ENDBRANCH   3   4
ENDBRANCH   2   3
ENDBRANCH   1   2
BRANCH   1   9
ATOM      9  C   UNL     1       6.605   1.575  -5.721  1.00  0.00     0.000 C 
BRANCH   9  10
ATOM     10  C   UNL     1       6.865   2.313  -4.395  1.00  0.00    -0.000 C 
BRANCH  10  11
ATOM     11  C   UNL     1       6.847   3.853  -4.486  1.00  0.00    -0.000 C 
BRANCH  11  12
ATOM     12  C   UNL     1       6.938   4.587  -3.136  1.00  0.00    -0.000 C 
BRANCH  12  13
ATOM     13  C   UNL     1       6.231   5.949  -3.149  1.00  0.00    -0.003 C 
ATOM     14  C   UNL     1       4.827   5.846  -2.562  1.00  0.00     0.004 C 
ENDBRANCH  12  13
ENDBRANCH  11  12
ENDBRANCH  10  11
ENDBRANCH   9  10
ENDBRANCH   1   9
TORSDOF 10
ENDMDL
MODEL 3
REMARK VINA RESULT:    -3.285      2.967      4.663
REMARK INTER + INTRA:          -5.802
REMARK INTER:                  -5.088
REMARK INTRA:                  -0.714
REMARK UNBOUND:                -0.597
REMARK SMILES CCCCCCCCCCCC(=O)[O-]
REMARK SMILES IDX 7 1 8 2 9 3 10 4 11 5 12 6 13 7 14 8 6 9 5 10 4 11 3 12 2 13
REMARK SMILES IDX 1 14
REMARK H PARENT
REMARK Flexibility Score: inf
ROOT
ATOM      1  C   UNL     1       6.325   1.556  -5.507  1.00  0.00     0.000 C 
ENDROOT
BRANCH   1   2
ATOM      2  C   UNL     1       6.634   0.401  -4.544  1.00  0.00     0.000 C 
BRANCH   2   3
ATOM      3  C   UNL     1       5.375  -0.365  -4.100  1.00  0.00     0.000 C 
BRANCH   3   4
ATOM      4  C   UNL     1       5.218  -1.770  -4.711  1.00  0.00     0.006 C 
BRANCH   4   5
ATOM      5  C   UNL     1       3.873  -1.967  -5.422  1.00  0.00     0.053 C 
BRANCH   5   6
ATOM      6  C   UNL     1       2.948  -2.783  -4.574  1.00  0.00     0.041 C 
ATOM      7  O   UNL     1       2.791  -4.011  -4.809  1.00  0.00    -0.550 OA
ATOM      8  O   UNL     1       2.222  -2.179  -3.556  1.00  0.00    -0.550 OA
ENDBRANCH   5   6
ENDBRANCH   4   5
ENDBRANCH   3   4
ENDBRANCH   2   3
ENDBRANCH   1   2
BRANCH   1   9
ATOM      9  C   UNL     1       6.479   1.110  -6.967  1.00  0.00     0.000 C 
BRANCH   9  10
ATOM     10  C   UNL     1       5.132   0.785  -7.638  1.00  0.00    -0.000 C 
BRANCH  10  11
ATOM     11  C   UNL     1       4.704   1.756  -8.757  1.00  0.00    -0.000 C 
BRANCH  11  12
ATOM     12  C   UNL     1       3.223   1.667  -9.168  1.00  0.00    -0.000 C 
BRANCH  12  13
ATOM     13  C   UNL     1       2.641   3.020  -9.599  1.00  0.00    -0.003 C 
ATOM     14  C   UNL     1       3.674   4.134  -9.454  1.00  0.00     0.004 C 
ENDBRANCH  12  13
ENDBRANCH  11  12
ENDBRANCH  10  11
ENDBRANCH   9  10
ENDBRANCH   1   9
TORSDOF 10
ENDMDL
MODEL 4
REMARK VINA RESULT:    -3.264      9.360     12.579
REMARK INTER + INTRA:          -5.769
REMARK INTER:                  -4.421
REMARK INTRA:                  -1.348
REMARK UNBOUND:                -0.597
REMARK SMILES CCCCCCCCCCCC(=O)[O-]
REMARK SMILES IDX 7 1 8 2 9 3 10 4 11 5 12 6 13 7 14 8 6 9 5 10 4 11 3 12 2 13
REMARK SMILES IDX 1 14
REMARK H PARENT
REMARK Flexibility Score: inf
ROOT
ATOM      1  C   UNL     1      -6.160  -1.713  -3.243  1.00  0.00     0.000 C 
ENDROOT
BRANCH   1   2
ATOM      2  C   UNL     1      -5.064  -1.307  -4.240  1.00  0.00     0.000 C 
BRANCH   2   3
ATOM      3  C   UNL     1      -5.560  -1.266  -5.696  1.00  0.00     0.000 C 
BRANCH   3   4
ATOM      4  C   UNL     1      -4.585  -1.855  -6.733  1.00  0.00     0.006 C 
BRANCH   4   5
ATOM      5  C   UNL     1      -3.421  -0.912  -7.063  1.00  0.00     0.053 C 
BRANCH   5   6
ATOM      6  C   UNL     1      -2.129  -1.483  -6.568  1.00  0.00     0.041 C 
ATOM      7  O   UNL     1      -2.028  -2.719  -6.344  1.00  0.00    -0.550 OA
ATOM      8  O   UNL     1      -1.052  -0.647  -6.307  1.00  0.00    -0.550 OA
ENDBRANCH   5   6
ENDBRANCH   4   5
ENDBRANCH   3   4
ENDBRANCH   2   3
ENDBRANCH   1   2
BRANCH   1   9
ATOM      9  C   UNL     1      -7.351  -2.355  -3.968  1.00  0.00     0.000 C 
BRANCH   9  10
ATOM     10  C   UNL     1      -7.395  -3.885  -3.807  1.00  0.00    -0.000 C 
BRANCH  10  11
ATOM     11  C   UNL     1      -6.682  -4.683  -4.918  1.00  0.00    -0.000 C 
BRANCH  11  12
ATOM     12  C   UNL     1      -5.297  -5.237  -4.536  1.00  0.00    -0.000 C 
BRANCH  12  13
ATOM     13  C   UNL     1      -5.057  -5.249  -3.020  1.00  0.00    -0.003 C 
ATOM     14  C   UNL     1      -3.777  -4.502  -2.659  1.00  0.00     0.004 C 
ENDBRANCH  12  13
ENDBRANCH  11  12
ENDBRANCH  10  11
ENDBRANCH   9  10
ENDBRANCH   1   9
TORSDOF 10
ENDMDL
MODEL 5
REMARK VINA RESULT:    -3.247      3.685      5.530
REMARK INTER + INTRA:          -5.743
REMARK INTER:                  -5.312
REMARK INTRA:                  -0.430
REMARK UNBOUND:                -0.597
REMARK SMILES CCCCCCCCCCCC(=O)[O-]
REMARK SMILES IDX 7 1 8 2 9 3 10 4 11 5 12 6 13 7 14 8 6 9 5 10 4 11 3 12 2 13
REMARK SMILES IDX 1 14
REMARK H PARENT
REMARK Flexibility Score: inf
ROOT
ATOM      1  C   UNL     1       6.108   1.135  -7.572  1.00  0.00     0.000 C 
ENDROOT
BRANCH   1   2
ATOM      2  C   UNL     1       5.317   0.374  -6.497  1.00  0.00     0.000 C 
BRANCH   2   3
ATOM      3  C   UNL     1       6.010   0.381  -5.123  1.00  0.00     0.000 C 
BRANCH   3   4
ATOM      4  C   UNL     1       5.233  -0.330  -3.998  1.00  0.00     0.006 C 
BRANCH   4   5
ATOM      5  C   UNL     1       4.453  -1.555  -4.492  1.00  0.00     0.053 C 
BRANCH   5   6
ATOM      6  C   UNL     1       3.370  -1.911  -3.522  1.00  0.00     0.041 C 
ATOM      7  O   UNL     1       2.249  -2.305  -3.941  1.00  0.00    -0.550 OA
ATOM      8  O   UNL     1       3.581  -1.759  -2.158  1.00  0.00    -0.550 OA
ENDBRANCH   5   6
ENDBRANCH   4   5
ENDBRANCH   3   4
ENDBRANCH   2   3
ENDBRANCH   1   2
BRANCH   1   9
ATOM      9  C   UNL     1       5.168   1.715  -8.637  1.00  0.00     0.000 C 
BRANCH   9  10
ATOM     10  C   UNL     1       3.848   0.931  -8.762  1.00  0.00    -0.000 C 
BRANCH  10  11
ATOM     11  C   UNL     1       2.659   1.732  -9.329  1.00  0.00    -0.000 C 
BRANCH  11  12
ATOM     12  C   UNL     1       1.355   0.933  -9.497  1.00  0.00    -0.000 C 
BRANCH  12  13
ATOM     13  C   UNL     1       0.170   1.560  -8.748  1.00  0.00    -0.003 C 
ATOM     14  C   UNL     1      -0.179   2.930  -9.320  1.00  0.00     0.004 C 
ENDBRANCH  12  13
ENDBRANCH  11  12
ENDBRANCH  10  11
ENDBRANCH   9  10
ENDBRANCH   1   9
TORSDOF 10
ENDMDL
MODEL 6
REMARK VINA RESULT:    -3.213      1.839      2.993
REMARK INTER + INTRA:          -5.689
REMARK INTER:                  -4.727
REMARK INTRA:                  -0.961
REMARK UNBOUND:                -0.597
REMARK SMILES CCCCCCCCCCCC(=O)[O-]
REMARK SMILES IDX 7 1 8 2 9 3 10 4 11 5 12 6 13 7 14 8 6 9 5 10 4 11 3 12 2 13
REMARK SMILES IDX 1 14
REMARK H PARENT
REMARK Flexibility Score: inf
ROOT
ATOM      1  C   UNL     1       7.473   0.978  -4.559  1.00  0.00     0.000 C 
ENDROOT
BRANCH   1   2
ATOM      2  C   UNL     1       5.940   1.040  -4.525  1.00  0.00     0.000 C 
BRANCH   2   3
ATOM      3  C   UNL     1       5.276  -0.332  -4.735  1.00  0.00     0.000 C 
BRANCH   3   4
ATOM      4  C   UNL     1       5.565  -1.371  -3.636  1.00  0.00     0.006 C 
BRANCH   4   5
ATOM      5  C   UNL     1       4.298  -1.846  -2.912  1.00  0.00     0.053 C 
BRANCH   5   6
ATOM      6  C   UNL     1       3.424  -2.623  -3.846  1.00  0.00     0.041 C 
ATOM      7  O   UNL     1       3.889  -3.613  -4.473  1.00  0.00    -0.550 OA
ATOM      8  O   UNL     1       2.111  -2.226  -4.063  1.00  0.00    -0.550 OA
ENDBRANCH   5   6
ENDBRANCH   4   5
ENDBRANCH   3   4
ENDBRANCH   2   3
ENDBRANCH   1   2
BRANCH   1   9
ATOM      9  C   UNL     1       8.088   2.315  -4.121  1.00  0.00     0.000 C 
BRANCH   9  10
ATOM     10  C   UNL     1       7.029   3.396  -3.838  1.00  0.00    -0.000 C 
BRANCH  10  11
ATOM     11  C   UNL     1       6.992   4.559  -4.850  1.00  0.00    -0.000 C 
BRANCH  11  12
ATOM     12  C   UNL     1       7.801   4.329  -6.139  1.00  0.00    -0.000 C 
BRANCH  12  13
ATOM     13  C   UNL     1       6.916   4.223  -7.388  1.00  0.00    -0.003 C 
ATOM     14  C   UNL     1       6.595   2.767  -7.713  1.00  0.00     0.004 C 
ENDBRANCH  12  13
ENDBRANCH  11  12
ENDBRANCH  10  11
ENDBRANCH   9  10
ENDBRANCH   1   9
TORSDOF 10
ENDMDL
MODEL 7
REMARK VINA RESULT:    -3.171     10.079     11.419
REMARK INTER + INTRA:          -5.622
REMARK INTER:                  -4.229
REMARK INTRA:                  -1.394
REMARK UNBOUND:                -0.597
REMARK SMILES CCCCCCCCCCCC(=O)[O-]
REMARK SMILES IDX 7 1 8 2 9 3 10 4 11 5 12 6 13 7 14 8 6 9 5 10 4 11 3 12 2 13
REMARK SMILES IDX 1 14
REMARK H PARENT
REMARK Flexibility Score: inf
ROOT
ATOM      1  C   UNL     1      -2.997  -3.279  -6.743  1.00  0.00     0.000 C 
ENDROOT
BRANCH   1   2
ATOM      2  C   UNL     1      -3.100  -4.141  -5.476  1.00  0.00     0.000 C 
BRANCH   2   3
ATOM      3  C   UNL     1      -4.503  -4.738  -5.267  1.00  0.00     0.000 C 
BRANCH   3   4
ATOM      4  C   UNL     1      -4.776  -5.281  -3.851  1.00  0.00     0.006 C 
BRANCH   4   5
ATOM      5  C   UNL     1      -3.861  -4.661  -2.786  1.00  0.00     0.053 C 
BRANCH   5   6
ATOM      6  C   UNL     1      -3.013  -5.717  -2.149  1.00  0.00     0.041 C 
ATOM      7  O   UNL     1      -1.960  -6.112  -2.718  1.00  0.00    -0.550 OA
ATOM      8  O   UNL     1      -3.408  -6.300  -0.953  1.00  0.00    -0.550 OA
ENDBRANCH   5   6
ENDBRANCH   4   5
ENDBRANCH   3   4
ENDBRANCH   2   3
ENDBRANCH   1   2
BRANCH   1   9
ATOM      9  C   UNL     1      -2.890  -1.790  -6.386  1.00  0.00     0.000 C 
BRANCH   9  10
ATOM     10  C   UNL     1      -4.072  -0.961  -6.919  1.00  0.00    -0.000 C 
BRANCH  10  11
ATOM     11  C   UNL     1      -5.259  -0.808  -5.947  1.00  0.00    -0.000 C 
BRANCH  11  12
ATOM     12  C   UNL     1      -4.951  -1.160  -4.480  1.00  0.00    -0.000 C 
BRANCH  12  13
ATOM     13  C   UNL     1      -6.150  -1.781  -3.751  1.00  0.00    -0.003 C 
ATOM     14  C   UNL     1      -7.286  -2.088  -4.722  1.00  0.00     0.004 C 
ENDBRANCH  12  13
ENDBRANCH  11  12
ENDBRANCH  10  11
ENDBRANCH   9  10
ENDBRANCH   1   9
TORSDOF 10
ENDMDL
MODEL 8
REMARK VINA RESULT:    -3.161      1.815      3.652
REMARK INTER + INTRA:          -5.607
REMARK INTER:                  -4.622
REMARK INTRA:                  -0.985
REMARK UNBOUND:                -0.597
REMARK SMILES CCCCCCCCCCCC(=O)[O-]
REMARK SMILES IDX 7 1 8 2 9 3 10 4 11 5 12 6 13 7 14 8 6 9 5 10 4 11 3 12 2 13
REMARK SMILES IDX 1 14
REMARK H PARENT
REMARK Flexibility Score: inf
ROOT
ATOM      1  C   UNL     1       6.171  -1.820  -3.341  1.00  0.00     0.000 C 
ENDROOT
BRANCH   1   2
ATOM      2  C   UNL     1       5.570  -3.196  -3.663  1.00  0.00     0.000 C 
BRANCH   2   3
ATOM      3  C   UNL     1       5.574  -3.518  -5.168  1.00  0.00     0.000 C 
BRANCH   3   4
ATOM      4  C   UNL     1       4.185  -3.778  -5.782  1.00  0.00     0.006 C 
BRANCH   4   5
ATOM      5  C   UNL     1       3.477  -2.491  -6.226  1.00  0.00     0.053 C 
BRANCH   5   6
ATOM      6  C   UNL     1       2.217  -2.292  -5.444  1.00  0.00     0.041 C 
ATOM      7  O   UNL     1       2.145  -2.681  -4.248  1.00  0.00    -0.550 OA
ATOM      8  O   UNL     1       1.104  -1.723  -6.049  1.00  0.00    -0.550 OA
ENDBRANCH   5   6
ENDBRANCH   4   5
ENDBRANCH   3   4
ENDBRANCH   2   3
ENDBRANCH   1   2
BRANCH   1   9
ATOM      9  C   UNL     1       5.164  -0.699  -3.633  1.00  0.00     0.000 C 
BRANCH   9  10
ATOM     10  C   UNL     1       5.651   0.274  -4.722  1.00  0.00    -0.000 C 
BRANCH  10  11
ATOM     11  C   UNL     1       7.183   0.404  -4.850  1.00  0.00    -0.000 C 
BRANCH  11  12
ATOM     12  C   UNL     1       7.753   1.786  -4.484  1.00  0.00    -0.000 C 
BRANCH  12  13
ATOM     13  C   UNL     1       6.660   2.824  -4.192  1.00  0.00    -0.003 C 
ATOM     14  C   UNL     1       7.261   4.122  -3.663  1.00  0.00     0.004 C 
ENDBRANCH  12  13
ENDBRANCH  11  12
ENDBRANCH  10  11
ENDBRANCH   9  10
ENDBRANCH   1   9
TORSDOF 10
ENDMDL
MODEL 9
REMARK VINA RESULT:    -3.119      2.570      4.396
REMARK INTER + INTRA:          -5.540
REMARK INTER:                  -4.245
REMARK INTRA:                  -1.296
REMARK UNBOUND:                -0.597
REMARK SMILES CCCCCCCCCCCC(=O)[O-]
REMARK SMILES IDX 7 1 8 2 9 3 10 4 11 5 12 6 13 7 14 8 6 9 5 10 4 11 3 12 2 13
REMARK SMILES IDX 1 14
REMARK H PARENT
REMARK Flexibility Score: inf
ROOT
ATOM      1  C   UNL     1       6.742   1.946  -4.806  1.00  0.00     0.000 C 
ENDROOT
BRANCH   1   2
ATOM      2  C   UNL     1       6.647   0.434  -4.554  1.00  0.00     0.000 C 
BRANCH   2   3
ATOM      3  C   UNL     1       5.238  -0.019  -4.132  1.00  0.00     0.000 C 
BRANCH   3   4
ATOM      4  C   UNL     1       5.114  -1.512  -3.774  1.00  0.00     0.006 C 
BRANCH   4   5
ATOM      5  C   UNL     1       4.471  -2.344  -4.891  1.00  0.00     0.053 C 
BRANCH   5   6
ATOM      6  C   UNL     1       3.195  -2.963  -4.414  1.00  0.00     0.041 C 
ATOM      7  O   UNL     1       2.981  -4.192  -4.591  1.00  0.00    -0.550 OA
ATOM      8  O   UNL     1       2.220  -2.174  -3.817  1.00  0.00    -0.550 OA
ENDBRANCH   5   6
ENDBRANCH   4   5
ENDBRANCH   3   4
ENDBRANCH   2   3
ENDBRANCH   1   2
BRANCH   1   9
ATOM      9  C   UNL     1       7.620   2.245  -6.028  1.00  0.00     0.000 C 
BRANCH   9  10
ATOM     10  C   UNL     1       6.821   2.812  -7.215  1.00  0.00    -0.000 C 
BRANCH  10  11
ATOM     11  C   UNL     1       6.406   1.778  -8.282  1.00  0.00    -0.000 C 
BRANCH  11  12
ATOM     12  C   UNL     1       4.967   1.247  -8.151  1.00  0.00    -0.000 C 
BRANCH  12  13
ATOM     13  C   UNL     1       4.911  -0.266  -7.897  1.00  0.00    -0.003 C 
ATOM     14  C   UNL     1       6.307  -0.880  -7.924  1.00  0.00     0.004 C 
ENDBRANCH  12  13
ENDBRANCH  11  12
ENDBRANCH  10  11
ENDBRANCH   9  10
ENDBRANCH   1   9
TORSDOF 10
ENDMDL
