MODEL 1
REMARK VINA RESULT:    -3.355      0.000      0.000
REMARK INTER + INTRA:          -7.257
REMARK INTER:                  -5.709
REMARK INTRA:                  -1.548
REMARK UNBOUND:                -1.548
REMARK SMILES CCCCCCCCCCCCCC(=O)[O-]
REMARK SMILES IDX 8 1 9 2 10 3 11 4 12 5 13 6 14 7 15 8 16 9 7 10 6 11 5 12
REMARK SMILES IDX 4 13 3 14 2 15 1 16
REMARK H PARENT
REMARK Flexibility Score: inf
ROOT
ATOM      1  C   UNL     1      29.559  52.951  38.427  1.00  0.00     0.000 C 
ENDROOT
BRANCH   1   2
ATOM      2  C   UNL     1      30.570  51.790  38.424  1.00  0.00     0.000 C 
BRANCH   2   3
ATOM      3  C   UNL     1      30.097  50.504  39.131  1.00  0.00     0.000 C 
BRANCH   3   4
ATOM      4  C   UNL     1      30.932  50.083  40.357  1.00  0.00     0.000 C 
BRANCH   4   5
ATOM      5  C   UNL     1      30.201  49.167  41.356  1.00  0.00     0.006 C 
BRANCH   5   6
ATOM      6  C   UNL     1      29.376  48.074  40.666  1.00  0.00     0.053 C 
BRANCH   6   7
ATOM      7  C   UNL     1      29.918  46.720  41.002  1.00  0.00     0.041 C 
ATOM      8  O   UNL     1      31.162  46.533  41.063  1.00  0.00    -0.550 OA
ATOM      9  O   UNL     1      29.049  45.678  41.298  1.00  0.00    -0.550 OA
ENDBRANCH   6   7
ENDBRANCH   5   6
ENDBRANCH   4   5
ENDBRANCH   3   4
ENDBRANCH   2   3
ENDBRANCH   1   2
BRANCH   1  10
ATOM     10  C   UNL     1      28.112  52.481  38.199  1.00  0.00     0.000 C 
BRANCH  10  11
ATOM     11  C   UNL     1      27.151  52.927  39.318  1.00  0.00    -0.000 C 
BRANCH  11  12
ATOM     12  C   UNL     1      27.009  51.948  40.499  1.00  0.00    -0.000 C 
BRANCH  12  13
ATOM     13  C   UNL     1      28.004  52.231  41.637  1.00  0.00    -0.000 C 
BRANCH  13  14
ATOM     14  C   UNL     1      27.968  53.695  42.114  1.00  0.00    -0.000 C 
BRANCH  14  15
ATOM     15  C   UNL     1      29.235  54.514  41.806  1.00  0.00    -0.003 C 
ATOM     16  C   UNL     1      28.935  55.966  41.436  1.00  0.00     0.004 C 
ENDBRANCH  14  15
ENDBRANCH  13  14
ENDBRANCH  12  13
ENDBRANCH  11  12
ENDBRANCH  10  11
ENDBRANCH   1  10
TORSDOF 12
ENDMDL
MODEL 2
REMARK VINA RESULT:    -3.198      3.003      5.966
REMARK INTER + INTRA:          -6.990
REMARK INTER:                  -5.876
REMARK INTRA:                  -1.114
REMARK UNBOUND:                -1.548
REMARK SMILES CCCCCCCCCCCCCC(=O)[O-]
REMARK SMILES IDX 8 1 9 2 10 3 11 4 12 5 13 6 14 7 15 8 16 9 7 10 6 11 5 12
REMARK SMILES IDX 4 13 3 14 2 15 1 16
REMARK H PARENT
REMARK Flexibility Score: inf
ROOT
ATOM      1  C   UNL     1      30.055  52.412  38.425  1.00  0.00     0.000 C 
ENDROOT
BRANCH   1   2
ATOM      2  C   UNL     1      28.543  52.371  38.135  1.00  0.00     0.000 C 
BRANCH   2   3
ATOM      3  C   UNL     1      27.652  53.055  39.192  1.00  0.00     0.000 C 
BRANCH   3   4
ATOM      4  C   UNL     1      27.081  52.119  40.275  1.00  0.00     0.000 C 
BRANCH   4   5
ATOM      5  C   UNL     1      27.705  52.287  41.672  1.00  0.00     0.006 C 
BRANCH   5   6
ATOM      6  C   UNL     1      27.763  53.751  42.125  1.00  0.00     0.053 C 
BRANCH   6   7
ATOM      7  C   UNL     1      29.158  54.279  42.007  1.00  0.00     0.041 C 
ATOM      8  O   UNL     1      30.140  53.493  42.063  1.00  0.00    -0.550 OA
ATOM      9  O   UNL     1      29.372  55.633  41.785  1.00  0.00    -0.550 OA
ENDBRANCH   6   7
ENDBRANCH   5   6
ENDBRANCH   4   5
ENDBRANCH   3   4
ENDBRANCH   2   3
ENDBRANCH   1   2
BRANCH   1  10
ATOM     10  C   UNL     1      30.661  51.013  38.628  1.00  0.00     0.000 C 
BRANCH  10  11
ATOM     11  C   UNL     1      29.895  50.168  39.663  1.00  0.00    -0.000 C 
BRANCH  11  12
ATOM     12  C   UNL     1      30.539  50.087  41.060  1.00  0.00    -0.000 C 
BRANCH  12  13
ATOM     13  C   UNL     1      30.407  48.696  41.703  1.00  0.00    -0.000 C 
BRANCH  13  14
ATOM     14  C   UNL     1      29.614  47.705  40.830  1.00  0.00    -0.000 C 
BRANCH  14  15
ATOM     15  C   UNL     1      30.221  46.294  40.728  1.00  0.00    -0.003 C 
ATOM     16  C   UNL     1      31.610  46.192  41.359  1.00  0.00     0.004 C 
ENDBRANCH  14  15
ENDBRANCH  13  14
ENDBRANCH  12  13
ENDBRANCH  11  12
ENDBRANCH  10  11
ENDBRANCH   1  10
TORSDOF 12
ENDMDL
MODEL 3
REMARK VINA RESULT:    -3.063     15.944     18.069
REMARK INTER + INTRA:          -6.760
REMARK INTER:                  -5.433
REMARK INTRA:                  -1.327
REMARK UNBOUND:                -1.548
REMARK SMILES CCCCCCCCCCCCCC(=O)[O-]
REMARK SMILES IDX 8 1 9 2 10 3 11 4 12 5 13 6 14 7 15 8 16 9 7 10 6 11 5 12
REMARK SMILES IDX 4 13 3 14 2 15 1 16
REMARK H PARENT
REMARK Flexibility Score: inf
ROOT
ATOM      1  C   UNL     1      25.501  39.982  25.260  1.00  0.00     0.000 C 
ENDROOT
BRANCH   1   2
ATOM      2  C   UNL     1      26.572  40.713  26.091  1.00  0.00     0.000 C 
BRANCH   2   3
ATOM      3  C   UNL     1      26.040  41.823  27.020  1.00  0.00     0.000 C 
BRANCH   3   4
ATOM      4  C   UNL     1      26.713  43.199  26.853  1.00  0.00     0.000 C 
BRANCH   4   5
ATOM      5  C   UNL     1      27.834  43.249  25.800  1.00  0.00     0.006 C 
BRANCH   5   6
ATOM      6  C   UNL     1      29.176  43.711  26.382  1.00  0.00     0.053 C 
BRANCH   6   7
ATOM      7  C   UNL     1      29.983  42.535  26.832  1.00  0.00     0.041 C 
ATOM      8  O   UNL     1      30.559  41.800  25.987  1.00  0.00    -0.550 OA
ATOM      9  O   UNL     1      30.140  42.277  28.188  1.00  0.00    -0.550 OA
ENDBRANCH   6   7
ENDBRANCH   5   6
ENDBRANCH   4   5
ENDBRANCH   3   4
ENDBRANCH   2   3
ENDBRANCH   1   2
BRANCH   1  10
ATOM     10  C   UNL     1      26.014  38.665  24.653  1.00  0.00     0.000 C 
BRANCH  10  11
ATOM     11  C   UNL     1      25.672  37.433  25.513  1.00  0.00    -0.000 C 
BRANCH  11  12
ATOM     12  C   UNL     1      26.695  37.085  26.610  1.00  0.00    -0.000 C 
BRANCH  12  13
ATOM     13  C   UNL     1      26.056  36.928  28.001  1.00  0.00    -0.000 C 
BRANCH  13  14
ATOM     14  C   UNL     1      25.141  38.109  28.376  1.00  0.00    -0.000 C 
BRANCH  14  15
ATOM     15  C   UNL     1      25.689  39.035  29.478  1.00  0.00    -0.003 C 
ATOM     16  C   UNL     1      26.542  38.298  30.510  1.00  0.00     0.004 C 
ENDBRANCH  14  15
ENDBRANCH  13  14
ENDBRANCH  12  13
ENDBRANCH  11  12
ENDBRANCH  10  11
ENDBRANCH   1  10
TORSDOF 12
ENDMDL
MODEL 4
REMARK VINA RESULT:    -3.050     16.309     17.983
REMARK INTER + INTRA:          -6.738
REMARK INTER:                  -5.662
REMARK INTRA:                  -1.076
REMARK UNBOUND:                -1.548
REMARK SMILES CCCCCCCCCCCCCC(=O)[O-]
REMARK SMILES IDX 8 1 9 2 10 3 11 4 12 5 13 6 14 7 15 8 16 9 7 10 6 11 5 12
REMARK SMILES IDX 4 13 3 14 2 15 1 16
REMARK H PARENT
REMARK Flexibility Score: inf
ROOT
ATOM      1  C   UNL     1      25.637  40.422  24.904  1.00  0.00     0.000 C 
ENDROOT
BRANCH   1   2
ATOM      2  C   UNL     1      25.099  39.127  24.268  1.00  0.00     0.000 C 
BRANCH   2   3
ATOM      3  C   UNL     1      25.989  37.882  24.456  1.00  0.00     0.000 C 
BRANCH   3   4
ATOM      4  C   UNL     1      27.196  38.073  25.395  1.00  0.00     0.000 C 
BRANCH   4   5
ATOM      5  C   UNL     1      27.201  37.167  26.639  1.00  0.00     0.006 C 
BRANCH   5   6
ATOM      6  C   UNL     1      25.846  37.138  27.358  1.00  0.00     0.053 C 
BRANCH   6   7
ATOM      7  C   UNL     1      25.996  37.602  28.772  1.00  0.00     0.041 C 
ATOM      8  O   UNL     1      26.913  37.137  29.498  1.00  0.00    -0.550 OA
ATOM      9  O   UNL     1      25.153  38.586  29.274  1.00  0.00    -0.550 OA
ENDBRANCH   6   7
ENDBRANCH   5   6
ENDBRANCH   4   5
ENDBRANCH   3   4
ENDBRANCH   2   3
ENDBRANCH   1   2
BRANCH   1  10
ATOM     10  C   UNL     1      25.146  40.626  26.347  1.00  0.00     0.000 C 
BRANCH  10  11
ATOM     11  C   UNL     1      26.138  41.424  27.214  1.00  0.00    -0.000 C 
BRANCH  11  12
ATOM     12  C   UNL     1      26.342  42.895  26.804  1.00  0.00    -0.000 C 
BRANCH  12  13
ATOM     13  C   UNL     1      27.718  43.157  26.167  1.00  0.00    -0.000 C 
BRANCH  13  14
ATOM     14  C   UNL     1      28.868  42.464  26.921  1.00  0.00    -0.000 C 
BRANCH  14  15
ATOM     15  C   UNL     1      30.272  42.715  26.341  1.00  0.00    -0.003 C 
ATOM     16  C   UNL     1      30.532  44.186  26.016  1.00  0.00     0.004 C 
ENDBRANCH  14  15
ENDBRANCH  13  14
ENDBRANCH  12  13
ENDBRANCH  11  12
ENDBRANCH  10  11
ENDBRANCH   1  10
TORSDOF 12
ENDMDL
MODEL 5
REMARK VINA RESULT:    -2.942     16.797     18.419
REMARK INTER + INTRA:          -6.554
REMARK INTER:                  -5.314
REMARK INTRA:                  -1.240
REMARK UNBOUND:                -1.548
REMARK SMILES CCCCCCCCCCCCCC(=O)[O-]
REMARK SMILES IDX 8 1 9 2 10 3 11 4 12 5 13 6 14 7 15 8 16 9 7 10 6 11 5 12
REMARK SMILES IDX 4 13 3 14 2 15 1 16
REMARK H PARENT
REMARK Flexibility Score: inf
ROOT
ATOM      1  C   UNL     1      25.865  40.439  28.162  1.00  0.00     0.000 C 
ENDROOT
BRANCH   1   2
ATOM      2  C   UNL     1      24.976  39.500  28.997  1.00  0.00     0.000 C 
BRANCH   2   3
ATOM      3  C   UNL     1      24.885  38.049  28.482  1.00  0.00     0.000 C 
BRANCH   3   4
ATOM      4  C   UNL     1      26.238  37.354  28.234  1.00  0.00     0.000 C 
BRANCH   4   5
ATOM      5  C   UNL     1      26.507  36.960  26.771  1.00  0.00     0.006 C 
BRANCH   5   6
ATOM      6  C   UNL     1      25.285  37.161  25.867  1.00  0.00     0.053 C 
BRANCH   6   7
ATOM      7  C   UNL     1      25.715  37.403  24.455  1.00  0.00     0.041 C 
ATOM      8  O   UNL     1      24.881  37.317  23.515  1.00  0.00    -0.550 OA
ATOM      9  O   UNL     1      27.025  37.773  24.181  1.00  0.00    -0.550 OA
ENDBRANCH   6   7
ENDBRANCH   5   6
ENDBRANCH   4   5
ENDBRANCH   3   4
ENDBRANCH   2   3
ENDBRANCH   1   2
BRANCH   1  10
ATOM     10  C   UNL     1      25.313  40.681  26.746  1.00  0.00     0.000 C 
BRANCH  10  11
ATOM     11  C   UNL     1      26.394  41.133  25.747  1.00  0.00    -0.000 C 
BRANCH  11  12
ATOM     12  C   UNL     1      26.490  42.654  25.517  1.00  0.00    -0.000 C 
BRANCH  12  13
ATOM     13  C   UNL     1      27.754  43.276  26.134  1.00  0.00    -0.000 C 
BRANCH  13  14
ATOM     14  C   UNL     1      28.773  42.222  26.605  1.00  0.00    -0.000 C 
BRANCH  14  15
ATOM     15  C   UNL     1      30.225  42.722  26.719  1.00  0.00    -0.003 C 
ATOM     16  C   UNL     1      30.443  44.084  26.062  1.00  0.00     0.004 C 
ENDBRANCH  14  15
ENDBRANCH  13  14
ENDBRANCH  12  13
ENDBRANCH  11  12
ENDBRANCH  10  11
ENDBRANCH   1  10
TORSDOF 12
ENDMDL
MODEL 6
REMARK VINA RESULT:    -2.931     17.524     19.699
REMARK INTER + INTRA:          -6.535
REMARK INTER:                  -5.739
REMARK INTRA:                  -0.795
REMARK UNBOUND:                -1.548
REMARK SMILES CCCCCCCCCCCCCC(=O)[O-]
REMARK SMILES IDX 8 1 9 2 10 3 11 4 12 5 13 6 14 7 15 8 16 9 7 10 6 11 5 12
REMARK SMILES IDX 4 13 3 14 2 15 1 16
REMARK H PARENT
REMARK Flexibility Score: inf
ROOT
ATOM      1  C   UNL     1      25.300  40.175  25.078  1.00  0.00     0.000 C 
ENDROOT
BRANCH   1   2
ATOM      2  C   UNL     1      25.147  40.078  26.608  1.00  0.00     0.000 C 
BRANCH   2   3
ATOM      3  C   UNL     1      25.566  41.339  27.392  1.00  0.00     0.000 C 
BRANCH   3   4
ATOM      4  C   UNL     1      26.358  42.383  26.581  1.00  0.00     0.000 C 
BRANCH   4   5
ATOM      5  C   UNL     1      27.881  42.357  26.802  1.00  0.00     0.006 C 
BRANCH   5   6
ATOM      6  C   UNL     1      28.574  43.637  26.318  1.00  0.00     0.053 C 
BRANCH   6   7
ATOM      7  C   UNL     1      30.050  43.420  26.205  1.00  0.00     0.041 C 
ATOM      8  O   UNL     1      30.816  44.391  25.970  1.00  0.00    -0.550 OA
ATOM      9  O   UNL     1      30.584  42.155  26.410  1.00  0.00    -0.550 OA
ENDBRANCH   6   7
ENDBRANCH   5   6
ENDBRANCH   4   5
ENDBRANCH   3   4
ENDBRANCH   2   3
ENDBRANCH   1   2
BRANCH   1  10
ATOM     10  C   UNL     1      25.323  38.798  24.393  1.00  0.00     0.000 C 
BRANCH  10  11
ATOM     11  C   UNL     1      25.991  37.709  25.254  1.00  0.00    -0.000 C 
BRANCH  11  12
ATOM     12  C   UNL     1      27.257  37.070  24.651  1.00  0.00    -0.000 C 
BRANCH  12  13
ATOM     13  C   UNL     1      27.365  37.270  23.130  1.00  0.00    -0.000 C 
BRANCH  13  14
ATOM     14  C   UNL     1      28.744  36.875  22.569  1.00  0.00    -0.000 C 
BRANCH  14  15
ATOM     15  C   UNL     1      29.892  36.883  23.595  1.00  0.00    -0.003 C 
ATOM     16  C   UNL     1      31.139  37.610  23.093  1.00  0.00     0.004 C 
ENDBRANCH  14  15
ENDBRANCH  13  14
ENDBRANCH  12  13
ENDBRANCH  11  12
ENDBRANCH  10  11
ENDBRANCH   1  10
TORSDOF 12
ENDMDL
MODEL 7
REMARK VINA RESULT:    -2.739     15.586     17.258
REMARK INTER + INTRA:          -6.208
REMARK INTER:                  -4.986
REMARK INTRA:                  -1.222
REMARK UNBOUND:                -1.548
REMARK SMILES CCCCCCCCCCCCCC(=O)[O-]
REMARK SMILES IDX 8 1 9 2 10 3 11 4 12 5 13 6 14 7 15 8 16 9 7 10 6 11 5 12
REMARK SMILES IDX 4 13 3 14 2 15 1 16
REMARK H PARENT
REMARK Flexibility Score: inf
ROOT
ATOM      1  C   UNL     1      26.950  39.291  25.851  1.00  0.00     0.000 C 
ENDROOT
BRANCH   1   2
ATOM      2  C   UNL     1      26.425  37.864  26.101  1.00  0.00     0.000 C 
BRANCH   2   3
ATOM      3  C   UNL     1      24.991  37.780  26.662  1.00  0.00     0.000 C 
BRANCH   3   4
ATOM      4  C   UNL     1      24.875  37.202  28.086  1.00  0.00     0.000 C 
BRANCH   4   5
ATOM      5  C   UNL     1      25.965  37.671  29.067  1.00  0.00     0.006 C 
BRANCH   5   6
ATOM      6  C   UNL     1      25.390  38.385  30.297  1.00  0.00     0.053 C 
BRANCH   6   7
ATOM      7  C   UNL     1      26.279  38.179  31.482  1.00  0.00     0.041 C 
ATOM      8  O   UNL     1      25.852  38.415  32.643  1.00  0.00    -0.550 OA
ATOM      9  O   UNL     1      27.563  37.677  31.310  1.00  0.00    -0.550 OA
ENDBRANCH   6   7
ENDBRANCH   5   6
ENDBRANCH   4   5
ENDBRANCH   3   4
ENDBRANCH   2   3
ENDBRANCH   1   2
BRANCH   1  10
ATOM     10  C   UNL     1      25.852  40.360  25.977  1.00  0.00     0.000 C 
BRANCH  10  11
ATOM     11  C   UNL     1      25.861  41.075  27.341  1.00  0.00    -0.000 C 
BRANCH  11  12
ATOM     12  C   UNL     1      26.373  42.528  27.325  1.00  0.00    -0.000 C 
BRANCH  12  13
ATOM     13  C   UNL     1      26.864  42.977  25.938  1.00  0.00    -0.000 C 
BRANCH  13  14
ATOM     14  C   UNL     1      28.377  43.262  25.901  1.00  0.00    -0.000 C 
BRANCH  14  15
ATOM     15  C   UNL     1      29.272  42.094  26.352  1.00  0.00    -0.003 C 
ATOM     16  C   UNL     1      30.297  42.499  27.411  1.00  0.00     0.004 C 
ENDBRANCH  14  15
ENDBRANCH  13  14
ENDBRANCH  12  13
ENDBRANCH  11  12
ENDBRANCH  10  11
ENDBRANCH   1  10
TORSDOF 12
ENDMDL
MODEL 8
REMARK VINA RESULT:    -2.618     15.414     17.338
REMARK INTER + INTRA:          -6.002
REMARK INTER:                  -5.162
REMARK INTRA:                  -0.840
REMARK UNBOUND:                -1.548
REMARK SMILES CCCCCCCCCCCCCC(=O)[O-]
REMARK SMILES IDX 8 1 9 2 10 3 11 4 12 5 13 6 14 7 15 8 16 9 7 10 6 11 5 12
REMARK SMILES IDX 4 13 3 14 2 15 1 16
REMARK H PARENT
REMARK Flexibility Score: inf
ROOT
ATOM      1  C   UNL     1      25.755  40.640  27.814  1.00  0.00     0.000 C 
ENDROOT
BRANCH   1   2
ATOM      2  C   UNL     1      25.869  39.912  26.461  1.00  0.00     0.000 C 
BRANCH   2   3
ATOM      3  C   UNL     1      26.027  40.830  25.232  1.00  0.00     0.000 C 
BRANCH   3   4
ATOM      4  C   UNL     1      26.175  42.331  25.548  1.00  0.00     0.000 C 
BRANCH   4   5
ATOM      5  C   UNL     1      27.602  42.889  25.397  1.00  0.00     0.006 C 
BRANCH   5   6
ATOM      6  C   UNL     1      28.274  43.175  26.745  1.00  0.00     0.053 C 
BRANCH   6   7
ATOM      7  C   UNL     1      29.757  43.284  26.576  1.00  0.00     0.041 C 
ATOM      8  O   UNL     1      30.311  44.414  26.559  1.00  0.00    -0.550 OA
ATOM      9  O   UNL     1      30.533  42.135  26.488  1.00  0.00    -0.550 OA
ENDBRANCH   6   7
ENDBRANCH   5   6
ENDBRANCH   4   5
ENDBRANCH   3   4
ENDBRANCH   2   3
ENDBRANCH   1   2
BRANCH   1  10
ATOM     10  C   UNL     1      25.600  39.673  29.000  1.00  0.00     0.000 C 
BRANCH  10  11
ATOM     11  C   UNL     1      25.157  38.261  28.571  1.00  0.00    -0.000 C 
BRANCH  11  12
ATOM     12  C   UNL     1      25.995  37.101  29.143  1.00  0.00    -0.000 C 
BRANCH  12  13
ATOM     13  C   UNL     1      26.524  37.383  30.560  1.00  0.00    -0.000 C 
BRANCH  13  14
ATOM     14  C   UNL     1      25.486  37.087  31.658  1.00  0.00    -0.000 C 
BRANCH  14  15
ATOM     15  C   UNL     1      24.949  38.325  32.399  1.00  0.00    -0.003 C 
ATOM     16  C   UNL     1      25.172  38.263  33.909  1.00  0.00     0.004 C 
ENDBRANCH  14  15
ENDBRANCH  13  14
ENDBRANCH  12  13
ENDBRANCH  11  12
ENDBRANCH  10  11
ENDBRANCH   1  10
TORSDOF 12
ENDMDL
