MODEL 1
REMARK VINA RESULT:    -4.848      0.000      0.000
REMARK INTER + INTRA:          -5.638
REMARK INTER:                  -5.557
REMARK INTRA:                  -0.081
REMARK UNBOUND:                -0.081
REMARK SMILES COc1cc(C(=O)[O-])ccc1O
REMARK SMILES IDX 5 1 9 2 4 3 10 4 3 5 11 6 6 7 7 8 8 9 2 10 1 11 12 12
REMARK H PARENT 12 13
REMARK Flexibility Score: inf
ROOT
ATOM      1  C   UNL     1      25.734  27.029  69.230  1.00  0.00     0.001 A 
ATOM      2  C   UNL     1      24.742  26.055  69.038  1.00  0.00     0.014 A 
ATOM      3  C   UNL     1      25.809  27.693  70.468  1.00  0.00     0.060 A 
ATOM      4  C   UNL     1      23.843  25.749  70.061  1.00  0.00     0.051 A 
ATOM      5  C   UNL     1      24.904  27.388  71.505  1.00  0.00     0.161 A 
ATOM      6  C   UNL     1      23.918  26.407  71.290  1.00  0.00     0.157 A 
ENDROOT
BRANCH   1   7
ATOM      7  C   UNL     1      26.684  27.350  68.141  1.00  0.00     0.072 C 
ATOM      8  O   UNL     1      26.452  26.984  66.958  1.00  0.00    -0.545 OA
ATOM      9  O   UNL     1      27.849  28.062  68.410  1.00  0.00    -0.545 OA
ENDBRANCH   1   7
BRANCH   5  10
ATOM     10  O   UNL     1      24.955  28.034  72.751  1.00  0.00    -0.493 OA
ATOM     11  C   UNL     1      25.601  29.280  72.990  1.00  0.00     0.278 C 
ENDBRANCH   5  10
BRANCH   6  12
ATOM     12  O   UNL     1      23.003  26.075  72.289  1.00  0.00    -0.504 OA
ATOM     13  H   UNL     1      22.015  25.960  72.100  1.00  0.00     0.293 HD
ENDBRANCH   6  12
TORSDOF 3
ENDMDL
MODEL 2
REMARK VINA RESULT:    -4.823      1.801      3.908
REMARK INTER + INTRA:          -5.609
REMARK INTER:                  -5.529
REMARK INTRA:                  -0.080
REMARK UNBOUND:                -0.081
REMARK SMILES COc1cc(C(=O)[O-])ccc1O
REMARK SMILES IDX 5 1 9 2 4 3 10 4 3 5 11 6 6 7 7 8 8 9 2 10 1 11 12 12
REMARK H PARENT 12 13
REMARK Flexibility Score: inf
ROOT
ATOM      1  C   UNL     1      26.494  28.595  70.388  1.00  0.00     0.001 A 
ATOM      2  C   UNL     1      27.130  28.570  69.136  1.00  0.00     0.014 A 
ATOM      3  C   UNL     1      25.579  27.576  70.709  1.00  0.00     0.060 A 
ATOM      4  C   UNL     1      26.858  27.549  68.225  1.00  0.00     0.051 A 
ATOM      5  C   UNL     1      25.300  26.541  69.792  1.00  0.00     0.161 A 
ATOM      6  C   UNL     1      25.949  26.537  68.544  1.00  0.00     0.157 A 
ENDROOT
BRANCH   1   7
ATOM      7  C   UNL     1      26.786  29.680  71.351  1.00  0.00     0.072 C 
ATOM      8  O   UNL     1      27.763  30.454  71.169  1.00  0.00    -0.545 OA
ATOM      9  O   UNL     1      25.983  29.862  72.472  1.00  0.00    -0.545 OA
ENDBRANCH   1   7
BRANCH   5  10
ATOM     10  O   UNL     1      24.392  25.512  70.086  1.00  0.00    -0.493 OA
ATOM     11  C   UNL     1      23.524  25.496  71.215  1.00  0.00     0.278 C 
ENDBRANCH   5  10
BRANCH   6  12
ATOM     12  O   UNL     1      25.703  25.533  67.608  1.00  0.00    -0.504 OA
ATOM     13  H   UNL     1      24.774  25.167  67.440  1.00  0.00     0.293 HD
ENDBRANCH   6  12
TORSDOF 3
ENDMDL
MODEL 3
REMARK VINA RESULT:    -4.519     12.954     13.506
REMARK INTER + INTRA:          -5.261
REMARK INTER:                  -5.187
REMARK INTRA:                  -0.074
REMARK UNBOUND:                -0.081
REMARK SMILES COc1cc(C(=O)[O-])ccc1O
REMARK SMILES IDX 5 1 9 2 4 3 10 4 3 5 11 6 6 7 7 8 8 9 2 10 1 11 12 12
REMARK H PARENT 12 13
REMARK Flexibility Score: inf
ROOT
ATOM      1  C   UNL     1      23.806  24.435  57.380  1.00  0.00     0.001 A 
ATOM      2  C   UNL     1      24.259  23.128  57.618  1.00  0.00     0.014 A 
ATOM      3  C   UNL     1      24.738  25.489  57.369  1.00  0.00     0.060 A 
ATOM      4  C   UNL     1      25.614  22.878  57.840  1.00  0.00     0.051 A 
ATOM      5  C   UNL     1      26.108  25.243  57.592  1.00  0.00     0.161 A 
ATOM      6  C   UNL     1      26.539  23.925  57.829  1.00  0.00     0.157 A 
ENDROOT
BRANCH   1   7
ATOM      7  C   UNL     1      22.368  24.694  57.145  1.00  0.00     0.072 C 
ATOM      8  O   UNL     1      21.970  25.147  56.038  1.00  0.00    -0.545 OA
ATOM      9  O   UNL     1      21.434  24.442  58.143  1.00  0.00    -0.545 OA
ENDBRANCH   1   7
BRANCH   5  10
ATOM     10  O   UNL     1      27.060  26.275  57.587  1.00  0.00    -0.493 OA
ATOM     11  C   UNL     1      26.760  27.651  57.378  1.00  0.00     0.278 C 
ENDBRANCH   5  10
BRANCH   6  12
ATOM     12  O   UNL     1      27.885  23.636  58.055  1.00  0.00    -0.504 OA
ATOM     13  H   UNL     1      28.248  23.444  58.980  1.00  0.00     0.293 HD
ENDBRANCH   6  12
TORSDOF 3
ENDMDL
MODEL 4
REMARK VINA RESULT:    -4.443      1.840      3.782
REMARK INTER + INTRA:          -5.173
REMARK INTER:                  -5.074
REMARK INTRA:                  -0.099
REMARK UNBOUND:                -0.081
REMARK SMILES COc1cc(C(=O)[O-])ccc1O
REMARK SMILES IDX 5 1 9 2 4 3 10 4 3 5 11 6 6 7 7 8 8 9 2 10 1 11 12 12
REMARK H PARENT 12 13
REMARK Flexibility Score: inf
ROOT
ATOM      1  C   UNL     1      25.198  26.752  69.992  1.00  0.00     0.001 A 
ATOM      2  C   UNL     1      25.806  26.878  68.734  1.00  0.00     0.014 A 
ATOM      3  C   UNL     1      25.754  27.432  71.091  1.00  0.00     0.060 A 
ATOM      4  C   UNL     1      26.946  27.668  68.575  1.00  0.00     0.051 A 
ATOM      5  C   UNL     1      26.905  28.231  70.937  1.00  0.00     0.161 A 
ATOM      6  C   UNL     1      27.498  28.344  69.666  1.00  0.00     0.157 A 
ENDROOT
BRANCH   1   7
ATOM      7  C   UNL     1      23.989  25.913  70.155  1.00  0.00     0.072 C 
ATOM      8  O   UNL     1      23.149  25.810  69.222  1.00  0.00    -0.545 OA
ATOM      9  O   UNL     1      23.764  25.225  71.343  1.00  0.00    -0.545 OA
ENDBRANCH   1   7
BRANCH   5  10
ATOM     10  O   UNL     1      27.482  28.921  72.016  1.00  0.00    -0.493 OA
ATOM     11  C   UNL     1      28.209  28.305  73.074  1.00  0.00     0.278 C 
ENDBRANCH   5  10
BRANCH   6  12
ATOM     12  O   UNL     1      28.637  29.123  69.469  1.00  0.00    -0.504 OA
ATOM     13  H   UNL     1      29.523  28.723  69.185  1.00  0.00     0.293 HD
ENDBRANCH   6  12
TORSDOF 3
ENDMDL
MODEL 5
REMARK VINA RESULT:    -4.284      2.278      3.679
REMARK INTER + INTRA:          -4.991
REMARK INTER:                  -4.901
REMARK INTRA:                  -0.091
REMARK UNBOUND:                -0.081
REMARK SMILES COc1cc(C(=O)[O-])ccc1O
REMARK SMILES IDX 5 1 9 2 4 3 10 4 3 5 11 6 6 7 7 8 8 9 2 10 1 11 12 12
REMARK H PARENT 12 13
REMARK Flexibility Score: inf
ROOT
ATOM      1  C   UNL     1      25.751  27.421  69.796  1.00  0.00     0.001 A 
ATOM      2  C   UNL     1      25.394  27.318  71.150  1.00  0.00     0.014 A 
ATOM      3  C   UNL     1      26.799  28.285  69.429  1.00  0.00     0.060 A 
ATOM      4  C   UNL     1      26.070  28.062  72.118  1.00  0.00     0.051 A 
ATOM      5  C   UNL     1      27.486  29.039  70.403  1.00  0.00     0.161 A 
ATOM      6  C   UNL     1      27.111  28.920  71.753  1.00  0.00     0.157 A 
ENDROOT
BRANCH   1   7
ATOM      7  C   UNL     1      25.031  26.630  68.773  1.00  0.00     0.072 C 
ATOM      8  O   UNL     1      25.623  26.234  67.734  1.00  0.00    -0.545 OA
ATOM      9  O   UNL     1      23.688  26.310  68.946  1.00  0.00    -0.545 OA
ENDBRANCH   1   7
BRANCH   5  10
ATOM     10  O   UNL     1      28.535  29.909  70.066  1.00  0.00    -0.493 OA
ATOM     11  C   UNL     1      28.436  30.968  69.119  1.00  0.00     0.278 C 
ENDBRANCH   5  10
BRANCH   6  12
ATOM     12  O   UNL     1      27.764  29.647  72.749  1.00  0.00    -0.504 OA
ATOM     13  H   UNL     1      27.540  30.615  72.945  1.00  0.00     0.293 HD
ENDBRANCH   6  12
TORSDOF 3
ENDMDL
MODEL 6
REMARK VINA RESULT:    -4.166      2.673      3.980
REMARK INTER + INTRA:          -4.855
REMARK INTER:                  -4.763
REMARK INTRA:                  -0.092
REMARK UNBOUND:                -0.081
REMARK SMILES COc1cc(C(=O)[O-])ccc1O
REMARK SMILES IDX 5 1 9 2 4 3 10 4 3 5 11 6 6 7 7 8 8 9 2 10 1 11 12 12
REMARK H PARENT 12 13
REMARK Flexibility Score: inf
ROOT
ATOM      1  C   UNL     1      27.063  29.822  70.056  1.00  0.00     0.001 A 
ATOM      2  C   UNL     1      28.090  29.188  69.339  1.00  0.00     0.014 A 
ATOM      3  C   UNL     1      26.159  29.035  70.792  1.00  0.00     0.060 A 
ATOM      4  C   UNL     1      28.212  27.798  69.357  1.00  0.00     0.051 A 
ATOM      5  C   UNL     1      26.277  27.631  70.815  1.00  0.00     0.161 A 
ATOM      6  C   UNL     1      27.314  27.017  70.089  1.00  0.00     0.157 A 
ENDROOT
BRANCH   1   7
ATOM      7  C   UNL     1      26.938  31.297  70.034  1.00  0.00     0.072 C 
ATOM      8  O   UNL     1      26.053  31.876  70.718  1.00  0.00    -0.545 OA
ATOM      9  O   UNL     1      27.798  32.065  69.256  1.00  0.00    -0.545 OA
ENDBRANCH   1   7
BRANCH   5  10
ATOM     10  O   UNL     1      25.389  26.821  71.541  1.00  0.00    -0.493 OA
ATOM     11  C   UNL     1      24.172  26.290  71.025  1.00  0.00     0.278 C 
ENDBRANCH   5  10
BRANCH   6  12
ATOM     12  O   UNL     1      27.467  25.631  70.083  1.00  0.00    -0.504 OA
ATOM     13  H   UNL     1      27.168  25.051  70.856  1.00  0.00     0.293 HD
ENDBRANCH   6  12
TORSDOF 3
ENDMDL
MODEL 7
REMARK VINA RESULT:    -4.123     12.020     13.382
REMARK INTER + INTRA:          -4.806
REMARK INTER:                  -4.731
REMARK INTRA:                  -0.076
REMARK UNBOUND:                -0.081
REMARK SMILES COc1cc(C(=O)[O-])ccc1O
REMARK SMILES IDX 5 1 9 2 4 3 10 4 3 5 11 6 6 7 7 8 8 9 2 10 1 11 12 12
REMARK H PARENT 12 13
REMARK Flexibility Score: inf
ROOT
ATOM      1  C   UNL     1      24.340  24.329  57.516  1.00  0.00     0.001 A 
ATOM      2  C   UNL     1      24.795  25.571  57.047  1.00  0.00     0.014 A 
ATOM      3  C   UNL     1      25.266  23.425  58.068  1.00  0.00     0.060 A 
ATOM      4  C   UNL     1      26.148  25.904  57.128  1.00  0.00     0.051 A 
ATOM      5  C   UNL     1      26.634  23.757  58.152  1.00  0.00     0.161 A 
ATOM      6  C   UNL     1      27.068  25.007  57.676  1.00  0.00     0.157 A 
ENDROOT
BRANCH   1   7
ATOM      7  C   UNL     1      22.904  23.980  57.429  1.00  0.00     0.072 C 
ATOM      8  O   UNL     1      22.411  23.096  58.180  1.00  0.00    -0.545 OA
ATOM      9  O   UNL     1      22.077  24.624  56.515  1.00  0.00    -0.545 OA
ENDBRANCH   1   7
BRANCH   5  10
ATOM     10  O   UNL     1      27.581  22.875  58.698  1.00  0.00    -0.493 OA
ATOM     11  C   UNL     1      27.996  22.875  60.060  1.00  0.00     0.278 C 
ENDBRANCH   5  10
BRANCH   6  12
ATOM     12  O   UNL     1      28.411  25.376  57.740  1.00  0.00    -0.504 OA
ATOM     13  H   UNL     1      29.031  25.034  58.464  1.00  0.00     0.293 HD
ENDBRANCH   6  12
TORSDOF 3
ENDMDL
MODEL 8
REMARK VINA RESULT:    -4.072      2.181      3.650
REMARK INTER + INTRA:          -4.748
REMARK INTER:                  -4.665
REMARK INTRA:                  -0.083
REMARK UNBOUND:                -0.081
REMARK SMILES COc1cc(C(=O)[O-])ccc1O
REMARK SMILES IDX 5 1 9 2 4 3 10 4 3 5 11 6 6 7 7 8 8 9 2 10 1 11 12 12
REMARK H PARENT 12 13
REMARK Flexibility Score: inf
ROOT
ATOM      1  C   UNL     1      26.983  29.303  70.837  1.00  0.00     0.001 A 
ATOM      2  C   UNL     1      26.479  29.186  72.141  1.00  0.00     0.014 A 
ATOM      3  C   UNL     1      26.448  28.487  69.823  1.00  0.00     0.060 A 
ATOM      4  C   UNL     1      25.462  28.274  72.428  1.00  0.00     0.051 A 
ATOM      5  C   UNL     1      25.421  27.564  70.106  1.00  0.00     0.161 A 
ATOM      6  C   UNL     1      24.931  27.464  71.421  1.00  0.00     0.157 A 
ENDROOT
BRANCH   1   7
ATOM      7  C   UNL     1      28.061  30.272  70.538  1.00  0.00     0.072 C 
ATOM      8  O   UNL     1      28.366  30.545  69.346  1.00  0.00    -0.545 OA
ATOM      9  O   UNL     1      28.753  30.897  71.570  1.00  0.00    -0.545 OA
ENDBRANCH   1   7
BRANCH   5  10
ATOM     10  O   UNL     1      24.869  26.738  69.114  1.00  0.00    -0.493 OA
ATOM     11  C   UNL     1      25.575  26.260  67.973  1.00  0.00     0.278 C 
ENDBRANCH   5  10
BRANCH   6  12
ATOM     12  O   UNL     1      23.916  26.565  71.745  1.00  0.00    -0.504 OA
ATOM     13  H   UNL     1      24.098  25.583  71.914  1.00  0.00     0.293 HD
ENDBRANCH   6  12
TORSDOF 3
ENDMDL
