MODEL 1
REMARK VINA RESULT:    -6.283      0.000      0.000
REMARK INTER + INTRA:          -6.888
REMARK INTER:                  -6.650
REMARK INTRA:                  -0.238
REMARK UNBOUND:                -0.238
REMARK SMILES O=c1cc(-c2ccccc2)oc2ccccc12
REMARK SMILES IDX 4 1 3 2 2 3 1 4 17 5 16 6 15 7 14 8 13 9 12 10 11 11 5 12
REMARK SMILES IDX 8 13 7 14 9 15 6 16 10 17
REMARK H PARENT
REMARK Flexibility Score: inf
ROOT
ATOM      1  C   UNL     1       9.834 -16.372   7.724  1.00  0.00     0.138 A 
ATOM      2  C   UNL     1      10.222 -15.021   7.609  1.00  0.00     0.100 A 
ATOM      3  C   UNL     1      11.577 -14.702   7.486  1.00  0.00     0.193 A 
ATOM      4  O   UNL     1      11.925 -13.495   7.382  1.00  0.00    -0.289 OA
ATOM      5  C   UNL     1      12.529 -15.730   7.479  1.00  0.00     0.065 A 
ATOM      6  C   UNL     1      13.909 -15.478   7.358  1.00  0.00     0.016 A 
ATOM      7  C   UNL     1      14.817 -16.541   7.357  1.00  0.00     0.001 A 
ATOM      8  C   UNL     1      14.360 -17.857   7.475  1.00  0.00     0.004 A 
ATOM      9  C   UNL     1      12.992 -18.117   7.596  1.00  0.00     0.048 A 
ATOM     10  C   UNL     1      12.074 -17.060   7.598  1.00  0.00     0.138 A 
ATOM     11  O   UNL     1      10.775 -17.318   7.713  1.00  0.00    -0.456 OA
ENDROOT
BRANCH   1  12
ATOM     12  C   UNL     1       8.407 -16.800   7.860  1.00  0.00     0.017 A 
ATOM     13  C   UNL     1       5.705 -17.545   8.193  1.00  0.00     0.000 A 
ATOM     14  C   UNL     1       6.470 -18.125   7.181  1.00  0.00     0.001 A 
ATOM     15  C   UNL     1       6.277 -16.597   9.040  1.00  0.00     0.001 A 
ATOM     16  C   UNL     1       7.809 -17.759   7.011  1.00  0.00     0.012 A 
ATOM     17  C   UNL     1       7.614 -16.227   8.877  1.00  0.00     0.012 A 
ENDBRANCH   1  12
TORSDOF 1
ENDMDL
MODEL 2
REMARK VINA RESULT:    -6.232      0.095      1.175
REMARK INTER + INTRA:          -6.834
REMARK INTER:                  -6.597
REMARK INTRA:                  -0.237
REMARK UNBOUND:                -0.238
REMARK SMILES O=c1cc(-c2ccccc2)oc2ccccc12
REMARK SMILES IDX 4 1 3 2 2 3 1 4 17 5 16 6 15 7 14 8 13 9 12 10 11 11 5 12
REMARK SMILES IDX 8 13 7 14 9 15 6 16 10 17
REMARK H PARENT
REMARK Flexibility Score: inf
ROOT
ATOM      1  C   UNL     1       9.903 -16.349   7.745  1.00  0.00     0.138 A 
ATOM      2  C   UNL     1      10.293 -14.999   7.623  1.00  0.00     0.100 A 
ATOM      3  C   UNL     1      11.647 -14.684   7.479  1.00  0.00     0.193 A 
ATOM      4  O   UNL     1      11.996 -13.478   7.369  1.00  0.00    -0.289 OA
ATOM      5  C   UNL     1      12.596 -15.715   7.459  1.00  0.00     0.065 A 
ATOM      6  C   UNL     1      13.975 -15.467   7.318  1.00  0.00     0.016 A 
ATOM      7  C   UNL     1      14.880 -16.533   7.305  1.00  0.00     0.001 A 
ATOM      8  C   UNL     1      14.421 -17.847   7.432  1.00  0.00     0.004 A 
ATOM      9  C   UNL     1      13.054 -18.103   7.573  1.00  0.00     0.048 A 
ATOM     10  C   UNL     1      12.139 -17.044   7.587  1.00  0.00     0.138 A 
ATOM     11  O   UNL     1      10.841 -17.297   7.721  1.00  0.00    -0.456 OA
ENDROOT
BRANCH   1  12
ATOM     12  C   UNL     1       8.477 -16.772   7.902  1.00  0.00     0.017 A 
ATOM     13  C   UNL     1       5.796 -17.629   8.119  1.00  0.00     0.000 A 
ATOM     14  C   UNL     1       6.311 -16.708   9.032  1.00  0.00     0.001 A 
ATOM     15  C   UNL     1       6.606 -18.125   7.100  1.00  0.00     0.001 A 
ATOM     16  C   UNL     1       7.639 -16.281   8.929  1.00  0.00     0.012 A 
ATOM     17  C   UNL     1       7.934 -17.702   6.990  1.00  0.00     0.012 A 
ENDBRANCH   1  12
TORSDOF 1
ENDMDL
MODEL 3
REMARK VINA RESULT:    -5.981      1.330      2.664
REMARK INTER + INTRA:          -6.569
REMARK INTER:                  -6.309
REMARK INTRA:                  -0.259
REMARK UNBOUND:                -0.238
REMARK SMILES O=c1cc(-c2ccccc2)oc2ccccc12
REMARK SMILES IDX 4 1 3 2 2 3 1 4 17 5 16 6 15 7 14 8 13 9 12 10 11 11 5 12
REMARK SMILES IDX 8 13 7 14 9 15 6 16 10 17
REMARK H PARENT
REMARK Flexibility Score: inf
ROOT
ATOM      1  C   UNL     1      10.431 -16.607   7.383  1.00  0.00     0.138 A 
ATOM      2  C   UNL     1      11.279 -17.573   6.802  1.00  0.00     0.100 A 
ATOM      3  C   UNL     1      12.621 -17.262   6.572  1.00  0.00     0.193 A 
ATOM      4  O   UNL     1      13.380 -18.125   6.054  1.00  0.00    -0.289 OA
ATOM      5  C   UNL     1      13.104 -15.993   6.922  1.00  0.00     0.065 A 
ATOM      6  C   UNL     1      14.445 -15.616   6.717  1.00  0.00     0.016 A 
ATOM      7  C   UNL     1      14.875 -14.336   7.084  1.00  0.00     0.001 A 
ATOM      8  C   UNL     1      13.978 -13.429   7.655  1.00  0.00     0.004 A 
ATOM      9  C   UNL     1      12.645 -13.796   7.862  1.00  0.00     0.048 A 
ATOM     10  C   UNL     1      12.203 -15.074   7.498  1.00  0.00     0.138 A 
ATOM     11  O   UNL     1      10.934 -15.413   7.699  1.00  0.00    -0.456 OA
ENDROOT
BRANCH   1  12
ATOM     12  C   UNL     1       8.983 -16.858   7.662  1.00  0.00     0.017 A 
ATOM     13  C   UNL     1       6.251 -17.400   8.119  1.00  0.00     0.000 A 
ATOM     14  C   UNL     1       6.903 -16.421   8.868  1.00  0.00     0.001 A 
ATOM     15  C   UNL     1       6.950 -18.111   7.145  1.00  0.00     0.001 A 
ATOM     16  C   UNL     1       8.256 -16.148   8.646  1.00  0.00     0.012 A 
ATOM     17  C   UNL     1       8.302 -17.844   6.916  1.00  0.00     0.012 A 
ENDBRANCH   1  12
TORSDOF 1
ENDMDL
MODEL 4
REMARK VINA RESULT:    -5.208      1.556      6.198
REMARK INTER + INTRA:          -5.751
REMARK INTER:                  -5.494
REMARK INTRA:                  -0.257
REMARK UNBOUND:                -0.238
REMARK SMILES O=c1cc(-c2ccccc2)oc2ccccc12
REMARK SMILES IDX 4 1 3 2 2 3 1 4 17 5 16 6 15 7 14 8 13 9 12 10 11 11 5 12
REMARK SMILES IDX 8 13 7 14 9 15 6 16 10 17
REMARK H PARENT
REMARK Flexibility Score: inf
ROOT
ATOM      1  C   UNL     1      10.330 -17.040   7.509  1.00  0.00     0.138 A 
ATOM      2  C   UNL     1       9.862 -17.412   6.231  1.00  0.00     0.100 A 
ATOM      3  C   UNL     1       8.524 -17.777   6.067  1.00  0.00     0.193 A 
ATOM      4  O   UNL     1       8.105 -18.109   4.925  1.00  0.00    -0.289 OA
ATOM      5  C   UNL     1       7.666 -17.768   7.175  1.00  0.00     0.065 A 
ATOM      6  C   UNL     1       6.308 -18.125   7.079  1.00  0.00     0.016 A 
ATOM      7  C   UNL     1       5.495 -18.099   8.217  1.00  0.00     0.001 A 
ATOM      8  C   UNL     1       6.027 -17.720   9.453  1.00  0.00     0.004 A 
ATOM      9  C   UNL     1       7.375 -17.364   9.558  1.00  0.00     0.048 A 
ATOM     10  C   UNL     1       8.198 -17.387   8.425  1.00  0.00     0.138 A 
ATOM     11  O   UNL     1       9.477 -17.047   8.535  1.00  0.00    -0.456 OA
ENDROOT
BRANCH   1  12
ATOM     12  C   UNL     1      11.746 -16.636   7.771  1.00  0.00     0.017 A 
ATOM     13  C   UNL     1      14.447 -15.932   8.191  1.00  0.00     0.000 A 
ATOM     14  C   UNL     1      13.452 -15.410   9.019  1.00  0.00     0.001 A 
ATOM     15  C   UNL     1      14.106 -16.801   7.157  1.00  0.00     0.001 A 
ATOM     16  C   UNL     1      12.113 -15.756   8.815  1.00  0.00     0.012 A 
ATOM     17  C   UNL     1      12.769 -17.152   6.947  1.00  0.00     0.012 A 
ENDBRANCH   1  12
TORSDOF 1
ENDMDL
MODEL 5
REMARK VINA RESULT:    -3.664      1.685      2.354
REMARK INTER + INTRA:          -4.116
REMARK INTER:                  -3.855
REMARK INTRA:                  -0.261
REMARK UNBOUND:                -0.238
REMARK SMILES O=c1cc(-c2ccccc2)oc2ccccc12
REMARK SMILES IDX 4 1 3 2 2 3 1 4 17 5 16 6 15 7 14 8 13 9 12 10 11 11 5 12
REMARK SMILES IDX 8 13 7 14 9 15 6 16 10 17
REMARK H PARENT
REMARK Flexibility Score: inf
ROOT
ATOM      1  C   UNL     1       8.857 -17.475   7.786  1.00  0.00     0.138 A 
ATOM      2  C   UNL     1       9.367 -17.937   6.555  1.00  0.00     0.100 A 
ATOM      3  C   UNL     1      10.708 -17.712   6.237  1.00  0.00     0.193 A 
ATOM      4  O   UNL     1      11.164 -18.125   5.136  1.00  0.00    -0.289 OA
ATOM      5  C   UNL     1      11.527 -17.029   7.147  1.00  0.00     0.065 A 
ATOM      6  C   UNL     1      12.887 -16.770   6.888  1.00  0.00     0.016 A 
ATOM      7  C   UNL     1      13.660 -16.084   7.831  1.00  0.00     0.001 A 
ATOM      8  C   UNL     1      13.087 -15.655   9.032  1.00  0.00     0.004 A 
ATOM      9  C   UNL     1      11.738 -15.909   9.297  1.00  0.00     0.048 A 
ATOM     10  C   UNL     1      10.955 -16.594   8.360  1.00  0.00     0.138 A 
ATOM     11  O   UNL     1       9.674 -16.830   8.621  1.00  0.00    -0.456 OA
ENDROOT
BRANCH   1  12
ATOM     12  C   UNL     1       7.435 -17.674   8.204  1.00  0.00     0.017 A 
ATOM     13  C   UNL     1       4.778 -18.036   9.087  1.00  0.00     0.000 A 
ATOM     14  C   UNL     1       5.081 -18.125   7.728  1.00  0.00     0.001 A 
ATOM     15  C   UNL     1       5.789 -17.768  10.008  1.00  0.00     0.001 A 
ATOM     16  C   UNL     1       6.395 -17.946   7.285  1.00  0.00     0.012 A 
ATOM     17  C   UNL     1       7.106 -17.589   9.574  1.00  0.00     0.012 A 
ENDBRANCH   1  12
TORSDOF 1
ENDMDL
