MODEL 1
REMARK VINA RESULT:    -3.185      0.000      0.000
REMARK INTER + INTRA:          -3.784
REMARK INTER:                  -3.744
REMARK INTRA:                  -0.040
REMARK UNBOUND:                -0.040
REMARK SMILES CCCCC(=O)[O-]
REMARK SMILES IDX 4 1 5 2 6 3 7 4 3 5 2 6 1 7
REMARK H PARENT
REMARK Flexibility Score: inf
ROOT
ATOM      1  C   UNL     1      27.598  43.212  26.265  1.00  0.00     0.053 C 
ENDROOT
BRANCH   1   2
ATOM      2  C   UNL     1      26.638  42.308  25.554  1.00  0.00     0.041 C 
ATOM      3  O   UNL     1      26.239  42.591  24.393  1.00  0.00    -0.550 OA
ATOM      4  O   UNL     1      26.159  41.167  26.185  1.00  0.00    -0.550 OA
ENDBRANCH   1   2
BRANCH   1   5
ATOM      5  C   UNL     1      28.714  42.439  26.990  1.00  0.00     0.006 C 
BRANCH   5   6
ATOM      6  C   UNL     1      30.116  42.667  26.397  1.00  0.00    -0.003 C 
ATOM      7  C   UNL     1      30.369  44.118  25.990  1.00  0.00     0.004 C 
ENDBRANCH   5   6
ENDBRANCH   1   5
TORSDOF 3
ENDMDL
MODEL 2
REMARK VINA RESULT:    -3.167      2.681      3.801
REMARK INTER + INTRA:          -3.762
REMARK INTER:                  -3.686
REMARK INTRA:                  -0.077
REMARK UNBOUND:                -0.040
REMARK SMILES CCCCC(=O)[O-]
REMARK SMILES IDX 4 1 5 2 6 3 7 4 3 5 2 6 1 7
REMARK H PARENT
REMARK Flexibility Score: inf
ROOT
ATOM      1  C   UNL     1      28.545  43.606  26.373  1.00  0.00     0.053 C 
ENDROOT
BRANCH   1   2
ATOM      2  C   UNL     1      30.014  43.405  26.153  1.00  0.00     0.041 C 
ATOM      3  O   UNL     1      30.542  42.283  26.372  1.00  0.00    -0.550 OA
ATOM      4  O   UNL     1      30.806  44.466  25.735  1.00  0.00    -0.550 OA
ENDBRANCH   1   2
BRANCH   1   5
ATOM      5  C   UNL     1      27.886  42.420  27.098  1.00  0.00     0.006 C 
BRANCH   5   6
ATOM      6  C   UNL     1      26.756  41.750  26.298  1.00  0.00    -0.003 C 
ATOM      7  C   UNL     1      26.470  42.442  24.964  1.00  0.00     0.004 C 
ENDBRANCH   5   6
ENDBRANCH   1   5
TORSDOF 3
ENDMDL
MODEL 3
REMARK VINA RESULT:    -3.157      2.686      3.641
REMARK INTER + INTRA:          -3.751
REMARK INTER:                  -3.677
REMARK INTRA:                  -0.074
REMARK UNBOUND:                -0.040
REMARK SMILES CCCCC(=O)[O-]
REMARK SMILES IDX 4 1 5 2 6 3 7 4 3 5 2 6 1 7
REMARK H PARENT
REMARK Flexibility Score: inf
ROOT
ATOM      1  C   UNL     1      28.533  43.605  26.360  1.00  0.00     0.053 C 
ENDROOT
BRANCH   1   2
ATOM      2  C   UNL     1      30.017  43.441  26.231  1.00  0.00     0.041 C 
ATOM      3  O   UNL     1      30.740  44.419  25.904  1.00  0.00    -0.550 OA
ATOM      4  O   UNL     1      30.600  42.198  26.443  1.00  0.00    -0.550 OA
ENDBRANCH   1   2
BRANCH   1   5
ATOM      5  C   UNL     1      27.872  42.446  27.125  1.00  0.00     0.006 C 
BRANCH   5   6
ATOM      6  C   UNL     1      26.832  41.668  26.300  1.00  0.00    -0.003 C 
ATOM      7  C   UNL     1      26.463  42.361  24.988  1.00  0.00     0.004 C 
ENDBRANCH   5   6
ENDBRANCH   1   5
TORSDOF 3
ENDMDL
MODEL 4
REMARK VINA RESULT:    -3.097     15.550     16.098
REMARK INTER + INTRA:          -3.680
REMARK INTER:                  -3.571
REMARK INTRA:                  -0.109
REMARK UNBOUND:                -0.040
REMARK SMILES CCCCC(=O)[O-]
REMARK SMILES IDX 4 1 5 2 6 3 7 4 3 5 2 6 1 7
REMARK H PARENT
REMARK Flexibility Score: inf
ROOT
ATOM      1  C   UNL     1      30.536  51.142  38.547  1.00  0.00     0.053 C 
ENDROOT
BRANCH   1   2
ATOM      2  C   UNL     1      30.116  50.176  39.614  1.00  0.00     0.041 C 
ATOM      3  O   UNL     1      30.894  49.902  40.565  1.00  0.00    -0.550 OA
ATOM      4  O   UNL     1      28.876  49.555  39.540  1.00  0.00    -0.550 OA
ENDBRANCH   1   2
BRANCH   1   5
ATOM      5  C   UNL     1      29.893  52.529  38.716  1.00  0.00     0.006 C 
BRANCH   5   6
ATOM      6  C   UNL     1      28.564  52.696  37.958  1.00  0.00    -0.003 C 
ATOM      7  C   UNL     1      27.347  52.758  38.882  1.00  0.00     0.004 C 
ENDBRANCH   5   6
ENDBRANCH   1   5
TORSDOF 3
ENDMDL
MODEL 5
REMARK VINA RESULT:    -2.996      1.194      1.632
REMARK INTER + INTRA:          -3.561
REMARK INTER:                  -3.512
REMARK INTRA:                  -0.049
REMARK UNBOUND:                -0.040
REMARK SMILES CCCCC(=O)[O-]
REMARK SMILES IDX 4 1 5 2 6 3 7 4 3 5 2 6 1 7
REMARK H PARENT
REMARK Flexibility Score: inf
ROOT
ATOM      1  C   UNL     1      27.479  42.507  27.342  1.00  0.00     0.053 C 
ENDROOT
BRANCH   1   2
ATOM      2  C   UNL     1      26.472  41.445  27.021  1.00  0.00     0.041 C 
ATOM      3  O   UNL     1      26.064  41.292  25.839  1.00  0.00    -0.550 OA
ATOM      4  O   UNL     1      25.960  40.643  28.033  1.00  0.00    -0.550 OA
ENDBRANCH   1   2
BRANCH   1   5
ATOM      5  C   UNL     1      28.003  43.228  26.088  1.00  0.00     0.006 C 
BRANCH   5   6
ATOM      6  C   UNL     1      29.498  43.585  26.153  1.00  0.00    -0.003 C 
ATOM      7  C   UNL     1      30.372  42.431  26.645  1.00  0.00     0.004 C 
ENDBRANCH   5   6
ENDBRANCH   1   5
TORSDOF 3
ENDMDL
MODEL 6
REMARK VINA RESULT:    -2.815     15.737     16.052
REMARK INTER + INTRA:          -3.349
REMARK INTER:                  -3.250
REMARK INTRA:                  -0.099
REMARK UNBOUND:                -0.040
REMARK SMILES CCCCC(=O)[O-]
REMARK SMILES IDX 4 1 5 2 6 3 7 4 3 5 2 6 1 7
REMARK H PARENT
REMARK Flexibility Score: inf
ROOT
ATOM      1  C   UNL     1      28.391  49.958  39.662  1.00  0.00     0.053 C 
ENDROOT
BRANCH   1   2
ATOM      2  C   UNL     1      29.845  49.653  39.855  1.00  0.00     0.041 C 
ATOM      3  O   UNL     1      30.722  50.489  39.512  1.00  0.00    -0.550 OA
ATOM      4  O   UNL     1      30.234  48.430  40.387  1.00  0.00    -0.550 OA
ENDBRANCH   1   2
BRANCH   1   5
ATOM      5  C   UNL     1      28.045  51.424  39.976  1.00  0.00     0.006 C 
BRANCH   5   6
ATOM      6  C   UNL     1      27.602  52.237  38.747  1.00  0.00    -0.003 C 
ATOM      7  C   UNL     1      28.754  52.979  38.069  1.00  0.00     0.004 C 
ENDBRANCH   5   6
ENDBRANCH   1   5
TORSDOF 3
ENDMDL
MODEL 7
REMARK VINA RESULT:    -2.597     16.443     16.828
REMARK INTER + INTRA:          -3.093
REMARK INTER:                  -2.976
REMARK INTRA:                  -0.117
REMARK UNBOUND:                -0.040
REMARK SMILES CCCCC(=O)[O-]
REMARK SMILES IDX 4 1 5 2 6 3 7 4 3 5 2 6 1 7
REMARK H PARENT
REMARK Flexibility Score: inf
ROOT
ATOM      1  C   UNL     1      27.556  52.351  38.873  1.00  0.00     0.053 C 
ENDROOT
BRANCH   1   2
ATOM      2  C   UNL     1      28.707  53.309  38.912  1.00  0.00     0.041 C 
ATOM      3  O   UNL     1      28.529  54.503  39.271  1.00  0.00    -0.550 OA
ATOM      4  O   UNL     1      29.973  52.892  38.522  1.00  0.00    -0.550 OA
ENDBRANCH   1   2
BRANCH   1   5
ATOM      5  C   UNL     1      27.202  51.791  40.261  1.00  0.00     0.006 C 
BRANCH   5   6
ATOM      6  C   UNL     1      28.182  50.718  40.768  1.00  0.00    -0.003 C 
ATOM      7  C   UNL     1      28.546  49.684  39.703  1.00  0.00     0.004 C 
ENDBRANCH   5   6
ENDBRANCH   1   5
TORSDOF 3
ENDMDL
MODEL 8
REMARK VINA RESULT:    -2.445     16.042     16.446
REMARK INTER + INTRA:          -2.913
REMARK INTER:                  -2.892
REMARK INTRA:                  -0.022
REMARK UNBOUND:                -0.040
REMARK SMILES CCCCC(=O)[O-]
REMARK SMILES IDX 4 1 5 2 6 3 7 4 3 5 2 6 1 7
REMARK H PARENT
REMARK Flexibility Score: inf
ROOT
ATOM      1  C   UNL     1      29.412  52.344  39.798  1.00  0.00     0.053 C 
ENDROOT
BRANCH   1   2
ATOM      2  C   UNL     1      28.486  53.204  38.992  1.00  0.00     0.041 C 
ATOM      3  O   UNL     1      28.545  54.459  39.081  1.00  0.00    -0.550 OA
ATOM      4  O   UNL     1      27.536  52.618  38.166  1.00  0.00    -0.550 OA
ENDBRANCH   1   2
BRANCH   1   5
ATOM      5  C   UNL     1      30.019  51.194  38.976  1.00  0.00     0.006 C 
BRANCH   5   6
ATOM      6  C   UNL     1      30.568  50.039  39.831  1.00  0.00    -0.003 C 
ATOM      7  C   UNL     1      29.514  48.981  40.161  1.00  0.00     0.004 C 
ENDBRANCH   5   6
ENDBRANCH   1   5
TORSDOF 3
ENDMDL
MODEL 9
REMARK VINA RESULT:    -2.421      2.666      4.031
REMARK INTER + INTRA:          -2.886
REMARK INTER:                  -2.862
REMARK INTRA:                  -0.024
REMARK UNBOUND:                -0.040
REMARK SMILES CCCCC(=O)[O-]
REMARK SMILES IDX 4 1 5 2 6 3 7 4 3 5 2 6 1 7
REMARK H PARENT
REMARK Flexibility Score: inf
ROOT
ATOM      1  C   UNL     1      27.143  42.179  27.397  1.00  0.00     0.053 C 
ENDROOT
BRANCH   1   2
ATOM      2  C   UNL     1      27.554  43.029  26.233  1.00  0.00     0.041 C 
ATOM      3  O   UNL     1      28.624  43.691  26.275  1.00  0.00    -0.550 OA
ATOM      4  O   UNL     1      26.738  43.115  25.112  1.00  0.00    -0.550 OA
ENDBRANCH   1   2
BRANCH   1   5
ATOM      5  C   UNL     1      26.313  40.955  26.974  1.00  0.00     0.006 C 
BRANCH   5   6
ATOM      6  C   UNL     1      25.276  40.513  28.022  1.00  0.00    -0.003 C 
ATOM      7  C   UNL     1      25.549  39.120  28.588  1.00  0.00     0.004 C 
ENDBRANCH   5   6
ENDBRANCH   1   5
TORSDOF 3
ENDMDL
