MODEL 1
REMARK VINA RESULT:    -5.825      0.000      0.000
REMARK INTER + INTRA:          -9.934
REMARK INTER:                  -9.061
REMARK INTRA:                  -0.874
REMARK UNBOUND:                -0.874
REMARK SMILES C[C@@]12C[C@@]3(O)O[C@@H](O1)[C@]1(COC(=O)c4ccccc4)[C@H]3C[C@@]12O[C@@H]1O[C@H](CO)[C@@H](O)[C@H](O)[C@H]1O
REMARK SMILES IDX 1 1 2 2 3 3 4 4 20 5 21 6 22 7 9 8 7 9 8 10 6 11 23 12 24 13
REMARK SMILES IDX 33 14 25 15 31 16 26 17 29 18 34 19 32 21 27 23 28 24 30 26
REMARK SMILES IDX 5 28 10 30 11 31 12 32 13 33 14 34 15 35 19 36 16 37 18 38
REMARK SMILES IDX 17 39
REMARK H PARENT 34 20 32 22 28 25 30 27 5 29
REMARK Flexibility Score: inf
ROOT
ATOM      1  C   UNL     1     -57.792  27.810 -11.221  1.00  0.00     0.046 C 
ATOM      2  C   UNL     1     -56.362  27.302 -11.379  1.00  0.00     0.104 C 
ATOM      3  C   UNL     1     -55.396  28.014 -10.362  1.00  0.00     0.104 C 
ATOM      4  C   UNL     1     -53.991  27.423 -10.726  1.00  0.00     0.175 C 
ATOM      5  C   UNL     1     -53.749  27.497 -12.268  1.00  0.00     0.070 C 
ATOM      6  C   UNL     1     -54.693  28.494 -12.975  1.00  0.00     0.050 C 
ATOM      7  C   UNL     1     -55.779  27.398 -12.849  1.00  0.00     0.115 C 
ATOM      8  C   UNL     1     -54.667  26.349 -12.691  1.00  0.00     0.096 C 
ATOM      9  C   UNL     1     -54.978  25.564 -11.426  1.00  0.00     0.267 C 
ATOM     10  O   UNL     1     -56.297  25.927 -11.060  1.00  0.00    -0.342 OA
ATOM     11  O   UNL     1     -54.071  26.041 -10.444  1.00  0.00    -0.320 OA
ENDROOT
BRANCH   7  12
ATOM     12  O   UNL     1     -56.765  27.180 -13.869  1.00  0.00    -0.339 OA
BRANCH  12  13
ATOM     13  C   UNL     1     -56.476  27.757 -15.138  1.00  0.00     0.282 C 
ATOM     14  C   UNL     1     -56.663  26.721 -16.262  1.00  0.00     0.202 C 
ATOM     15  O   UNL     1     -57.198  28.960 -15.355  1.00  0.00    -0.341 OA
ATOM     16  C   UNL     1     -58.139  26.415 -16.500  1.00  0.00     0.179 C 
ATOM     17  C   UNL     1     -58.586  28.807 -15.633  1.00  0.00     0.178 C 
ATOM     18  C   UNL     1     -58.940  27.720 -16.687  1.00  0.00     0.177 C 
BRANCH  14  19
ATOM     19  O   UNL     1     -56.089  27.198 -17.455  1.00  0.00    -0.385 OA
ATOM     20  H   UNL     1     -56.786  27.735 -17.917  1.00  0.00     0.211 HD
ENDBRANCH  14  19
BRANCH  16  21
ATOM     21  O   UNL     1     -58.641  25.651 -15.434  1.00  0.00    -0.387 OA
ATOM     22  H   UNL     1     -59.630  25.727 -15.466  1.00  0.00     0.211 HD
ENDBRANCH  16  21
BRANCH  17  23
ATOM     23  C   UNL     1     -59.445  28.800 -14.353  1.00  0.00     0.191 C 
BRANCH  23  24
ATOM     24  O   UNL     1     -60.358  27.739 -14.334  1.00  0.00    -0.394 OA
ATOM     25  H   UNL     1     -60.012  27.040 -14.948  1.00  0.00     0.210 HD
ENDBRANCH  23  24
ENDBRANCH  17  23
BRANCH  18  26
ATOM     26  O   UNL     1     -58.684  28.238 -17.970  1.00  0.00    -0.387 OA
ATOM     27  H   UNL     1     -57.833  27.833 -18.285  1.00  0.00     0.211 HD
ENDBRANCH  18  26
ENDBRANCH  12  13
ENDBRANCH   7  12
BRANCH   4  28
ATOM     28  O   UNL     1     -52.956  28.016  -9.990  1.00  0.00    -0.365 OA
ATOM     29  H   UNL     1     -53.349  28.299  -9.122  1.00  0.00     0.214 HD
ENDBRANCH   4  28
BRANCH   8  30
ATOM     30  C   UNL     1     -54.156  25.521 -13.888  1.00  0.00     0.249 C 
BRANCH  30  31
ATOM     31  O   UNL     1     -53.135  24.627 -13.455  1.00  0.00    -0.461 OA
BRANCH  31  32
ATOM     32  C   UNL     1     -52.157  24.117 -14.312  1.00  0.00     0.338 C 
ATOM     33  O   UNL     1     -52.181  22.900 -14.646  1.00  0.00    -0.246 OA
BRANCH  32  34
ATOM     34  C   UNL     1     -51.093  25.008 -14.822  1.00  0.00     0.060 A 
ATOM     35  C   UNL     1     -50.450  24.738 -16.045  1.00  0.00     0.015 A 
ATOM     36  C   UNL     1     -50.706  26.143 -14.085  1.00  0.00     0.015 A 
ATOM     37  C   UNL     1     -49.443  25.586 -16.517  1.00  0.00     0.001 A 
ATOM     38  C   UNL     1     -49.698  26.986 -14.561  1.00  0.00     0.001 A 
ATOM     39  C   UNL     1     -49.068  26.708 -15.776  1.00  0.00     0.000 A 
ENDBRANCH  32  34
ENDBRANCH  31  32
ENDBRANCH  30  31
ENDBRANCH   8  30
TORSDOF 12
ENDMDL
MODEL 2
REMARK VINA RESULT:    -5.820      2.670      4.958
REMARK INTER + INTRA:          -9.926
REMARK INTER:                  -8.347
REMARK INTRA:                  -1.579
REMARK UNBOUND:                -0.874
REMARK SMILES C[C@@]12C[C@@]3(O)O[C@@H](O1)[C@]1(COC(=O)c4ccccc4)[C@H]3C[C@@]12O[C@@H]1O[C@H](CO)[C@@H](O)[C@H](O)[C@H]1O
REMARK SMILES IDX 1 1 2 2 3 3 4 4 20 5 21 6 22 7 9 8 7 9 8 10 6 11 23 12 24 13
REMARK SMILES IDX 33 14 25 15 31 16 26 17 29 18 34 19 32 21 27 23 28 24 30 26
REMARK SMILES IDX 5 28 10 30 11 31 12 32 13 33 14 34 15 35 19 36 16 37 18 38
REMARK SMILES IDX 17 39
REMARK H PARENT 34 20 32 22 28 25 30 27 5 29
REMARK Flexibility Score: inf
ROOT
ATOM      1  C   UNL     1     -57.178  29.125 -11.209  1.00  0.00     0.046 C 
ATOM      2  C   UNL     1     -56.290  27.884 -11.191  1.00  0.00     0.104 C 
ATOM      3  C   UNL     1     -54.975  28.143 -10.369  1.00  0.00     0.104 C 
ATOM      4  C   UNL     1     -54.179  26.803 -10.529  1.00  0.00     0.175 C 
ATOM      5  C   UNL     1     -54.130  26.372 -12.030  1.00  0.00     0.070 C 
ATOM      6  C   UNL     1     -54.454  27.532 -12.996  1.00  0.00     0.050 C 
ATOM      7  C   UNL     1     -55.938  27.296 -12.619  1.00  0.00     0.115 C 
ATOM      8  C   UNL     1     -55.570  25.875 -12.164  1.00  0.00     0.096 C 
ATOM      9  C   UNL     1     -56.099  25.715 -10.748  1.00  0.00     0.267 C 
ATOM     10  O   UNL     1     -56.948  26.826 -10.524  1.00  0.00    -0.342 OA
ATOM     11  O   UNL     1     -54.966  25.813  -9.900  1.00  0.00    -0.320 OA
ENDROOT
BRANCH   7  12
ATOM     12  O   UNL     1     -57.000  27.440 -13.574  1.00  0.00    -0.339 OA
BRANCH  12  13
ATOM     13  C   UNL     1     -56.621  27.958 -14.844  1.00  0.00     0.282 C 
ATOM     14  C   UNL     1     -56.665  26.854 -15.918  1.00  0.00     0.202 C 
ATOM     15  O   UNL     1     -57.365  29.115 -15.194  1.00  0.00    -0.341 OA
ATOM     16  C   UNL     1     -58.101  26.472 -16.265  1.00  0.00     0.179 C 
ATOM     17  C   UNL     1     -58.715  28.887 -15.583  1.00  0.00     0.178 C 
ATOM     18  C   UNL     1     -58.931  27.729 -16.598  1.00  0.00     0.177 C 
BRANCH  14  19
ATOM     19  O   UNL     1     -56.006  27.290 -17.081  1.00  0.00    -0.385 OA
ATOM     20  H   UNL     1     -55.174  26.753 -17.161  1.00  0.00     0.211 HD
ENDBRANCH  14  19
BRANCH  16  21
ATOM     21  O   UNL     1     -58.667  25.747 -15.204  1.00  0.00    -0.387 OA
ATOM     22  H   UNL     1     -59.639  25.952 -15.202  1.00  0.00     0.211 HD
ENDBRANCH  16  21
BRANCH  17  23
ATOM     23  C   UNL     1     -59.685  28.914 -14.385  1.00  0.00     0.191 C 
BRANCH  23  24
ATOM     24  O   UNL     1     -60.639  27.892 -14.453  1.00  0.00    -0.394 OA
ATOM     25  H   UNL     1     -60.597  27.508 -15.367  1.00  0.00     0.210 HD
ENDBRANCH  23  24
ENDBRANCH  17  23
BRANCH  18  26
ATOM     26  O   UNL     1     -58.581  28.187 -17.883  1.00  0.00    -0.387 OA
ATOM     27  H   UNL     1     -59.157  28.972 -18.080  1.00  0.00     0.211 HD
ENDBRANCH  18  26
ENDBRANCH  12  13
ENDBRANCH   7  12
BRANCH   4  28
ATOM     28  O   UNL     1     -52.906  26.865  -9.944  1.00  0.00    -0.365 OA
ATOM     29  H   UNL     1     -52.405  27.574 -10.428  1.00  0.00     0.214 HD
ENDBRANCH   4  28
BRANCH   8  30
ATOM     30  C   UNL     1     -55.747  24.655 -13.091  1.00  0.00     0.249 C 
BRANCH  30  31
ATOM     31  O   UNL     1     -57.078  24.158 -12.984  1.00  0.00    -0.461 OA
BRANCH  31  32
ATOM     32  C   UNL     1     -57.370  22.824 -12.690  1.00  0.00     0.338 C 
ATOM     33  O   UNL     1     -56.918  21.900 -13.422  1.00  0.00    -0.246 OA
BRANCH  32  34
ATOM     34  C   UNL     1     -58.214  22.500 -11.519  1.00  0.00     0.060 A 
ATOM     35  C   UNL     1     -58.902  23.513 -10.824  1.00  0.00     0.015 A 
ATOM     36  C   UNL     1     -58.336  21.169 -11.080  1.00  0.00     0.015 A 
ATOM     37  C   UNL     1     -59.695  23.197  -9.716  1.00  0.00     0.001 A 
ATOM     38  C   UNL     1     -59.129  20.859  -9.972  1.00  0.00     0.001 A 
ATOM     39  C   UNL     1     -59.808  21.871  -9.290  1.00  0.00     0.000 A 
ENDBRANCH  32  34
ENDBRANCH  31  32
ENDBRANCH  30  31
ENDBRANCH   8  30
TORSDOF 12
ENDMDL
MODEL 3
REMARK VINA RESULT:    -5.747      2.480      5.855
REMARK INTER + INTRA:          -9.812
REMARK INTER:                  -8.151
REMARK INTRA:                  -1.662
REMARK UNBOUND:                -0.874
REMARK SMILES C[C@@]12C[C@@]3(O)O[C@@H](O1)[C@]1(COC(=O)c4ccccc4)[C@H]3C[C@@]12O[C@@H]1O[C@H](CO)[C@@H](O)[C@H](O)[C@H]1O
REMARK SMILES IDX 1 1 2 2 3 3 4 4 20 5 21 6 22 7 9 8 7 9 8 10 6 11 23 12 24 13
REMARK SMILES IDX 33 14 25 15 31 16 26 17 29 18 34 19 32 21 27 23 28 24 30 26
REMARK SMILES IDX 5 28 10 30 11 31 12 32 13 33 14 34 15 35 19 36 16 37 18 38
REMARK SMILES IDX 17 39
REMARK H PARENT 34 20 32 22 28 25 30 27 5 29
REMARK Flexibility Score: inf
ROOT
ATOM      1  C   UNL     1     -55.076  28.934 -12.316  1.00  0.00     0.046 C 
ATOM      2  C   UNL     1     -54.971  27.441 -12.016  1.00  0.00     0.104 C 
ATOM      3  C   UNL     1     -53.497  27.044 -11.637  1.00  0.00     0.104 C 
ATOM      4  C   UNL     1     -53.580  25.492 -11.441  1.00  0.00     0.175 C 
ATOM      5  C   UNL     1     -54.320  24.828 -12.648  1.00  0.00     0.070 C 
ATOM      6  C   UNL     1     -54.379  25.742 -13.890  1.00  0.00     0.050 C 
ATOM      7  C   UNL     1     -55.519  26.492 -13.158  1.00  0.00     0.115 C 
ATOM      8  C   UNL     1     -55.747  25.244 -12.289  1.00  0.00     0.096 C 
ATOM      9  C   UNL     1     -55.705  25.704 -10.841  1.00  0.00     0.267 C 
ATOM     10  O   UNL     1     -55.750  27.119 -10.881  1.00  0.00    -0.342 OA
ATOM     11  O   UNL     1     -54.443  25.289 -10.341  1.00  0.00    -0.320 OA
ENDROOT
BRANCH   7  12
ATOM     12  O   UNL     1     -56.648  27.035 -13.859  1.00  0.00    -0.339 OA
BRANCH  12  13
ATOM     13  C   UNL     1     -56.365  27.617 -15.126  1.00  0.00     0.282 C 
ATOM     14  C   UNL     1     -56.623  26.607 -16.260  1.00  0.00     0.202 C 
ATOM     15  O   UNL     1     -57.037  28.853 -15.310  1.00  0.00    -0.341 OA
ATOM     16  C   UNL     1     -58.117  26.369 -16.466  1.00  0.00     0.179 C 
ATOM     17  C   UNL     1     -58.436  28.766 -15.556  1.00  0.00     0.178 C 
ATOM     18  C   UNL     1     -58.863  27.711 -16.616  1.00  0.00     0.177 C 
BRANCH  14  19
ATOM     19  O   UNL     1     -56.058  27.076 -17.460  1.00  0.00    -0.385 OA
ATOM     20  H   UNL     1     -56.361  26.466 -18.182  1.00  0.00     0.211 HD
ENDBRANCH  14  19
BRANCH  16  21
ATOM     21  O   UNL     1     -58.626  25.612 -15.399  1.00  0.00    -0.387 OA
ATOM     22  H   UNL     1     -59.106  26.244 -14.802  1.00  0.00     0.211 HD
ENDBRANCH  16  21
BRANCH  17  23
ATOM     23  C   UNL     1     -59.264  28.777 -14.255  1.00  0.00     0.191 C 
BRANCH  23  24
ATOM     24  O   UNL     1     -60.271  27.804 -14.259  1.00  0.00    -0.394 OA
ATOM     25  H   UNL     1     -59.976  27.077 -14.866  1.00  0.00     0.210 HD
ENDBRANCH  23  24
ENDBRANCH  17  23
BRANCH  18  26
ATOM     26  O   UNL     1     -58.616  28.236 -17.898  1.00  0.00    -0.387 OA
ATOM     27  H   UNL     1     -59.396  28.002 -18.466  1.00  0.00     0.211 HD
ENDBRANCH  18  26
ENDBRANCH  12  13
ENDBRANCH   7  12
BRANCH   4  28
ATOM     28  O   UNL     1     -52.326  24.916 -11.196  1.00  0.00    -0.365 OA
ATOM     29  H   UNL     1     -51.856  24.873 -12.070  1.00  0.00     0.214 HD
ENDBRANCH   4  28
BRANCH   8  30
ATOM     30  C   UNL     1     -56.830  24.201 -12.634  1.00  0.00     0.249 C 
BRANCH  30  31
ATOM     31  O   UNL     1     -57.803  24.157 -11.596  1.00  0.00    -0.461 OA
BRANCH  31  32
ATOM     32  C   UNL     1     -59.035  24.811 -11.680  1.00  0.00     0.338 C 
ATOM     33  O   UNL     1     -59.277  25.583 -12.648  1.00  0.00    -0.246 OA
BRANCH  32  34
ATOM     34  C   UNL     1     -60.052  24.594 -10.628  1.00  0.00     0.060 A 
ATOM     35  C   UNL     1     -59.944  23.514  -9.732  1.00  0.00     0.015 A 
ATOM     36  C   UNL     1     -61.149  25.468 -10.513  1.00  0.00     0.015 A 
ATOM     37  C   UNL     1     -60.913  23.316  -8.743  1.00  0.00     0.001 A 
ATOM     38  C   UNL     1     -62.115  25.265  -9.523  1.00  0.00     0.001 A 
ATOM     39  C   UNL     1     -61.997  24.190  -8.639  1.00  0.00     0.000 A 
ENDBRANCH  32  34
ENDBRANCH  31  32
ENDBRANCH  30  31
ENDBRANCH   8  30
TORSDOF 12
ENDMDL
MODEL 4
REMARK VINA RESULT:    -5.649      2.944      4.013
REMARK INTER + INTRA:          -9.660
REMARK INTER:                  -8.492
REMARK INTRA:                  -1.169
REMARK UNBOUND:                -0.874
REMARK SMILES C[C@@]12C[C@@]3(O)O[C@@H](O1)[C@]1(COC(=O)c4ccccc4)[C@H]3C[C@@]12O[C@@H]1O[C@H](CO)[C@@H](O)[C@H](O)[C@H]1O
REMARK SMILES IDX 1 1 2 2 3 3 4 4 20 5 21 6 22 7 9 8 7 9 8 10 6 11 23 12 24 13
REMARK SMILES IDX 33 14 25 15 31 16 26 17 29 18 34 19 32 21 27 23 28 24 30 26
REMARK SMILES IDX 5 28 10 30 11 31 12 32 13 33 14 34 15 35 19 36 16 37 18 38
REMARK SMILES IDX 17 39
REMARK H PARENT 34 20 32 22 28 25 30 27 5 29
REMARK Flexibility Score: inf
ROOT
ATOM      1  C   UNL     1     -56.398  27.839 -11.223  1.00  0.00     0.046 C 
ATOM      2  C   UNL     1     -55.742  26.512 -11.591  1.00  0.00     0.104 C 
ATOM      3  C   UNL     1     -54.335  26.369 -10.903  1.00  0.00     0.104 C 
ATOM      4  C   UNL     1     -53.802  25.002 -11.453  1.00  0.00     0.175 C 
ATOM      5  C   UNL     1     -53.961  24.938 -13.006  1.00  0.00     0.070 C 
ATOM      6  C   UNL     1     -54.161  26.329 -13.645  1.00  0.00     0.050 C 
ATOM      7  C   UNL     1     -55.624  26.235 -13.145  1.00  0.00     0.115 C 
ATOM      8  C   UNL     1     -55.471  24.707 -13.065  1.00  0.00     0.096 C 
ATOM      9  C   UNL     1     -55.894  24.296 -11.664  1.00  0.00     0.267 C 
ATOM     10  O   UNL     1     -56.514  25.436 -11.095  1.00  0.00    -0.342 OA
ATOM     11  O   UNL     1     -54.691  24.019 -10.965  1.00  0.00    -0.320 OA
ENDROOT
BRANCH   7  12
ATOM     12  O   UNL     1     -56.725  26.758 -13.904  1.00  0.00    -0.339 OA
BRANCH  12  13
ATOM     13  C   UNL     1     -56.378  27.420 -15.115  1.00  0.00     0.282 C 
ATOM     14  C   UNL     1     -56.660  26.515 -16.330  1.00  0.00     0.202 C 
ATOM     15  O   UNL     1     -56.980  28.702 -15.217  1.00  0.00    -0.341 OA
ATOM     16  C   UNL     1     -58.158  26.375 -16.586  1.00  0.00     0.179 C 
ATOM     17  C   UNL     1     -58.375  28.709 -15.499  1.00  0.00     0.178 C 
ATOM     18  C   UNL     1     -58.829  27.763 -16.647  1.00  0.00     0.177 C 
BRANCH  14  19
ATOM     19  O   UNL     1     -56.040  27.044 -17.477  1.00  0.00    -0.385 OA
ATOM     20  H   UNL     1     -56.058  26.333 -18.170  1.00  0.00     0.211 HD
ENDBRANCH  14  19
BRANCH  16  21
ATOM     21  O   UNL     1     -58.734  25.568 -15.593  1.00  0.00    -0.387 OA
ATOM     22  H   UNL     1     -59.679  25.858 -15.497  1.00  0.00     0.211 HD
ENDBRANCH  16  21
BRANCH  17  23
ATOM     23  C   UNL     1     -59.235  28.666 -14.220  1.00  0.00     0.191 C 
BRANCH  23  24
ATOM     24  O   UNL     1     -60.339  27.816 -14.352  1.00  0.00    -0.394 OA
ATOM     25  H   UNL     1     -60.122  26.973 -13.877  1.00  0.00     0.210 HD
ENDBRANCH  23  24
ENDBRANCH  17  23
BRANCH  18  26
ATOM     26  O   UNL     1     -58.521  28.372 -17.878  1.00  0.00    -0.387 OA
ATOM     27  H   UNL     1     -58.359  29.335 -17.696  1.00  0.00     0.211 HD
ENDBRANCH  18  26
ENDBRANCH  12  13
ENDBRANCH   7  12
BRANCH   4  28
ATOM     28  O   UNL     1     -52.491  24.732 -11.034  1.00  0.00    -0.365 OA
ATOM     29  H   UNL     1     -52.369  23.748 -11.098  1.00  0.00     0.214 HD
ENDBRANCH   4  28
BRANCH   8  30
ATOM     30  C   UNL     1     -55.939  23.783 -14.208  1.00  0.00     0.249 C 
BRANCH  30  31
ATOM     31  O   UNL     1     -56.116  22.459 -13.715  1.00  0.00    -0.461 OA
BRANCH  31  32
ATOM     32  C   UNL     1     -55.173  21.445 -13.905  1.00  0.00     0.338 C 
ATOM     33  O   UNL     1     -54.155  21.380 -13.162  1.00  0.00    -0.246 OA
BRANCH  32  34
ATOM     34  C   UNL     1     -55.375  20.450 -14.981  1.00  0.00     0.060 A 
ATOM     35  C   UNL     1     -54.410  19.457 -15.235  1.00  0.00     0.015 A 
ATOM     36  C   UNL     1     -56.539  20.487 -15.771  1.00  0.00     0.015 A 
ATOM     37  C   UNL     1     -54.609  18.523 -16.257  1.00  0.00     0.001 A 
ATOM     38  C   UNL     1     -56.732  19.552 -16.792  1.00  0.00     0.001 A 
ATOM     39  C   UNL     1     -55.768  18.571 -17.035  1.00  0.00     0.000 A 
ENDBRANCH  32  34
ENDBRANCH  31  32
ENDBRANCH  30  31
ENDBRANCH   8  30
TORSDOF 12
ENDMDL
MODEL 5
REMARK VINA RESULT:    -5.565      2.341      5.020
REMARK INTER + INTRA:          -9.530
REMARK INTER:                  -8.037
REMARK INTRA:                  -1.493
REMARK UNBOUND:                -0.874
REMARK SMILES C[C@@]12C[C@@]3(O)O[C@@H](O1)[C@]1(COC(=O)c4ccccc4)[C@H]3C[C@@]12O[C@@H]1O[C@H](CO)[C@@H](O)[C@H](O)[C@H]1O
REMARK SMILES IDX 1 1 2 2 3 3 4 4 20 5 21 6 22 7 9 8 7 9 8 10 6 11 23 12 24 13
REMARK SMILES IDX 33 14 25 15 31 16 26 17 29 18 34 19 32 21 27 23 28 24 30 26
REMARK SMILES IDX 5 28 10 30 11 31 12 32 13 33 14 34 15 35 19 36 16 37 18 38
REMARK SMILES IDX 17 39
REMARK H PARENT 34 20 32 22 28 25 30 27 5 29
REMARK Flexibility Score: inf
ROOT
ATOM      1  C   UNL     1     -59.374  27.746 -12.109  1.00  0.00     0.046 C 
ATOM      2  C   UNL     1     -58.407  27.768 -13.289  1.00  0.00     0.104 C 
ATOM      3  C   UNL     1     -59.053  28.478 -14.535  1.00  0.00     0.104 C 
ATOM      4  C   UNL     1     -57.954  28.335 -15.642  1.00  0.00     0.175 C 
ATOM      5  C   UNL     1     -57.443  26.860 -15.718  1.00  0.00     0.070 C 
ATOM      6  C   UNL     1     -58.408  25.857 -15.049  1.00  0.00     0.050 C 
ATOM      7  C   UNL     1     -57.828  26.353 -13.702  1.00  0.00     0.115 C 
ATOM      8  C   UNL     1     -56.585  26.857 -14.452  1.00  0.00     0.096 C 
ATOM      9  C   UNL     1     -56.397  28.315 -14.062  1.00  0.00     0.267 C 
ATOM     10  O   UNL     1     -57.266  28.539 -12.967  1.00  0.00    -0.342 OA
ATOM     11  O   UNL     1     -56.843  29.072 -15.176  1.00  0.00    -0.320 OA
ENDROOT
BRANCH   7  12
ATOM     12  O   UNL     1     -57.626  25.471 -12.588  1.00  0.00    -0.339 OA
BRANCH  12  13
ATOM     13  C   UNL     1     -58.307  24.224 -12.658  1.00  0.00     0.282 C 
ATOM     14  C   UNL     1     -57.330  23.089 -13.018  1.00  0.00     0.202 C 
ATOM     15  O   UNL     1     -59.067  23.962 -11.488  1.00  0.00    -0.341 OA
ATOM     16  C   UNL     1     -56.403  22.759 -11.851  1.00  0.00     0.179 C 
ATOM     17  C   UNL     1     -58.319  23.597 -10.333  1.00  0.00     0.178 C 
ATOM     18  C   UNL     1     -57.218  22.522 -10.563  1.00  0.00     0.177 C 
BRANCH  14  19
ATOM     19  O   UNL     1     -58.047  21.935 -13.383  1.00  0.00    -0.385 OA
ATOM     20  H   UNL     1     -58.821  22.235 -13.928  1.00  0.00     0.211 HD
ENDBRANCH  14  19
BRANCH  16  21
ATOM     21  O   UNL     1     -55.466  23.790 -11.686  1.00  0.00    -0.387 OA
ATOM     22  H   UNL     1     -55.633  24.191 -10.792  1.00  0.00     0.211 HD
ENDBRANCH  16  21
BRANCH  17  23
ATOM     23  C   UNL     1     -57.892  24.821  -9.498  1.00  0.00     0.191 C 
BRANCH  23  24
ATOM     24  O   UNL     1     -56.760  25.454 -10.026  1.00  0.00    -0.394 OA
ATOM     25  H   UNL     1     -56.708  26.356  -9.616  1.00  0.00     0.210 HD
ENDBRANCH  23  24
ENDBRANCH  17  23
BRANCH  18  26
ATOM     26  O   UNL     1     -57.833  21.258 -10.631  1.00  0.00    -0.387 OA
ATOM     27  H   UNL     1     -58.707  21.332 -10.164  1.00  0.00     0.211 HD
ENDBRANCH  18  26
ENDBRANCH  12  13
ENDBRANCH   7  12
BRANCH   4  28
ATOM     28  O   UNL     1     -58.382  28.821 -16.885  1.00  0.00    -0.365 OA
ATOM     29  H   UNL     1     -59.358  28.644 -16.940  1.00  0.00     0.214 HD
ENDBRANCH   4  28
BRANCH   8  30
ATOM     30  C   UNL     1     -55.297  26.014 -14.547  1.00  0.00     0.249 C 
BRANCH  30  31
ATOM     31  O   UNL     1     -54.269  26.616 -13.766  1.00  0.00    -0.461 OA
BRANCH  31  32
ATOM     32  C   UNL     1     -53.109  25.937 -13.382  1.00  0.00     0.338 C 
ATOM     33  O   UNL     1     -53.079  25.301 -12.292  1.00  0.00    -0.246 OA
BRANCH  32  34
ATOM     34  C   UNL     1     -51.918  25.970 -14.259  1.00  0.00     0.060 A 
ATOM     35  C   UNL     1     -50.913  26.937 -14.073  1.00  0.00     0.015 A 
ATOM     36  C   UNL     1     -51.777  25.031 -15.297  1.00  0.00     0.015 A 
ATOM     37  C   UNL     1     -49.792  26.961 -14.909  1.00  0.00     0.001 A 
ATOM     38  C   UNL     1     -50.655  25.060 -16.130  1.00  0.00     0.001 A 
ATOM     39  C   UNL     1     -49.664  26.024 -15.937  1.00  0.00     0.000 A 
ENDBRANCH  32  34
ENDBRANCH  31  32
ENDBRANCH  30  31
ENDBRANCH   8  30
TORSDOF 12
ENDMDL
MODEL 6
REMARK VINA RESULT:    -5.545      1.976      3.772
REMARK INTER + INTRA:          -9.498
REMARK INTER:                  -7.934
REMARK INTRA:                  -1.564
REMARK UNBOUND:                -0.874
REMARK SMILES C[C@@]12C[C@@]3(O)O[C@@H](O1)[C@]1(COC(=O)c4ccccc4)[C@H]3C[C@@]12O[C@@H]1O[C@H](CO)[C@@H](O)[C@H](O)[C@H]1O
REMARK SMILES IDX 1 1 2 2 3 3 4 4 20 5 21 6 22 7 9 8 7 9 8 10 6 11 23 12 24 13
REMARK SMILES IDX 33 14 25 15 31 16 26 17 29 18 34 19 32 21 27 23 28 24 30 26
REMARK SMILES IDX 5 28 10 30 11 31 12 32 13 33 14 34 15 35 19 36 16 37 18 38
REMARK SMILES IDX 17 39
REMARK H PARENT 34 20 32 22 28 25 30 27 5 29
REMARK Flexibility Score: inf
ROOT
ATOM      1  C   UNL     1     -55.993  22.587 -14.814  1.00  0.00     0.046 C 
ATOM      2  C   UNL     1     -55.182  23.039 -13.603  1.00  0.00     0.104 C 
ATOM      3  C   UNL     1     -55.163  21.927 -12.490  1.00  0.00     0.104 C 
ATOM      4  C   UNL     1     -54.360  22.597 -11.324  1.00  0.00     0.175 C 
ATOM      5  C   UNL     1     -54.910  24.030 -11.034  1.00  0.00     0.070 C 
ATOM      6  C   UNL     1     -56.324  24.257 -11.612  1.00  0.00     0.050 C 
ATOM      7  C   UNL     1     -55.625  24.427 -12.983  1.00  0.00     0.115 C 
ATOM      8  C   UNL     1     -54.314  24.745 -12.247  1.00  0.00     0.096 C 
ATOM      9  C   UNL     1     -53.254  23.813 -12.813  1.00  0.00     0.267 C 
ATOM     10  O   UNL     1     -53.829  23.228 -13.968  1.00  0.00    -0.342 OA
ATOM     11  O   UNL     1     -53.058  22.811 -11.828  1.00  0.00    -0.320 OA
ENDROOT
BRANCH   7  12
ATOM     12  O   UNL     1     -56.089  25.368 -13.964  1.00  0.00    -0.339 OA
BRANCH  12  13
ATOM     13  C   UNL     1     -57.411  25.857 -13.772  1.00  0.00     0.282 C 
ATOM     14  C   UNL     1     -57.385  27.285 -13.195  1.00  0.00     0.202 C 
ATOM     15  O   UNL     1     -58.202  25.737 -14.944  1.00  0.00    -0.341 OA
ATOM     16  C   UNL     1     -56.934  28.301 -14.241  1.00  0.00     0.179 C 
ATOM     17  C   UNL     1     -57.908  26.663 -15.985  1.00  0.00     0.178 C 
ATOM     18  C   UNL     1     -57.754  28.144 -15.538  1.00  0.00     0.177 C 
BRANCH  14  19
ATOM     19  O   UNL     1     -58.664  27.637 -12.727  1.00  0.00    -0.385 OA
ATOM     20  H   UNL     1     -58.749  27.270 -11.809  1.00  0.00     0.211 HD
ENDBRANCH  14  19
BRANCH  16  21
ATOM     21  O   UNL     1     -55.559  28.153 -14.480  1.00  0.00    -0.387 OA
ATOM     22  H   UNL     1     -55.438  27.280 -14.939  1.00  0.00     0.211 HD
ENDBRANCH  16  21
BRANCH  17  23
ATOM     23  C   UNL     1     -56.822  26.141 -16.948  1.00  0.00     0.191 C 
BRANCH  23  24
ATOM     24  O   UNL     1     -55.974  27.162 -17.393  1.00  0.00    -0.394 OA
ATOM     25  H   UNL     1     -56.534  27.818 -17.883  1.00  0.00     0.210 HD
ENDBRANCH  23  24
ENDBRANCH  17  23
BRANCH  18  26
ATOM     26  O   UNL     1     -59.037  28.689 -15.341  1.00  0.00    -0.387 OA
ATOM     27  H   UNL     1     -59.271  29.191 -16.167  1.00  0.00     0.211 HD
ENDBRANCH  18  26
ENDBRANCH  12  13
ENDBRANCH   7  12
BRANCH   4  28
ATOM     28  O   UNL     1     -54.317  21.794 -10.175  1.00  0.00    -0.365 OA
ATOM     29  H   UNL     1     -54.525  20.867 -10.468  1.00  0.00     0.214 HD
ENDBRANCH   4  28
BRANCH   8  30
ATOM     30  C   UNL     1     -53.863  26.197 -11.984  1.00  0.00     0.249 C 
BRANCH  30  31
ATOM     31  O   UNL     1     -53.203  26.713 -13.136  1.00  0.00    -0.461 OA
BRANCH  31  32
ATOM     32  C   UNL     1     -51.902  27.220 -13.105  1.00  0.00     0.338 C 
ATOM     33  O   UNL     1     -51.552  28.008 -12.183  1.00  0.00    -0.246 OA
BRANCH  32  34
ATOM     34  C   UNL     1     -50.939  26.829 -14.157  1.00  0.00     0.060 A 
ATOM     35  C   UNL     1     -51.202  25.739 -15.008  1.00  0.00     0.015 A 
ATOM     36  C   UNL     1     -49.739  27.546 -14.320  1.00  0.00     0.015 A 
ATOM     37  C   UNL     1     -50.284  25.376 -15.998  1.00  0.00     0.001 A 
ATOM     38  C   UNL     1     -48.824  27.178 -15.311  1.00  0.00     0.001 A 
ATOM     39  C   UNL     1     -49.096  26.095 -16.148  1.00  0.00     0.000 A 
ENDBRANCH  32  34
ENDBRANCH  31  32
ENDBRANCH  30  31
ENDBRANCH   8  30
TORSDOF 12
ENDMDL
MODEL 7
REMARK VINA RESULT:    -5.519      2.614      3.634
REMARK INTER + INTRA:          -9.458
REMARK INTER:                  -8.012
REMARK INTRA:                  -1.447
REMARK UNBOUND:                -0.874
REMARK SMILES C[C@@]12C[C@@]3(O)O[C@@H](O1)[C@]1(COC(=O)c4ccccc4)[C@H]3C[C@@]12O[C@@H]1O[C@H](CO)[C@@H](O)[C@H](O)[C@H]1O
REMARK SMILES IDX 1 1 2 2 3 3 4 4 20 5 21 6 22 7 9 8 7 9 8 10 6 11 23 12 24 13
REMARK SMILES IDX 33 14 25 15 31 16 26 17 29 18 34 19 32 21 27 23 28 24 30 26
REMARK SMILES IDX 5 28 10 30 11 31 12 32 13 33 14 34 15 35 19 36 16 37 18 38
REMARK SMILES IDX 17 39
REMARK H PARENT 34 20 32 22 28 25 30 27 5 29
REMARK Flexibility Score: inf
ROOT
ATOM      1  C   UNL     1     -57.359  28.889 -11.299  1.00  0.00     0.046 C 
ATOM      2  C   UNL     1     -56.368  27.730 -11.304  1.00  0.00     0.104 C 
ATOM      3  C   UNL     1     -55.093  28.074 -10.449  1.00  0.00     0.104 C 
ATOM      4  C   UNL     1     -54.182  26.813 -10.636  1.00  0.00     0.175 C 
ATOM      5  C   UNL     1     -54.071  26.438 -12.149  1.00  0.00     0.070 C 
ATOM      6  C   UNL     1     -54.479  27.598 -13.084  1.00  0.00     0.050 C 
ATOM      7  C   UNL     1     -55.942  27.222 -12.743  1.00  0.00     0.115 C 
ATOM      8  C   UNL     1     -55.460  25.824 -12.327  1.00  0.00     0.096 C 
ATOM      9  C   UNL     1     -55.997  25.571 -10.927  1.00  0.00     0.267 C 
ATOM     10  O   UNL     1     -56.942  26.597 -10.683  1.00  0.00    -0.342 OA
ATOM     11  O   UNL     1     -54.890  25.738 -10.055  1.00  0.00    -0.320 OA
ENDROOT
BRANCH   7  12
ATOM     12  O   UNL     1     -56.998  27.306 -13.713  1.00  0.00    -0.339 OA
BRANCH  12  13
ATOM     13  C   UNL     1     -56.635  27.864 -14.970  1.00  0.00     0.282 C 
ATOM     14  C   UNL     1     -56.682  26.793 -16.076  1.00  0.00     0.202 C 
ATOM     15  O   UNL     1     -57.391  29.026 -15.279  1.00  0.00    -0.341 OA
ATOM     16  C   UNL     1     -58.119  26.410 -16.421  1.00  0.00     0.179 C 
ATOM     17  C   UNL     1     -58.743  28.799 -15.661  1.00  0.00     0.178 C 
ATOM     18  C   UNL     1     -58.962  27.670 -16.708  1.00  0.00     0.177 C 
BRANCH  14  19
ATOM     19  O   UNL     1     -56.038  27.267 -17.233  1.00  0.00    -0.385 OA
ATOM     20  H   UNL     1     -55.834  26.475 -17.797  1.00  0.00     0.211 HD
ENDBRANCH  14  19
BRANCH  16  21
ATOM     21  O   UNL     1     -58.669  25.650 -15.376  1.00  0.00    -0.387 OA
ATOM     22  H   UNL     1     -58.647  24.701 -15.668  1.00  0.00     0.211 HD
ENDBRANCH  16  21
BRANCH  17  23
ATOM     23  C   UNL     1     -59.701  28.783 -14.453  1.00  0.00     0.191 C 
BRANCH  23  24
ATOM     24  O   UNL     1     -60.049  27.482 -14.070  1.00  0.00    -0.394 OA
ATOM     25  H   UNL     1     -59.606  27.301 -13.202  1.00  0.00     0.210 HD
ENDBRANCH  23  24
ENDBRANCH  17  23
BRANCH  18  26
ATOM     26  O   UNL     1     -58.628  28.168 -17.981  1.00  0.00    -0.387 OA
ATOM     27  H   UNL     1     -58.540  29.154 -17.896  1.00  0.00     0.211 HD
ENDBRANCH  18  26
ENDBRANCH  12  13
ENDBRANCH   7  12
BRANCH   4  28
ATOM     28  O   UNL     1     -52.929  26.965 -10.026  1.00  0.00    -0.365 OA
ATOM     29  H   UNL     1     -52.623  26.054  -9.773  1.00  0.00     0.214 HD
ENDBRANCH   4  28
BRANCH   8  30
ATOM     30  C   UNL     1     -55.516  24.624 -13.296  1.00  0.00     0.249 C 
BRANCH  30  31
ATOM     31  O   UNL     1     -56.839  24.098 -13.334  1.00  0.00    -0.461 OA
BRANCH  31  32
ATOM     32  C   UNL     1     -57.138  22.768 -13.025  1.00  0.00     0.338 C 
ATOM     33  O   UNL     1     -58.219  22.483 -12.439  1.00  0.00    -0.246 OA
BRANCH  32  34
ATOM     34  C   UNL     1     -56.181  21.700 -13.386  1.00  0.00     0.060 A 
ATOM     35  C   UNL     1     -56.029  21.290 -14.724  1.00  0.00     0.015 A 
ATOM     36  C   UNL     1     -55.409  21.075 -12.390  1.00  0.00     0.015 A 
ATOM     37  C   UNL     1     -55.124  20.276 -15.055  1.00  0.00     0.001 A 
ATOM     38  C   UNL     1     -54.506  20.062 -12.726  1.00  0.00     0.001 A 
ATOM     39  C   UNL     1     -54.364  19.663 -14.056  1.00  0.00     0.000 A 
ENDBRANCH  32  34
ENDBRANCH  31  32
ENDBRANCH  30  31
ENDBRANCH   8  30
TORSDOF 12
ENDMDL
MODEL 8
REMARK VINA RESULT:    -5.404      2.675      7.043
REMARK INTER + INTRA:          -9.280
REMARK INTER:                  -7.273
REMARK INTRA:                  -2.006
REMARK UNBOUND:                -0.874
REMARK SMILES C[C@@]12C[C@@]3(O)O[C@@H](O1)[C@]1(COC(=O)c4ccccc4)[C@H]3C[C@@]12O[C@@H]1O[C@H](CO)[C@@H](O)[C@H](O)[C@H]1O
REMARK SMILES IDX 1 1 2 2 3 3 4 4 20 5 21 6 22 7 9 8 7 9 8 10 6 11 23 12 24 13
REMARK SMILES IDX 33 14 25 15 31 16 26 17 29 18 34 19 32 21 27 23 28 24 30 26
REMARK SMILES IDX 5 28 10 30 11 31 12 32 13 33 14 34 15 35 19 36 16 37 18 38
REMARK SMILES IDX 17 39
REMARK H PARENT 34 20 32 22 28 25 30 27 5 29
REMARK Flexibility Score: inf
ROOT
ATOM      1  C   UNL     1     -55.110  25.381 -15.538  1.00  0.00     0.046 C 
ATOM      2  C   UNL     1     -56.429  26.147 -15.489  1.00  0.00     0.104 C 
ATOM      3  C   UNL     1     -56.740  26.823 -16.875  1.00  0.00     0.104 C 
ATOM      4  C   UNL     1     -58.070  27.606 -16.604  1.00  0.00     0.175 C 
ATOM      5  C   UNL     1     -57.950  28.449 -15.294  1.00  0.00     0.070 C 
ATOM      6  C   UNL     1     -56.486  28.665 -14.852  1.00  0.00     0.050 C 
ATOM      7  C   UNL     1     -56.539  27.211 -14.322  1.00  0.00     0.115 C 
ATOM      8  C   UNL     1     -58.073  27.308 -14.284  1.00  0.00     0.096 C 
ATOM      9  C   UNL     1     -58.608  26.112 -15.055  1.00  0.00     0.267 C 
ATOM     10  O   UNL     1     -57.500  25.254 -15.258  1.00  0.00    -0.342 OA
ATOM     11  O   UNL     1     -59.040  26.624 -16.307  1.00  0.00    -0.320 OA
ENDROOT
BRANCH   7  12
ATOM     12  O   UNL     1     -55.863  26.813 -13.120  1.00  0.00    -0.339 OA
BRANCH  12  13
ATOM     13  C   UNL     1     -54.504  27.222 -13.013  1.00  0.00     0.282 C 
ATOM     14  C   UNL     1     -54.403  28.596 -12.323  1.00  0.00     0.202 C 
ATOM     15  O   UNL     1     -53.691  26.227 -12.410  1.00  0.00    -0.341 OA
ATOM     16  C   UNL     1     -54.712  28.495 -10.832  1.00  0.00     0.179 C 
ATOM     17  C   UNL     1     -53.853  26.065 -11.005  1.00  0.00     0.178 C 
ATOM     18  C   UNL     1     -53.869  27.381 -10.177  1.00  0.00     0.177 C 
BRANCH  14  19
ATOM     19  O   UNL     1     -53.111  29.125 -12.495  1.00  0.00    -0.385 OA
ATOM     20  H   UNL     1     -53.064  29.958 -11.956  1.00  0.00     0.211 HD
ENDBRANCH  14  19
BRANCH  16  21
ATOM     21  O   UNL     1     -56.086  28.276 -10.648  1.00  0.00    -0.387 OA
ATOM     22  H   UNL     1     -56.175  27.579  -9.946  1.00  0.00     0.211 HD
ENDBRANCH  16  21
BRANCH  17  23
ATOM     23  C   UNL     1     -54.954  25.044 -10.654  1.00  0.00     0.191 C 
BRANCH  23  24
ATOM     24  O   UNL     1     -55.726  25.452  -9.560  1.00  0.00    -0.394 OA
ATOM     25  H   UNL     1     -56.593  25.778  -9.916  1.00  0.00     0.210 HD
ENDBRANCH  23  24
ENDBRANCH  17  23
BRANCH  18  26
ATOM     26  O   UNL     1     -52.544  27.833 -10.027  1.00  0.00    -0.387 OA
ATOM     27  H   UNL     1     -52.587  28.734  -9.611  1.00  0.00     0.211 HD
ENDBRANCH  18  26
ENDBRANCH  12  13
ENDBRANCH   7  12
BRANCH   4  28
ATOM     28  O   UNL     1     -58.470  28.376 -17.705  1.00  0.00    -0.365 OA
ATOM     29  H   UNL     1     -59.090  29.071 -17.357  1.00  0.00     0.214 HD
ENDBRANCH   4  28
BRANCH   8  30
ATOM     30  C   UNL     1     -58.831  27.669 -12.990  1.00  0.00     0.249 C 
BRANCH  30  31
ATOM     31  O   UNL     1     -59.352  26.486 -12.391  1.00  0.00    -0.461 OA
BRANCH  31  32
ATOM     32  C   UNL     1     -58.778  25.886 -11.268  1.00  0.00     0.338 C 
ATOM     33  O   UNL     1     -58.407  26.595 -10.292  1.00  0.00    -0.246 OA
BRANCH  32  34
ATOM     34  C   UNL     1     -58.606  24.417 -11.230  1.00  0.00     0.060 A 
ATOM     35  C   UNL     1     -58.025  23.731 -12.313  1.00  0.00     0.015 A 
ATOM     36  C   UNL     1     -59.028  23.684 -10.106  1.00  0.00     0.015 A 
ATOM     37  C   UNL     1     -57.869  22.342 -12.269  1.00  0.00     0.001 A 
ATOM     38  C   UNL     1     -58.871  22.295 -10.067  1.00  0.00     0.001 A 
ATOM     39  C   UNL     1     -58.292  21.625 -11.147  1.00  0.00     0.000 A 
ENDBRANCH  32  34
ENDBRANCH  31  32
ENDBRANCH  30  31
ENDBRANCH   8  30
TORSDOF 12
ENDMDL
MODEL 9
REMARK VINA RESULT:    -5.263      1.858      3.722
REMARK INTER + INTRA:          -9.060
REMARK INTER:                  -7.088
REMARK INTRA:                  -1.971
REMARK UNBOUND:                -0.874
REMARK SMILES C[C@@]12C[C@@]3(O)O[C@@H](O1)[C@]1(COC(=O)c4ccccc4)[C@H]3C[C@@]12O[C@@H]1O[C@H](CO)[C@@H](O)[C@H](O)[C@H]1O
REMARK SMILES IDX 1 1 2 2 3 3 4 4 20 5 21 6 22 7 9 8 7 9 8 10 6 11 23 12 24 13
REMARK SMILES IDX 33 14 25 15 31 16 26 17 29 18 34 19 32 21 27 23 28 24 30 26
REMARK SMILES IDX 5 28 10 30 11 31 12 32 13 33 14 34 15 35 19 36 16 37 18 38
REMARK SMILES IDX 17 39
REMARK H PARENT 34 20 32 22 28 25 30 27 5 29
REMARK Flexibility Score: inf
ROOT
ATOM      1  C   UNL     1     -57.479  23.394 -13.077  1.00  0.00     0.046 C 
ATOM      2  C   UNL     1     -57.081  24.231 -11.865  1.00  0.00     0.104 C 
ATOM      3  C   UNL     1     -57.784  23.704 -10.560  1.00  0.00     0.104 C 
ATOM      4  C   UNL     1     -57.317  24.720  -9.462  1.00  0.00     0.175 C 
ATOM      5  C   UNL     1     -57.513  26.189  -9.958  1.00  0.00     0.070 C 
ATOM      6  C   UNL     1     -58.491  26.293 -11.148  1.00  0.00     0.050 C 
ATOM      7  C   UNL     1     -57.317  25.789 -12.024  1.00  0.00     0.115 C 
ATOM      8  C   UNL     1     -56.338  26.252 -10.934  1.00  0.00     0.096 C 
ATOM      9  C   UNL     1     -55.448  25.063 -10.608  1.00  0.00     0.267 C 
ATOM     10  O   UNL     1     -55.695  24.105 -11.622  1.00  0.00    -0.342 OA
ATOM     11  O   UNL     1     -55.916  24.562  -9.366  1.00  0.00    -0.320 OA
ENDROOT
BRANCH   7  12
ATOM     12  O   UNL     1     -57.105  26.265 -13.362  1.00  0.00    -0.339 OA
BRANCH  12  13
ATOM     13  C   UNL     1     -58.277  26.638 -14.076  1.00  0.00     0.282 C 
ATOM     14  C   UNL     1     -58.277  28.150 -14.371  1.00  0.00     0.202 C 
ATOM     15  O   UNL     1     -58.477  25.839 -15.233  1.00  0.00    -0.341 OA
ATOM     16  C   UNL     1     -57.252  28.509 -15.444  1.00  0.00     0.179 C 
ATOM     17  C   UNL     1     -57.608  26.108 -16.328  1.00  0.00     0.178 C 
ATOM     18  C   UNL     1     -57.429  27.611 -16.685  1.00  0.00     0.177 C 
BRANCH  14  19
ATOM     19  O   UNL     1     -59.555  28.557 -14.796  1.00  0.00    -0.385 OA
ATOM     20  H   UNL     1     -59.436  29.395 -15.314  1.00  0.00     0.211 HD
ENDBRANCH  14  19
BRANCH  16  21
ATOM     21  O   UNL     1     -55.957  28.405 -14.913  1.00  0.00    -0.387 OA
ATOM     22  H   UNL     1     -55.687  29.318 -14.630  1.00  0.00     0.211 HD
ENDBRANCH  16  21
BRANCH  17  23
ATOM     23  C   UNL     1     -56.310  25.278 -16.266  1.00  0.00     0.191 C 
BRANCH  23  24
ATOM     24  O   UNL     1     -55.215  25.967 -16.801  1.00  0.00    -0.394 OA
ATOM     25  H   UNL     1     -54.480  25.310 -16.915  1.00  0.00     0.210 HD
ENDBRANCH  23  24
ENDBRANCH  17  23
BRANCH  18  26
ATOM     26  O   UNL     1     -58.560  28.038 -17.407  1.00  0.00    -0.387 OA
ATOM     27  H   UNL     1     -58.353  28.941 -17.766  1.00  0.00     0.211 HD
ENDBRANCH  18  26
ENDBRANCH  12  13
ENDBRANCH   7  12
BRANCH   4  28
ATOM     28  O   UNL     1     -57.926  24.483  -8.222  1.00  0.00    -0.365 OA
ATOM     29  H   UNL     1     -58.335  23.579  -8.273  1.00  0.00     0.214 HD
ENDBRANCH   4  28
BRANCH   8  30
ATOM     30  C   UNL     1     -55.631  27.621 -11.006  1.00  0.00     0.249 C 
BRANCH  30  31
ATOM     31  O   UNL     1     -54.249  27.436 -11.296  1.00  0.00    -0.461 OA
BRANCH  31  32
ATOM     32  C   UNL     1     -53.646  27.912 -12.462  1.00  0.00     0.338 C 
ATOM     33  O   UNL     1     -53.772  29.125 -12.790  1.00  0.00    -0.246 OA
BRANCH  32  34
ATOM     34  C   UNL     1     -52.861  26.989 -13.311  1.00  0.00     0.060 A 
ATOM     35  C   UNL     1     -53.433  25.801 -13.804  1.00  0.00     0.015 A 
ATOM     36  C   UNL     1     -51.525  27.288 -13.635  1.00  0.00     0.015 A 
ATOM     37  C   UNL     1     -52.682  24.933 -14.603  1.00  0.00     0.001 A 
ATOM     38  C   UNL     1     -50.779  26.417 -14.434  1.00  0.00     0.001 A 
ATOM     39  C   UNL     1     -51.356  25.241 -14.917  1.00  0.00     0.000 A 
ENDBRANCH  32  34
ENDBRANCH  31  32
ENDBRANCH  30  31
ENDBRANCH   8  30
TORSDOF 12
ENDMDL
