MODEL 1
REMARK VINA RESULT:    -2.888      0.000      0.000
REMARK INTER + INTRA:          -5.665
REMARK INTER:                  -4.408
REMARK INTRA:                  -1.257
REMARK UNBOUND:                -1.257
REMARK SMILES OC[C@@H]1O[C@H](O[C@@]2(CO)O[C@H](CO)[C@H](O)[C@@H]2O)[C@H](O)[C@H](O)[C@@H]1O
REMARK SMILES IDX 6 1 5 2 3 3 22 4 4 5 20 6 18 7 2 8 1 9 23 11 21 13 19 15
REMARK SMILES IDX 7 17 16 18 10 19 14 20 11 21 8 22 9 23 17 25 15 27 12 29
REMARK SMILES IDX 13 30
REMARK H PARENT 1 10 23 12 21 14 19 16 9 24 17 26 15 28 13 31
REMARK Flexibility Score: inf
ROOT
ATOM      1  O   UNL     1       8.844   5.447   1.473  1.00  0.00    -0.313 OA
ENDROOT
BRANCH   1   2
ATOM      2  C   UNL     1       8.734   4.081   1.851  1.00  0.00     0.285 C 
ATOM      3  C   UNL     1       6.654   4.263   3.022  1.00  0.00     0.178 C 
ATOM      4  C   UNL     1       5.891   3.513   1.894  1.00  0.00     0.177 C 
ATOM      5  O   UNL     1       8.037   3.934   3.082  1.00  0.00    -0.341 OA
ATOM      6  C   UNL     1       6.611   3.514   0.530  1.00  0.00     0.179 C 
ATOM      7  C   UNL     1       8.116   3.245   0.714  1.00  0.00     0.202 C 
BRANCH   3   8
ATOM      8  C   UNL     1       6.400   5.783   3.125  1.00  0.00     0.191 C 
BRANCH   8   9
ATOM      9  O   UNL     1       6.331   6.353   1.846  1.00  0.00    -0.394 OA
ATOM     10  H   UNL     1       5.868   7.225   1.946  1.00  0.00     0.210 HD
ENDBRANCH   8   9
ENDBRANCH   3   8
BRANCH   4  11
ATOM     11  O   UNL     1       4.549   3.924   1.788  1.00  0.00    -0.387 OA
ATOM     12  H   UNL     1       4.507   4.687   1.158  1.00  0.00     0.211 HD
ENDBRANCH   4  11
BRANCH   6  13
ATOM     13  O   UNL     1       6.349   4.668  -0.233  1.00  0.00    -0.387 OA
ATOM     14  H   UNL     1       5.841   4.409  -1.038  1.00  0.00     0.211 HD
ENDBRANCH   6  13
BRANCH   7  15
ATOM     15  O   UNL     1       8.812   3.485  -0.482  1.00  0.00    -0.385 OA
ATOM     16  H   UNL     1       9.582   2.858  -0.497  1.00  0.00     0.211 HD
ENDBRANCH   7  15
ENDBRANCH   1   2
BRANCH   1  17
ATOM     17  C   UNL     1      10.057   6.072   1.887  1.00  0.00     0.224 C 
ATOM     18  C   UNL     1      10.665   6.909   0.735  1.00  0.00     0.208 C 
ATOM     19  O   UNL     1      11.019   5.115   2.303  1.00  0.00    -0.337 OA
ATOM     20  C   UNL     1      12.150   6.732   0.934  1.00  0.00     0.180 C 
ATOM     21  C   UNL     1      12.217   5.352   1.593  1.00  0.00     0.179 C 
BRANCH  17  22
ATOM     22  C   UNL     1       9.726   6.938   3.122  1.00  0.00     0.225 C 
BRANCH  22  23
ATOM     23  O   UNL     1       8.709   7.856   2.824  1.00  0.00    -0.391 OA
ATOM     24  H   UNL     1       8.074   7.821   3.587  1.00  0.00     0.210 HD
ENDBRANCH  22  23
ENDBRANCH  17  22
BRANCH  18  25
ATOM     25  O   UNL     1      10.281   8.262   0.773  1.00  0.00    -0.385 OA
ATOM     26  H   UNL     1      10.552   8.609   1.663  1.00  0.00     0.211 HD
ENDBRANCH  18  25
BRANCH  20  27
ATOM     27  O   UNL     1      12.653   7.740   1.780  1.00  0.00    -0.387 OA
ATOM     28  H   UNL     1      13.042   8.440   1.195  1.00  0.00     0.211 HD
ENDBRANCH  20  27
BRANCH  21  29
ATOM     29  C   UNL     1      13.424   5.167   2.526  1.00  0.00     0.191 C 
BRANCH  29  30
ATOM     30  O   UNL     1      13.722   3.806   2.673  1.00  0.00    -0.394 OA
ATOM     31  H   UNL     1      12.945   3.392   3.132  1.00  0.00     0.210 HD
ENDBRANCH  29  30
ENDBRANCH  21  29
ENDBRANCH   1  17
TORSDOF 13
ENDMDL
MODEL 2
REMARK VINA RESULT:    -2.339      1.299      1.599
REMARK INTER + INTRA:          -4.827
REMARK INTER:                  -3.192
REMARK INTRA:                  -1.635
REMARK UNBOUND:                -1.257
REMARK SMILES OC[C@@H]1O[C@H](O[C@@]2(CO)O[C@H](CO)[C@H](O)[C@@H]2O)[C@H](O)[C@H](O)[C@@H]1O
REMARK SMILES IDX 6 1 5 2 3 3 22 4 4 5 20 6 18 7 2 8 1 9 23 11 21 13 19 15
REMARK SMILES IDX 7 17 16 18 10 19 14 20 11 21 8 22 9 23 17 25 15 27 12 29
REMARK SMILES IDX 13 30
REMARK H PARENT 1 10 23 12 21 14 19 16 9 24 17 26 15 28 13 31
REMARK Flexibility Score: inf
ROOT
ATOM      1  O   UNL     1       9.389   5.672   1.798  1.00  0.00    -0.313 OA
ENDROOT
BRANCH   1   2
ATOM      2  C   UNL     1       8.796   5.024   2.916  1.00  0.00     0.285 C 
ATOM      3  C   UNL     1       6.539   5.058   2.116  1.00  0.00     0.178 C 
ATOM      4  C   UNL     1       6.555   3.526   1.847  1.00  0.00     0.177 C 
ATOM      5  O   UNL     1       7.459   5.461   3.125  1.00  0.00    -0.341 OA
ATOM      6  C   UNL     1       7.966   2.919   1.710  1.00  0.00     0.179 C 
ATOM      7  C   UNL     1       8.907   3.493   2.785  1.00  0.00     0.202 C 
BRANCH   3   8
ATOM      8  C   UNL     1       6.584   5.971   0.872  1.00  0.00     0.191 C 
BRANCH   8   9
ATOM      9  O   UNL     1       6.778   7.306   1.254  1.00  0.00    -0.394 OA
ATOM     10  H   UNL     1       6.422   7.869   0.519  1.00  0.00     0.210 HD
ENDBRANCH   8   9
ENDBRANCH   3   8
BRANCH   4  11
ATOM     11  O   UNL     1       5.711   3.161   0.781  1.00  0.00    -0.387 OA
ATOM     12  H   UNL     1       4.778   3.144   1.116  1.00  0.00     0.211 HD
ENDBRANCH   4  11
BRANCH   6  13
ATOM     13  O   UNL     1       8.490   3.026   0.407  1.00  0.00    -0.387 OA
ATOM     14  H   UNL     1       7.811   2.714  -0.236  1.00  0.00     0.211 HD
ENDBRANCH   6  13
BRANCH   7  15
ATOM     15  O   UNL     1      10.239   3.136   2.518  1.00  0.00    -0.385 OA
ATOM     16  H   UNL     1      10.438   3.441   1.594  1.00  0.00     0.211 HD
ENDBRANCH   7  15
ENDBRANCH   1   2
BRANCH   1  17
ATOM     17  C   UNL     1      10.492   6.514   2.128  1.00  0.00     0.224 C 
ATOM     18  C   UNL     1      11.093   7.157   0.854  1.00  0.00     0.208 C 
ATOM     19  O   UNL     1      11.517   5.791   2.792  1.00  0.00    -0.337 OA
ATOM     20  C   UNL     1      12.568   7.209   1.163  1.00  0.00     0.180 C 
ATOM     21  C   UNL     1      12.734   6.018   2.111  1.00  0.00     0.179 C 
BRANCH  17  22
ATOM     22  C   UNL     1       9.975   7.574   3.125  1.00  0.00     0.225 C 
BRANCH  22  23
ATOM     23  O   UNL     1       8.852   8.234   2.607  1.00  0.00    -0.391 OA
ATOM     24  H   UNL     1       8.133   8.129   3.283  1.00  0.00     0.210 HD
ENDBRANCH  22  23
ENDBRANCH  17  22
BRANCH  18  25
ATOM     25  O   UNL     1      10.562   8.430   0.575  1.00  0.00    -0.385 OA
ATOM     26  H   UNL     1       9.614   8.412   0.869  1.00  0.00     0.211 HD
ENDBRANCH  18  25
BRANCH  20  27
ATOM     27  O   UNL     1      12.892   8.426   1.794  1.00  0.00    -0.387 OA
ATOM     28  H   UNL     1      12.052   8.780   2.185  1.00  0.00     0.211 HD
ENDBRANCH  20  27
BRANCH  21  29
ATOM     29  C   UNL     1      13.878   6.183   3.123  1.00  0.00     0.191 C 
BRANCH  29  30
ATOM     30  O   UNL     1      15.087   6.425   2.457  1.00  0.00    -0.394 OA
ATOM     31  H   UNL     1      15.104   5.821   1.668  1.00  0.00     0.210 HD
ENDBRANCH  29  30
ENDBRANCH  21  29
ENDBRANCH   1  17
TORSDOF 13
ENDMDL
MODEL 3
REMARK VINA RESULT:    -2.238      1.754      3.469
REMARK INTER + INTRA:          -4.672
REMARK INTER:                  -3.120
REMARK INTRA:                  -1.552
REMARK UNBOUND:                -1.257
REMARK SMILES OC[C@@H]1O[C@H](O[C@@]2(CO)O[C@H](CO)[C@H](O)[C@@H]2O)[C@H](O)[C@H](O)[C@@H]1O
REMARK SMILES IDX 6 1 5 2 3 3 22 4 4 5 20 6 18 7 2 8 1 9 23 11 21 13 19 15
REMARK SMILES IDX 7 17 16 18 10 19 14 20 11 21 8 22 9 23 17 25 15 27 12 29
REMARK SMILES IDX 13 30
REMARK H PARENT 1 10 23 12 21 14 19 16 9 24 17 26 15 28 13 31
REMARK Flexibility Score: inf
ROOT
ATOM      1  O   UNL     1      10.848   5.792   1.598  1.00  0.00    -0.313 OA
ENDROOT
BRANCH   1   2
ATOM      2  C   UNL     1      10.252   5.765   2.888  1.00  0.00     0.285 C 
ATOM      3  C   UNL     1       8.274   6.993   2.330  1.00  0.00     0.178 C 
ATOM      4  C   UNL     1       7.391   5.717   2.424  1.00  0.00     0.177 C 
ATOM      5  O   UNL     1       9.455   6.919   3.121  1.00  0.00    -0.341 OA
ATOM      6  C   UNL     1       8.170   4.393   2.293  1.00  0.00     0.179 C 
ATOM      7  C   UNL     1       9.475   4.453   3.107  1.00  0.00     0.202 C 
BRANCH   3   8
ATOM      8  C   UNL     1       8.544   7.535   0.909  1.00  0.00     0.191 C 
BRANCH   8   9
ATOM      9  O   UNL     1       9.508   8.552   0.951  1.00  0.00    -0.394 OA
ATOM     10  H   UNL     1       9.037   9.402   0.750  1.00  0.00     0.210 HD
ENDBRANCH   8   9
ENDBRANCH   3   8
BRANCH   4  11
ATOM     11  O   UNL     1       6.280   5.770   1.561  1.00  0.00    -0.387 OA
ATOM     12  H   UNL     1       5.490   6.051   2.090  1.00  0.00     0.211 HD
ENDBRANCH   4  11
BRANCH   6  13
ATOM     13  O   UNL     1       8.374   4.000   0.956  1.00  0.00    -0.387 OA
ATOM     14  H   UNL     1       8.664   4.786   0.435  1.00  0.00     0.211 HD
ENDBRANCH   6  13
BRANCH   7  15
ATOM     15  O   UNL     1      10.300   3.358   2.800  1.00  0.00    -0.385 OA
ATOM     16  H   UNL     1       9.711   2.649   2.429  1.00  0.00     0.211 HD
ENDBRANCH   7  15
ENDBRANCH   1   2
BRANCH   1  17
ATOM     17  C   UNL     1      12.188   6.278   1.582  1.00  0.00     0.224 C 
ATOM     18  C   UNL     1      13.058   5.522   2.616  1.00  0.00     0.208 C 
ATOM     19  O   UNL     1      12.241   7.665   1.879  1.00  0.00    -0.337 OA
ATOM     20  C   UNL     1      13.999   6.591   3.115  1.00  0.00     0.180 C 
ATOM     21  C   UNL     1      13.159   7.858   2.936  1.00  0.00     0.179 C 
BRANCH  17  22
ATOM     22  C   UNL     1      12.720   6.108   0.143  1.00  0.00     0.225 C 
BRANCH  22  23
ATOM     23  O   UNL     1      11.695   5.688  -0.717  1.00  0.00    -0.391 OA
ATOM     24  H   UNL     1      11.697   4.696  -0.686  1.00  0.00     0.210 HD
ENDBRANCH  22  23
ENDBRANCH  17  22
BRANCH  18  25
ATOM     25  O   UNL     1      13.744   4.425   2.065  1.00  0.00    -0.385 OA
ATOM     26  H   UNL     1      14.545   4.277   2.633  1.00  0.00     0.211 HD
ENDBRANCH  18  25
BRANCH  20  27
ATOM     27  O   UNL     1      15.165   6.621   2.325  1.00  0.00    -0.387 OA
ATOM     28  H   UNL     1      15.926   6.776   2.942  1.00  0.00     0.211 HD
ENDBRANCH  20  27
BRANCH  21  29
ATOM     29  C   UNL     1      13.991   9.124   2.682  1.00  0.00     0.191 C 
BRANCH  29  30
ATOM     30  O   UNL     1      14.528   9.104   1.387  1.00  0.00    -0.394 OA
ATOM     31  H   UNL     1      15.295   8.474   1.407  1.00  0.00     0.210 HD
ENDBRANCH  29  30
ENDBRANCH  21  29
ENDBRANCH   1  17
TORSDOF 13
ENDMDL
MODEL 4
REMARK VINA RESULT:    -2.021      1.633      5.660
REMARK INTER + INTRA:          -4.342
REMARK INTER:                  -2.785
REMARK INTRA:                  -1.558
REMARK UNBOUND:                -1.257
REMARK SMILES OC[C@@H]1O[C@H](O[C@@]2(CO)O[C@H](CO)[C@H](O)[C@@H]2O)[C@H](O)[C@H](O)[C@@H]1O
REMARK SMILES IDX 6 1 5 2 3 3 22 4 4 5 20 6 18 7 2 8 1 9 23 11 21 13 19 15
REMARK SMILES IDX 7 17 16 18 10 19 14 20 11 21 8 22 9 23 17 25 15 27 12 29
REMARK SMILES IDX 13 30
REMARK H PARENT 1 10 23 12 21 14 19 16 9 24 17 26 15 28 13 31
REMARK Flexibility Score: inf
ROOT
ATOM      1  O   UNL     1       8.323   5.106   1.346  1.00  0.00    -0.313 OA
ENDROOT
BRANCH   1   2
ATOM      2  C   UNL     1       8.518   5.470   2.706  1.00  0.00     0.285 C 
ATOM      3  C   UNL     1      10.812   6.129   2.511  1.00  0.00     0.178 C 
ATOM      4  C   UNL     1      10.449   7.633   2.662  1.00  0.00     0.177 C 
ATOM      5  O   UNL     1       9.863   5.257   3.116  1.00  0.00    -0.341 OA
ATOM      6  C   UNL     1       8.977   7.967   2.345  1.00  0.00     0.179 C 
ATOM      7  C   UNL     1       8.040   6.912   2.962  1.00  0.00     0.202 C 
BRANCH   3   8
ATOM      8  C   UNL     1      11.229   5.664   1.098  1.00  0.00     0.191 C 
BRANCH   8   9
ATOM      9  O   UNL     1      10.460   6.318   0.125  1.00  0.00    -0.394 OA
ATOM     10  H   UNL     1      10.904   6.155  -0.748  1.00  0.00     0.210 HD
ENDBRANCH   8   9
ENDBRANCH   3   8
BRANCH   4  11
ATOM     11  O   UNL     1      11.346   8.473   1.975  1.00  0.00    -0.387 OA
ATOM     12  H   UNL     1      12.268   8.228   2.244  1.00  0.00     0.211 HD
ENDBRANCH   4  11
BRANCH   6  13
ATOM     13  O   UNL     1       8.740   8.177   0.973  1.00  0.00    -0.387 OA
ATOM     14  H   UNL     1       9.124   7.424   0.465  1.00  0.00     0.211 HD
ENDBRANCH   6  13
BRANCH   7  15
ATOM     15  O   UNL     1       6.731   7.070   2.478  1.00  0.00    -0.385 OA
ATOM     16  H   UNL     1       6.185   6.348   2.887  1.00  0.00     0.211 HD
ENDBRANCH   7  15
ENDBRANCH   1   2
BRANCH   1  17
ATOM     17  C   UNL     1       7.546   3.924   1.163  1.00  0.00     0.224 C 
ATOM     18  C   UNL     1       6.055   4.275   0.938  1.00  0.00     0.208 C 
ATOM     19  O   UNL     1       7.640   3.063   2.287  1.00  0.00    -0.337 OA
ATOM     20  C   UNL     1       5.332   3.144   1.626  1.00  0.00     0.180 C 
ATOM     21  C   UNL     1       6.331   2.750   2.717  1.00  0.00     0.179 C 
BRANCH  17  22
ATOM     22  C   UNL     1       8.150   3.161  -0.036  1.00  0.00     0.225 C 
BRANCH  22  23
ATOM     23  O   UNL     1       9.020   3.988  -0.761  1.00  0.00    -0.391 OA
ATOM     24  H   UNL     1       9.897   3.939  -0.298  1.00  0.00     0.210 HD
ENDBRANCH  22  23
ENDBRANCH  17  22
BRANCH  18  25
ATOM     25  O   UNL     1       5.711   4.377  -0.423  1.00  0.00    -0.385 OA
ATOM     26  H   UNL     1       5.929   5.305  -0.701  1.00  0.00     0.211 HD
ENDBRANCH  18  25
BRANCH  20  27
ATOM     27  O   UNL     1       5.103   2.090   0.721  1.00  0.00    -0.387 OA
ATOM     28  H   UNL     1       5.606   1.305   1.061  1.00  0.00     0.211 HD
ENDBRANCH  20  27
BRANCH  21  29
ATOM     29  C   UNL     1       6.253   1.271   3.125  1.00  0.00     0.191 C 
BRANCH  29  30
ATOM     30  O   UNL     1       7.063   0.491   2.289  1.00  0.00    -0.394 OA
ATOM     31  H   UNL     1       7.328  -0.309   2.814  1.00  0.00     0.210 HD
ENDBRANCH  29  30
ENDBRANCH  21  29
ENDBRANCH   1  17
TORSDOF 13
ENDMDL
MODEL 5
REMARK VINA RESULT:    -1.479      3.928      6.453
REMARK INTER + INTRA:          -3.514
REMARK INTER:                  -3.813
REMARK INTRA:                   0.298
REMARK UNBOUND:                -1.257
REMARK SMILES OC[C@@H]1O[C@H](O[C@@]2(CO)O[C@H](CO)[C@H](O)[C@@H]2O)[C@H](O)[C@H](O)[C@@H]1O
REMARK SMILES IDX 6 1 5 2 3 3 22 4 4 5 20 6 18 7 2 8 1 9 23 11 21 13 19 15
REMARK SMILES IDX 7 17 16 18 10 19 14 20 11 21 8 22 9 23 17 25 15 27 12 29
REMARK SMILES IDX 13 30
REMARK H PARENT 1 10 23 12 21 14 19 16 9 24 17 26 15 28 13 31
REMARK Flexibility Score: inf
ROOT
ATOM      1  O   UNL     1      14.758   6.891   1.090  1.00  0.00    -0.313 OA
ENDROOT
BRANCH   1   2
ATOM      2  C   UNL     1      14.403   6.541   2.421  1.00  0.00     0.285 C 
ATOM      3  C   UNL     1      12.579   8.075   2.657  1.00  0.00     0.178 C 
ATOM      4  C   UNL     1      11.534   6.926   2.588  1.00  0.00     0.177 C 
ATOM      5  O   UNL     1      13.855   7.648   3.125  1.00  0.00    -0.341 OA
ATOM      6  C   UNL     1      12.056   5.629   1.937  1.00  0.00     0.179 C 
ATOM      7  C   UNL     1      13.477   5.309   2.436  1.00  0.00     0.202 C 
BRANCH   3   8
ATOM      8  C   UNL     1      12.678   8.986   1.413  1.00  0.00     0.191 C 
BRANCH   8   9
ATOM      9  O   UNL     1      11.435   9.068   0.770  1.00  0.00    -0.394 OA
ATOM     10  H   UNL     1      10.743   9.067   1.483  1.00  0.00     0.210 HD
ENDBRANCH   8   9
ENDBRANCH   3   8
BRANCH   4  11
ATOM     11  O   UNL     1      10.311   7.347   2.032  1.00  0.00    -0.387 OA
ATOM     12  H   UNL     1      10.470   7.594   1.085  1.00  0.00     0.211 HD
ENDBRANCH   4  11
BRANCH   6  13
ATOM     13  O   UNL     1      11.955   5.635   0.532  1.00  0.00    -0.387 OA
ATOM     14  H   UNL     1      12.810   5.325   0.151  1.00  0.00     0.211 HD
ENDBRANCH   6  13
BRANCH   7  15
ATOM     15  O   UNL     1      14.049   4.278   1.673  1.00  0.00    -0.385 OA
ATOM     16  H   UNL     1      13.311   3.661   1.426  1.00  0.00     0.211 HD
ENDBRANCH   7  15
ENDBRANCH   1   2
BRANCH   1  17
ATOM     17  C   UNL     1      15.965   7.644   0.985  1.00  0.00     0.224 C 
ATOM     18  C   UNL     1      16.329   7.896  -0.498  1.00  0.00     0.208 C 
ATOM     19  O   UNL     1      17.050   6.973   1.607  1.00  0.00    -0.337 OA
ATOM     20  C   UNL     1      17.837   7.834  -0.493  1.00  0.00     0.180 C 
ATOM     21  C   UNL     1      18.109   6.884   0.676  1.00  0.00     0.179 C 
BRANCH  17  22
ATOM     22  C   UNL     1      15.751   8.961   1.762  1.00  0.00     0.225 C 
BRANCH  22  23
ATOM     23  O   UNL     1      16.685   9.082   2.800  1.00  0.00    -0.391 OA
ATOM     24  H   UNL     1      16.277   8.645   3.592  1.00  0.00     0.210 HD
ENDBRANCH  22  23
ENDBRANCH  17  22
BRANCH  18  25
ATOM     25  O   UNL     1      15.848   9.125  -0.984  1.00  0.00    -0.385 OA
ATOM     26  H   UNL     1      15.662   8.994  -1.951  1.00  0.00     0.211 HD
ENDBRANCH  18  25
BRANCH  20  27
ATOM     27  O   UNL     1      18.376   9.115  -0.261  1.00  0.00    -0.387 OA
ATOM     28  H   UNL     1      18.488   9.206   0.721  1.00  0.00     0.211 HD
ENDBRANCH  20  27
BRANCH  21  29
ATOM     29  C   UNL     1      19.450   7.135   1.382  1.00  0.00     0.191 C 
BRANCH  29  30
ATOM     30  O   UNL     1      20.504   7.080   0.460  1.00  0.00    -0.394 OA
ATOM     31  H   UNL     1      20.908   6.177   0.543  1.00  0.00     0.210 HD
ENDBRANCH  29  30
ENDBRANCH  21  29
ENDBRANCH   1  17
TORSDOF 13
ENDMDL
MODEL 6
REMARK VINA RESULT:    -0.166      3.356      8.141
REMARK INTER + INTRA:          -1.511
REMARK INTER:                  -0.809
REMARK INTRA:                  -0.702
REMARK UNBOUND:                -1.257
REMARK SMILES OC[C@@H]1O[C@H](O[C@@]2(CO)O[C@H](CO)[C@H](O)[C@@H]2O)[C@H](O)[C@H](O)[C@@H]1O
REMARK SMILES IDX 6 1 5 2 3 3 22 4 4 5 20 6 18 7 2 8 1 9 23 11 21 13 19 15
REMARK SMILES IDX 7 17 16 18 10 19 14 20 11 21 8 22 9 23 17 25 15 27 12 29
REMARK SMILES IDX 13 30
REMARK H PARENT 1 10 23 12 21 14 19 16 9 24 17 26 15 28 13 31
REMARK Flexibility Score: inf
ROOT
ATOM      1  O   UNL     1      14.770   6.649   1.574  1.00  0.00    -0.313 OA
ENDROOT
BRANCH   1   2
ATOM      2  C   UNL     1      15.188   7.810   2.280  1.00  0.00     0.285 C 
ATOM      3  C   UNL     1      17.533   7.594   1.845  1.00  0.00     0.178 C 
ATOM      4  C   UNL     1      17.514   8.792   0.853  1.00  0.00     0.177 C 
ATOM      5  O   UNL     1      16.495   7.653   2.818  1.00  0.00    -0.341 OA
ATOM      6  C   UNL     1      16.119   9.125   0.285  1.00  0.00     0.179 C 
ATOM      7  C   UNL     1      15.056   9.066   1.397  1.00  0.00     0.202 C 
BRANCH   3   8
ATOM      8  C   UNL     1      17.683   6.190   1.220  1.00  0.00     0.191 C 
BRANCH   8   9
ATOM      9  O   UNL     1      18.905   6.087   0.541  1.00  0.00    -0.394 OA
ATOM     10  H   UNL     1      18.704   6.185  -0.427  1.00  0.00     0.210 HD
ENDBRANCH   8   9
ENDBRANCH   3   8
BRANCH   4  11
ATOM     11  O   UNL     1      18.485   8.666  -0.158  1.00  0.00    -0.387 OA
ATOM     12  H   UNL     1      18.155   8.012  -0.825  1.00  0.00     0.211 HD
ENDBRANCH   4  11
BRANCH   6  13
ATOM     13  O   UNL     1      15.780   8.349  -0.841  1.00  0.00    -0.387 OA
ATOM     14  H   UNL     1      15.565   7.434  -0.543  1.00  0.00     0.211 HD
ENDBRANCH   6  13
BRANCH   7  15
ATOM     15  O   UNL     1      13.764   9.125   0.850  1.00  0.00    -0.385 OA
ATOM     16  H   UNL     1      13.729   8.450   0.122  1.00  0.00     0.211 HD
ENDBRANCH   7  15
ENDBRANCH   1   2
BRANCH   1  17
ATOM     17  C   UNL     1      13.424   6.259   1.836  1.00  0.00     0.224 C 
ATOM     18  C   UNL     1      12.618   6.147   0.519  1.00  0.00     0.208 C 
ATOM     19  O   UNL     1      12.770   7.189   2.685  1.00  0.00    -0.337 OA
ATOM     20  C   UNL     1      11.243   6.619   0.921  1.00  0.00     0.180 C 
ATOM     21  C   UNL     1      11.563   7.584   2.065  1.00  0.00     0.179 C 
BRANCH  17  22
ATOM     22  C   UNL     1      13.477   4.917   2.599  1.00  0.00     0.225 C 
BRANCH  22  23
ATOM     23  O   UNL     1      14.281   3.992   1.919  1.00  0.00    -0.391 OA
ATOM     24  H   UNL     1      14.686   4.485   1.158  1.00  0.00     0.210 HD
ENDBRANCH  22  23
ENDBRANCH  17  22
BRANCH  18  25
ATOM     25  O   UNL     1      12.600   4.843  -0.009  1.00  0.00    -0.385 OA
ATOM     26  H   UNL     1      12.869   4.235   0.728  1.00  0.00     0.211 HD
ENDBRANCH  18  25
BRANCH  20  27
ATOM     27  O   UNL     1      10.462   5.532   1.358  1.00  0.00    -0.387 OA
ATOM     28  H   UNL     1      10.951   5.112   2.112  1.00  0.00     0.211 HD
ENDBRANCH  20  27
BRANCH  21  29
ATOM     29  C   UNL     1      10.447   7.696   3.115  1.00  0.00     0.191 C 
BRANCH  29  30
ATOM     30  O   UNL     1       9.199   7.813   2.488  1.00  0.00    -0.394 OA
ATOM     31  H   UNL     1       8.890   8.745   2.641  1.00  0.00     0.210 HD
ENDBRANCH  29  30
ENDBRANCH  21  29
ENDBRANCH   1  17
TORSDOF 13
ENDMDL
