MODEL 1
REMARK VINA RESULT:    -4.429      0.000      0.000
REMARK INTER + INTRA:          -6.843
REMARK INTER:                  -6.501
REMARK INTRA:                  -0.343
REMARK UNBOUND:                -0.343
REMARK SMILES C=C1C=C[C@@H](C(C)C)CCC(C)=CCC1
REMARK SMILES IDX 3 1 4 2 5 3 9 4 10 5 11 6 12 7 13 8 6 10 7 11 8 12 2 13 1 14
REMARK SMILES IDX 15 15 14 16
REMARK H PARENT
REMARK Flexibility Score: 70.00
ROOT
ATOM      1  C   UNL     1      12.343  33.137  22.170  1.00  0.00    -0.001 C 
ATOM      2  C   UNL     1      11.458  33.226  23.174  1.00  0.00    -0.023 C 
ENDROOT
BRANCH   2   3
ATOM      3  C   UNL     1       9.966  32.982  23.061  1.00  0.00     0.014 C 
BRANCH   3   4
ATOM      4  C   UNL     1       9.278  34.295  22.608  1.00  0.00     0.012 C 
BRANCH   4   5
ATOM      5  C   UNL     1       8.805  34.278  21.142  1.00  0.00     0.031 C 
BRANCH   5   6
ATOM      6  C   UNL     1       8.120  32.973  20.773  1.00  0.00    -0.077 C 
ATOM      7  C   UNL     1       6.766  32.691  21.375  1.00  0.00     0.039 C 
ATOM      8  C   UNL     1       8.652  32.035  19.954  1.00  0.00    -0.028 CG0
ATOM      9  G   UNL     1      10.018  32.076  19.310  1.00  0.00     0.000 G0
ENDBRANCH   5   6
ENDBRANCH   4   5
ENDBRANCH   3   4
BRANCH   3  10
ATOM     10  C   UNL     1       9.414  32.470  24.429  1.00  0.00    -0.010 C 
ATOM     11  C   UNL     1      10.387  32.742  25.593  1.00  0.00     0.008 C 
ATOM     12  C   UNL     1       8.056  33.118  24.761  1.00  0.00     0.008 C 
ENDBRANCH   3  10
ENDBRANCH   2   3
BRANCH   1  13
ATOM     13  C   UNL     1      12.015  32.858  20.753  1.00  0.00    -0.055 C 
ATOM     14  C   UNL     1      12.503  33.688  19.826  1.00  0.00     0.012 C 
BRANCH  13  15
ATOM     15  C   UNL     1      11.137  31.700  20.310  1.00  0.00     0.039 C 
BRANCH  15  16
ATOM     16  C   UNL     1      10.025  32.072  19.302  1.00  0.00     0.032 CG0
ATOM     17  G   UNL     1       8.663  32.031  19.955  1.00  0.00     0.000 G0
ENDBRANCH  15  16
ENDBRANCH  13  15
ENDBRANCH   1  13
TORSDOF 1
ENDMDL
MODEL 2
REMARK VINA RESULT:    -4.265      1.083      3.402
REMARK INTER + INTRA:          -6.603
REMARK INTER:                  -6.019
REMARK INTRA:                  -0.584
REMARK UNBOUND:                -0.343
REMARK SMILES C=C1C=C[C@@H](C(C)C)CCC(C)=CCC1
REMARK SMILES IDX 3 1 4 2 5 3 9 4 10 5 11 6 12 7 13 8 6 10 7 11 8 12 2 13 1 14
REMARK SMILES IDX 15 15 14 16
REMARK H PARENT
REMARK Flexibility Score: 70.00
ROOT
ATOM      1  C   UNL     1       8.677  31.802  22.146  1.00  0.00    -0.001 C 
ATOM      2  C   UNL     1       9.751  31.976  22.929  1.00  0.00    -0.023 C 
ENDROOT
BRANCH   2   3
ATOM      3  C   UNL     1      10.484  33.286  23.147  1.00  0.00     0.014 C 
BRANCH   3   4
ATOM      4  C   UNL     1      11.930  33.143  22.608  1.00  0.00     0.012 C 
BRANCH   4   5
ATOM      5  C   UNL     1      12.046  32.240  21.365  1.00  0.00     0.031 C 
BRANCH   5   6
ATOM      6  C   UNL     1      12.094  33.040  20.074  1.00  0.00    -0.077 C 
ATOM      7  C   UNL     1      13.349  33.821  19.773  1.00  0.00     0.039 C 
ATOM      8  C   UNL     1      11.078  33.115  19.183  1.00  0.00    -0.028 CG0
ATOM      9  G   UNL     1       9.713  32.482  19.323  1.00  0.00     0.000 G0
ENDBRANCH   5   6
ENDBRANCH   4   5
ENDBRANCH   3   4
BRANCH   3  10
ATOM     10  C   UNL     1      10.455  33.657  24.664  1.00  0.00    -0.010 C 
ATOM     11  C   UNL     1       9.319  34.640  25.005  1.00  0.00     0.008 C 
ATOM     12  C   UNL     1      10.300  32.401  25.542  1.00  0.00     0.008 C 
ENDBRANCH   3  10
ENDBRANCH   2   3
BRANCH   1  13
ATOM     13  C   UNL     1       8.056  32.840  21.289  1.00  0.00    -0.055 C 
ATOM     14  C   UNL     1       6.814  33.232  21.588  1.00  0.00     0.012 C 
BRANCH  13  15
ATOM     15  C   UNL     1       8.748  33.453  20.084  1.00  0.00     0.039 C 
BRANCH  15  16
ATOM     16  C   UNL     1       9.704  32.502  19.326  1.00  0.00     0.032 CG0
ATOM     17  G   UNL     1      11.078  33.114  19.181  1.00  0.00     0.000 G0
ENDBRANCH  15  16
ENDBRANCH  13  15
ENDBRANCH   1  13
TORSDOF 1
ENDMDL
MODEL 3
REMARK VINA RESULT:    -4.226      2.535      4.687
REMARK INTER + INTRA:          -6.545
REMARK INTER:                  -5.997
REMARK INTRA:                  -0.547
REMARK UNBOUND:                -0.343
REMARK SMILES C=C1C=C[C@@H](C(C)C)CCC(C)=CCC1
REMARK SMILES IDX 3 1 4 2 5 3 9 4 10 5 11 6 12 7 13 8 6 10 7 11 8 12 2 13 1 14
REMARK SMILES IDX 15 15 14 16
REMARK H PARENT
REMARK Flexibility Score: 70.00
ROOT
ATOM      1  C   UNL     1      11.018  33.016  23.638  1.00  0.00    -0.001 C 
ATOM      2  C   UNL     1      10.829  32.609  22.375  1.00  0.00    -0.023 C 
ENDROOT
BRANCH   2   3
ATOM      3  C   UNL     1       9.534  32.723  21.593  1.00  0.00     0.014 C 
BRANCH   3   4
ATOM      4  C   UNL     1       8.748  31.395  21.734  1.00  0.00     0.012 C 
BRANCH   4   5
ATOM      5  C   UNL     1       7.385  31.548  22.437  1.00  0.00     0.031 C 
BRANCH   5   6
ATOM      6  C   UNL     1       7.282  30.689  23.686  1.00  0.00    -0.077 C 
ATOM      7  C   UNL     1       6.931  29.231  23.513  1.00  0.00     0.039 C 
ATOM      8  C   UNL     1       7.464  31.147  24.946  1.00  0.00    -0.028 CG0
ATOM      9  G   UNL     1       7.742  32.575  25.351  1.00  0.00     0.000 G0
ENDBRANCH   5   6
ENDBRANCH   4   5
ENDBRANCH   3   4
BRANCH   3  10
ATOM     10  C   UNL     1       9.851  33.065  20.102  1.00  0.00    -0.010 C 
ATOM     11  C   UNL     1       9.012  34.248  19.581  1.00  0.00     0.008 C 
ATOM     12  C   UNL     1      11.343  33.396  19.910  1.00  0.00     0.008 C 
ENDBRANCH   3  10
ENDBRANCH   2   3
BRANCH   1  13
ATOM     13  C   UNL     1       9.977  33.582  24.527  1.00  0.00    -0.055 C 
ATOM     14  C   UNL     1       9.672  34.875  24.384  1.00  0.00     0.012 C 
BRANCH  13  15
ATOM     15  C   UNL     1       9.267  32.776  25.602  1.00  0.00     0.039 C 
BRANCH  15  16
ATOM     16  C   UNL     1       7.752  32.569  25.369  1.00  0.00     0.032 CG0
ATOM     17  G   UNL     1       7.457  31.152  24.937  1.00  0.00     0.000 G0
ENDBRANCH  15  16
ENDBRANCH  13  15
ENDBRANCH   1  13
TORSDOF 1
ENDMDL
MODEL 4
REMARK VINA RESULT:    -4.212      1.610      3.632
REMARK INTER + INTRA:          -6.525
REMARK INTER:                  -5.904
REMARK INTRA:                  -0.621
REMARK UNBOUND:                -0.343
REMARK SMILES C=C1C=C[C@@H](C(C)C)CCC(C)=CCC1
REMARK SMILES IDX 3 1 4 2 5 3 9 4 10 5 11 6 12 7 13 8 6 10 7 11 8 12 2 13 1 14
REMARK SMILES IDX 15 15 14 16
REMARK H PARENT
REMARK Flexibility Score: 70.00
ROOT
ATOM      1  C   UNL     1      10.180  33.377  20.239  1.00  0.00    -0.001 C 
ATOM      2  C   UNL     1      11.070  33.503  21.234  1.00  0.00    -0.023 C 
ENDROOT
BRANCH   2   3
ATOM      3  C   UNL     1      11.386  32.449  22.278  1.00  0.00     0.014 C 
BRANCH   3   4
ATOM      4  C   UNL     1      10.907  32.959  23.661  1.00  0.00     0.012 C 
BRANCH   4   5
ATOM      5  C   UNL     1       9.688  33.899  23.593  1.00  0.00     0.031 C 
BRANCH   5   6
ATOM      6  C   UNL     1       8.385  33.174  23.884  1.00  0.00    -0.077 C 
ATOM      7  C   UNL     1       8.166  32.647  25.281  1.00  0.00     0.039 C 
ATOM      8  C   UNL     1       7.413  32.952  22.969  1.00  0.00    -0.028 CG0
ATOM      9  G   UNL     1       7.458  33.319  21.504  1.00  0.00     0.000 G0
ENDBRANCH   5   6
ENDBRANCH   4   5
ENDBRANCH   3   4
BRANCH   3  10
ATOM     10  C   UNL     1      12.916  32.138  22.261  1.00  0.00    -0.010 C 
ATOM     11  C   UNL     1      13.242  30.844  21.492  1.00  0.00     0.008 C 
ATOM     12  C   UNL     1      13.714  33.298  21.637  1.00  0.00     0.008 C 
ENDBRANCH   3  10
ENDBRANCH   2   3
BRANCH   1  13
ATOM     13  C   UNL     1       9.287  32.215  20.023  1.00  0.00    -0.055 C 
ATOM     14  C   UNL     1       9.727  31.230  19.235  1.00  0.00     0.012 C 
BRANCH  13  15
ATOM     15  C   UNL     1       7.897  32.104  20.628  1.00  0.00     0.039 C 
BRANCH  15  16
ATOM     16  C   UNL     1       7.460  33.313  21.487  1.00  0.00     0.032 CG0
ATOM     17  G   UNL     1       7.409  32.949  22.952  1.00  0.00     0.000 G0
ENDBRANCH  15  16
ENDBRANCH  13  15
ENDBRANCH   1  13
TORSDOF 1
ENDMDL
MODEL 5
REMARK VINA RESULT:    -4.144      1.844      4.080
REMARK INTER + INTRA:          -6.424
REMARK INTER:                  -6.152
REMARK INTRA:                  -0.272
REMARK UNBOUND:                -0.343
REMARK SMILES C=C1C=C[C@@H](C(C)C)CCC(C)=CCC1
REMARK SMILES IDX 3 1 4 2 5 3 9 4 10 5 11 6 12 7 13 8 6 10 7 11 8 12 2 13 1 14
REMARK SMILES IDX 15 15 14 16
REMARK H PARENT
REMARK Flexibility Score: 70.00
ROOT
ATOM      1  C   UNL     1      10.486  32.748  24.260  1.00  0.00    -0.001 C 
ATOM      2  C   UNL     1      11.307  32.606  23.209  1.00  0.00    -0.023 C 
ENDROOT
BRANCH   2   3
ATOM      3  C   UNL     1      11.206  33.364  21.899  1.00  0.00     0.014 C 
BRANCH   3   4
ATOM      4  C   UNL     1      10.217  32.619  20.968  1.00  0.00     0.012 C 
BRANCH   4   5
ATOM      5  C   UNL     1       9.759  31.251  21.509  1.00  0.00     0.031 C 
BRANCH   5   6
ATOM      6  C   UNL     1       8.254  31.068  21.415  1.00  0.00    -0.077 C 
ATOM      7  C   UNL     1       7.663  30.754  20.063  1.00  0.00     0.039 C 
ATOM      8  C   UNL     1       7.402  31.186  22.461  1.00  0.00    -0.028 CG0
ATOM      9  G   UNL     1       7.767  31.570  23.876  1.00  0.00     0.000 G0
ENDBRANCH   5   6
ENDBRANCH   4   5
ENDBRANCH   3   4
BRANCH   3  10
ATOM     10  C   UNL     1      12.625  33.501  21.263  1.00  0.00    -0.010 C 
ATOM     11  C   UNL     1      13.465  32.219  21.420  1.00  0.00     0.008 C 
ATOM     12  C   UNL     1      12.534  33.850  19.765  1.00  0.00     0.008 C 
ENDBRANCH   3  10
ENDBRANCH   2   3
BRANCH   1  13
ATOM     13  C   UNL     1       9.284  33.613  24.305  1.00  0.00    -0.055 C 
ATOM     14  C   UNL     1       9.454  34.897  24.633  1.00  0.00     0.012 C 
BRANCH  13  15
ATOM     15  C   UNL     1       7.879  33.108  24.027  1.00  0.00     0.039 C 
BRANCH  15  16
ATOM     16  C   UNL     1       7.754  31.574  23.874  1.00  0.00     0.032 CG0
ATOM     17  G   UNL     1       7.407  31.196  22.453  1.00  0.00     0.000 G0
ENDBRANCH  15  16
ENDBRANCH  13  15
ENDBRANCH   1  13
TORSDOF 1
ENDMDL
MODEL 6
REMARK VINA RESULT:    -4.093      1.524      1.996
REMARK INTER + INTRA:          -6.349
REMARK INTER:                  -5.675
REMARK INTRA:                  -0.674
REMARK UNBOUND:                -0.343
REMARK SMILES C=C1C=C[C@@H](C(C)C)CCC(C)=CCC1
REMARK SMILES IDX 3 1 4 2 5 3 9 4 10 5 11 6 12 7 13 8 6 10 7 11 8 12 2 13 1 14
REMARK SMILES IDX 15 15 14 16
REMARK H PARENT
REMARK Flexibility Score: 70.00
ROOT
ATOM      1  C   UNL     1      10.253  33.874  21.785  1.00  0.00    -0.001 C 
ATOM      2  C   UNL     1       9.307  33.767  22.729  1.00  0.00    -0.023 C 
ENDROOT
BRANCH   2   3
ATOM      3  C   UNL     1       9.180  32.634  23.729  1.00  0.00     0.014 C 
BRANCH   3   4
ATOM      4  C   UNL     1       7.799  31.955  23.541  1.00  0.00     0.012 C 
BRANCH   4   5
ATOM      5  C   UNL     1       7.379  31.793  22.068  1.00  0.00     0.031 C 
BRANCH   5   6
ATOM      6  C   UNL     1       7.893  30.498  21.461  1.00  0.00    -0.077 C 
ATOM      7  C   UNL     1       7.284  29.203  21.939  1.00  0.00     0.039 C 
ATOM      8  C   UNL     1       8.876  30.426  20.533  1.00  0.00    -0.028 CG0
ATOM      9  G   UNL     1       9.672  31.583  19.976  1.00  0.00     0.000 G0
ENDBRANCH   5   6
ENDBRANCH   4   5
ENDBRANCH   3   4
BRANCH   3  10
ATOM     10  C   UNL     1       9.372  33.188  25.176  1.00  0.00    -0.010 C 
ATOM     11  C   UNL     1      10.722  32.770  25.790  1.00  0.00     0.008 C 
ATOM     12  C   UNL     1       9.273  34.725  25.202  1.00  0.00     0.008 C 
ENDBRANCH   3  10
ENDBRANCH   2   3
BRANCH   1  13
ATOM     13  C   UNL     1      11.302  32.869  21.496  1.00  0.00    -0.055 C 
ATOM     14  C   UNL     1      12.517  33.069  22.017  1.00  0.00     0.012 C 
BRANCH  13  15
ATOM     15  C   UNL     1      11.072  31.647  20.623  1.00  0.00     0.039 C 
BRANCH  15  16
ATOM     16  C   UNL     1       9.675  31.569  19.965  1.00  0.00     0.032 CG0
ATOM     17  G   UNL     1       8.871  30.421  20.529  1.00  0.00     0.000 G0
ENDBRANCH  15  16
ENDBRANCH  13  15
ENDBRANCH   1  13
TORSDOF 1
ENDMDL
MODEL 7
REMARK VINA RESULT:    -4.088      1.010      1.496
REMARK INTER + INTRA:          -6.342
REMARK INTER:                  -6.018
REMARK INTRA:                  -0.324
REMARK UNBOUND:                -0.343
REMARK SMILES C=C1C=C[C@@H](C(C)C)CCC(C)=CCC1
REMARK SMILES IDX 3 1 4 2 5 3 9 4 10 5 11 6 12 7 13 8 6 10 7 11 8 12 2 13 1 14
REMARK SMILES IDX 15 15 14 16
REMARK H PARENT
REMARK Flexibility Score: 70.00
ROOT
ATOM      1  C   UNL     1      11.471  32.763  23.437  1.00  0.00    -0.001 C 
ATOM      2  C   UNL     1      10.210  32.958  23.847  1.00  0.00    -0.023 C 
ENDROOT
BRANCH   2   3
ATOM      3  C   UNL     1       8.975  32.898  22.967  1.00  0.00     0.014 C 
BRANCH   3   4
ATOM      4  C   UNL     1       8.809  34.260  22.248  1.00  0.00     0.012 C 
BRANCH   4   5
ATOM      5  C   UNL     1       9.152  34.219  20.747  1.00  0.00     0.031 C 
BRANCH   5   6
ATOM      6  C   UNL     1       8.626  32.965  20.069  1.00  0.00    -0.077 C 
ATOM      7  C   UNL     1       7.133  32.825  19.903  1.00  0.00     0.039 C 
ATOM      8  C   UNL     1       9.406  31.954  19.620  1.00  0.00    -0.028 CG0
ATOM      9  G   UNL     1      10.907  31.851  19.754  1.00  0.00     0.000 G0
ENDBRANCH   5   6
ENDBRANCH   4   5
ENDBRANCH   3   4
BRANCH   3  10
ATOM     10  C   UNL     1       7.730  32.534  23.837  1.00  0.00    -0.010 C 
ATOM     11  C   UNL     1       7.306  31.063  23.668  1.00  0.00     0.008 C 
ATOM     12  C   UNL     1       7.996  32.802  25.331  1.00  0.00     0.008 C 
ENDBRANCH   3  10
ENDBRANCH   2   3
BRANCH   1  13
ATOM     13  C   UNL     1      11.898  32.529  22.038  1.00  0.00    -0.055 C 
ATOM     14  C   UNL     1      12.804  33.362  21.516  1.00  0.00     0.012 C 
BRANCH  13  15
ATOM     15  C   UNL     1      11.341  31.414  21.169  1.00  0.00     0.039 C 
BRANCH  15  16
ATOM     16  C   UNL     1      10.917  31.845  19.745  1.00  0.00     0.032 CG0
ATOM     17  G   UNL     1       9.414  31.949  19.633  1.00  0.00     0.000 G0
ENDBRANCH  15  16
ENDBRANCH  13  15
ENDBRANCH   1  13
TORSDOF 1
ENDMDL
MODEL 8
REMARK VINA RESULT:    -4.037      2.269      4.185
REMARK INTER + INTRA:          -6.267
REMARK INTER:                  -5.740
REMARK INTRA:                  -0.527
REMARK UNBOUND:                -0.343
REMARK SMILES C=C1C=C[C@@H](C(C)C)CCC(C)=CCC1
REMARK SMILES IDX 3 1 4 2 5 3 9 4 10 5 11 6 12 7 13 8 6 10 7 11 8 12 2 13 1 14
REMARK SMILES IDX 15 15 14 16
REMARK H PARENT
REMARK Flexibility Score: 70.00
ROOT
ATOM      1  C   UNL     1       8.074  33.123  24.853  1.00  0.00    -0.001 C 
ATOM      2  C   UNL     1       7.376  32.362  23.999  1.00  0.00    -0.023 C 
ENDROOT
BRANCH   2   3
ATOM      3  C   UNL     1       7.951  31.277  23.108  1.00  0.00     0.014 C 
BRANCH   3   4
ATOM      4  C   UNL     1       8.176  31.863  21.691  1.00  0.00     0.012 C 
BRANCH   4   5
ATOM      5  C   UNL     1       9.546  31.510  21.080  1.00  0.00     0.031 C 
BRANCH   5   6
ATOM      6  C   UNL     1      10.386  32.744  20.799  1.00  0.00    -0.077 C 
ATOM      7  C   UNL     1      10.407  33.278  19.387  1.00  0.00     0.039 C 
ATOM      8  C   UNL     1      11.134  33.388  21.725  1.00  0.00    -0.028 CG0
ATOM      9  G   UNL     1      11.320  32.981  23.169  1.00  0.00     0.000 G0
ENDBRANCH   5   6
ENDBRANCH   4   5
ENDBRANCH   3   4
BRANCH   3  10
ATOM     10  C   UNL     1       6.988  30.048  23.091  1.00  0.00    -0.010 C 
ATOM     11  C   UNL     1       7.636  28.804  22.455  1.00  0.00     0.008 C 
ATOM     12  C   UNL     1       6.520  29.687  24.514  1.00  0.00     0.008 C 
ENDBRANCH   3  10
ENDBRANCH   2   3
BRANCH   1  13
ATOM     13  C   UNL     1       9.544  33.097  25.030  1.00  0.00    -0.055 C 
ATOM     14  C   UNL     1      10.036  32.390  26.051  1.00  0.00     0.012 C 
BRANCH  13  15
ATOM     15  C   UNL     1      10.508  33.852  24.129  1.00  0.00     0.039 C 
BRANCH  15  16
ATOM     16  C   UNL     1      11.333  32.965  23.167  1.00  0.00     0.032 CG0
ATOM     17  G   UNL     1      11.132  33.387  21.731  1.00  0.00     0.000 G0
ENDBRANCH  15  16
ENDBRANCH  13  15
ENDBRANCH   1  13
TORSDOF 1
ENDMDL
MODEL 9
REMARK VINA RESULT:    -3.986      1.782      3.726
REMARK INTER + INTRA:          -6.193
REMARK INTER:                  -5.689
REMARK INTRA:                  -0.504
REMARK UNBOUND:                -0.343
REMARK SMILES C=C1C=C[C@@H](C(C)C)CCC(C)=CCC1
REMARK SMILES IDX 3 1 4 2 5 3 9 4 10 5 11 6 12 7 13 8 6 10 7 11 8 12 2 13 1 14
REMARK SMILES IDX 15 15 14 16
REMARK H PARENT
REMARK Flexibility Score: 70.00
ROOT
ATOM      1  C   UNL     1      12.505  34.026  19.675  1.00  0.00    -0.001 C 
ATOM      2  C   UNL     1      13.199  33.518  20.703  1.00  0.00    -0.023 C 
ENDROOT
BRANCH   2   3
ATOM      3  C   UNL     1      12.800  32.309  21.528  1.00  0.00     0.014 C 
BRANCH   3   4
ATOM      4  C   UNL     1      11.929  32.784  22.719  1.00  0.00     0.012 C 
BRANCH   4   5
ATOM      5  C   UNL     1      10.484  32.248  22.689  1.00  0.00     0.031 C 
BRANCH   5   6
ATOM      6  C   UNL     1       9.455  33.361  22.794  1.00  0.00    -0.077 C 
ATOM      7  C   UNL     1       9.162  33.926  24.162  1.00  0.00     0.039 C 
ATOM      8  C   UNL     1       8.767  33.868  21.744  1.00  0.00    -0.028 CG0
ATOM      9  G   UNL     1       8.845  33.400  20.310  1.00  0.00     0.000 G0
ENDBRANCH   5   6
ENDBRANCH   4   5
ENDBRANCH   3   4
BRANCH   3  10
ATOM     10  C   UNL     1      14.081  31.551  22.000  1.00  0.00    -0.010 C 
ATOM     11  C   UNL     1      14.041  30.053  21.642  1.00  0.00     0.008 C 
ATOM     12  C   UNL     1      15.352  32.170  21.389  1.00  0.00     0.008 C 
ENDBRANCH   3  10
ENDBRANCH   2   3
BRANCH   1  13
ATOM     13  C   UNL     1      11.185  33.547  19.203  1.00  0.00    -0.055 C 
ATOM     14  C   UNL     1      11.156  32.447  18.445  1.00  0.00     0.012 C 
BRANCH  13  15
ATOM     15  C   UNL     1       9.878  34.256  19.515  1.00  0.00     0.039 C 
BRANCH  15  16
ATOM     16  C   UNL     1       8.848  33.412  20.302  1.00  0.00     0.032 CG0
ATOM     17  G   UNL     1       8.758  33.866  21.740  1.00  0.00     0.000 G0
ENDBRANCH  15  16
ENDBRANCH  13  15
ENDBRANCH   1  13
TORSDOF 1
ENDMDL
