MODEL 1
REMARK VINA RESULT:    -4.443      0.000      0.000
REMARK INTER + INTRA:          -4.443
REMARK INTER:                  -4.443
REMARK INTRA:                   0.000
REMARK UNBOUND:                 0.000
REMARK SMILES O=c1ccc2ccc3occc3c2o1
REMARK SMILES IDX 6 1 7 2 8 3 12 4 11 5 10 6 9 7 13 8 5 9 4 10 3 11 2 12 1 13
REMARK SMILES IDX 14 14
REMARK H PARENT
REMARK Flexibility Score: inf
ROOT
ATOM      1  C   UNL     1       7.454 -35.849  15.366  1.00  0.00     0.016 A 
ATOM      2  C   UNL     1       6.965 -35.608  16.664  1.00  0.00     0.048 A 
ATOM      3  C   UNL     1       7.357 -34.435  17.306  1.00  0.00     0.137 A 
ATOM      4  C   UNL     1       8.193 -33.528  16.710  1.00  0.00     0.064 A 
ATOM      5  C   UNL     1       8.373 -32.501  17.607  1.00  0.00     0.054 A 
ATOM      6  C   UNL     1       7.614 -32.865  18.714  1.00  0.00     0.196 A 
ATOM      7  O   UNL     1       7.018 -34.026  18.504  1.00  0.00    -0.464 OA
ATOM      8  C   UNL     1       8.698 -33.729  15.428  1.00  0.00     0.149 A 
ATOM      9  C   UNL     1       8.318 -34.914  14.745  1.00  0.00     0.018 A 
ATOM     10  C   UNL     1       8.822 -35.121  13.458  1.00  0.00     0.019 A 
ATOM     11  C   UNL     1       9.670 -34.169  12.892  1.00  0.00     0.094 A 
ATOM     12  C   UNL     1       9.999 -33.023  13.629  1.00  0.00     0.336 A 
ATOM     13  O   UNL     1      10.763 -32.155  13.133  1.00  0.00    -0.246 OA
ATOM     14  O   UNL     1       9.508 -32.846  14.854  1.00  0.00    -0.422 OA
ENDROOT
TORSDOF 0
ENDMDL
MODEL 2
REMARK VINA RESULT:    -4.307      1.621      4.274
REMARK INTER + INTRA:          -4.307
REMARK INTER:                  -4.307
REMARK INTRA:                   0.000
REMARK UNBOUND:                 0.000
REMARK SMILES O=c1ccc2ccc3occc3c2o1
REMARK SMILES IDX 6 1 7 2 8 3 12 4 11 5 10 6 9 7 13 8 5 9 4 10 3 11 2 12 1 13
REMARK SMILES IDX 14 14
REMARK H PARENT
REMARK Flexibility Score: inf
ROOT
ATOM      1  C   UNL     1       6.668 -34.482  15.836  1.00  0.00     0.016 A 
ATOM      2  C   UNL     1       7.066 -34.595  14.491  1.00  0.00     0.048 A 
ATOM      3  C   UNL     1       8.181 -33.871  14.073  1.00  0.00     0.137 A 
ATOM      4  C   UNL     1       8.884 -33.066  14.929  1.00  0.00     0.064 A 
ATOM      5  C   UNL     1       9.909 -32.506  14.202  1.00  0.00     0.054 A 
ATOM      6  C   UNL     1       9.752 -33.025  12.921  1.00  0.00     0.196 A 
ATOM      7  O   UNL     1       8.711 -33.837  12.875  1.00  0.00    -0.464 OA
ATOM      8  C   UNL     1       8.523 -32.927  16.267  1.00  0.00     0.149 A 
ATOM      9  C   UNL     1       7.392 -33.651  16.727  1.00  0.00     0.018 A 
ATOM     10  C   UNL     1       7.025 -33.515  18.068  1.00  0.00     0.019 A 
ATOM     11  C   UNL     1       7.772 -32.684  18.903  1.00  0.00     0.094 A 
ATOM     12  C   UNL     1       8.877 -32.002  18.376  1.00  0.00     0.336 A 
ATOM     13  O   UNL     1       9.561 -31.248  19.115  1.00  0.00    -0.246 OA
ATOM     14  O   UNL     1       9.209 -32.145  17.094  1.00  0.00    -0.422 OA
ENDROOT
TORSDOF 0
ENDMDL
MODEL 3
REMARK VINA RESULT:    -4.224      2.066      4.550
REMARK INTER + INTRA:          -4.224
REMARK INTER:                  -4.224
REMARK INTRA:                   0.000
REMARK UNBOUND:                 0.000
REMARK SMILES O=c1ccc2ccc3occc3c2o1
REMARK SMILES IDX 6 1 7 2 8 3 12 4 11 5 10 6 9 7 13 8 5 9 4 10 3 11 2 12 1 13
REMARK SMILES IDX 14 14
REMARK H PARENT
REMARK Flexibility Score: inf
ROOT
ATOM      1  C   UNL     1       7.821 -33.159  16.468  1.00  0.00     0.016 A 
ATOM      2  C   UNL     1       8.841 -32.428  15.831  1.00  0.00     0.048 A 
ATOM      3  C   UNL     1       9.489 -33.013  14.745  1.00  0.00     0.137 A 
ATOM      4  C   UNL     1       9.159 -34.264  14.294  1.00  0.00     0.064 A 
ATOM      5  C   UNL     1       9.981 -34.533  13.224  1.00  0.00     0.054 A 
ATOM      6  C   UNL     1      10.773 -33.396  13.097  1.00  0.00     0.196 A 
ATOM      7  O   UNL     1      10.455 -32.506  14.020  1.00  0.00    -0.464 OA
ATOM      8  C   UNL     1       8.157 -35.020  14.897  1.00  0.00     0.149 A 
ATOM      9  C   UNL     1       7.476 -34.453  16.005  1.00  0.00     0.018 A 
ATOM     10  C   UNL     1       6.469 -35.208  16.615  1.00  0.00     0.019 A 
ATOM     11  C   UNL     1       6.168 -36.477  16.119  1.00  0.00     0.094 A 
ATOM     12  C   UNL     1       6.885 -36.968  15.020  1.00  0.00     0.336 A 
ATOM     13  O   UNL     1       6.626 -38.110  14.561  1.00  0.00    -0.246 OA
ATOM     14  O   UNL     1       7.841 -36.233  14.455  1.00  0.00    -0.422 OA
ENDROOT
TORSDOF 0
ENDMDL
MODEL 4
REMARK VINA RESULT:    -4.179      2.038      2.993
REMARK INTER + INTRA:          -4.179
REMARK INTER:                  -4.179
REMARK INTRA:                   0.000
REMARK UNBOUND:                 0.000
REMARK SMILES O=c1ccc2ccc3occc3c2o1
REMARK SMILES IDX 6 1 7 2 8 3 12 4 11 5 10 6 9 7 13 8 5 9 4 10 3 11 2 12 1 13
REMARK SMILES IDX 14 14
REMARK H PARENT
REMARK Flexibility Score: inf
ROOT
ATOM      1  C   UNL     1       9.495 -32.805  14.723  1.00  0.00     0.016 A 
ATOM      2  C   UNL     1       9.214 -32.185  15.955  1.00  0.00     0.048 A 
ATOM      3  C   UNL     1       8.451 -32.887  16.885  1.00  0.00     0.137 A 
ATOM      4  C   UNL     1       7.976 -34.146  16.629  1.00  0.00     0.064 A 
ATOM      5  C   UNL     1       7.271 -34.542  17.743  1.00  0.00     0.054 A 
ATOM      6  C   UNL     1       7.371 -33.468  18.620  1.00  0.00     0.196 A 
ATOM      7  O   UNL     1       8.081 -32.494  18.079  1.00  0.00    -0.464 OA
ATOM      8  C   UNL     1       8.231 -34.794  15.424  1.00  0.00     0.149 A 
ATOM      9  C   UNL     1       9.007 -34.108  14.453  1.00  0.00     0.018 A 
ATOM     10  C   UNL     1       9.266 -34.753  13.241  1.00  0.00     0.019 A 
ATOM     11  C   UNL     1       8.762 -36.036  13.026  1.00  0.00     0.094 A 
ATOM     12  C   UNL     1       8.005 -36.650  14.033  1.00  0.00     0.336 A 
ATOM     13  O   UNL     1       7.543 -37.806  13.855  1.00  0.00    -0.246 OA
ATOM     14  O   UNL     1       7.769 -36.016  15.180  1.00  0.00    -0.422 OA
ENDROOT
TORSDOF 0
ENDMDL
MODEL 5
REMARK VINA RESULT:    -4.121      1.137      1.215
REMARK INTER + INTRA:          -4.121
REMARK INTER:                  -4.121
REMARK INTRA:                   0.000
REMARK UNBOUND:                 0.000
REMARK SMILES O=c1ccc2ccc3occc3c2o1
REMARK SMILES IDX 6 1 7 2 8 3 12 4 11 5 10 6 9 7 13 8 5 9 4 10 3 11 2 12 1 13
REMARK SMILES IDX 14 14
REMARK H PARENT
REMARK Flexibility Score: inf
ROOT
ATOM      1  C   UNL     1       6.552 -34.270  15.733  1.00  0.00     0.016 A 
ATOM      2  C   UNL     1       6.455 -33.925  17.095  1.00  0.00     0.048 A 
ATOM      3  C   UNL     1       7.447 -33.112  17.639  1.00  0.00     0.137 A 
ATOM      4  C   UNL     1       8.496 -32.650  16.889  1.00  0.00     0.064 A 
ATOM      5  C   UNL     1       9.280 -31.887  17.724  1.00  0.00     0.054 A 
ATOM      6  C   UNL     1       8.634 -31.941  18.955  1.00  0.00     0.196 A 
ATOM      7  O   UNL     1       7.542 -32.680  18.872  1.00  0.00    -0.464 OA
ATOM      8  C   UNL     1       8.629 -32.968  15.540  1.00  0.00     0.149 A 
ATOM      9  C   UNL     1       7.635 -33.794  14.953  1.00  0.00     0.018 A 
ATOM     10  C   UNL     1       7.764 -34.117  13.599  1.00  0.00     0.019 A 
ATOM     11  C   UNL     1       8.850 -33.622  12.876  1.00  0.00     0.094 A 
ATOM     12  C   UNL     1       9.790 -32.812  13.526  1.00  0.00     0.336 A 
ATOM     13  O   UNL     1      10.775 -32.358  12.888  1.00  0.00    -0.246 OA
ATOM     14  O   UNL     1       9.649 -32.517  14.817  1.00  0.00    -0.422 OA
ENDROOT
TORSDOF 0
ENDMDL
MODEL 6
REMARK VINA RESULT:    -4.093      2.098      4.174
REMARK INTER + INTRA:          -4.093
REMARK INTER:                  -4.093
REMARK INTRA:                   0.000
REMARK UNBOUND:                 0.000
REMARK SMILES O=c1ccc2ccc3occc3c2o1
REMARK SMILES IDX 6 1 7 2 8 3 12 4 11 5 10 6 9 7 13 8 5 9 4 10 3 11 2 12 1 13
REMARK SMILES IDX 14 14
REMARK H PARENT
REMARK Flexibility Score: inf
ROOT
ATOM      1  C   UNL     1       8.467 -34.916  13.623  1.00  0.00     0.016 A 
ATOM      2  C   UNL     1       7.893 -36.168  13.332  1.00  0.00     0.048 A 
ATOM      3  C   UNL     1       7.115 -36.778  14.313  1.00  0.00     0.137 A 
ATOM      4  C   UNL     1       6.902 -36.196  15.534  1.00  0.00     0.064 A 
ATOM      5  C   UNL     1       6.101 -37.053  16.253  1.00  0.00     0.054 A 
ATOM      6  C   UNL     1       5.878 -38.125  15.394  1.00  0.00     0.196 A 
ATOM      7  O   UNL     1       6.497 -37.932  14.243  1.00  0.00    -0.464 OA
ATOM      8  C   UNL     1       7.452 -34.959  15.862  1.00  0.00     0.149 A 
ATOM      9  C   UNL     1       8.249 -34.308  14.885  1.00  0.00     0.018 A 
ATOM     10  C   UNL     1       8.805 -33.068  15.209  1.00  0.00     0.019 A 
ATOM     11  C   UNL     1       8.559 -32.513  16.465  1.00  0.00     0.094 A 
ATOM     12  C   UNL     1       7.760 -33.216  17.377  1.00  0.00     0.336 A 
ATOM     13  O   UNL     1       7.529 -32.730  18.514  1.00  0.00    -0.246 OA
ATOM     14  O   UNL     1       7.241 -34.398  17.048  1.00  0.00    -0.422 OA
ENDROOT
TORSDOF 0
ENDMDL
MODEL 7
REMARK VINA RESULT:    -3.888      1.906      3.538
REMARK INTER + INTRA:          -3.888
REMARK INTER:                  -3.888
REMARK INTRA:                   0.000
REMARK UNBOUND:                 0.000
REMARK SMILES O=c1ccc2ccc3occc3c2o1
REMARK SMILES IDX 6 1 7 2 8 3 12 4 11 5 10 6 9 7 13 8 5 9 4 10 3 11 2 12 1 13
REMARK SMILES IDX 14 14
REMARK H PARENT
REMARK Flexibility Score: inf
ROOT
ATOM      1  C   UNL     1       6.898 -34.966  16.972  1.00  0.00     0.016 A 
ATOM      2  C   UNL     1       6.433 -36.242  16.604  1.00  0.00     0.048 A 
ATOM      3  C   UNL     1       6.880 -36.782  15.400  1.00  0.00     0.137 A 
ATOM      4  C   UNL     1       7.746 -36.108  14.581  1.00  0.00     0.064 A 
ATOM      5  C   UNL     1       7.978 -36.915  13.491  1.00  0.00     0.054 A 
ATOM      6  C   UNL     1       7.215 -38.053  13.731  1.00  0.00     0.196 A 
ATOM      7  O   UNL     1       6.570 -37.944  14.879  1.00  0.00    -0.464 OA
ATOM      8  C   UNL     1       8.230 -34.844  14.909  1.00  0.00     0.149 A 
ATOM      9  C   UNL     1       7.796 -34.264  16.129  1.00  0.00     0.018 A 
ATOM     10  C   UNL     1       8.277 -32.995  16.463  1.00  0.00     0.019 A 
ATOM     11  C   UNL     1       9.159 -32.347  15.597  1.00  0.00     0.094 A 
ATOM     12  C   UNL     1       9.542 -32.985  14.410  1.00  0.00     0.336 A 
ATOM     13  O   UNL     1      10.337 -32.414  13.619  1.00  0.00    -0.246 OA
ATOM     14  O   UNL     1       9.071 -34.193  14.111  1.00  0.00    -0.422 OA
ENDROOT
TORSDOF 0
ENDMDL
MODEL 8
REMARK VINA RESULT:    -3.623      2.158      3.922
REMARK INTER + INTRA:          -3.623
REMARK INTER:                  -3.623
REMARK INTRA:                   0.000
REMARK UNBOUND:                 0.000
REMARK SMILES O=c1ccc2ccc3occc3c2o1
REMARK SMILES IDX 6 1 7 2 8 3 12 4 11 5 10 6 9 7 13 8 5 9 4 10 3 11 2 12 1 13
REMARK SMILES IDX 14 14
REMARK H PARENT
REMARK Flexibility Score: inf
ROOT
ATOM      1  C   UNL     1       9.192 -32.827  14.434  1.00  0.00     0.016 A 
ATOM      2  C   UNL     1       8.265 -33.827  14.081  1.00  0.00     0.048 A 
ATOM      3  C   UNL     1       7.463 -34.363  15.085  1.00  0.00     0.137 A 
ATOM      4  C   UNL     1       7.557 -33.947  16.387  1.00  0.00     0.064 A 
ATOM      5  C   UNL     1       6.636 -34.672  17.107  1.00  0.00     0.054 A 
ATOM      6  C   UNL     1       6.031 -35.500  16.167  1.00  0.00     0.196 A 
ATOM      7  O   UNL     1       6.547 -35.293  14.968  1.00  0.00    -0.464 OA
ATOM      8  C   UNL     1       8.460 -32.961  16.777  1.00  0.00     0.149 A 
ATOM      9  C   UNL     1       9.292 -32.391  15.779  1.00  0.00     0.018 A 
ATOM     10  C   UNL     1      10.201 -31.403  16.165  1.00  0.00     0.019 A 
ATOM     11  C   UNL     1      10.259 -31.010  17.503  1.00  0.00     0.094 A 
ATOM     12  C   UNL     1       9.404 -31.618  18.430  1.00  0.00     0.336 A 
ATOM     13  O   UNL     1       9.444 -31.276  19.641  1.00  0.00    -0.246 OA
ATOM     14  O   UNL     1       8.546 -32.559  18.041  1.00  0.00    -0.422 OA
ENDROOT
TORSDOF 0
ENDMDL
MODEL 9
REMARK VINA RESULT:    -2.898      2.513      4.035
REMARK INTER + INTRA:          -2.898
REMARK INTER:                  -2.898
REMARK INTRA:                   0.000
REMARK UNBOUND:                 0.000
REMARK SMILES O=c1ccc2ccc3occc3c2o1
REMARK SMILES IDX 6 1 7 2 8 3 12 4 11 5 10 6 9 7 13 8 5 9 4 10 3 11 2 12 1 13
REMARK SMILES IDX 14 14
REMARK H PARENT
REMARK Flexibility Score: inf
ROOT
ATOM      1  C   UNL     1       7.171 -35.764  17.747  1.00  0.00     0.016 A 
ATOM      2  C   UNL     1       7.822 -34.516  17.786  1.00  0.00     0.048 A 
ATOM      3  C   UNL     1       8.117 -33.892  16.576  1.00  0.00     0.137 A 
ATOM      4  C   UNL     1       7.793 -34.457  15.372  1.00  0.00     0.064 A 
ATOM      5  C   UNL     1       8.221 -33.588  14.394  1.00  0.00     0.054 A 
ATOM      6  C   UNL     1       8.790 -32.529  15.092  1.00  0.00     0.196 A 
ATOM      7  O   UNL     1       8.713 -32.739  16.394  1.00  0.00    -0.464 OA
ATOM      8  C   UNL     1       7.149 -35.688  15.290  1.00  0.00     0.149 A 
ATOM      9  C   UNL     1       6.832 -36.352  16.503  1.00  0.00     0.018 A 
ATOM     10  C   UNL     1       6.186 -37.589  16.428  1.00  0.00     0.019 A 
ATOM     11  C   UNL     1       5.875 -38.125  15.177  1.00  0.00     0.094 A 
ATOM     12  C   UNL     1       6.219 -37.409  14.023  1.00  0.00     0.336 A 
ATOM     13  O   UNL     1       5.946 -37.878  12.888  1.00  0.00    -0.246 OA
ATOM     14  O   UNL     1       6.835 -36.232  14.118  1.00  0.00    -0.422 OA
ENDROOT
TORSDOF 0
ENDMDL
