MODEL 1
REMARK VINA RESULT:    -6.252      0.000      0.000
REMARK INTER + INTRA:          -6.891
REMARK INTER:                  -6.617
REMARK INTRA:                  -0.274
REMARK UNBOUND:                -0.274
REMARK SMILES CC1=C[C@H]2C(=C(C)CC[C@@H]2C(C)C)CC1
REMARK SMILES IDX 1 1 2 2 3 3 4 4 10 5 9 6 8 7 6 8 5 9 14 10 15 11 7 12 11 13
REMARK SMILES IDX 12 14 13 15
REMARK H PARENT
REMARK Flexibility Score: inf
ROOT
ATOM      1  C   UNL     1     -42.942 -48.877  25.110  1.00  0.00     0.039 C 
ATOM      2  C   UNL     1     -42.828 -49.023  26.604  1.00  0.00    -0.076 C 
ATOM      3  C   UNL     1     -41.828 -48.394  27.256  1.00  0.00    -0.020 C 
ATOM      4  C   UNL     1     -41.640 -48.420  28.769  1.00  0.00     0.041 C 
ATOM      5  C   UNL     1     -40.191 -48.830  29.184  1.00  0.00     0.003 C 
ATOM      6  C   UNL     1     -40.139 -48.883  30.723  1.00  0.00     0.009 C 
ATOM      7  C   UNL     1     -41.082 -49.953  31.265  1.00  0.00     0.031 C 
ATOM      8  C   UNL     1     -42.463 -49.919  30.646  1.00  0.00    -0.073 C 
ATOM      9  C   UNL     1     -42.698 -49.295  29.454  1.00  0.00    -0.064 C 
ATOM     10  C   UNL     1     -44.045 -49.360  28.760  1.00  0.00     0.036 C 
ATOM     11  C   UNL     1     -43.826 -49.881  27.344  1.00  0.00     0.035 C 
ATOM     12  C   UNL     1     -43.524 -50.741  31.340  1.00  0.00     0.039 C 
ENDROOT
BRANCH   5  13
ATOM     13  C   UNL     1     -39.016 -47.925  28.659  1.00  0.00    -0.013 C 
ATOM     14  C   UNL     1     -37.615 -48.534  28.832  1.00  0.00     0.007 C 
ATOM     15  C   UNL     1     -39.074 -46.484  29.195  1.00  0.00     0.007 C 
ENDBRANCH   5  13
TORSDOF 1
ENDMDL
MODEL 2
REMARK VINA RESULT:    -6.180      1.218      3.658
REMARK INTER + INTRA:          -6.815
REMARK INTER:                  -6.551
REMARK INTRA:                  -0.264
REMARK UNBOUND:                -0.274
REMARK SMILES CC1=C[C@H]2C(=C(C)CC[C@@H]2C(C)C)CC1
REMARK SMILES IDX 1 1 2 2 3 3 4 4 10 5 9 6 8 7 6 8 5 9 14 10 15 11 7 12 11 13
REMARK SMILES IDX 12 14 13 15
REMARK H PARENT
REMARK Flexibility Score: inf
ROOT
ATOM      1  C   UNL     1     -42.123 -50.814  31.881  1.00  0.00     0.039 C 
ATOM      2  C   UNL     1     -42.149 -50.155  30.528  1.00  0.00    -0.076 C 
ATOM      3  C   UNL     1     -41.024 -49.581  30.051  1.00  0.00    -0.020 C 
ATOM      4  C   UNL     1     -40.909 -48.933  28.675  1.00  0.00     0.041 C 
ATOM      5  C   UNL     1     -40.317 -47.488  28.743  1.00  0.00     0.003 C 
ATOM      6  C   UNL     1     -40.308 -46.916  27.313  1.00  0.00     0.009 C 
ATOM      7  C   UNL     1     -41.726 -46.794  26.764  1.00  0.00     0.031 C 
ATOM      8  C   UNL     1     -42.572 -48.031  26.981  1.00  0.00    -0.073 C 
ATOM      9  C   UNL     1     -42.247 -48.965  27.923  1.00  0.00    -0.064 C 
ATOM     10  C   UNL     1     -43.148 -50.142  28.239  1.00  0.00     0.036 C 
ATOM     11  C   UNL     1     -43.434 -50.135  29.736  1.00  0.00     0.035 C 
ATOM     12  C   UNL     1     -43.869 -48.094  26.209  1.00  0.00     0.039 C 
ENDROOT
BRANCH   5  13
ATOM     13  C   UNL     1     -38.881 -47.337  29.369  1.00  0.00    -0.013 C 
ATOM     14  C   UNL     1     -38.363 -45.890  29.434  1.00  0.00     0.007 C 
ATOM     15  C   UNL     1     -37.842 -48.280  28.739  1.00  0.00     0.007 C 
ENDBRANCH   5  13
TORSDOF 1
ENDMDL
MODEL 3
REMARK VINA RESULT:    -6.095     11.357     14.659
REMARK INTER + INTRA:          -6.725
REMARK INTER:                  -6.488
REMARK INTRA:                  -0.237
REMARK UNBOUND:                -0.274
REMARK SMILES CC1=C[C@H]2C(=C(C)CC[C@@H]2C(C)C)CC1
REMARK SMILES IDX 1 1 2 2 3 3 4 4 10 5 9 6 8 7 6 8 5 9 14 10 15 11 7 12 11 13
REMARK SMILES IDX 12 14 13 15
REMARK H PARENT
REMARK Flexibility Score: inf
ROOT
ATOM      1  C   UNL     1     -51.912 -50.387  18.184  1.00  0.00     0.039 C 
ATOM      2  C   UNL     1     -51.999 -49.591  19.459  1.00  0.00    -0.076 C 
ATOM      3  C   UNL     1     -53.212 -49.306  19.978  1.00  0.00    -0.020 C 
ATOM      4  C   UNL     1     -53.429 -48.558  21.289  1.00  0.00     0.041 C 
ATOM      5  C   UNL     1     -54.419 -47.359  21.136  1.00  0.00     0.003 C 
ATOM      6  C   UNL     1     -54.509 -46.646  22.498  1.00  0.00     0.009 C 
ATOM      7  C   UNL     1     -53.158 -46.064  22.901  1.00  0.00     0.031 C 
ATOM      8  C   UNL     1     -52.004 -47.027  22.729  1.00  0.00    -0.073 C 
ATOM      9  C   UNL     1     -52.097 -48.120  21.916  1.00  0.00    -0.064 C 
ATOM     10  C   UNL     1     -50.913 -49.023  21.635  1.00  0.00     0.036 C 
ATOM     11  C   UNL     1     -50.731 -49.114  20.124  1.00  0.00     0.035 C 
ATOM     12  C   UNL     1     -50.700 -46.628  23.383  1.00  0.00     0.039 C 
ENDROOT
BRANCH   5  13
ATOM     13  C   UNL     1     -55.871 -47.695  20.632  1.00  0.00    -0.013 C 
ATOM     14  C   UNL     1     -56.831 -46.493  20.606  1.00  0.00     0.007 C 
ATOM     15  C   UNL     1     -56.498 -48.902  21.350  1.00  0.00     0.007 C 
ENDBRANCH   5  13
TORSDOF 1
ENDMDL
MODEL 4
REMARK VINA RESULT:    -5.983     10.338     14.061
REMARK INTER + INTRA:          -6.607
REMARK INTER:                  -6.346
REMARK INTRA:                  -0.261
REMARK UNBOUND:                -0.274
REMARK SMILES CC1=C[C@H]2C(=C(C)CC[C@@H]2C(C)C)CC1
REMARK SMILES IDX 1 1 2 2 3 3 4 4 10 5 9 6 8 7 6 8 5 9 14 10 15 11 7 12 11 13
REMARK SMILES IDX 12 14 13 15
REMARK H PARENT
REMARK Flexibility Score: inf
ROOT
ATOM      1  C   UNL     1     -50.596 -49.288  24.938  1.00  0.00     0.039 C 
ATOM      2  C   UNL     1     -50.764 -49.269  23.442  1.00  0.00    -0.076 C 
ATOM      3  C   UNL     1     -51.856 -48.683  22.907  1.00  0.00    -0.020 C 
ATOM      4  C   UNL     1     -52.111 -48.551  21.409  1.00  0.00     0.041 C 
ATOM      5  C   UNL     1     -53.526 -49.069  20.997  1.00  0.00     0.003 C 
ATOM      6  C   UNL     1     -53.645 -48.945  19.466  1.00  0.00     0.009 C 
ATOM      7  C   UNL     1     -52.620 -49.831  18.765  1.00  0.00     0.031 C 
ATOM      8  C   UNL     1     -51.223 -49.717  19.336  1.00  0.00    -0.073 C 
ATOM      9  C   UNL     1     -50.999 -49.216  20.587  1.00  0.00    -0.064 C 
ATOM     10  C   UNL     1     -49.622 -49.211  21.221  1.00  0.00     0.036 C 
ATOM     11  C   UNL     1     -49.717 -49.917  22.569  1.00  0.00     0.035 C 
ATOM     12  C   UNL     1     -50.114 -50.327  18.511  1.00  0.00     0.039 C 
ENDROOT
BRANCH   5  13
ATOM     13  C   UNL     1     -54.765 -48.368  21.668  1.00  0.00    -0.013 C 
ATOM     14  C   UNL     1     -56.129 -48.925  21.228  1.00  0.00     0.007 C 
ATOM     15  C   UNL     1     -54.722 -46.833  21.568  1.00  0.00     0.007 C 
ENDBRANCH   5  13
TORSDOF 1
ENDMDL
MODEL 5
REMARK VINA RESULT:    -5.620      9.396     12.227
REMARK INTER + INTRA:          -6.223
REMARK INTER:                  -5.951
REMARK INTRA:                  -0.272
REMARK UNBOUND:                -0.274
REMARK SMILES CC1=C[C@H]2C(=C(C)CC[C@@H]2C(C)C)CC1
REMARK SMILES IDX 1 1 2 2 3 3 4 4 10 5 9 6 8 7 6 8 5 9 14 10 15 11 7 12 11 13
REMARK SMILES IDX 12 14 13 15
REMARK H PARENT
REMARK Flexibility Score: inf
ROOT
ATOM      1  C   UNL     1     -54.867 -46.630  21.944  1.00  0.00     0.039 C 
ATOM      2  C   UNL     1     -53.563 -47.104  22.528  1.00  0.00    -0.076 C 
ATOM      3  C   UNL     1     -52.646 -47.676  21.720  1.00  0.00    -0.020 C 
ATOM      4  C   UNL     1     -51.270 -48.145  22.181  1.00  0.00     0.041 C 
ATOM      5  C   UNL     1     -50.969 -49.619  21.758  1.00  0.00     0.003 C 
ATOM      6  C   UNL     1     -49.590 -49.999  22.329  1.00  0.00     0.009 C 
ATOM      7  C   UNL     1     -49.601 -49.963  23.854  1.00  0.00     0.031 C 
ATOM      8  C   UNL     1     -50.239 -48.718  24.429  1.00  0.00    -0.073 C 
ATOM      9  C   UNL     1     -51.079 -47.936  23.690  1.00  0.00    -0.064 C 
ATOM     10  C   UNL     1     -51.824 -46.758  24.287  1.00  0.00     0.036 C 
ATOM     11  C   UNL     1     -53.311 -46.944  24.008  1.00  0.00     0.035 C 
ATOM     12  C   UNL     1     -50.018 -48.477  25.905  1.00  0.00     0.039 C 
ENDROOT
BRANCH   5  13
ATOM     13  C   UNL     1     -50.994 -49.936  20.217  1.00  0.00    -0.013 C 
ATOM     14  C   UNL     1     -51.861 -51.146  19.829  1.00  0.00     0.007 C 
ATOM     15  C   UNL     1     -49.591 -50.024  19.592  1.00  0.00     0.007 C 
ENDBRANCH   5  13
TORSDOF 1
ENDMDL
MODEL 6
REMARK VINA RESULT:    -5.572      1.568      4.950
REMARK INTER + INTRA:          -6.172
REMARK INTER:                  -5.899
REMARK INTRA:                  -0.272
REMARK UNBOUND:                -0.274
REMARK SMILES CC1=C[C@H]2C(=C(C)CC[C@@H]2C(C)C)CC1
REMARK SMILES IDX 1 1 2 2 3 3 4 4 10 5 9 6 8 7 6 8 5 9 14 10 15 11 7 12 11 13
REMARK SMILES IDX 12 14 13 15
REMARK H PARENT
REMARK Flexibility Score: inf
ROOT
ATOM      1  C   UNL     1     -39.063 -46.994  28.515  1.00  0.00     0.039 C 
ATOM      2  C   UNL     1     -40.388 -47.267  27.856  1.00  0.00    -0.076 C 
ATOM      3  C   UNL     1     -41.303 -48.022  28.499  1.00  0.00    -0.020 C 
ATOM      4  C   UNL     1     -42.698 -48.323  27.961  1.00  0.00     0.041 C 
ATOM      5  C   UNL     1     -43.027 -49.850  27.974  1.00  0.00     0.003 C 
ATOM      6  C   UNL     1     -44.425 -50.035  27.354  1.00  0.00     0.009 C 
ATOM      7  C   UNL     1     -44.441 -49.585  25.897  1.00  0.00     0.031 C 
ATOM      8  C   UNL     1     -43.784 -48.241  25.667  1.00  0.00    -0.073 C 
ATOM      9  C   UNL     1     -42.912 -47.706  26.572  1.00  0.00    -0.064 C 
ATOM     10  C   UNL     1     -42.151 -46.423  26.300  1.00  0.00     0.036 C 
ATOM     11  C   UNL     1     -40.664 -46.704  26.482  1.00  0.00     0.035 C 
ATOM     12  C   UNL     1     -44.027 -47.602  24.319  1.00  0.00     0.039 C 
ENDROOT
BRANCH   5  13
ATOM     13  C   UNL     1     -42.981 -50.576  29.368  1.00  0.00    -0.013 C 
ATOM     14  C   UNL     1     -42.114 -51.847  29.398  1.00  0.00     0.007 C 
ATOM     15  C   UNL     1     -44.375 -50.831  29.968  1.00  0.00     0.007 C 
ENDBRANCH   5  13
TORSDOF 1
ENDMDL
MODEL 7
REMARK VINA RESULT:    -5.547      0.948      4.209
REMARK INTER + INTRA:          -6.145
REMARK INTER:                  -5.871
REMARK INTRA:                  -0.274
REMARK UNBOUND:                -0.274
REMARK SMILES CC1=C[C@H]2C(=C(C)CC[C@@H]2C(C)C)CC1
REMARK SMILES IDX 1 1 2 2 3 3 4 4 10 5 9 6 8 7 6 8 5 9 14 10 15 11 7 12 11 13
REMARK SMILES IDX 12 14 13 15
REMARK H PARENT
REMARK Flexibility Score: inf
ROOT
ATOM      1  C   UNL     1     -38.397 -48.007  28.876  1.00  0.00     0.039 C 
ATOM      2  C   UNL     1     -39.775 -48.595  29.024  1.00  0.00    -0.076 C 
ATOM      3  C   UNL     1     -40.496 -48.878  27.919  1.00  0.00    -0.020 C 
ATOM      4  C   UNL     1     -41.876 -49.525  27.937  1.00  0.00     0.041 C 
ATOM      5  C   UNL     1     -42.921 -48.727  27.093  1.00  0.00     0.003 C 
ATOM      6  C   UNL     1     -44.282 -49.435  27.237  1.00  0.00     0.009 C 
ATOM      7  C   UNL     1     -44.761 -49.409  28.685  1.00  0.00     0.031 C 
ATOM      8  C   UNL     1     -43.696 -49.802  29.686  1.00  0.00    -0.073 C 
ATOM      9  C   UNL     1     -42.368 -49.765  29.372  1.00  0.00    -0.064 C 
ATOM     10  C   UNL     1     -41.286 -50.033  30.399  1.00  0.00     0.036 C 
ATOM     11  C   UNL     1     -40.330 -48.846  30.406  1.00  0.00     0.035 C 
ATOM     12  C   UNL     1     -44.176 -50.087  31.091  1.00  0.00     0.039 C 
ENDROOT
BRANCH   5  13
ATOM     13  C   UNL     1     -42.601 -48.531  25.565  1.00  0.00    -0.013 C 
ATOM     14  C   UNL     1     -42.493 -47.064  25.118  1.00  0.00     0.007 C 
ATOM     15  C   UNL     1     -43.533 -49.335  24.641  1.00  0.00     0.007 C 
ENDBRANCH   5  13
TORSDOF 1
ENDMDL
MODEL 8
REMARK VINA RESULT:    -5.511      1.622      4.189
REMARK INTER + INTRA:          -6.107
REMARK INTER:                  -5.882
REMARK INTRA:                  -0.225
REMARK UNBOUND:                -0.274
REMARK SMILES CC1=C[C@H]2C(=C(C)CC[C@@H]2C(C)C)CC1
REMARK SMILES IDX 1 1 2 2 3 3 4 4 10 5 9 6 8 7 6 8 5 9 14 10 15 11 7 12 11 13
REMARK SMILES IDX 12 14 13 15
REMARK H PARENT
REMARK Flexibility Score: inf
ROOT
ATOM      1  C   UNL     1     -44.326 -45.950  26.575  1.00  0.00     0.039 C 
ATOM      2  C   UNL     1     -43.120 -46.629  27.167  1.00  0.00    -0.076 C 
ATOM      3  C   UNL     1     -43.272 -47.807  27.808  1.00  0.00    -0.020 C 
ATOM      4  C   UNL     1     -42.123 -48.617  28.399  1.00  0.00     0.041 C 
ATOM      5  C   UNL     1     -42.377 -49.014  29.889  1.00  0.00     0.003 C 
ATOM      6  C   UNL     1     -41.132 -49.768  30.393  1.00  0.00     0.009 C 
ATOM      7  C   UNL     1     -39.902 -48.866  30.372  1.00  0.00     0.031 C 
ATOM      8  C   UNL     1     -39.735 -48.093  29.082  1.00  0.00    -0.073 C 
ATOM      9  C   UNL     1     -40.778 -47.899  28.223  1.00  0.00    -0.064 C 
ATOM     10  C   UNL     1     -40.659 -47.023  26.991  1.00  0.00     0.036 C 
ATOM     11  C   UNL     1     -41.765 -45.975  27.044  1.00  0.00     0.035 C 
ATOM     12  C   UNL     1     -38.396 -47.422  28.877  1.00  0.00     0.039 C 
ENDROOT
BRANCH   5  13
ATOM     13  C   UNL     1     -43.658 -49.877  30.187  1.00  0.00    -0.013 C 
ATOM     14  C   UNL     1     -44.849 -49.080  30.747  1.00  0.00     0.007 C 
ATOM     15  C   UNL     1     -43.366 -51.125  31.038  1.00  0.00     0.007 C 
ENDBRANCH   5  13
TORSDOF 1
ENDMDL
MODEL 9
REMARK VINA RESULT:    -5.490      1.688      4.497
REMARK INTER + INTRA:          -6.085
REMARK INTER:                  -5.818
REMARK INTRA:                  -0.267
REMARK UNBOUND:                -0.274
REMARK SMILES CC1=C[C@H]2C(=C(C)CC[C@@H]2C(C)C)CC1
REMARK SMILES IDX 1 1 2 2 3 3 4 4 10 5 9 6 8 7 6 8 5 9 14 10 15 11 7 12 11 13
REMARK SMILES IDX 12 14 13 15
REMARK H PARENT
REMARK Flexibility Score: inf
ROOT
ATOM      1  C   UNL     1     -45.000 -46.613  26.881  1.00  0.00     0.039 C 
ATOM      2  C   UNL     1     -43.964 -47.415  27.623  1.00  0.00    -0.076 C 
ATOM      3  C   UNL     1     -44.330 -48.562  28.233  1.00  0.00    -0.020 C 
ATOM      4  C   UNL     1     -43.365 -49.488  28.967  1.00  0.00     0.041 C 
ATOM      5  C   UNL     1     -43.855 -49.840  30.409  1.00  0.00     0.003 C 
ATOM      6  C   UNL     1     -42.778 -50.722  31.069  1.00  0.00     0.009 C 
ATOM      7  C   UNL     1     -41.464 -49.961  31.215  1.00  0.00     0.031 C 
ATOM      8  C   UNL     1     -41.044 -49.224  29.961  1.00  0.00    -0.073 C 
ATOM      9  C   UNL     1     -41.937 -48.925  28.973  1.00  0.00    -0.064 C 
ATOM     10  C   UNL     1     -41.561 -48.079  27.772  1.00  0.00     0.036 C 
ATOM     11  C   UNL     1     -42.541 -46.915  27.684  1.00  0.00     0.035 C 
ATOM     12  C   UNL     1     -39.624 -48.707  29.938  1.00  0.00     0.039 C 
ENDROOT
BRANCH   5  13
ATOM     13  C   UNL     1     -45.252 -50.554  30.531  1.00  0.00    -0.013 C 
ATOM     14  C   UNL     1     -46.365 -49.678  31.131  1.00  0.00     0.007 C 
ATOM     15  C   UNL     1     -45.175 -51.924  31.227  1.00  0.00     0.007 C 
ENDBRANCH   5  13
TORSDOF 1
ENDMDL
