MODEL 1
REMARK VINA RESULT:    -3.590      0.000      0.000
REMARK INTER + INTRA:          -5.434
REMARK INTER:                  -4.849
REMARK INTRA:                  -0.585
REMARK UNBOUND:                -0.585
REMARK SMILES CC(=O)OCC=C(C)CCC=C(C)C
REMARK SMILES IDX 7 1 6 2 8 3 9 4 10 5 11 6 13 7 12 8 14 9 5 10 4 11 2 12 3 13
REMARK SMILES IDX 1 14
REMARK H PARENT
REMARK Flexibility Score: inf
ROOT
ATOM      1  C   UNL     1       8.484  -3.820  -2.693  1.00  0.00    -0.074 C 
ATOM      2  C   UNL     1       9.364  -4.527  -1.950  1.00  0.00     0.013 C 
ATOM      3  C   UNL     1       8.776  -3.454  -4.129  1.00  0.00     0.039 C 
ENDROOT
BRANCH   1   4
ATOM      4  C   UNL     1       7.174  -3.389  -2.071  1.00  0.00     0.034 C 
BRANCH   4   5
ATOM      5  C   UNL     1       6.420  -4.592  -1.496  1.00  0.00     0.032 C 
BRANCH   5   6
ATOM      6  C   UNL     1       6.001  -4.332  -0.070  1.00  0.00    -0.028 C 
ATOM      7  C   UNL     1       6.006  -4.650   2.384  1.00  0.00     0.039 C 
ATOM      8  C   UNL     1       6.518  -4.970   1.004  1.00  0.00    -0.080 C 
ATOM      9  C   UNL     1       7.637  -5.975   0.878  1.00  0.00     0.039 C 
ENDBRANCH   5   6
ENDBRANCH   4   5
ENDBRANCH   1   4
BRANCH   2  10
ATOM     10  C   UNL     1      10.693  -5.010  -2.460  1.00  0.00     0.260 C 
BRANCH  10  11
ATOM     11  O   UNL     1      11.675  -3.994  -2.284  1.00  0.00    -0.462 OA
BRANCH  11  12
ATOM     12  C   UNL     1      12.858  -3.953  -3.026  1.00  0.00     0.302 C 
ATOM     13  O   UNL     1      12.982  -3.158  -3.998  1.00  0.00    -0.253 OA
ATOM     14  C   UNL     1      13.966  -4.894  -2.695  1.00  0.00     0.139 C 
ENDBRANCH  11  12
ENDBRANCH  10  11
ENDBRANCH   2  10
TORSDOF 6
ENDMDL
MODEL 2
REMARK VINA RESULT:    -3.391     10.320     12.955
REMARK INTER + INTRA:          -5.165
REMARK INTER:                  -4.314
REMARK INTRA:                  -0.851
REMARK UNBOUND:                -0.585
REMARK SMILES CC(=O)OCC=C(C)CCC=C(C)C
REMARK SMILES IDX 7 1 6 2 8 3 9 4 10 5 11 6 13 7 12 8 14 9 5 10 4 11 2 12 3 13
REMARK SMILES IDX 1 14
REMARK H PARENT
REMARK Flexibility Score: inf
ROOT
ATOM      1  C   UNL     1       8.715   3.867  -8.024  1.00  0.00    -0.074 C 
ATOM      2  C   UNL     1       7.435   4.172  -7.711  1.00  0.00     0.013 C 
ATOM      3  C   UNL     1       9.733   3.541  -6.957  1.00  0.00     0.039 C 
ENDROOT
BRANCH   1   4
ATOM      4  C   UNL     1       9.133   3.853  -9.477  1.00  0.00     0.034 C 
BRANCH   4   5
ATOM      5  C   UNL     1       9.058   5.259 -10.082  1.00  0.00     0.032 C 
BRANCH   5   6
ATOM      6  C   UNL     1      10.090   6.166  -9.460  1.00  0.00    -0.028 C 
ATOM      7  C   UNL     1      10.912   8.124  -8.189  1.00  0.00     0.039 C 
ATOM      8  C   UNL     1       9.798   7.275  -8.743  1.00  0.00    -0.080 C 
ATOM      9  C   UNL     1       8.377   7.677  -8.433  1.00  0.00     0.039 C 
ENDBRANCH   5   6
ENDBRANCH   4   5
ENDBRANCH   1   4
BRANCH   2  10
ATOM     10  C   UNL     1       6.905   4.216  -6.304  1.00  0.00     0.260 C 
BRANCH  10  11
ATOM     11  O   UNL     1       6.727   5.569  -5.899  1.00  0.00    -0.462 OA
BRANCH  11  12
ATOM     12  C   UNL     1       5.637   5.989  -5.134  1.00  0.00     0.302 C 
ATOM     13  O   UNL     1       5.811   6.610  -4.050  1.00  0.00    -0.253 OA
ATOM     14  C   UNL     1       4.253   5.655  -5.580  1.00  0.00     0.139 C 
ENDBRANCH  11  12
ENDBRANCH  10  11
ENDBRANCH   2  10
TORSDOF 6
ENDMDL
MODEL 3
REMARK VINA RESULT:    -3.366     12.511     14.534
REMARK INTER + INTRA:          -5.132
REMARK INTER:                  -4.139
REMARK INTRA:                  -0.993
REMARK UNBOUND:                -0.585
REMARK SMILES CC(=O)OCC=C(C)CCC=C(C)C
REMARK SMILES IDX 7 1 6 2 8 3 9 4 10 5 11 6 13 7 12 8 14 9 5 10 4 11 2 12 3 13
REMARK SMILES IDX 1 14
REMARK H PARENT
REMARK Flexibility Score: inf
ROOT
ATOM      1  C   UNL     1      17.340   1.223   8.444  1.00  0.00    -0.074 C 
ATOM      2  C   UNL     1      16.212   1.037   7.721  1.00  0.00     0.013 C 
ATOM      3  C   UNL     1      18.189   0.059   8.897  1.00  0.00     0.039 C 
ENDROOT
BRANCH   1   4
ATOM      4  C   UNL     1      17.759   2.631   8.803  1.00  0.00     0.034 C 
BRANCH   4   5
ATOM      5  C   UNL     1      18.179   3.412   7.554  1.00  0.00     0.032 C 
BRANCH   5   6
ATOM      6  C   UNL     1      19.649   3.747   7.599  1.00  0.00    -0.028 C 
ATOM      7  C   UNL     1      22.058   3.431   7.125  1.00  0.00     0.039 C 
ATOM      8  C   UNL     1      20.615   3.019   6.993  1.00  0.00    -0.080 C 
ATOM      9  C   UNL     1      20.296   1.817   6.138  1.00  0.00     0.039 C 
ENDBRANCH   5   6
ENDBRANCH   4   5
ENDBRANCH   1   4
BRANCH   2  10
ATOM     10  C   UNL     1      15.698  -0.313   7.304  1.00  0.00     0.260 C 
BRANCH  10  11
ATOM     11  O   UNL     1      16.025  -0.552   5.940  1.00  0.00    -0.462 OA
BRANCH  11  12
ATOM     12  C   UNL     1      16.899  -1.567   5.541  1.00  0.00     0.302 C 
ATOM     13  O   UNL     1      16.544  -2.776   5.580  1.00  0.00    -0.253 OA
ATOM     14  C   UNL     1      18.283  -1.216   5.111  1.00  0.00     0.139 C 
ENDBRANCH  11  12
ENDBRANCH  10  11
ENDBRANCH   2  10
TORSDOF 6
ENDMDL
MODEL 4
REMARK VINA RESULT:    -3.347     11.886     13.616
REMARK INTER + INTRA:          -5.106
REMARK INTER:                  -4.380
REMARK INTRA:                  -0.726
REMARK UNBOUND:                -0.585
REMARK SMILES CC(=O)OCC=C(C)CCC=C(C)C
REMARK SMILES IDX 7 1 6 2 8 3 9 4 10 5 11 6 13 7 12 8 14 9 5 10 4 11 2 12 3 13
REMARK SMILES IDX 1 14
REMARK H PARENT
REMARK Flexibility Score: inf
ROOT
ATOM      1  C   UNL     1      16.076   0.261   7.477  1.00  0.00    -0.074 C 
ATOM      2  C   UNL     1      16.141  -0.509   6.367  1.00  0.00     0.013 C 
ATOM      3  C   UNL     1      16.051  -0.347   8.860  1.00  0.00     0.039 C 
ENDROOT
BRANCH   1   4
ATOM      4  C   UNL     1      16.031   1.765   7.328  1.00  0.00     0.034 C 
BRANCH   4   5
ATOM      5  C   UNL     1      16.797   2.451   8.464  1.00  0.00     0.032 C 
BRANCH   5   6
ATOM      6  C   UNL     1      17.941   3.271   7.921  1.00  0.00    -0.028 C 
ATOM      7  C   UNL     1      20.285   3.740   7.278  1.00  0.00     0.039 C 
ATOM      8  C   UNL     1      19.213   2.825   7.812  1.00  0.00    -0.080 C 
ATOM      9  C   UNL     1      19.601   1.411   8.166  1.00  0.00     0.039 C 
ENDBRANCH   5   6
ENDBRANCH   4   5
ENDBRANCH   1   4
BRANCH   2  10
ATOM     10  C   UNL     1      16.192  -2.011   6.391  1.00  0.00     0.260 C 
BRANCH  10  11
ATOM     11  O   UNL     1      14.914  -2.542   6.059  1.00  0.00    -0.462 OA
BRANCH  11  12
ATOM     12  C   UNL     1      14.285  -3.528   6.822  1.00  0.00     0.302 C 
ATOM     13  O   UNL     1      13.850  -3.270   7.978  1.00  0.00    -0.253 OA
ATOM     14  C   UNL     1      14.172  -4.914   6.284  1.00  0.00     0.139 C 
ENDBRANCH  11  12
ENDBRANCH  10  11
ENDBRANCH   2  10
TORSDOF 6
ENDMDL
MODEL 5
REMARK VINA RESULT:    -3.330     11.931     13.981
REMARK INTER + INTRA:          -5.082
REMARK INTER:                  -4.505
REMARK INTRA:                  -0.577
REMARK UNBOUND:                -0.585
REMARK SMILES CC(=O)OCC=C(C)CCC=C(C)C
REMARK SMILES IDX 7 1 6 2 8 3 9 4 10 5 11 6 13 7 12 8 14 9 5 10 4 11 2 12 3 13
REMARK SMILES IDX 1 14
REMARK H PARENT
REMARK Flexibility Score: inf
ROOT
ATOM      1  C   UNL     1      10.210   8.634  -7.807  1.00  0.00    -0.074 C 
ATOM      2  C   UNL     1       9.161   8.530  -6.961  1.00  0.00     0.013 C 
ATOM      3  C   UNL     1      10.999   9.915  -7.934  1.00  0.00     0.039 C 
ENDROOT
BRANCH   1   4
ATOM      4  C   UNL     1      10.602   7.436  -8.644  1.00  0.00     0.034 C 
BRANCH   4   5
ATOM      5  C   UNL     1       9.373   6.592  -9.000  1.00  0.00     0.032 C 
BRANCH   5   6
ATOM      6  C   UNL     1       9.674   5.121  -8.858  1.00  0.00    -0.028 C 
ATOM      7  C   UNL     1       9.466   2.850  -7.896  1.00  0.00     0.039 C 
ATOM      8  C   UNL     1       9.069   4.301  -7.969  1.00  0.00    -0.080 C 
ATOM      9  C   UNL     1       7.961   4.780  -7.063  1.00  0.00     0.039 C 
ENDBRANCH   5   6
ENDBRANCH   4   5
ENDBRANCH   1   4
BRANCH   2  10
ATOM     10  C   UNL     1       8.681   9.650  -6.080  1.00  0.00     0.260 C 
BRANCH  10  11
ATOM     11  O   UNL     1       9.202   9.486  -4.766  1.00  0.00    -0.462 OA
BRANCH  11  12
ATOM     12  C   UNL     1       8.447   9.739  -3.618  1.00  0.00     0.302 C 
ATOM     13  O   UNL     1       7.556   8.930  -3.241  1.00  0.00    -0.253 OA
ATOM     14  C   UNL     1       8.664  11.005  -2.861  1.00  0.00     0.139 C 
ENDBRANCH  11  12
ENDBRANCH  10  11
ENDBRANCH   2  10
TORSDOF 6
ENDMDL
MODEL 6
REMARK VINA RESULT:    -3.315     11.511     13.680
REMARK INTER + INTRA:          -5.062
REMARK INTER:                  -4.069
REMARK INTRA:                  -0.993
REMARK UNBOUND:                -0.585
REMARK SMILES CC(=O)OCC=C(C)CCC=C(C)C
REMARK SMILES IDX 7 1 6 2 8 3 9 4 10 5 11 6 13 7 12 8 14 9 5 10 4 11 2 12 3 13
REMARK SMILES IDX 1 14
REMARK H PARENT
REMARK Flexibility Score: inf
ROOT
ATOM      1  C   UNL     1       9.419   7.401  -9.624  1.00  0.00    -0.074 C 
ATOM      2  C   UNL     1      10.343   7.868  -8.754  1.00  0.00     0.013 C 
ATOM      3  C   UNL     1       8.072   8.066  -9.779  1.00  0.00     0.039 C 
ENDROOT
BRANCH   1   4
ATOM      4  C   UNL     1       9.746   6.185 -10.462  1.00  0.00     0.034 C 
BRANCH   4   5
ATOM      5  C   UNL     1       8.864   4.996 -10.068  1.00  0.00     0.032 C 
BRANCH   5   6
ATOM      6  C   UNL     1       9.493   4.209  -8.946  1.00  0.00    -0.028 C 
ATOM      7  C   UNL     1       9.821   3.464  -6.609  1.00  0.00     0.039 C 
ATOM      8  C   UNL     1       9.102   4.277  -7.654  1.00  0.00    -0.080 C 
ATOM      9  C   UNL     1       7.926   5.115  -7.215  1.00  0.00     0.039 C 
ENDBRANCH   5   6
ENDBRANCH   4   5
ENDBRANCH   1   4
BRANCH   2  10
ATOM     10  C   UNL     1      10.132   9.067  -7.872  1.00  0.00     0.260 C 
BRANCH  10  11
ATOM     11  O   UNL     1       9.748   8.644  -6.569  1.00  0.00    -0.462 OA
BRANCH  11  12
ATOM     12  C   UNL     1       8.834   9.353  -5.785  1.00  0.00     0.302 C 
ATOM     13  O   UNL     1       9.115   9.673  -4.598  1.00  0.00    -0.253 OA
ATOM     14  C   UNL     1       7.493   9.689  -6.343  1.00  0.00     0.139 C 
ENDBRANCH  11  12
ENDBRANCH  10  11
ENDBRANCH   2  10
TORSDOF 6
ENDMDL
MODEL 7
REMARK VINA RESULT:    -3.301     10.557     12.952
REMARK INTER + INTRA:          -5.044
REMARK INTER:                  -3.896
REMARK INTRA:                  -1.147
REMARK UNBOUND:                -0.585
REMARK SMILES CC(=O)OCC=C(C)CCC=C(C)C
REMARK SMILES IDX 7 1 6 2 8 3 9 4 10 5 11 6 13 7 12 8 14 9 5 10 4 11 2 12 3 13
REMARK SMILES IDX 1 14
REMARK H PARENT
REMARK Flexibility Score: inf
ROOT
ATOM      1  C   UNL     1       8.579   7.270  -8.553  1.00  0.00    -0.074 C 
ATOM      2  C   UNL     1       7.252   7.526  -8.495  1.00  0.00     0.013 C 
ATOM      3  C   UNL     1       9.490   7.551  -7.382  1.00  0.00     0.039 C 
ENDROOT
BRANCH   1   4
ATOM      4  C   UNL     1       9.161   6.689  -9.822  1.00  0.00     0.034 C 
BRANCH   4   5
ATOM      5  C   UNL     1       9.978   5.429  -9.522  1.00  0.00     0.032 C 
BRANCH   5   6
ATOM      6  C   UNL     1       9.090   4.210  -9.482  1.00  0.00    -0.028 C 
ATOM      7  C   UNL     1       8.126   2.142  -8.523  1.00  0.00     0.039 C 
ATOM      8  C   UNL     1       9.032   3.343  -8.445  1.00  0.00    -0.080 C 
ATOM      9  C   UNL     1       9.816   3.560  -7.174  1.00  0.00     0.039 C 
ENDBRANCH   5   6
ENDBRANCH   4   5
ENDBRANCH   1   4
BRANCH   2  10
ATOM     10  C   UNL     1       6.563   8.101  -7.289  1.00  0.00     0.260 C 
BRANCH  10  11
ATOM     11  O   UNL     1       5.675   7.135  -6.736  1.00  0.00    -0.462 OA
BRANCH  11  12
ATOM     12  C   UNL     1       6.047   6.275  -5.700  1.00  0.00     0.302 C 
ATOM     13  O   UNL     1       6.004   6.655  -4.499  1.00  0.00    -0.253 OA
ATOM     14  C   UNL     1       6.549   4.908  -6.025  1.00  0.00     0.139 C 
ENDBRANCH  11  12
ENDBRANCH  10  11
ENDBRANCH   2  10
TORSDOF 6
ENDMDL
MODEL 8
REMARK VINA RESULT:    -3.262      2.571      4.173
REMARK INTER + INTRA:          -4.990
REMARK INTER:                  -4.207
REMARK INTRA:                  -0.784
REMARK UNBOUND:                -0.585
REMARK SMILES CC(=O)OCC=C(C)CCC=C(C)C
REMARK SMILES IDX 7 1 6 2 8 3 9 4 10 5 11 6 13 7 12 8 14 9 5 10 4 11 2 12 3 13
REMARK SMILES IDX 1 14
REMARK H PARENT
REMARK Flexibility Score: inf
ROOT
ATOM      1  C   UNL     1       9.512  -4.606  -2.236  1.00  0.00    -0.074 C 
ATOM      2  C   UNL     1      10.409  -4.011  -1.419  1.00  0.00     0.013 C 
ATOM      3  C   UNL     1       9.668  -6.046  -2.666  1.00  0.00     0.039 C 
ENDROOT
BRANCH   1   4
ATOM      4  C   UNL     1       8.323  -3.810  -2.726  1.00  0.00     0.034 C 
BRANCH   4   5
ATOM      5  C   UNL     1       7.330  -4.712  -3.468  1.00  0.00     0.032 C 
BRANCH   5   6
ATOM      6  C   UNL     1       6.905  -4.083  -4.772  1.00  0.00    -0.028 C 
ATOM      7  C   UNL     1       6.967  -3.666  -7.211  1.00  0.00     0.039 C 
ATOM      8  C   UNL     1       7.451  -4.376  -5.973  1.00  0.00    -0.080 C 
ATOM      9  C   UNL     1       8.514  -5.435  -6.133  1.00  0.00     0.039 C 
ENDBRANCH   5   6
ENDBRANCH   4   5
ENDBRANCH   1   4
BRANCH   2  10
ATOM     10  C   UNL     1      11.627  -4.700  -0.868  1.00  0.00     0.260 C 
BRANCH  10  11
ATOM     11  O   UNL     1      12.802  -4.042  -1.327  1.00  0.00    -0.462 OA
BRANCH  11  12
ATOM     12  C   UNL     1      13.322  -4.233  -2.609  1.00  0.00     0.302 C 
ATOM     13  O   UNL     1      13.115  -3.387  -3.521  1.00  0.00    -0.253 OA
ATOM     14  C   UNL     1      14.087  -5.476  -2.914  1.00  0.00     0.139 C 
ENDBRANCH  11  12
ENDBRANCH  10  11
ENDBRANCH   2  10
TORSDOF 6
ENDMDL
MODEL 9
REMARK VINA RESULT:    -3.230     10.949     13.127
REMARK INTER + INTRA:          -4.947
REMARK INTER:                  -4.183
REMARK INTRA:                  -0.764
REMARK UNBOUND:                -0.585
REMARK SMILES CC(=O)OCC=C(C)CCC=C(C)C
REMARK SMILES IDX 7 1 6 2 8 3 9 4 10 5 11 6 13 7 12 8 14 9 5 10 4 11 2 12 3 13
REMARK SMILES IDX 1 14
REMARK H PARENT
REMARK Flexibility Score: inf
ROOT
ATOM      1  C   UNL     1       6.224   5.127  -6.783  1.00  0.00    -0.074 C 
ATOM      2  C   UNL     1       6.128   5.498  -5.487  1.00  0.00     0.013 C 
ATOM      3  C   UNL     1       5.531   5.900  -7.880  1.00  0.00     0.039 C 
ENDROOT
BRANCH   1   4
ATOM      4  C   UNL     1       7.047   3.909  -7.141  1.00  0.00     0.034 C 
BRANCH   4   5
ATOM      5  C   UNL     1       8.541   4.181  -6.941  1.00  0.00     0.032 C 
BRANCH   5   6
ATOM      6  C   UNL     1       9.200   4.545  -8.249  1.00  0.00    -0.028 C 
ATOM      7  C   UNL     1      10.171   6.057  -9.951  1.00  0.00     0.039 C 
ATOM      8  C   UNL     1       9.541   5.804  -8.606  1.00  0.00    -0.080 C 
ATOM      9  C   UNL     1       9.353   6.979  -7.679  1.00  0.00     0.039 C 
ENDBRANCH   5   6
ENDBRANCH   4   5
ENDBRANCH   1   4
BRANCH   2  10
ATOM     10  C   UNL     1       5.342   6.688  -5.012  1.00  0.00     0.260 C 
BRANCH  10  11
ATOM     11  O   UNL     1       5.701   6.999  -3.670  1.00  0.00    -0.462 OA
BRANCH  11  12
ATOM     12  C   UNL     1       6.023   8.294  -3.257  1.00  0.00     0.302 C 
ATOM     13  O   UNL     1       7.211   8.601  -2.965  1.00  0.00    -0.253 OA
ATOM     14  C   UNL     1       4.940   9.309  -3.110  1.00  0.00     0.139 C 
ENDBRANCH  11  12
ENDBRANCH  10  11
ENDBRANCH   2  10
TORSDOF 6
ENDMDL
