MODEL 1
REMARK VINA RESULT:    -6.703      0.000      0.000
REMARK INTER + INTRA:          -8.173
REMARK INTER:                  -8.074
REMARK INTRA:                  -0.099
REMARK UNBOUND:                -0.099
REMARK SMILES O=c1c(O)c(-c2ccc(O)c(O)c2)oc2cc(O)cc(O)c12
REMARK SMILES IDX 5 1 3 2 2 3 1 4 22 5 20 6 19 7 17 8 16 9 15 10 14 11 6 12
REMARK SMILES IDX 7 13 8 14 9 15 13 16 11 17 10 18 12 20 4 22 21 24 18 26
REMARK H PARENT 10 19 12 21 4 23 21 25 18 27
REMARK Flexibility Score: inf
ROOT
ATOM      1  C   UNL     1       6.599  -8.188  28.379  1.00  0.00     0.180 A 
ATOM      2  C   UNL     1       5.332  -8.701  28.708  1.00  0.00     0.208 A 
ATOM      3  C   UNL     1       4.730  -8.306  29.913  1.00  0.00     0.238 A 
ATOM      4  O   UNL     1       3.573  -8.726  30.176  1.00  0.00    -0.285 OA
ATOM      5  C   UNL     1       5.408  -7.418  30.781  1.00  0.00     0.111 A 
ATOM      6  C   UNL     1       4.909  -6.982  32.046  1.00  0.00     0.134 A 
ATOM      7  C   UNL     1       5.604  -6.000  32.762  1.00  0.00     0.093 A 
ATOM      8  C   UNL     1       6.814  -5.485  32.289  1.00  0.00     0.123 A 
ATOM      9  C   UNL     1       7.339  -5.947  31.085  1.00  0.00     0.094 A 
ATOM     10  C   UNL     1       6.650  -6.901  30.331  1.00  0.00     0.146 A 
ATOM     11  O   UNL     1       7.180  -7.305  29.183  1.00  0.00    -0.452 OA
ENDROOT
BRANCH   1  12
ATOM     12  C   UNL     1       7.309  -8.577  27.138  1.00  0.00     0.025 A 
ATOM     13  C   UNL     1       6.731  -8.285  25.892  1.00  0.00     0.016 A 
ATOM     14  C   UNL     1       7.392  -8.624  24.710  1.00  0.00     0.051 A 
ATOM     15  C   UNL     1       8.645  -9.244  24.752  1.00  0.00     0.157 A 
ATOM     16  C   UNL     1       8.578  -9.181  27.179  1.00  0.00     0.062 A 
ATOM     17  C   UNL     1       9.244  -9.520  25.992  1.00  0.00     0.158 A 
BRANCH  15  18
ATOM     18  O   UNL     1       9.280  -9.572  23.554  1.00  0.00    -0.504 OA
ATOM     19  H   UNL     1      10.028  -9.007  23.169  1.00  0.00     0.293 HD
ENDBRANCH  15  18
BRANCH  17  20
ATOM     20  O   UNL     1      10.499 -10.125  26.042  1.00  0.00    -0.504 OA
ATOM     21  H   UNL     1      10.841 -10.702  25.283  1.00  0.00     0.293 HD
ENDBRANCH  17  20
ENDBRANCH   1  12
BRANCH   2  22
ATOM     22  O   UNL     1       4.672  -9.561  27.825  1.00  0.00    -0.502 OA
ATOM     23  H   UNL     1       3.888 -10.135  28.110  1.00  0.00     0.293 HD
ENDBRANCH   2  22
BRANCH   6  24
ATOM     24  O   UNL     1       3.759  -7.499  32.651  1.00  0.00    -0.507 OA
ATOM     25  H   UNL     1       2.984  -6.943  32.979  1.00  0.00     0.293 HD
ENDBRANCH   6  24
BRANCH   8  26
ATOM     26  O   UNL     1       7.507  -4.519  33.016  1.00  0.00    -0.508 OA
ATOM     27  H   UNL     1       7.267  -4.304  33.976  1.00  0.00     0.293 HD
ENDBRANCH   8  26
TORSDOF 6
ENDMDL
MODEL 2
REMARK VINA RESULT:    -6.415      1.736      2.361
REMARK INTER + INTRA:          -7.827
REMARK INTER:                  -7.530
REMARK INTRA:                  -0.297
REMARK UNBOUND:                -0.099
REMARK SMILES O=c1c(O)c(-c2ccc(O)c(O)c2)oc2cc(O)cc(O)c12
REMARK SMILES IDX 5 1 3 2 2 3 1 4 22 5 20 6 19 7 17 8 16 9 15 10 14 11 6 12
REMARK SMILES IDX 7 13 8 14 9 15 13 16 11 17 10 18 12 20 4 22 21 24 18 26
REMARK H PARENT 10 19 12 21 4 23 21 25 18 27
REMARK Flexibility Score: inf
ROOT
ATOM      1  C   UNL     1       5.777  -7.375  27.797  1.00  0.00     0.180 A 
ATOM      2  C   UNL     1       4.669  -8.050  28.340  1.00  0.00     0.208 A 
ATOM      3  C   UNL     1       4.425  -7.956  29.719  1.00  0.00     0.238 A 
ATOM      4  O   UNL     1       3.402  -8.518  30.190  1.00  0.00    -0.285 OA
ATOM      5  C   UNL     1       5.299  -7.204  30.540  1.00  0.00     0.111 A 
ATOM      6  C   UNL     1       5.169  -7.074  31.956  1.00  0.00     0.134 A 
ATOM      7  C   UNL     1       6.013  -6.199  32.650  1.00  0.00     0.093 A 
ATOM      8  C   UNL     1       7.025  -5.499  31.987  1.00  0.00     0.123 A 
ATOM      9  C   UNL     1       7.198  -5.665  30.615  1.00  0.00     0.094 A 
ATOM     10  C   UNL     1       6.347  -6.504  29.890  1.00  0.00     0.146 A 
ATOM     11  O   UNL     1       6.540  -6.624  28.583  1.00  0.00    -0.452 OA
ENDROOT
BRANCH   1  12
ATOM     12  C   UNL     1       6.114  -7.447  26.356  1.00  0.00     0.025 A 
ATOM     13  C   UNL     1       6.787  -8.575  25.860  1.00  0.00     0.016 A 
ATOM     14  C   UNL     1       7.096  -8.673  24.502  1.00  0.00     0.051 A 
ATOM     15  C   UNL     1       6.726  -7.656  23.616  1.00  0.00     0.157 A 
ATOM     16  C   UNL     1       5.724  -6.434  25.461  1.00  0.00     0.062 A 
ATOM     17  C   UNL     1       6.032  -6.532  24.096  1.00  0.00     0.158 A 
BRANCH  15  18
ATOM     18  O   UNL     1       7.051  -7.781  22.266  1.00  0.00    -0.504 OA
ATOM     19  H   UNL     1       7.809  -7.257  21.843  1.00  0.00     0.293 HD
ENDBRANCH  15  18
BRANCH  17  20
ATOM     20  O   UNL     1       5.648  -5.521  23.218  1.00  0.00    -0.504 OA
ATOM     21  H   UNL     1       6.316  -4.851  22.854  1.00  0.00     0.293 HD
ENDBRANCH  17  20
ENDBRANCH   1  12
BRANCH   2  22
ATOM     22  O   UNL     1       3.808  -8.770  27.507  1.00  0.00    -0.502 OA
ATOM     23  H   UNL     1       3.929  -8.808  26.502  1.00  0.00     0.293 HD
ENDBRANCH   2  22
BRANCH   6  24
ATOM     24  O   UNL     1       4.252  -7.798  32.725  1.00  0.00    -0.507 OA
ATOM     25  H   UNL     1       4.308  -7.915  33.725  1.00  0.00     0.293 HD
ENDBRANCH   6  24
BRANCH   8  26
ATOM     26  O   UNL     1       7.871  -4.641  32.687  1.00  0.00    -0.508 OA
ATOM     27  H   UNL     1       7.553  -4.133  33.504  1.00  0.00     0.293 HD
ENDBRANCH   8  26
TORSDOF 6
ENDMDL
MODEL 3
REMARK VINA RESULT:    -6.075     10.823     13.750
REMARK INTER + INTRA:          -7.418
REMARK INTER:                  -7.201
REMARK INTRA:                  -0.217
REMARK UNBOUND:                -0.099
REMARK SMILES O=c1c(O)c(-c2ccc(O)c(O)c2)oc2cc(O)cc(O)c12
REMARK SMILES IDX 5 1 3 2 2 3 1 4 22 5 20 6 19 7 17 8 16 9 15 10 14 11 6 12
REMARK SMILES IDX 7 13 8 14 9 15 13 16 11 17 10 18 12 20 4 22 21 24 18 26
REMARK H PARENT 10 19 12 21 4 23 21 25 18 27
REMARK Flexibility Score: inf
ROOT
ATOM      1  C   UNL     1      13.880  -5.095  20.048  1.00  0.00     0.180 A 
ATOM      2  C   UNL     1      14.572  -6.167  20.638  1.00  0.00     0.208 A 
ATOM      3  C   UNL     1      14.741  -7.353  19.906  1.00  0.00     0.238 A 
ATOM      4  O   UNL     1      15.408  -8.289  20.419  1.00  0.00    -0.285 OA
ATOM      5  C   UNL     1      14.202  -7.459  18.602  1.00  0.00     0.111 A 
ATOM      6  C   UNL     1      14.279  -8.628  17.785  1.00  0.00     0.134 A 
ATOM      7  C   UNL     1      13.826  -8.577  16.462  1.00  0.00     0.093 A 
ATOM      8  C   UNL     1      13.239  -7.419  15.946  1.00  0.00     0.123 A 
ATOM      9  C   UNL     1      13.105  -6.292  16.753  1.00  0.00     0.094 A 
ATOM     10  C   UNL     1      13.581  -6.301  18.067  1.00  0.00     0.146 A 
ATOM     11  O   UNL     1      13.444  -5.202  18.798  1.00  0.00    -0.452 OA
ENDROOT
BRANCH   1  12
ATOM     12  C   UNL     1      13.640  -3.822  20.766  1.00  0.00     0.025 A 
ATOM     13  C   UNL     1      12.751  -3.799  21.853  1.00  0.00     0.016 A 
ATOM     14  C   UNL     1      12.526  -2.615  22.557  1.00  0.00     0.051 A 
ATOM     15  C   UNL     1      13.194  -1.440  22.198  1.00  0.00     0.157 A 
ATOM     16  C   UNL     1      14.327  -2.644  20.419  1.00  0.00     0.062 A 
ATOM     17  C   UNL     1      14.103  -1.454  21.127  1.00  0.00     0.158 A 
BRANCH  15  18
ATOM     18  O   UNL     1      12.947  -0.272  22.919  1.00  0.00    -0.504 OA
ATOM     19  H   UNL     1      13.691   0.256  23.361  1.00  0.00     0.293 HD
ENDBRANCH  15  18
BRANCH  17  20
ATOM     20  O   UNL     1      14.783  -0.291  20.773  1.00  0.00    -0.504 OA
ATOM     21  H   UNL     1      14.397   0.628  20.958  1.00  0.00     0.293 HD
ENDBRANCH  17  20
ENDBRANCH   1  12
BRANCH   2  22
ATOM     22  O   UNL     1      15.114  -6.033  21.919  1.00  0.00    -0.502 OA
ATOM     23  H   UNL     1      15.062  -5.168  22.444  1.00  0.00     0.293 HD
ENDBRANCH   2  22
BRANCH   6  24
ATOM     24  O   UNL     1      14.763  -9.861  18.233  1.00  0.00    -0.507 OA
ATOM     25  H   UNL     1      14.255 -10.731  18.181  1.00  0.00     0.293 HD
ENDBRANCH   6  24
BRANCH   8  26
ATOM     26  O   UNL     1      12.777  -7.381  14.631  1.00  0.00    -0.508 OA
ATOM     27  H   UNL     1      13.402  -7.513  13.846  1.00  0.00     0.293 HD
ENDBRANCH   8  26
TORSDOF 6
ENDMDL
MODEL 4
REMARK VINA RESULT:    -6.051     10.436     12.933
REMARK INTER + INTRA:          -7.388
REMARK INTER:                  -7.053
REMARK INTRA:                  -0.335
REMARK UNBOUND:                -0.099
REMARK SMILES O=c1c(O)c(-c2ccc(O)c(O)c2)oc2cc(O)cc(O)c12
REMARK SMILES IDX 5 1 3 2 2 3 1 4 22 5 20 6 19 7 17 8 16 9 15 10 14 11 6 12
REMARK SMILES IDX 7 13 8 14 9 15 13 16 11 17 10 18 12 20 4 22 21 24 18 26
REMARK H PARENT 10 19 12 21 4 23 21 25 18 27
REMARK Flexibility Score: inf
ROOT
ATOM      1  C   UNL     1      14.287  -8.538  18.442  1.00  0.00     0.180 A 
ATOM      2  C   UNL     1      13.238  -9.268  19.028  1.00  0.00     0.208 A 
ATOM      3  C   UNL     1      13.270  -9.518  20.409  1.00  0.00     0.238 A 
ATOM      4  O   UNL     1      12.302 -10.125  20.936  1.00  0.00    -0.285 OA
ATOM      5  C   UNL     1      14.359  -9.050  21.184  1.00  0.00     0.111 A 
ATOM      6  C   UNL     1      14.514  -9.280  22.584  1.00  0.00     0.134 A 
ATOM      7  C   UNL     1      15.562  -8.659  23.274  1.00  0.00     0.093 A 
ATOM      8  C   UNL     1      16.498  -7.869  22.602  1.00  0.00     0.123 A 
ATOM      9  C   UNL     1      16.389  -7.687  21.225  1.00  0.00     0.094 A 
ATOM     10  C   UNL     1      15.333  -8.265  20.516  1.00  0.00     0.146 A 
ATOM     11  O   UNL     1      15.260  -8.056  19.207  1.00  0.00    -0.452 OA
ENDROOT
BRANCH   1  12
ATOM     12  C   UNL     1      14.335  -8.257  16.989  1.00  0.00     0.025 A 
ATOM     13  C   UNL     1      13.816  -7.047  16.502  1.00  0.00     0.016 A 
ATOM     14  C   UNL     1      13.870  -6.752  15.138  1.00  0.00     0.051 A 
ATOM     15  C   UNL     1      14.456  -7.651  14.242  1.00  0.00     0.157 A 
ATOM     16  C   UNL     1      14.943  -9.152  16.089  1.00  0.00     0.062 A 
ATOM     17  C   UNL     1      15.000  -8.855  14.719  1.00  0.00     0.158 A 
BRANCH  15  18
ATOM     18  O   UNL     1      14.493  -7.329  12.886  1.00  0.00    -0.504 OA
ATOM     19  H   UNL     1      15.213  -7.687  12.268  1.00  0.00     0.293 HD
ENDBRANCH  15  18
BRANCH  17  20
ATOM     20  O   UNL     1      15.598  -9.750  13.834  1.00  0.00    -0.504 OA
ATOM     21  H   UNL     1      15.050 -10.410  13.295  1.00  0.00     0.293 HD
ENDBRANCH  17  20
ENDBRANCH   1  12
BRANCH   2  22
ATOM     22  O   UNL     1      12.163  -9.703  18.247  1.00  0.00    -0.502 OA
ATOM     23  H   UNL     1      11.240  -9.290  18.314  1.00  0.00     0.293 HD
ENDBRANCH   2  22
BRANCH   6  24
ATOM     24  O   UNL     1      13.689 -10.125  23.333  1.00  0.00    -0.507 OA
ATOM     25  H   UNL     1      13.888 -11.093  23.532  1.00  0.00     0.293 HD
ENDBRANCH   6  24
BRANCH   8  26
ATOM     26  O   UNL     1      17.548  -7.266  23.293  1.00  0.00    -0.508 OA
ATOM     27  H   UNL     1      17.415  -6.409  23.816  1.00  0.00     0.293 HD
ENDBRANCH   8  26
TORSDOF 6
ENDMDL
MODEL 5
REMARK VINA RESULT:    -5.995     10.572     14.531
REMARK INTER + INTRA:          -7.320
REMARK INTER:                  -7.086
REMARK INTRA:                  -0.234
REMARK UNBOUND:                -0.099
REMARK SMILES O=c1c(O)c(-c2ccc(O)c(O)c2)oc2cc(O)cc(O)c12
REMARK SMILES IDX 5 1 3 2 2 3 1 4 22 5 20 6 19 7 17 8 16 9 15 10 14 11 6 12
REMARK SMILES IDX 7 13 8 14 9 15 13 16 11 17 10 18 12 20 4 22 21 24 18 26
REMARK H PARENT 10 19 12 21 4 23 21 25 18 27
REMARK Flexibility Score: inf
ROOT
ATOM      1  C   UNL     1      14.862  -7.454  19.370  1.00  0.00     0.180 A 
ATOM      2  C   UNL     1      13.982  -6.448  18.933  1.00  0.00     0.208 A 
ATOM      3  C   UNL     1      13.718  -6.325  17.560  1.00  0.00     0.238 A 
ATOM      4  O   UNL     1      12.888  -5.458  17.180  1.00  0.00    -0.285 OA
ATOM      5  C   UNL     1      14.349  -7.197  16.640  1.00  0.00     0.111 A 
ATOM      6  C   UNL     1      14.185  -7.136  15.223  1.00  0.00     0.134 A 
ATOM      7  C   UNL     1      14.753  -8.131  14.418  1.00  0.00     0.093 A 
ATOM      8  C   UNL     1      15.534  -9.147  14.975  1.00  0.00     0.123 A 
ATOM      9  C   UNL     1      15.750  -9.180  16.350  1.00  0.00     0.094 A 
ATOM     10  C   UNL     1      15.165  -8.222  17.182  1.00  0.00     0.146 A 
ATOM     11  O   UNL     1      15.387  -8.297  18.489  1.00  0.00    -0.452 OA
ENDROOT
BRANCH   1  12
ATOM     12  C   UNL     1      15.210  -7.629  20.799  1.00  0.00     0.025 A 
ATOM     13  C   UNL     1      14.265  -8.186  21.676  1.00  0.00     0.016 A 
ATOM     14  C   UNL     1      14.579  -8.380  23.023  1.00  0.00     0.051 A 
ATOM     15  C   UNL     1      15.843  -8.037  23.512  1.00  0.00     0.157 A 
ATOM     16  C   UNL     1      16.488  -7.304  21.288  1.00  0.00     0.062 A 
ATOM     17  C   UNL     1      16.805  -7.500  22.640  1.00  0.00     0.158 A 
BRANCH  15  18
ATOM     18  O   UNL     1      16.126  -8.240  24.862  1.00  0.00    -0.504 OA
ATOM     19  H   UNL     1      16.786  -8.944  25.174  1.00  0.00     0.293 HD
ENDBRANCH  15  18
BRANCH  17  20
ATOM     20  O   UNL     1      18.072  -7.169  23.117  1.00  0.00    -0.504 OA
ATOM     21  H   UNL     1      18.784  -6.783  22.509  1.00  0.00     0.293 HD
ENDBRANCH  17  20
ENDBRANCH   1  12
BRANCH   2  22
ATOM     22  O   UNL     1      13.354  -5.612  19.861  1.00  0.00    -0.502 OA
ATOM     23  H   UNL     1      13.333  -4.605  19.758  1.00  0.00     0.293 HD
ENDBRANCH   2  22
BRANCH   6  24
ATOM     24  O   UNL     1      13.500  -6.113  14.560  1.00  0.00    -0.507 OA
ATOM     25  H   UNL     1      13.300  -5.206  14.955  1.00  0.00     0.293 HD
ENDBRANCH   6  24
BRANCH   8  26
ATOM     26  O   UNL     1      16.110 -10.125  14.165  1.00  0.00    -0.508 OA
ATOM     27  H   UNL     1      16.723  -9.883  13.396  1.00  0.00     0.293 HD
ENDBRANCH   8  26
TORSDOF 6
ENDMDL
MODEL 6
REMARK VINA RESULT:    -5.991      2.482      7.109
REMARK INTER + INTRA:          -7.316
REMARK INTER:                  -6.989
REMARK INTRA:                  -0.327
REMARK UNBOUND:                -0.099
REMARK SMILES O=c1c(O)c(-c2ccc(O)c(O)c2)oc2cc(O)cc(O)c12
REMARK SMILES IDX 5 1 3 2 2 3 1 4 22 5 20 6 19 7 17 8 16 9 15 10 14 11 6 12
REMARK SMILES IDX 7 13 8 14 9 15 13 16 11 17 10 18 12 20 4 22 21 24 18 26
REMARK H PARENT 10 19 12 21 4 23 21 25 18 27
REMARK Flexibility Score: inf
ROOT
ATOM      1  C   UNL     1       6.605  -7.306  27.287  1.00  0.00     0.180 A 
ATOM      2  C   UNL     1       7.490  -8.238  26.716  1.00  0.00     0.208 A 
ATOM      3  C   UNL     1       7.394  -8.513  25.343  1.00  0.00     0.238 A 
ATOM      4  O   UNL     1       8.223  -9.308  24.827  1.00  0.00    -0.285 OA
ATOM      5  C   UNL     1       6.406  -7.868  24.562  1.00  0.00     0.111 A 
ATOM      6  C   UNL     1       6.194  -8.101  23.169  1.00  0.00     0.134 A 
ATOM      7  C   UNL     1       5.275  -7.310  22.468  1.00  0.00     0.093 A 
ATOM      8  C   UNL     1       4.515  -6.338  23.124  1.00  0.00     0.123 A 
ATOM      9  C   UNL     1       4.673  -6.144  24.494  1.00  0.00     0.094 A 
ATOM     10  C   UNL     1       5.607  -6.893  25.213  1.00  0.00     0.146 A 
ATOM     11  O   UNL     1       5.734  -6.668  26.515  1.00  0.00    -0.452 OA
ENDROOT
BRANCH   1  12
ATOM     12  C   UNL     1       6.628  -6.981  28.732  1.00  0.00     0.025 A 
ATOM     13  C   UNL     1       7.438  -5.931  29.191  1.00  0.00     0.016 A 
ATOM     14  C   UNL     1       7.459  -5.594  30.546  1.00  0.00     0.051 A 
ATOM     15  C   UNL     1       6.662  -6.289  31.461  1.00  0.00     0.157 A 
ATOM     16  C   UNL     1       5.811  -7.666  29.650  1.00  0.00     0.062 A 
ATOM     17  C   UNL     1       5.829  -7.327  31.011  1.00  0.00     0.158 A 
BRANCH  15  18
ATOM     18  O   UNL     1       6.706  -5.931  32.808  1.00  0.00    -0.504 OA
ATOM     19  H   UNL     1       6.624  -6.617  33.550  1.00  0.00     0.293 HD
ENDBRANCH  15  18
BRANCH  17  20
ATOM     20  O   UNL     1       5.021  -8.015  31.914  1.00  0.00    -0.504 OA
ATOM     21  H   UNL     1       5.266  -8.093  32.894  1.00  0.00     0.293 HD
ENDBRANCH  17  20
ENDBRANCH   1  12
BRANCH   2  22
ATOM     22  O   UNL     1       8.471  -8.848  27.502  1.00  0.00    -0.502 OA
ATOM     23  H   UNL     1       9.241  -9.371  27.103  1.00  0.00     0.293 HD
ENDBRANCH   2  22
BRANCH   6  24
ATOM     24  O   UNL     1       6.834  -9.108  22.440  1.00  0.00    -0.507 OA
ATOM     25  H   UNL     1       6.903  -9.134  21.434  1.00  0.00     0.293 HD
ENDBRANCH   6  24
BRANCH   8  26
ATOM     26  O   UNL     1       3.592  -5.565  22.422  1.00  0.00    -0.508 OA
ATOM     27  H   UNL     1       3.234  -4.696  22.798  1.00  0.00     0.293 HD
ENDBRANCH   8  26
TORSDOF 6
ENDMDL
MODEL 7
REMARK VINA RESULT:    -5.918     10.083     14.962
REMARK INTER + INTRA:          -7.228
REMARK INTER:                  -6.988
REMARK INTRA:                  -0.240
REMARK UNBOUND:                -0.099
REMARK SMILES O=c1c(O)c(-c2ccc(O)c(O)c2)oc2cc(O)cc(O)c12
REMARK SMILES IDX 5 1 3 2 2 3 1 4 22 5 20 6 19 7 17 8 16 9 15 10 14 11 6 12
REMARK SMILES IDX 7 13 8 14 9 15 13 16 11 17 10 18 12 20 4 22 21 24 18 26
REMARK H PARENT 10 19 12 21 4 23 21 25 18 27
REMARK Flexibility Score: inf
ROOT
ATOM      1  C   UNL     1      15.348  -8.571  18.924  1.00  0.00     0.180 A 
ATOM      2  C   UNL     1      16.406  -9.304  18.359  1.00  0.00     0.208 A 
ATOM      3  C   UNL     1      16.424  -9.514  16.971  1.00  0.00     0.238 A 
ATOM      4  O   UNL     1      17.402 -10.125  16.466  1.00  0.00    -0.285 OA
ATOM      5  C   UNL     1      15.377  -9.003  16.168  1.00  0.00     0.111 A 
ATOM      6  C   UNL     1      15.273  -9.190  14.756  1.00  0.00     0.134 A 
ATOM      7  C   UNL     1      14.266  -8.530  14.044  1.00  0.00     0.093 A 
ATOM      8  C   UNL     1      13.318  -7.741  14.701  1.00  0.00     0.123 A 
ATOM      9  C   UNL     1      13.375  -7.600  16.086  1.00  0.00     0.094 A 
ATOM     10  C   UNL     1      14.391  -8.218  16.819  1.00  0.00     0.146 A 
ATOM     11  O   UNL     1      14.415  -8.049  18.136  1.00  0.00    -0.452 OA
ENDROOT
BRANCH   1  12
ATOM     12  C   UNL     1      15.246  -8.330  20.382  1.00  0.00     0.025 A 
ATOM     13  C   UNL     1      16.097  -7.391  20.987  1.00  0.00     0.016 A 
ATOM     14  C   UNL     1      16.004  -7.133  22.357  1.00  0.00     0.051 A 
ATOM     15  C   UNL     1      15.053  -7.795  23.139  1.00  0.00     0.157 A 
ATOM     16  C   UNL     1      14.276  -8.980  21.166  1.00  0.00     0.062 A 
ATOM     17  C   UNL     1      14.180  -8.720  22.541  1.00  0.00     0.158 A 
BRANCH  15  18
ATOM     18  O   UNL     1      14.986  -7.518  24.504  1.00  0.00    -0.504 OA
ATOM     19  H   UNL     1      14.747  -6.598  24.855  1.00  0.00     0.293 HD
ENDBRANCH  15  18
BRANCH  17  20
ATOM     20  O   UNL     1      13.220  -9.373  23.312  1.00  0.00    -0.504 OA
ATOM     21  H   UNL     1      12.574  -8.862  23.901  1.00  0.00     0.293 HD
ENDBRANCH  17  20
ENDBRANCH   1  12
BRANCH   2  22
ATOM     22  O   UNL     1      17.441  -9.782  19.169  1.00  0.00    -0.502 OA
ATOM     23  H   UNL     1      17.444 -10.720  19.551  1.00  0.00     0.293 HD
ENDBRANCH   2  22
BRANCH   6  24
ATOM     24  O   UNL     1      16.113 -10.030  14.017  1.00  0.00    -0.507 OA
ATOM     25  H   UNL     1      15.881 -10.970  13.736  1.00  0.00     0.293 HD
ENDBRANCH   6  24
BRANCH   8  26
ATOM     26  O   UNL     1      12.309  -7.098  13.987  1.00  0.00    -0.508 OA
ATOM     27  H   UNL     1      11.338  -7.372  14.079  1.00  0.00     0.293 HD
ENDBRANCH   8  26
TORSDOF 6
ENDMDL
MODEL 8
REMARK VINA RESULT:    -5.772      2.603      3.343
REMARK INTER + INTRA:          -7.052
REMARK INTER:                  -6.836
REMARK INTRA:                  -0.216
REMARK UNBOUND:                -0.099
REMARK SMILES O=c1c(O)c(-c2ccc(O)c(O)c2)oc2cc(O)cc(O)c12
REMARK SMILES IDX 5 1 3 2 2 3 1 4 22 5 20 6 19 7 17 8 16 9 15 10 14 11 6 12
REMARK SMILES IDX 7 13 8 14 9 15 13 16 11 17 10 18 12 20 4 22 21 24 18 26
REMARK H PARENT 10 19 12 21 4 23 21 25 18 27
REMARK Flexibility Score: inf
ROOT
ATOM      1  C   UNL     1       4.987  -7.247  26.291  1.00  0.00     0.180 A 
ATOM      2  C   UNL     1       3.783  -7.653  26.893  1.00  0.00     0.208 A 
ATOM      3  C   UNL     1       3.732  -7.786  28.290  1.00  0.00     0.238 A 
ATOM      4  O   UNL     1       2.638  -8.099  28.827  1.00  0.00    -0.285 OA
ATOM      5  C   UNL     1       4.888  -7.527  29.064  1.00  0.00     0.111 A 
ATOM      6  C   UNL     1       4.961  -7.668  30.483  1.00  0.00     0.134 A 
ATOM      7  C   UNL     1       6.116  -7.259  31.160  1.00  0.00     0.093 A 
ATOM      8  C   UNL     1       7.225  -6.774  30.463  1.00  0.00     0.123 A 
ATOM      9  C   UNL     1       7.185  -6.688  29.073  1.00  0.00     0.094 A 
ATOM     10  C   UNL     1       6.033  -7.056  28.373  1.00  0.00     0.146 A 
ATOM     11  O   UNL     1       6.034  -6.947  27.050  1.00  0.00    -0.452 OA
ENDROOT
BRANCH   1  12
ATOM     12  C   UNL     1       5.125  -7.109  24.823  1.00  0.00     0.025 A 
ATOM     13  C   UNL     1       4.495  -6.038  24.167  1.00  0.00     0.016 A 
ATOM     14  C   UNL     1       4.630  -5.877  22.787  1.00  0.00     0.051 A 
ATOM     15  C   UNL     1       5.406  -6.770  22.042  1.00  0.00     0.157 A 
ATOM     16  C   UNL     1       5.922  -7.994  24.075  1.00  0.00     0.062 A 
ATOM     17  C   UNL     1       6.060  -7.832  22.689  1.00  0.00     0.158 A 
BRANCH  15  18
ATOM     18  O   UNL     1       5.519  -6.585  20.664  1.00  0.00    -0.504 OA
ATOM     19  H   UNL     1       6.250  -6.012  20.257  1.00  0.00     0.293 HD
ENDBRANCH  15  18
BRANCH  17  20
ATOM     20  O   UNL     1       6.846  -8.718  21.955  1.00  0.00    -0.504 OA
ATOM     21  H   UNL     1       6.631  -8.947  20.992  1.00  0.00     0.293 HD
ENDBRANCH  17  20
ENDBRANCH   1  12
BRANCH   2  22
ATOM     22  O   UNL     1       2.648  -7.884  26.110  1.00  0.00    -0.502 OA
ATOM     23  H   UNL     1       2.152  -7.138  25.639  1.00  0.00     0.293 HD
ENDBRANCH   2  22
BRANCH   6  24
ATOM     24  O   UNL     1       3.944  -8.226  31.265  1.00  0.00    -0.507 OA
ATOM     25  H   UNL     1       4.083  -8.652  32.169  1.00  0.00     0.293 HD
ENDBRANCH   6  24
BRANCH   8  26
ATOM     26  O   UNL     1       8.377  -6.382  31.143  1.00  0.00    -0.508 OA
ATOM     27  H   UNL     1       8.409  -5.523  31.678  1.00  0.00     0.293 HD
ENDBRANCH   8  26
TORSDOF 6
ENDMDL
MODEL 9
REMARK VINA RESULT:    -5.762      1.740      6.939
REMARK INTER + INTRA:          -7.040
REMARK INTER:                  -6.884
REMARK INTRA:                  -0.156
REMARK UNBOUND:                -0.099
REMARK SMILES O=c1c(O)c(-c2ccc(O)c(O)c2)oc2cc(O)cc(O)c12
REMARK SMILES IDX 5 1 3 2 2 3 1 4 22 5 20 6 19 7 17 8 16 9 15 10 14 11 6 12
REMARK SMILES IDX 7 13 8 14 9 15 13 16 11 17 10 18 12 20 4 22 21 24 18 26
REMARK H PARENT 10 19 12 21 4 23 21 25 18 27
REMARK Flexibility Score: inf
ROOT
ATOM      1  C   UNL     1       6.239  -7.503  27.710  1.00  0.00     0.180 A 
ATOM      2  C   UNL     1       5.094  -7.350  26.910  1.00  0.00     0.208 A 
ATOM      3  C   UNL     1       5.145  -7.750  25.565  1.00  0.00     0.238 A 
ATOM      4  O   UNL     1       4.100  -7.660  24.868  1.00  0.00    -0.285 OA
ATOM      5  C   UNL     1       6.344  -8.281  25.034  1.00  0.00     0.111 A 
ATOM      6  C   UNL     1       6.521  -8.682  23.675  1.00  0.00     0.134 A 
ATOM      7  C   UNL     1       7.708  -9.317  23.290  1.00  0.00     0.093 A 
ATOM      8  C   UNL     1       8.750  -9.506  24.200  1.00  0.00     0.123 A 
ATOM      9  C   UNL     1       8.611  -9.065  25.514  1.00  0.00     0.094 A 
ATOM     10  C   UNL     1       7.424  -8.461  25.936  1.00  0.00     0.146 A 
ATOM     11  O   UNL     1       7.328  -8.066  27.200  1.00  0.00    -0.452 OA
ENDROOT
BRANCH   1  12
ATOM     12  C   UNL     1       6.270  -7.081  29.130  1.00  0.00     0.025 A 
ATOM     13  C   UNL     1       7.087  -6.005  29.512  1.00  0.00     0.016 A 
ATOM     14  C   UNL     1       7.116  -5.577  30.842  1.00  0.00     0.051 A 
ATOM     15  C   UNL     1       6.320  -6.204  31.804  1.00  0.00     0.157 A 
ATOM     16  C   UNL     1       5.454  -7.697  30.095  1.00  0.00     0.062 A 
ATOM     17  C   UNL     1       5.480  -7.266  31.430  1.00  0.00     0.158 A 
BRANCH  15  18
ATOM     18  O   UNL     1       6.371  -5.756  33.124  1.00  0.00    -0.504 OA
ATOM     19  H   UNL     1       6.009  -6.306  33.894  1.00  0.00     0.293 HD
ENDBRANCH  15  18
BRANCH  17  20
ATOM     20  O   UNL     1       4.673  -7.887  32.381  1.00  0.00    -0.504 OA
ATOM     21  H   UNL     1       3.688  -7.666  32.468  1.00  0.00     0.293 HD
ENDBRANCH  17  20
ENDBRANCH   1  12
BRANCH   2  22
ATOM     22  O   UNL     1       3.914  -6.841  27.461  1.00  0.00    -0.502 OA
ATOM     23  H   UNL     1       3.409  -6.068  27.046  1.00  0.00     0.293 HD
ENDBRANCH   2  22
BRANCH   6  24
ATOM     24  O   UNL     1       5.579  -8.457  22.666  1.00  0.00    -0.507 OA
ATOM     25  H   UNL     1       5.553  -7.638  22.077  1.00  0.00     0.293 HD
ENDBRANCH   6  24
BRANCH   8  26
ATOM     26  O   UNL     1       9.935 -10.125  23.806  1.00  0.00    -0.508 OA
ATOM     27  H   UNL     1       9.966 -11.110  23.572  1.00  0.00     0.293 HD
ENDBRANCH   8  26
TORSDOF 6
ENDMDL
