MODEL 1
REMARK VINA RESULT:    -3.254      0.000      0.000
REMARK INTER + INTRA:          -4.143
REMARK INTER:                  -3.920
REMARK INTRA:                  -0.223
REMARK UNBOUND:                -0.223
REMARK SMILES OCC(O)CO
REMARK SMILES IDX 3 1 5 2 6 3 2 5 1 6 4 8
REMARK H PARENT 6 4 1 7 4 9
REMARK Flexibility Score: inf
ROOT
ATOM      1  C   UNL     1      91.924  99.390  93.307  1.00  0.00     0.165 C 
ENDROOT
BRANCH   1   2
ATOM      2  C   UNL     1      90.594 100.115  93.039  1.00  0.00     0.190 C 
BRANCH   2   3
ATOM      3  O   UNL     1      90.809 101.464  92.728  1.00  0.00    -0.394 OA
ATOM      4  H   UNL     1      89.929 101.913  92.827  1.00  0.00     0.210 HD
ENDBRANCH   2   3
ENDBRANCH   1   2
BRANCH   1   5
ATOM      5  C   UNL     1      93.098  99.955  92.484  1.00  0.00     0.190 C 
BRANCH   5   6
ATOM      6  O   UNL     1      93.710 101.037  93.136  1.00  0.00    -0.394 OA
ATOM      7  H   UNL     1      93.065 101.791  93.115  1.00  0.00     0.210 HD
ENDBRANCH   5   6
ENDBRANCH   1   5
BRANCH   1   8
ATOM      8  O   UNL     1      92.226  99.366  94.680  1.00  0.00    -0.388 OA
ATOM      9  H   UNL     1      92.566  98.461  94.904  1.00  0.00     0.211 HD
ENDBRANCH   1   8
TORSDOF 5
ENDMDL
MODEL 2
REMARK VINA RESULT:    -3.241     12.958     14.338
REMARK INTER + INTRA:          -4.127
REMARK INTER:                  -3.906
REMARK INTRA:                  -0.220
REMARK UNBOUND:                -0.223
REMARK SMILES OCC(O)CO
REMARK SMILES IDX 3 1 5 2 6 3 2 5 1 6 4 8
REMARK H PARENT 6 4 1 7 4 9
REMARK Flexibility Score: inf
ROOT
ATOM      1  C   UNL     1     106.067  98.650  93.364  1.00  0.00     0.165 C 
ENDROOT
BRANCH   1   2
ATOM      2  C   UNL     1     107.383  97.901  93.087  1.00  0.00     0.190 C 
BRANCH   2   3
ATOM      3  O   UNL     1     107.139  96.562  92.752  1.00  0.00    -0.394 OA
ATOM      4  H   UNL     1     107.353  96.032  93.563  1.00  0.00     0.210 HD
ENDBRANCH   2   3
ENDBRANCH   1   2
BRANCH   1   5
ATOM      5  C   UNL     1     104.878  98.108  92.547  1.00  0.00     0.190 C 
BRANCH   5   6
ATOM      6  O   UNL     1     104.325  96.963  93.140  1.00  0.00    -0.394 OA
ATOM      7  H   UNL     1     103.342  97.095  93.166  1.00  0.00     0.210 HD
ENDBRANCH   5   6
ENDBRANCH   1   5
BRANCH   1   8
ATOM      8  O   UNL     1     105.774  98.677  94.739  1.00  0.00    -0.388 OA
ATOM      9  H   UNL     1     106.626  98.576  95.236  1.00  0.00     0.211 HD
ENDBRANCH   1   8
TORSDOF 5
ENDMDL
MODEL 3
REMARK VINA RESULT:    -3.205      1.640      1.892
REMARK INTER + INTRA:          -4.084
REMARK INTER:                  -3.861
REMARK INTRA:                  -0.224
REMARK UNBOUND:                -0.223
REMARK SMILES OCC(O)CO
REMARK SMILES IDX 3 1 5 2 6 3 2 5 1 6 4 8
REMARK H PARENT 6 4 1 7 4 9
REMARK Flexibility Score: inf
ROOT
ATOM      1  C   UNL     1      90.589 100.063  92.679  1.00  0.00     0.165 C 
ENDROOT
BRANCH   1   2
ATOM      2  C   UNL     1      89.154 100.599  92.823  1.00  0.00     0.190 C 
BRANCH   2   3
ATOM      3  O   UNL     1      88.876 101.564  91.846  1.00  0.00    -0.394 OA
ATOM      4  H   UNL     1      89.724 101.704  91.349  1.00  0.00     0.210 HD
ENDBRANCH   2   3
ENDBRANCH   1   2
BRANCH   1   5
ATOM      5  C   UNL     1      91.499 100.986  91.846  1.00  0.00     0.190 C 
BRANCH   5   6
ATOM      6  O   UNL     1      91.665 102.237  92.461  1.00  0.00    -0.394 OA
ATOM      7  H   UNL     1      92.631 102.459  92.412  1.00  0.00     0.210 HD
ENDBRANCH   5   6
ENDBRANCH   1   5
BRANCH   1   8
ATOM      8  O   UNL     1      91.158  99.779  93.934  1.00  0.00    -0.388 OA
ATOM      9  H   UNL     1      92.119 100.021  93.897  1.00  0.00     0.211 HD
ENDBRANCH   1   8
TORSDOF 5
ENDMDL
MODEL 4
REMARK VINA RESULT:    -3.202      1.970      3.223
REMARK INTER + INTRA:          -4.081
REMARK INTER:                  -3.859
REMARK INTRA:                  -0.222
REMARK UNBOUND:                -0.223
REMARK SMILES OCC(O)CO
REMARK SMILES IDX 3 1 5 2 6 3 2 5 1 6 4 8
REMARK H PARENT 6 4 1 7 4 9
REMARK Flexibility Score: inf
ROOT
ATOM      1  C   UNL     1      92.952 102.017  91.784  1.00  0.00     0.165 C 
ENDROOT
BRANCH   1   2
ATOM      2  C   UNL     1      94.006 103.086  92.121  1.00  0.00     0.190 C 
BRANCH   2   3
ATOM      3  O   UNL     1      94.263 103.124  93.498  1.00  0.00    -0.394 OA
ATOM      4  H   UNL     1      93.542 102.593  93.926  1.00  0.00     0.210 HD
ENDBRANCH   2   3
ENDBRANCH   1   2
BRANCH   1   5
ATOM      5  C   UNL     1      93.417 100.585  92.111  1.00  0.00     0.190 C 
BRANCH   5   6
ATOM      6  O   UNL     1      93.437 100.353  93.495  1.00  0.00    -0.394 OA
ATOM      7  H   UNL     1      92.589  99.893  93.726  1.00  0.00     0.210 HD
ENDBRANCH   5   6
ENDBRANCH   1   5
BRANCH   1   8
ATOM      8  O   UNL     1      91.717 102.306  92.391  1.00  0.00    -0.388 OA
ATOM      9  H   UNL     1      91.274 101.446  92.611  1.00  0.00     0.211 HD
ENDBRANCH   1   8
TORSDOF 5
ENDMDL
MODEL 5
REMARK VINA RESULT:    -3.202     12.935     13.502
REMARK INTER + INTRA:          -4.081
REMARK INTER:                  -3.864
REMARK INTRA:                  -0.217
REMARK UNBOUND:                -0.223
REMARK SMILES OCC(O)CO
REMARK SMILES IDX 3 1 5 2 6 3 2 5 1 6 4 8
REMARK H PARENT 6 4 1 7 4 9
REMARK Flexibility Score: inf
ROOT
ATOM      1  C   UNL     1     105.084  95.969  91.816  1.00  0.00     0.165 C 
ENDROOT
BRANCH   1   2
ATOM      2  C   UNL     1     103.988  94.942  92.152  1.00  0.00     0.190 C 
BRANCH   2   3
ATOM      3  O   UNL     1     103.742  94.902  93.531  1.00  0.00    -0.394 OA
ATOM      4  H   UNL     1     102.785  95.137  93.646  1.00  0.00     0.210 HD
ENDBRANCH   2   3
ENDBRANCH   1   2
BRANCH   1   5
ATOM      5  C   UNL     1     104.684  97.416  92.160  1.00  0.00     0.190 C 
BRANCH   5   6
ATOM      6  O   UNL     1     104.597  97.611  93.547  1.00  0.00    -0.394 OA
ATOM      7  H   UNL     1     105.198  98.367  93.773  1.00  0.00     0.210 HD
ENDBRANCH   5   6
ENDBRANCH   1   5
BRANCH   1   8
ATOM      8  O   UNL     1     106.311  95.621  92.410  1.00  0.00    -0.388 OA
ATOM      9  H   UNL     1     106.120  95.036  93.188  1.00  0.00     0.211 HD
ENDBRANCH   1   8
TORSDOF 5
ENDMDL
MODEL 6
REMARK VINA RESULT:    -3.184     13.111     13.993
REMARK INTER + INTRA:          -4.059
REMARK INTER:                  -3.870
REMARK INTRA:                  -0.189
REMARK UNBOUND:                -0.223
REMARK SMILES OCC(O)CO
REMARK SMILES IDX 3 1 5 2 6 3 2 5 1 6 4 8
REMARK H PARENT 6 4 1 7 4 9
REMARK Flexibility Score: inf
ROOT
ATOM      1  C   UNL     1     105.131  97.912  92.527  1.00  0.00     0.165 C 
ENDROOT
BRANCH   1   2
ATOM      2  C   UNL     1     105.455  99.081  93.474  1.00  0.00     0.190 C 
BRANCH   2   3
ATOM      3  O   UNL     1     105.778  98.616  94.755  1.00  0.00    -0.394 OA
ATOM      4  H   UNL     1     106.765  98.514  94.770  1.00  0.00     0.210 HD
ENDBRANCH   2   3
ENDBRANCH   1   2
BRANCH   1   5
ATOM      5  C   UNL     1     106.384  97.287  91.885  1.00  0.00     0.190 C 
BRANCH   5   6
ATOM      6  O   UNL     1     107.126  96.547  92.818  1.00  0.00    -0.394 OA
ATOM      7  H   UNL     1     107.847  97.140  93.153  1.00  0.00     0.210 HD
ENDBRANCH   5   6
ENDBRANCH   1   5
BRANCH   1   8
ATOM      8  O   UNL     1     104.344  96.938  93.168  1.00  0.00    -0.388 OA
ATOM      9  H   UNL     1     103.607  96.685  92.553  1.00  0.00     0.211 HD
ENDBRANCH   1   8
TORSDOF 5
ENDMDL
MODEL 7
REMARK VINA RESULT:    -3.167     15.012     16.052
REMARK INTER + INTRA:          -4.039
REMARK INTER:                  -3.819
REMARK INTRA:                  -0.219
REMARK UNBOUND:                -0.223
REMARK SMILES OCC(O)CO
REMARK SMILES IDX 3 1 5 2 6 3 2 5 1 6 4 8
REMARK H PARENT 6 4 1 7 4 9
REMARK Flexibility Score: inf
ROOT
ATOM      1  C   UNL     1     107.465  97.977  92.638  1.00  0.00     0.165 C 
ENDROOT
BRANCH   1   2
ATOM      2  C   UNL     1     108.928  97.500  92.689  1.00  0.00     0.190 C 
BRANCH   2   3
ATOM      3  O   UNL     1     109.122  96.384  91.864  1.00  0.00    -0.394 OA
ATOM      4  H   UNL     1     108.613  95.642  92.281  1.00  0.00     0.210 HD
ENDBRANCH   2   3
ENDBRANCH   1   2
BRANCH   1   5
ATOM      5  C   UNL     1     106.556  97.054  91.804  1.00  0.00     0.190 C 
BRANCH   5   6
ATOM      6  O   UNL     1     106.377  95.809  92.426  1.00  0.00    -0.394 OA
ATOM      7  H   UNL     1     107.111  95.219  92.114  1.00  0.00     0.210 HD
ENDBRANCH   5   6
ENDBRANCH   1   5
BRANCH   1   8
ATOM      8  O   UNL     1     106.947  98.175  93.931  1.00  0.00    -0.388 OA
ATOM      9  H   UNL     1     106.405  99.006  93.919  1.00  0.00     0.211 HD
ENDBRANCH   1   8
TORSDOF 5
ENDMDL
MODEL 8
REMARK VINA RESULT:    -3.137      1.387      2.508
REMARK INTER + INTRA:          -4.002
REMARK INTER:                  -3.983
REMARK INTRA:                  -0.019
REMARK UNBOUND:                -0.223
REMARK SMILES OCC(O)CO
REMARK SMILES IDX 3 1 5 2 6 3 2 5 1 6 4 8
REMARK H PARENT 6 4 1 7 4 9
REMARK Flexibility Score: inf
ROOT
ATOM      1  C   UNL     1      90.940  99.764  93.110  1.00  0.00     0.165 C 
ENDROOT
BRANCH   1   2
ATOM      2  C   UNL     1      92.337  99.323  93.582  1.00  0.00     0.190 C 
BRANCH   2   3
ATOM      3  O   UNL     1      92.420  99.325  94.980  1.00  0.00    -0.394 OA
ATOM      4  H   UNL     1      93.297  98.919  95.204  1.00  0.00     0.210 HD
ENDBRANCH   2   3
ENDBRANCH   1   2
BRANCH   1   5
ATOM      5  C   UNL     1      90.984 100.837  92.006  1.00  0.00     0.190 C 
BRANCH   5   6
ATOM      6  O   UNL     1      91.507 102.048  92.485  1.00  0.00    -0.394 OA
ATOM      7  H   UNL     1      90.843 102.421  93.121  1.00  0.00     0.210 HD
ENDBRANCH   5   6
ENDBRANCH   1   5
BRANCH   1   8
ATOM      8  O   UNL     1      90.160  98.661  92.721  1.00  0.00    -0.388 OA
ATOM      9  H   UNL     1      90.040  98.076  93.514  1.00  0.00     0.211 HD
ENDBRANCH   1   8
TORSDOF 5
ENDMDL
MODEL 9
REMARK VINA RESULT:    -3.122     13.771     14.855
REMARK INTER + INTRA:          -3.985
REMARK INTER:                  -3.843
REMARK INTRA:                  -0.141
REMARK UNBOUND:                -0.223
REMARK SMILES OCC(O)CO
REMARK SMILES IDX 3 1 5 2 6 3 2 5 1 6 4 8
REMARK H PARENT 6 4 1 7 4 9
REMARK Flexibility Score: inf
ROOT
ATOM      1  C   UNL     1     106.528  98.773  92.555  1.00  0.00     0.165 C 
ENDROOT
BRANCH   1   2
ATOM      2  C   UNL     1     106.553  97.363  91.939  1.00  0.00     0.190 C 
BRANCH   2   3
ATOM      3  O   UNL     1     107.132  96.440  92.819  1.00  0.00    -0.394 OA
ATOM      4  H   UNL     1     108.112  96.592  92.772  1.00  0.00     0.210 HD
ENDBRANCH   2   3
ENDBRANCH   1   2
BRANCH   1   5
ATOM      5  C   UNL     1     105.409  98.959  93.598  1.00  0.00     0.190 C 
BRANCH   5   6
ATOM      6  O   UNL     1     105.836  98.587  94.882  1.00  0.00    -0.394 OA
ATOM      7  H   UNL     1     105.516  99.287  95.509  1.00  0.00     0.210 HD
ENDBRANCH   5   6
ENDBRANCH   1   5
BRANCH   1   8
ATOM      8  O   UNL     1     107.784  99.124  93.082  1.00  0.00    -0.388 OA
ATOM      9  H   UNL     1     107.707  99.142  94.071  1.00  0.00     0.211 HD
ENDBRANCH   1   8
TORSDOF 5
ENDMDL
