MODEL 1
REMARK VINA RESULT:    -3.644      0.000      0.000
REMARK INTER + INTRA:          -4.740
REMARK INTER:                  -5.135
REMARK INTRA:                   0.395
REMARK UNBOUND:                 0.395
REMARK SMILES CC1=CCC(=C(C)C)C(=O)CC(C)=CCC1
REMARK SMILES IDX 12 1 14 2 13 3 15 4 16 5 2 6 1 7 3 8 11 10 9 11 10 12 5 13
REMARK SMILES IDX 6 14 7 15 8 16 4 17
REMARK H PARENT
REMARK Flexibility Score: 60.00
ROOT
ATOM      1  C   UNL     1      -2.983 -13.134  -8.308  1.00  0.00    -0.070 C 
ATOM      2  C   UNL     1      -2.120 -13.691  -7.420  1.00  0.00    -0.027 C 
ATOM      3  C   UNL     1      -2.955 -11.632  -8.451  1.00  0.00     0.039 C 
ENDROOT
BRANCH   2   4
ATOM      4  C   UNL     1      -1.906 -15.168  -7.190  1.00  0.00     0.032 C 
BRANCH   4   5
ATOM      5  C   UNL     1      -2.358 -15.639  -5.801  1.00  0.00     0.034 C 
BRANCH   5   6
ATOM      6  C   UNL     1      -3.627 -16.459  -5.912  1.00  0.00    -0.077 C 
ATOM      7  C   UNL     1      -3.500 -17.946  -6.125  1.00  0.00     0.039 C 
ATOM      8  C   UNL     1      -4.868 -15.918  -5.910  1.00  0.00    -0.023 CG0
ATOM      9  G   UNL     1      -5.192 -14.459  -5.695  1.00  0.00     0.000 G0
ENDBRANCH   5   6
ENDBRANCH   4   5
ENDBRANCH   2   4
BRANCH   1  10
ATOM     10  C   UNL     1      -4.024 -13.916  -9.105  1.00  0.00     0.111 C 
BRANCH  10  11
ATOM     11  C   UNL     1      -5.218 -14.351  -8.293  1.00  0.00     0.163 C 
ATOM     12  O   UNL     1      -5.963 -15.244  -8.782  1.00  0.00    -0.294 OA
BRANCH  11  13
ATOM     13  C   UNL     1      -5.575 -13.724  -6.977  1.00  0.00    -0.002 C 
ATOM     14  C   UNL     1      -6.270 -12.544  -6.929  1.00  0.00    -0.069 C 
ATOM     15  C   UNL     1      -6.727 -11.944  -5.617  1.00  0.00     0.039 C 
ATOM     16  C   UNL     1      -6.576 -11.749  -8.180  1.00  0.00     0.039 C 
BRANCH  13  17
ATOM     17  C   UNL     1      -5.200 -14.457  -5.689  1.00  0.00     0.066 CG0
ATOM     18  G   UNL     1      -4.873 -15.910  -5.935  1.00  0.00     0.000 G0
ENDBRANCH  13  17
ENDBRANCH  11  13
ENDBRANCH  10  11
ENDBRANCH   1  10
TORSDOF 0
ENDMDL
MODEL 2
REMARK VINA RESULT:    -3.202      1.931      3.459
REMARK INTER + INTRA:          -4.117
REMARK INTER:                  -5.275
REMARK INTRA:                   1.158
REMARK UNBOUND:                 0.395
REMARK SMILES CC1=CCC(=C(C)C)C(=O)CC(C)=CCC1
REMARK SMILES IDX 12 1 14 2 13 3 15 4 16 5 2 6 1 7 3 8 11 10 9 11 10 12 5 13
REMARK SMILES IDX 6 14 7 15 8 16 4 17
REMARK H PARENT
REMARK Flexibility Score: 60.00
ROOT
ATOM      1  C   UNL     1      -3.560 -15.247  -5.662  1.00  0.00    -0.070 C 
ATOM      2  C   UNL     1      -3.006 -15.737  -6.801  1.00  0.00    -0.027 C 
ATOM      3  C   UNL     1      -4.093 -16.249  -4.667  1.00  0.00     0.039 C 
ENDROOT
BRANCH   2   4
ATOM      4  C   UNL     1      -2.324 -14.929  -7.880  1.00  0.00     0.032 C 
BRANCH   4   5
ATOM      5  C   UNL     1      -3.197 -14.717  -9.123  1.00  0.00     0.034 C 
BRANCH   5   6
ATOM      6  C   UNL     1      -4.582 -15.288  -8.896  1.00  0.00    -0.077 C 
ATOM      7  C   UNL     1      -4.761 -16.783  -8.974  1.00  0.00     0.039 C 
ATOM      8  C   UNL     1      -5.683 -14.522  -8.705  1.00  0.00    -0.023 CG0
ATOM      9  G   UNL     1      -5.699 -13.017  -8.584  1.00  0.00     0.000 G0
ENDBRANCH   5   6
ENDBRANCH   4   5
ENDBRANCH   2   4
BRANCH   1  10
ATOM     10  C   UNL     1      -3.749 -13.763  -5.364  1.00  0.00     0.111 C 
BRANCH  10  11
ATOM     11  C   UNL     1      -4.914 -13.135  -6.088  1.00  0.00     0.163 C 
ATOM     12  O   UNL     1      -6.042 -13.175  -5.525  1.00  0.00    -0.294 OA
BRANCH  11  13
ATOM     13  C   UNL     1      -4.788 -12.532  -7.457  1.00  0.00    -0.002 C 
ATOM     14  C   UNL     1      -3.830 -11.589  -7.721  1.00  0.00    -0.069 C 
ATOM     15  C   UNL     1      -3.620 -11.039  -9.114  1.00  0.00     0.039 C 
ATOM     16  C   UNL     1      -2.962 -11.008  -6.626  1.00  0.00     0.039 C 
BRANCH  13  17
ATOM     17  C   UNL     1      -5.712 -13.032  -8.567  1.00  0.00     0.066 CG0
ATOM     18  G   UNL     1      -5.675 -14.535  -8.705  1.00  0.00     0.000 G0
ENDBRANCH  13  17
ENDBRANCH  11  13
ENDBRANCH  10  11
ENDBRANCH   1  10
TORSDOF 0
ENDMDL
MODEL 3
REMARK VINA RESULT:    -2.969      1.591      4.407
REMARK INTER + INTRA:          -3.788
REMARK INTER:                  -4.445
REMARK INTRA:                   0.657
REMARK UNBOUND:                 0.395
REMARK SMILES CC1=CCC(=C(C)C)C(=O)CC(C)=CCC1
REMARK SMILES IDX 12 1 14 2 13 3 15 4 16 5 2 6 1 7 3 8 11 10 9 11 10 12 5 13
REMARK SMILES IDX 6 14 7 15 8 16 4 17
REMARK H PARENT
REMARK Flexibility Score: 60.00
ROOT
ATOM      1  C   UNL     1      -6.030 -12.861  -6.614  1.00  0.00    -0.070 C 
ATOM      2  C   UNL     1      -5.508 -11.840  -7.342  1.00  0.00    -0.027 C 
ATOM      3  C   UNL     1      -6.365 -12.578  -5.170  1.00  0.00     0.039 C 
ENDROOT
BRANCH   2   4
ATOM      4  C   UNL     1      -5.196 -11.868  -8.819  1.00  0.00     0.032 C 
BRANCH   4   5
ATOM      5  C   UNL     1      -3.694 -11.797  -9.125  1.00  0.00     0.034 C 
BRANCH   5   6
ATOM      6  C   UNL     1      -2.899 -11.733  -7.836  1.00  0.00    -0.077 C 
ATOM      7  C   UNL     1      -2.658 -10.383  -7.211  1.00  0.00     0.039 C 
ATOM      8  C   UNL     1      -2.325 -12.816  -7.259  1.00  0.00    -0.023 CG0
ATOM      9  G   UNL     1      -2.467 -14.244  -7.730  1.00  0.00     0.000 G0
ENDBRANCH   5   6
ENDBRANCH   4   5
ENDBRANCH   2   4
BRANCH   1  10
ATOM     10  C   UNL     1      -6.224 -14.281  -7.136  1.00  0.00     0.111 C 
BRANCH  10  11
ATOM     11  C   UNL     1      -4.997 -14.867  -7.790  1.00  0.00     0.163 C 
ATOM     12  O   UNL     1      -5.126 -15.344  -8.950  1.00  0.00    -0.294 OA
BRANCH  11  13
ATOM     13  C   UNL     1      -3.671 -14.955  -7.093  1.00  0.00    -0.002 C 
ATOM     14  C   UNL     1      -3.531 -15.687  -5.944  1.00  0.00    -0.069 C 
ATOM     15  C   UNL     1      -2.184 -15.871  -5.278  1.00  0.00     0.039 C 
ATOM     16  C   UNL     1      -4.720 -16.312  -5.248  1.00  0.00     0.039 C 
BRANCH  13  17
ATOM     17  C   UNL     1      -2.465 -14.258  -7.722  1.00  0.00     0.066 CG0
ATOM     18  G   UNL     1      -2.331 -12.825  -7.264  1.00  0.00     0.000 G0
ENDBRANCH  13  17
ENDBRANCH  11  13
ENDBRANCH  10  11
ENDBRANCH   1  10
TORSDOF 0
ENDMDL
MODEL 4
REMARK VINA RESULT:    -2.896      1.716      4.143
REMARK INTER + INTRA:          -3.687
REMARK INTER:                  -4.213
REMARK INTRA:                   0.526
REMARK UNBOUND:                 0.395
REMARK SMILES CC1=CCC(=C(C)C)C(=O)CC(C)=CCC1
REMARK SMILES IDX 12 1 14 2 13 3 15 4 16 5 2 6 1 7 3 8 11 10 9 11 10 12 5 13
REMARK SMILES IDX 6 14 7 15 8 16 4 17
REMARK H PARENT
REMARK Flexibility Score: 60.00
ROOT
ATOM      1  C   UNL     1      -4.893 -14.911  -9.083  1.00  0.00    -0.070 C 
ATOM      2  C   UNL     1      -5.371 -13.640  -9.056  1.00  0.00    -0.027 C 
ATOM      3  C   UNL     1      -5.907 -16.029  -9.115  1.00  0.00     0.039 C 
ENDROOT
BRANCH   2   4
ATOM      4  C   UNL     1      -4.546 -12.377  -9.123  1.00  0.00     0.032 C 
BRANCH   4   5
ATOM      5  C   UNL     1      -4.332 -11.717  -7.755  1.00  0.00     0.034 C 
BRANCH   5   6
ATOM      6  C   UNL     1      -5.336 -12.251  -6.753  1.00  0.00    -0.077 C 
ATOM      7  C   UNL     1      -6.750 -11.732  -6.811  1.00  0.00     0.039 C 
ATOM      8  C   UNL     1      -5.011 -13.110  -5.757  1.00  0.00    -0.023 CG0
ATOM      9  G   UNL     1      -3.656 -13.745  -5.548  1.00  0.00     0.000 G0
ENDBRANCH   5   6
ENDBRANCH   4   5
ENDBRANCH   2   4
BRANCH   1  10
ATOM     10  C   UNL     1      -3.415 -15.280  -9.004  1.00  0.00     0.111 C 
BRANCH  10  11
ATOM     11  C   UNL     1      -2.758 -14.903  -7.698  1.00  0.00     0.163 C 
ATOM     12  O   UNL     1      -1.554 -14.532  -7.737  1.00  0.00    -0.294 OA
BRANCH  11  13
ATOM     13  C   UNL     1      -3.460 -15.015  -6.376  1.00  0.00    -0.002 C 
ATOM     14  C   UNL     1      -3.870 -16.233  -5.902  1.00  0.00    -0.069 C 
ATOM     15  C   UNL     1      -4.491 -16.383  -4.530  1.00  0.00     0.039 C 
ATOM     16  C   UNL     1      -3.773 -17.488  -6.741  1.00  0.00     0.039 C 
BRANCH  13  17
ATOM     17  C   UNL     1      -3.657 -13.750  -5.541  1.00  0.00     0.066 CG0
ATOM     18  G   UNL     1      -5.016 -13.129  -5.760  1.00  0.00     0.000 G0
ENDBRANCH  13  17
ENDBRANCH  11  13
ENDBRANCH  10  11
ENDBRANCH   1  10
TORSDOF 0
ENDMDL
MODEL 5
REMARK VINA RESULT:    -2.886      1.408      3.761
REMARK INTER + INTRA:          -3.671
REMARK INTER:                  -4.727
REMARK INTRA:                   1.056
REMARK UNBOUND:                 0.395
REMARK SMILES CC1=CCC(=C(C)C)C(=O)CC(C)=CCC1
REMARK SMILES IDX 12 1 14 2 13 3 15 4 16 5 2 6 1 7 3 8 11 10 9 11 10 12 5 13
REMARK SMILES IDX 6 14 7 15 8 16 4 17
REMARK H PARENT
REMARK Flexibility Score: 60.00
ROOT
ATOM      1  C   UNL     1      -3.259 -13.908  -9.056  1.00  0.00    -0.070 C 
ATOM      2  C   UNL     1      -3.515 -12.575  -9.099  1.00  0.00    -0.027 C 
ATOM      3  C   UNL     1      -1.813 -14.336  -9.097  1.00  0.00     0.039 C 
ENDROOT
BRANCH   2   4
ATOM      4  C   UNL     1      -4.871 -11.923  -8.969  1.00  0.00     0.032 C 
BRANCH   4   5
ATOM      5  C   UNL     1      -5.908 -12.812  -8.271  1.00  0.00     0.034 C 
BRANCH   5   6
ATOM      6  C   UNL     1      -6.008 -12.449  -6.803  1.00  0.00    -0.077 C 
ATOM      7  C   UNL     1      -6.126 -10.993  -6.433  1.00  0.00     0.039 C 
ATOM      8  C   UNL     1      -5.917 -13.357  -5.802  1.00  0.00    -0.023 CG0
ATOM      9  G   UNL     1      -5.811 -14.853  -5.977  1.00  0.00     0.000 G0
ENDBRANCH   5   6
ENDBRANCH   4   5
ENDBRANCH   2   4
BRANCH   1  10
ATOM     10  C   UNL     1      -4.333 -14.993  -9.047  1.00  0.00     0.111 C 
BRANCH  10  11
ATOM     11  C   UNL     1      -4.303 -15.875  -7.823  1.00  0.00     0.163 C 
ATOM     12  O   UNL     1      -4.208 -17.119  -8.003  1.00  0.00    -0.294 OA
BRANCH  11  13
ATOM     13  C   UNL     1      -4.442 -15.334  -6.430  1.00  0.00    -0.002 C 
ATOM     14  C   UNL     1      -3.349 -15.218  -5.612  1.00  0.00    -0.069 C 
ATOM     15  C   UNL     1      -3.447 -14.586  -4.241  1.00  0.00     0.039 C 
ATOM     16  C   UNL     1      -1.994 -15.760  -6.012  1.00  0.00     0.039 C 
BRANCH  13  17
ATOM     17  C   UNL     1      -5.817 -14.861  -5.960  1.00  0.00     0.066 CG0
ATOM     18  G   UNL     1      -5.881 -13.361  -5.802  1.00  0.00     0.000 G0
ENDBRANCH  13  17
ENDBRANCH  11  13
ENDBRANCH  10  11
ENDBRANCH   1  10
TORSDOF 0
ENDMDL
MODEL 6
REMARK VINA RESULT:    -2.845      1.415      4.064
REMARK INTER + INTRA:          -3.614
REMARK INTER:                  -5.143
REMARK INTRA:                   1.530
REMARK UNBOUND:                 0.395
REMARK SMILES CC1=CCC(=C(C)C)C(=O)CC(C)=CCC1
REMARK SMILES IDX 12 1 14 2 13 3 15 4 16 5 2 6 1 7 3 8 11 10 9 11 10 12 5 13
REMARK SMILES IDX 6 14 7 15 8 16 4 17
REMARK H PARENT
REMARK Flexibility Score: 60.00
ROOT
ATOM      1  C   UNL     1      -3.181 -11.544  -8.402  1.00  0.00    -0.070 C 
ATOM      2  C   UNL     1      -4.339 -11.666  -9.101  1.00  0.00    -0.027 C 
ATOM      3  C   UNL     1      -2.251 -10.423  -8.798  1.00  0.00     0.039 C 
ENDROOT
BRANCH   2   4
ATOM      4  C   UNL     1      -5.455 -12.643  -8.813  1.00  0.00     0.032 C 
BRANCH   4   5
ATOM      5  C   UNL     1      -6.575 -12.049  -7.949  1.00  0.00     0.034 C 
BRANCH   5   6
ATOM      6  C   UNL     1      -6.394 -12.457  -6.501  1.00  0.00    -0.077 C 
ATOM      7  C   UNL     1      -6.836 -11.496  -5.427  1.00  0.00     0.039 C 
ATOM      8  C   UNL     1      -5.784 -13.605  -6.120  1.00  0.00    -0.023 CG0
ATOM      9  G   UNL     1      -5.291 -14.690  -7.047  1.00  0.00     0.000 G0
ENDBRANCH   5   6
ENDBRANCH   4   5
ENDBRANCH   2   4
BRANCH   1  10
ATOM     10  C   UNL     1      -2.729 -12.505  -7.307  1.00  0.00     0.111 C 
BRANCH  10  11
ATOM     11  C   UNL     1      -2.867 -13.962  -7.674  1.00  0.00     0.163 C 
ATOM     12  O   UNL     1      -2.226 -14.374  -8.679  1.00  0.00    -0.294 OA
BRANCH  11  13
ATOM     13  C   UNL     1      -3.773 -14.902  -6.933  1.00  0.00    -0.002 C 
ATOM     14  C   UNL     1      -3.256 -15.890  -6.137  1.00  0.00    -0.069 C 
ATOM     15  C   UNL     1      -4.147 -16.786  -5.305  1.00  0.00     0.039 C 
ATOM     16  C   UNL     1      -1.771 -16.173  -6.082  1.00  0.00     0.039 C 
BRANCH  13  17
ATOM     17  C   UNL     1      -5.284 -14.701  -7.039  1.00  0.00     0.066 CG0
ATOM     18  G   UNL     1      -5.778 -13.602  -6.128  1.00  0.00     0.000 G0
ENDBRANCH  13  17
ENDBRANCH  11  13
ENDBRANCH  10  11
ENDBRANCH   1  10
TORSDOF 0
ENDMDL
MODEL 7
REMARK VINA RESULT:    -2.653      1.974      2.648
REMARK INTER + INTRA:          -3.343
REMARK INTER:                  -3.876
REMARK INTRA:                   0.533
REMARK UNBOUND:                 0.395
REMARK SMILES CC1=CCC(=C(C)C)C(=O)CC(C)=CCC1
REMARK SMILES IDX 12 1 14 2 13 3 15 4 16 5 2 6 1 7 3 8 11 10 9 11 10 12 5 13
REMARK SMILES IDX 6 14 7 15 8 16 4 17
REMARK H PARENT
REMARK Flexibility Score: 60.00
ROOT
ATOM      1  C   UNL     1      -2.817 -13.433  -5.796  1.00  0.00    -0.070 C 
ATOM      2  C   UNL     1      -3.541 -13.991  -4.791  1.00  0.00    -0.027 C 
ATOM      3  C   UNL     1      -2.940 -11.942  -5.991  1.00  0.00     0.039 C 
ENDROOT
BRANCH   2   4
ATOM      4  C   UNL     1      -3.494 -15.435  -4.354  1.00  0.00     0.032 C 
BRANCH   4   5
ATOM      5  C   UNL     1      -4.590 -16.300  -4.991  1.00  0.00     0.034 C 
BRANCH   5   6
ATOM      6  C   UNL     1      -4.017 -17.117  -6.131  1.00  0.00    -0.077 C 
ATOM      7  C   UNL     1      -3.181 -18.326  -5.794  1.00  0.00     0.039 C 
ATOM      8  C   UNL     1      -4.148 -16.775  -7.435  1.00  0.00    -0.023 CG0
ATOM      9  G   UNL     1      -4.956 -15.613  -7.963  1.00  0.00     0.000 G0
ENDBRANCH   5   6
ENDBRANCH   4   5
ENDBRANCH   2   4
BRANCH   1  10
ATOM     10  C   UNL     1      -1.957 -14.222  -6.780  1.00  0.00     0.111 C 
BRANCH  10  11
ATOM     11  C   UNL     1      -2.623 -14.475  -8.109  1.00  0.00     0.163 C 
ATOM     12  O   UNL     1      -1.878 -14.710  -9.100  1.00  0.00    -0.294 OA
BRANCH  11  13
ATOM     13  C   UNL     1      -4.110 -14.397  -8.300  1.00  0.00    -0.002 C 
ATOM     14  C   UNL     1      -4.690 -13.269  -8.818  1.00  0.00    -0.069 C 
ATOM     15  C   UNL     1      -6.173 -13.201  -9.111  1.00  0.00     0.039 C 
ATOM     16  C   UNL     1      -3.892 -12.010  -9.079  1.00  0.00     0.039 C 
BRANCH  13  17
ATOM     17  C   UNL     1      -4.959 -15.620  -7.960  1.00  0.00     0.066 CG0
ATOM     18  G   UNL     1      -4.126 -16.762  -7.428  1.00  0.00     0.000 G0
ENDBRANCH  13  17
ENDBRANCH  11  13
ENDBRANCH  10  11
ENDBRANCH   1  10
TORSDOF 0
ENDMDL
MODEL 8
REMARK VINA RESULT:    -2.561      1.428      3.198
REMARK INTER + INTRA:          -3.214
REMARK INTER:                  -4.549
REMARK INTRA:                   1.335
REMARK UNBOUND:                 0.395
REMARK SMILES CC1=CCC(=C(C)C)C(=O)CC(C)=CCC1
REMARK SMILES IDX 12 1 14 2 13 3 15 4 16 5 2 6 1 7 3 8 11 10 9 11 10 12 5 13
REMARK SMILES IDX 6 14 7 15 8 16 4 17
REMARK H PARENT
REMARK Flexibility Score: 60.00
ROOT
ATOM      1  C   UNL     1      -5.646 -12.798  -5.868  1.00  0.00    -0.070 C 
ATOM      2  C   UNL     1      -4.703 -13.517  -5.206  1.00  0.00    -0.027 C 
ATOM      3  C   UNL     1      -7.000 -12.669  -5.216  1.00  0.00     0.039 C 
ENDROOT
BRANCH   2   4
ATOM      4  C   UNL     1      -3.261 -13.689  -5.620  1.00  0.00     0.032 C 
BRANCH   4   5
ATOM      5  C   UNL     1      -2.898 -15.138  -5.970  1.00  0.00     0.034 C 
BRANCH   5   6
ATOM      6  C   UNL     1      -4.152 -15.934  -6.273  1.00  0.00    -0.077 C 
ATOM      7  C   UNL     1      -4.832 -16.656  -5.138  1.00  0.00     0.039 C 
ATOM      8  C   UNL     1      -4.649 -16.097  -7.523  1.00  0.00    -0.023 CG0
ATOM      9  G   UNL     1      -4.115 -15.444  -8.775  1.00  0.00     0.000 G0
ENDBRANCH   5   6
ENDBRANCH   4   5
ENDBRANCH   2   4
BRANCH   1  10
ATOM     10  C   UNL     1      -5.450 -12.185  -7.252  1.00  0.00     0.111 C 
BRANCH  10  11
ATOM     11  C   UNL     1      -5.369 -13.199  -8.366  1.00  0.00     0.163 C 
ATOM     12  O   UNL     1      -6.431 -13.459  -8.995  1.00  0.00    -0.294 OA
BRANCH  11  13
ATOM     13  C   UNL     1      -4.107 -13.937  -8.701  1.00  0.00    -0.002 C 
ATOM     14  C   UNL     1      -2.929 -13.262  -8.883  1.00  0.00    -0.069 C 
ATOM     15  C   UNL     1      -1.624 -13.991  -9.125  1.00  0.00     0.039 C 
ATOM     16  C   UNL     1      -2.872 -11.750  -8.903  1.00  0.00     0.039 C 
BRANCH  13  17
ATOM     17  C   UNL     1      -4.147 -15.463  -8.779  1.00  0.00     0.066 CG0
ATOM     18  G   UNL     1      -4.657 -16.085  -7.502  1.00  0.00     0.000 G0
ENDBRANCH  13  17
ENDBRANCH  11  13
ENDBRANCH  10  11
ENDBRANCH   1  10
TORSDOF 0
ENDMDL
MODEL 9
REMARK VINA RESULT:    -2.298      2.195      4.905
REMARK INTER + INTRA:          -2.844
REMARK INTER:                  -3.525
REMARK INTRA:                   0.681
REMARK UNBOUND:                 0.395
REMARK SMILES CC1=CCC(=C(C)C)C(=O)CC(C)=CCC1
REMARK SMILES IDX 12 1 14 2 13 3 15 4 16 5 2 6 1 7 3 8 11 10 9 11 10 12 5 13
REMARK SMILES IDX 6 14 7 15 8 16 4 17
REMARK H PARENT
REMARK Flexibility Score: 60.00
ROOT
ATOM      1  C   UNL     1      -5.317 -13.340  -6.005  1.00  0.00    -0.070 C 
ATOM      2  C   UNL     1      -5.999 -12.457  -6.781  1.00  0.00    -0.027 C 
ATOM      3  C   UNL     1      -6.103 -14.474  -5.394  1.00  0.00     0.039 C 
ENDROOT
BRANCH   2   4
ATOM      4  C   UNL     1      -5.401 -11.315  -7.567  1.00  0.00     0.032 C 
BRANCH   4   5
ATOM      5  C   UNL     1      -4.969 -11.714  -8.984  1.00  0.00     0.034 C 
BRANCH   5   6
ATOM      6  C   UNL     1      -3.462 -11.867  -9.050  1.00  0.00    -0.077 C 
ATOM      7  C   UNL     1      -2.620 -10.619  -9.125  1.00  0.00     0.039 C 
ATOM      8  C   UNL     1      -2.837 -13.066  -9.125  1.00  0.00    -0.023 CG0
ATOM      9  G   UNL     1      -3.509 -14.416  -9.050  1.00  0.00     0.000 G0
ENDBRANCH   5   6
ENDBRANCH   4   5
ENDBRANCH   2   4
BRANCH   1  10
ATOM     10  C   UNL     1      -3.838 -13.214  -5.651  1.00  0.00     0.111 C 
BRANCH  10  11
ATOM     11  C   UNL     1      -2.930 -14.074  -6.496  1.00  0.00     0.163 C 
ATOM     12  O   UNL     1      -1.689 -13.988  -6.291  1.00  0.00    -0.294 OA
BRANCH  11  13
ATOM     13  C   UNL     1      -3.443 -14.963  -7.590  1.00  0.00    -0.002 C 
ATOM     14  C   UNL     1      -3.895 -16.227  -7.311  1.00  0.00    -0.069 C 
ATOM     15  C   UNL     1      -4.507 -17.106  -8.380  1.00  0.00     0.039 C 
ATOM     16  C   UNL     1      -3.761 -16.833  -5.931  1.00  0.00     0.039 C 
BRANCH  13  17
ATOM     17  C   UNL     1      -3.507 -14.413  -9.014  1.00  0.00     0.066 CG0
ATOM     18  G   UNL     1      -2.830 -13.069  -9.136  1.00  0.00     0.000 G0
ENDBRANCH  13  17
ENDBRANCH  11  13
ENDBRANCH  10  11
ENDBRANCH   1  10
TORSDOF 0
ENDMDL
