MODEL 1
REMARK VINA RESULT:    -4.362      0.000      0.000
REMARK INTER + INTRA:          -4.490
REMARK INTER:                  -4.490
REMARK INTRA:                   0.000
REMARK UNBOUND:                 0.000
REMARK SMILES C[C@H]1CC[C@H]2C(C)(C)[C@@H]3C[C@]12CC[C@@]3(C)O
REMARK SMILES IDX 1 1 2 2 3 3 4 4 5 5 11 6 12 7 13 8 14 9 9 10 10 11 6 12 7 13
REMARK SMILES IDX 8 14 15 15 16 16
REMARK H PARENT 16 17
REMARK Flexibility Score: inf
ROOT
ATOM      1  C   UNL     1     135.732 141.543 144.492  1.00  0.00     0.008 C 
ATOM      2  C   UNL     1     136.049 142.158 143.121  1.00  0.00    -0.008 C 
ATOM      3  C   UNL     1     137.235 141.449 142.391  1.00  0.00     0.004 C 
ATOM      4  C   UNL     1     136.912 141.483 140.869  1.00  0.00     0.005 C 
ATOM      5  C   UNL     1     135.747 142.448 140.829  1.00  0.00     0.001 C 
ATOM      6  C   UNL     1     134.924 142.099 142.062  1.00  0.00    -0.023 C 
ATOM      7  C   UNL     1     134.220 140.683 142.084  1.00  0.00     0.010 C 
ATOM      8  C   UNL     1     133.145 140.408 141.010  1.00  0.00     0.036 C 
ATOM      9  C   UNL     1     132.418 141.674 140.484  1.00  0.00     0.065 C 
ATOM     10  C   UNL     1     133.387 142.911 140.475  1.00  0.00     0.027 C 
ATOM     11  C   UNL     1     133.843 143.156 141.949  1.00  0.00     0.014 C 
ATOM     12  C   UNL     1     134.758 142.768 139.681  1.00  0.00    -0.026 C 
ATOM     13  C   UNL     1     135.083 144.158 139.061  1.00  0.00     0.012 C 
ATOM     14  C   UNL     1     134.878 141.759 138.517  1.00  0.00     0.012 C 
ATOM     15  C   UNL     1     131.786 141.393 139.099  1.00  0.00     0.042 C 
ENDROOT
BRANCH   9  16
ATOM     16  O   UNL     1     131.354 141.938 141.375  1.00  0.00    -0.390 OA
ATOM     17  H   UNL     1     131.302 142.921 141.512  1.00  0.00     0.211 HD
ENDBRANCH   9  16
TORSDOF 1
ENDMDL
MODEL 2
REMARK VINA RESULT:    -4.335      8.044      9.503
REMARK INTER + INTRA:          -4.462
REMARK INTER:                  -4.462
REMARK INTRA:                   0.000
REMARK UNBOUND:                 0.000
REMARK SMILES C[C@H]1CC[C@H]2C(C)(C)[C@@H]3C[C@]12CC[C@@]3(C)O
REMARK SMILES IDX 1 1 2 2 3 3 4 4 5 5 11 6 12 7 13 8 14 9 9 10 10 11 6 12 7 13
REMARK SMILES IDX 8 14 15 15 16 16
REMARK H PARENT 16 17
REMARK Flexibility Score: inf
ROOT
ATOM      1  C   UNL     1     141.484 145.875 144.510  1.00  0.00     0.008 C 
ATOM      2  C   UNL     1     142.125 145.551 143.153  1.00  0.00    -0.008 C 
ATOM      3  C   UNL     1     141.430 144.360 142.416  1.00  0.00     0.004 C 
ATOM      4  C   UNL     1     141.492 144.674 140.894  1.00  0.00     0.005 C 
ATOM      5  C   UNL     1     142.458 145.839 140.865  1.00  0.00     0.001 C 
ATOM      6  C   UNL     1     142.086 146.669 142.086  1.00  0.00    -0.023 C 
ATOM      7  C   UNL     1     140.669 147.373 142.078  1.00  0.00     0.010 C 
ATOM      8  C   UNL     1     140.413 148.441 140.992  1.00  0.00     0.036 C 
ATOM      9  C   UNL     1     141.688 149.166 140.486  1.00  0.00     0.065 C 
ATOM     10  C   UNL     1     142.927 148.197 140.506  1.00  0.00     0.027 C 
ATOM     11  C   UNL     1     143.144 147.750 141.987  1.00  0.00     0.014 C 
ATOM     12  C   UNL     1     142.799 146.822 139.717  1.00  0.00    -0.026 C 
ATOM     13  C   UNL     1     144.200 146.494 139.125  1.00  0.00     0.012 C 
ATOM     14  C   UNL     1     141.811 146.694 138.535  1.00  0.00     0.012 C 
ATOM     15  C   UNL     1     141.433 149.789 139.092  1.00  0.00     0.042 C 
ENDROOT
BRANCH   9  16
ATOM     16  O   UNL     1     141.935 150.235 141.375  1.00  0.00    -0.390 OA
ATOM     17  H   UNL     1     141.323 150.981 141.139  1.00  0.00     0.211 HD
ENDBRANCH   9  16
TORSDOF 1
ENDMDL
MODEL 3
REMARK VINA RESULT:    -4.328     11.037     13.499
REMARK INTER + INTRA:          -4.455
REMARK INTER:                  -4.455
REMARK INTRA:                   0.000
REMARK UNBOUND:                 0.000
REMARK SMILES C[C@H]1CC[C@H]2C(C)(C)[C@@H]3C[C@]12CC[C@@]3(C)O
REMARK SMILES IDX 1 1 2 2 3 3 4 4 5 5 11 6 12 7 13 8 14 9 9 10 10 11 6 12 7 13
REMARK SMILES IDX 8 14 15 15 16 16
REMARK H PARENT 16 17
REMARK Flexibility Score: inf
ROOT
ATOM      1  C   UNL     1     145.894 140.098 144.453  1.00  0.00     0.008 C 
ATOM      2  C   UNL     1     145.590 139.457 143.092  1.00  0.00    -0.008 C 
ATOM      3  C   UNL     1     144.408 140.149 142.339  1.00  0.00     0.004 C 
ATOM      4  C   UNL     1     144.744 140.088 140.821  1.00  0.00     0.005 C 
ATOM      5  C   UNL     1     145.912 139.125 140.808  1.00  0.00     0.001 C 
ATOM      6  C   UNL     1     146.723 139.499 142.041  1.00  0.00    -0.023 C 
ATOM      7  C   UNL     1     147.424 140.917 142.043  1.00  0.00     0.010 C 
ATOM      8  C   UNL     1     148.506 141.176 140.972  1.00  0.00     0.036 C 
ATOM      9  C   UNL     1     149.242 139.902 140.476  1.00  0.00     0.065 C 
ATOM     10  C   UNL     1     148.276 138.662 140.482  1.00  0.00     0.027 C 
ATOM     11  C   UNL     1     147.808 138.444 141.957  1.00  0.00     0.014 C 
ATOM     12  C   UNL     1     146.911 138.786 139.674  1.00  0.00    -0.026 C 
ATOM     13  C   UNL     1     146.595 137.385 139.077  1.00  0.00     0.012 C 
ATOM     14  C   UNL     1     146.798 139.774 138.491  1.00  0.00     0.012 C 
ATOM     15  C   UNL     1     149.884 140.159 139.091  1.00  0.00     0.042 C 
ENDROOT
BRANCH   9  16
ATOM     16  O   UNL     1     150.298 139.658 141.380  1.00  0.00    -0.390 OA
ATOM     17  H   UNL     1     151.153 139.691 140.874  1.00  0.00     0.211 HD
ENDBRANCH   9  16
TORSDOF 1
ENDMDL
MODEL 4
REMARK VINA RESULT:    -4.314      8.015      9.472
REMARK INTER + INTRA:          -4.440
REMARK INTER:                  -4.440
REMARK INTRA:                   0.000
REMARK UNBOUND:                 0.000
REMARK SMILES C[C@H]1CC[C@H]2C(C)(C)[C@@H]3C[C@]12CC[C@@]3(C)O
REMARK SMILES IDX 1 1 2 2 3 3 4 4 5 5 11 6 12 7 13 8 14 9 9 10 10 11 6 12 7 13
REMARK SMILES IDX 8 14 15 15 16 16
REMARK H PARENT 16 17
REMARK Flexibility Score: inf
ROOT
ATOM      1  C   UNL     1     140.099 135.770 144.448  1.00  0.00     0.008 C 
ATOM      2  C   UNL     1     139.431 136.072 143.100  1.00  0.00    -0.008 C 
ATOM      3  C   UNL     1     140.078 137.283 142.352  1.00  0.00     0.004 C 
ATOM      4  C   UNL     1     140.006 136.965 140.831  1.00  0.00     0.005 C 
ATOM      5  C   UNL     1     139.077 135.769 140.817  1.00  0.00     0.001 C 
ATOM      6  C   UNL     1     139.491 134.954 142.034  1.00  0.00    -0.023 C 
ATOM      7  C   UNL     1     140.928 134.295 142.007  1.00  0.00     0.010 C 
ATOM      8  C   UNL     1     141.203 133.233 140.919  1.00  0.00     0.036 C 
ATOM      9  C   UNL     1     139.945 132.468 140.432  1.00  0.00     0.065 C 
ATOM     10  C   UNL     1     138.677 133.397 140.467  1.00  0.00     0.027 C 
ATOM     11  C   UNL     1     138.466 133.840 141.950  1.00  0.00     0.014 C 
ATOM     12  C   UNL     1     138.751 134.775 139.675  1.00  0.00    -0.026 C 
ATOM     13  C   UNL     1     137.333 135.058 139.101  1.00  0.00     0.012 C 
ATOM     14  C   UNL     1     139.719 134.931 138.480  1.00  0.00     0.012 C 
ATOM     15  C   UNL     1     140.201 131.850 139.035  1.00  0.00     0.042 C 
ENDROOT
BRANCH   9  16
ATOM     16  O   UNL     1     139.743 131.393 141.325  1.00  0.00    -0.390 OA
ATOM     17  H   UNL     1     140.304 131.550 142.130  1.00  0.00     0.211 HD
ENDBRANCH   9  16
TORSDOF 1
ENDMDL
MODEL 5
REMARK VINA RESULT:    -4.010      8.706     10.776
REMARK INTER + INTRA:          -4.128
REMARK INTER:                  -4.128
REMARK INTRA:                   0.000
REMARK UNBOUND:                 0.000
REMARK SMILES C[C@H]1CC[C@H]2C(C)(C)[C@@H]3C[C@]12CC[C@@]3(C)O
REMARK SMILES IDX 1 1 2 2 3 3 4 4 5 5 11 6 12 7 13 8 14 9 9 10 10 11 6 12 7 13
REMARK SMILES IDX 8 14 15 15 16 16
REMARK H PARENT 16 17
REMARK Flexibility Score: inf
ROOT
ATOM      1  C   UNL     1     143.503 151.124 137.643  1.00  0.00     0.008 C 
ATOM      2  C   UNL     1     142.195 150.670 138.306  1.00  0.00    -0.008 C 
ATOM      3  C   UNL     1     141.057 150.375 137.276  1.00  0.00     0.004 C 
ATOM      4  C   UNL     1     140.226 149.190 137.850  1.00  0.00     0.005 C 
ATOM      5  C   UNL     1     140.759 149.105 139.264  1.00  0.00     0.001 C 
ATOM      6  C   UNL     1     142.254 149.358 139.121  1.00  0.00    -0.023 C 
ATOM      7  C   UNL     1     143.101 148.268 138.349  1.00  0.00     0.010 C 
ATOM      8  C   UNL     1     143.168 146.853 138.966  1.00  0.00     0.036 C 
ATOM      9  C   UNL     1     142.995 146.812 140.508  1.00  0.00     0.065 C 
ATOM     10  C   UNL     1     142.019 147.946 140.990  1.00  0.00     0.027 C 
ATOM     11  C   UNL     1     142.657 149.313 140.582  1.00  0.00     0.014 C 
ATOM     12  C   UNL     1     140.571 148.001 140.335  1.00  0.00    -0.026 C 
ATOM     13  C   UNL     1     139.580 148.480 141.435  1.00  0.00     0.012 C 
ATOM     14  C   UNL     1     139.940 146.722 139.740  1.00  0.00     0.012 C 
ATOM     15  C   UNL     1     142.547 145.400 140.959  1.00  0.00     0.042 C 
ENDROOT
BRANCH   9  16
ATOM     16  O   UNL     1     144.269 147.039 141.073  1.00  0.00    -0.390 OA
ATOM     17  H   UNL     1     144.394 148.020 141.169  1.00  0.00     0.211 HD
ENDBRANCH   9  16
TORSDOF 1
ENDMDL
MODEL 6
REMARK VINA RESULT:    -4.010     12.269     14.548
REMARK INTER + INTRA:          -4.127
REMARK INTER:                  -4.127
REMARK INTRA:                   0.000
REMARK UNBOUND:                 0.000
REMARK SMILES C[C@H]1CC[C@H]2C(C)(C)[C@@H]3C[C@]12CC[C@@]3(C)O
REMARK SMILES IDX 1 1 2 2 3 3 4 4 5 5 11 6 12 7 13 8 14 9 9 10 10 11 6 12 7 13
REMARK SMILES IDX 8 14 15 15 16 16
REMARK H PARENT 16 17
REMARK Flexibility Score: inf
ROOT
ATOM      1  C   UNL     1     151.064 138.080 137.622  1.00  0.00     0.008 C 
ATOM      2  C   UNL     1     150.642 139.397 138.289  1.00  0.00    -0.008 C 
ATOM      3  C   UNL     1     150.349 140.538 137.261  1.00  0.00     0.004 C 
ATOM      4  C   UNL     1     149.188 141.388 137.850  1.00  0.00     0.005 C 
ATOM      5  C   UNL     1     149.115 140.860 139.267  1.00  0.00     0.001 C 
ATOM      6  C   UNL     1     149.341 139.361 139.123  1.00  0.00    -0.023 C 
ATOM      7  C   UNL     1     148.226 138.530 138.370  1.00  0.00     0.010 C 
ATOM      8  C   UNL     1     146.820 138.487 139.008  1.00  0.00     0.036 C 
ATOM      9  C   UNL     1     146.804 138.664 140.549  1.00  0.00     0.065 C 
ATOM     10  C   UNL     1     147.962 139.622 141.013  1.00  0.00     0.027 C 
ATOM     11  C   UNL     1     149.311 138.962 140.585  1.00  0.00     0.014 C 
ATOM     12  C   UNL     1     148.030 141.069 140.353  1.00  0.00    -0.026 C 
ATOM     13  C   UNL     1     148.542 142.053 141.444  1.00  0.00     0.012 C 
ATOM     14  C   UNL     1     146.753 141.719 139.776  1.00  0.00     0.012 C 
ATOM     15  C   UNL     1     145.406 139.136 141.020  1.00  0.00     0.042 C 
ENDROOT
BRANCH   9  16
ATOM     16  O   UNL     1     147.019 137.388 141.114  1.00  0.00    -0.390 OA
ATOM     17  H   UNL     1     147.675 136.905 140.545  1.00  0.00     0.211 HD
ENDBRANCH   9  16
TORSDOF 1
ENDMDL
MODEL 7
REMARK VINA RESULT:    -3.964      9.233     10.911
REMARK INTER + INTRA:          -4.080
REMARK INTER:                  -4.080
REMARK INTRA:                   0.000
REMARK UNBOUND:                 0.000
REMARK SMILES C[C@H]1CC[C@H]2C(C)(C)[C@@H]3C[C@]12CC[C@@]3(C)O
REMARK SMILES IDX 1 1 2 2 3 3 4 4 5 5 11 6 12 7 13 8 14 9 9 10 10 11 6 12 7 13
REMARK SMILES IDX 8 14 15 15 16 16
REMARK H PARENT 16 17
REMARK Flexibility Score: inf
ROOT
ATOM      1  C   UNL     1     138.025 130.890 137.263  1.00  0.00     0.008 C 
ATOM      2  C   UNL     1     139.322 131.178 138.032  1.00  0.00    -0.008 C 
ATOM      3  C   UNL     1     140.538 131.472 137.095  1.00  0.00     0.004 C 
ATOM      4  C   UNL     1     141.419 132.530 137.818  1.00  0.00     0.005 C 
ATOM      5  C   UNL     1     140.812 132.531 139.205  1.00  0.00     0.001 C 
ATOM      6  C   UNL     1     139.314 132.412 138.962  1.00  0.00    -0.023 C 
ATOM      7  C   UNL     1     138.598 133.631 138.254  1.00  0.00     0.010 C 
ATOM      8  C   UNL     1     138.600 134.986 138.996  1.00  0.00     0.036 C 
ATOM      9  C   UNL     1     138.686 134.875 140.541  1.00  0.00     0.065 C 
ATOM     10  C   UNL     1     139.544 133.628 140.965  1.00  0.00     0.027 C 
ATOM     11  C   UNL     1     138.831 132.359 140.398  1.00  0.00     0.014 C 
ATOM     12  C   UNL     1     141.020 133.516 140.382  1.00  0.00    -0.026 C 
ATOM     13  C   UNL     1     141.906 132.864 141.482  1.00  0.00     0.012 C 
ATOM     14  C   UNL     1     141.779 134.789 139.943  1.00  0.00     0.012 C 
ATOM     15  C   UNL     1     139.211 136.201 141.145  1.00  0.00     0.042 C 
ENDROOT
BRANCH   9  16
ATOM     16  O   UNL     1     137.368 134.701 141.016  1.00  0.00    -0.390 OA
ATOM     17  H   UNL     1     136.917 134.029 140.439  1.00  0.00     0.211 HD
ENDBRANCH   9  16
TORSDOF 1
ENDMDL
MODEL 8
REMARK VINA RESULT:    -3.857      7.816      9.730
REMARK INTER + INTRA:          -3.970
REMARK INTER:                  -3.970
REMARK INTRA:                   0.000
REMARK UNBOUND:                 0.000
REMARK SMILES C[C@H]1CC[C@H]2C(C)(C)[C@@H]3C[C@]12CC[C@@]3(C)O
REMARK SMILES IDX 1 1 2 2 3 3 4 4 5 5 11 6 12 7 13 8 14 9 9 10 10 11 6 12 7 13
REMARK SMILES IDX 8 14 15 15 16 16
REMARK H PARENT 16 17
REMARK Flexibility Score: inf
ROOT
ATOM      1  C   UNL     1     141.759 151.125 139.749  1.00  0.00     0.008 C 
ATOM      2  C   UNL     1     141.401 149.780 139.101  1.00  0.00    -0.008 C 
ATOM      3  C   UNL     1     142.391 149.364 137.965  1.00  0.00     0.004 C 
ATOM      4  C   UNL     1     142.515 147.814 138.020  1.00  0.00     0.005 C 
ATOM      5  C   UNL     1     141.385 147.454 138.962  1.00  0.00     0.001 C 
ATOM      6  C   UNL     1     141.419 148.542 140.026  1.00  0.00    -0.023 C 
ATOM      7  C   UNL     1     142.682 148.584 140.977  1.00  0.00     0.010 C 
ATOM      8  C   UNL     1     142.923 147.363 141.893  1.00  0.00     0.036 C 
ATOM      9  C   UNL     1     141.639 146.579 142.274  1.00  0.00     0.065 C 
ATOM     10  C   UNL     1     140.592 146.618 141.102  1.00  0.00     0.027 C 
ATOM     11  C   UNL     1     140.224 148.117 140.857  1.00  0.00     0.014 C 
ATOM     12  C   UNL     1     141.068 146.114 139.670  1.00  0.00    -0.026 C 
ATOM     13  C   UNL     1     139.851 145.420 138.994  1.00  0.00     0.012 C 
ATOM     14  C   UNL     1     142.235 145.108 139.552  1.00  0.00     0.012 C 
ATOM     15  C   UNL     1     142.001 145.138 142.710  1.00  0.00     0.042 C 
ENDROOT
BRANCH   9  16
ATOM     16  O   UNL     1     141.082 147.221 143.401  1.00  0.00    -0.390 OA
ATOM     17  H   UNL     1     141.759 147.211 144.129  1.00  0.00     0.211 HD
ENDBRANCH   9  16
TORSDOF 1
ENDMDL
MODEL 9
REMARK VINA RESULT:    -3.809     11.295     13.550
REMARK INTER + INTRA:          -3.920
REMARK INTER:                  -3.920
REMARK INTRA:                   0.000
REMARK UNBOUND:                 0.000
REMARK SMILES C[C@H]1CC[C@H]2C(C)(C)[C@@H]3C[C@]12CC[C@@]3(C)O
REMARK SMILES IDX 1 1 2 2 3 3 4 4 5 5 11 6 12 7 13 8 14 9 9 10 10 11 6 12 7 13
REMARK SMILES IDX 8 14 15 15 16 16
REMARK H PARENT 16 17
REMARK Flexibility Score: inf
ROOT
ATOM      1  C   UNL     1     151.125 139.878 139.548  1.00  0.00     0.008 C 
ATOM      2  C   UNL     1     149.786 140.298 138.926  1.00  0.00    -0.008 C 
ATOM      3  C   UNL     1     149.352 139.385 137.733  1.00  0.00     0.004 C 
ATOM      4  C   UNL     1     147.800 139.285 137.785  1.00  0.00     0.005 C 
ATOM      5  C   UNL     1     147.461 140.362 138.792  1.00  0.00     0.001 C 
ATOM      6  C   UNL     1     148.548 140.246 139.851  1.00  0.00    -0.023 C 
ATOM      7  C   UNL     1     148.569 138.927 140.725  1.00  0.00     0.010 C 
ATOM      8  C   UNL     1     147.345 138.654 141.626  1.00  0.00     0.036 C 
ATOM      9  C   UNL     1     146.584 139.925 142.085  1.00  0.00     0.065 C 
ATOM     10  C   UNL     1     146.641 141.040 140.978  1.00  0.00     0.027 C 
ATOM     11  C   UNL     1     148.145 141.396 140.753  1.00  0.00     0.014 C 
ATOM     12  C   UNL     1     146.127 140.659 139.521  1.00  0.00    -0.026 C 
ATOM     13  C   UNL     1     145.454 141.926 138.920  1.00  0.00     0.012 C 
ATOM     14  C   UNL     1     145.100 139.519 139.335  1.00  0.00     0.012 C 
ATOM     15  C   UNL     1     145.137 139.563 142.502  1.00  0.00     0.042 C 
ENDROOT
BRANCH   9  16
ATOM     16  O   UNL     1     147.237 140.403 143.242  1.00  0.00    -0.390 OA
ATOM     17  H   UNL     1     147.877 139.706 143.546  1.00  0.00     0.211 HD
ENDBRANCH   9  16
TORSDOF 1
ENDMDL
