MODEL 1
REMARK VINA RESULT:    -3.361      0.000      0.000
REMARK INTER + INTRA:          -3.932
REMARK INTER:                  -4.146
REMARK INTRA:                   0.214
REMARK UNBOUND:                 0.214
REMARK SMILES Oc1cc(O)c2cc(O)c(-c3cc(O)c(O)c(O)c3)[o+]c2c1
REMARK SMILES IDX 10 1 20 2 21 3 22 4 2 5 3 6 4 7 6 8 7 9 8 10 11 11 12 12
REMARK SMILES IDX 13 13 19 14 15 15 17 16 14 17 16 19 18 21 9 23 1 25 5 27
REMARK H PARENT 14 18 16 20 18 22 9 24 1 26 5 28
REMARK Flexibility Score: inf
ROOT
ATOM      1  C   UNL     1       6.716   5.324  13.327  1.00  0.00     0.402 A 
ATOM      2  O   UNL     1       6.455   5.626  14.596  1.00  0.00    -0.202 OA
ATOM      3  C   UNL     1       6.460   6.870  15.066  1.00  0.00     0.368 A 
ATOM      4  C   UNL     1       6.171   7.089  16.414  1.00  0.00     0.162 A 
ATOM      5  C   UNL     1       6.166   8.383  16.934  1.00  0.00     0.128 A 
ATOM      6  C   UNL     1       6.454   9.469  16.101  1.00  0.00     0.093 A 
ATOM      7  C   UNL     1       6.748   9.277  14.744  1.00  0.00     0.136 A 
ATOM      8  C   UNL     1       6.755   7.961  14.213  1.00  0.00     0.125 A 
ATOM      9  C   UNL     1       7.050   7.672  12.870  1.00  0.00     0.078 A 
ATOM     10  C   UNL     1       7.043   6.349  12.420  1.00  0.00     0.223 A 
ENDROOT
BRANCH   1  11
ATOM     11  C   UNL     1       6.668   3.900  12.922  1.00  0.00     0.091 A 
ATOM     12  C   UNL     1       7.041   2.875  13.808  1.00  0.00     0.068 A 
ATOM     13  C   UNL     1       7.010   1.533  13.400  1.00  0.00     0.162 A 
ATOM     14  C   UNL     1       6.295   3.567  11.610  1.00  0.00     0.068 A 
ATOM     15  C   UNL     1       6.614   1.210  12.091  1.00  0.00     0.200 A 
ATOM     16  C   UNL     1       6.260   2.228  11.198  1.00  0.00     0.162 A 
BRANCH  13  17
ATOM     17  O   UNL     1       7.376   0.523  14.287  1.00  0.00    -0.504 OA
ATOM     18  H   UNL     1       7.331   0.655  15.291  1.00  0.00     0.293 HD
ENDBRANCH  13  17
BRANCH  15  19
ATOM     19  O   UNL     1       6.570  -0.118  11.662  1.00  0.00    -0.502 OA
ATOM     20  H   UNL     1       5.697  -0.591  11.463  1.00  0.00     0.293 HD
ENDBRANCH  15  19
BRANCH  16  21
ATOM     21  O   UNL     1       5.875   1.903   9.897  1.00  0.00    -0.504 OA
ATOM     22  H   UNL     1       5.049   1.347   9.712  1.00  0.00     0.293 HD
ENDBRANCH  16  21
ENDBRANCH   1  11
BRANCH  10  23
ATOM     23  O   UNL     1       7.385   6.057  11.100  1.00  0.00    -0.500 OA
ATOM     24  H   UNL     1       6.734   5.605  10.468  1.00  0.00     0.294 HD
ENDBRANCH  10  23
BRANCH   5  25
ATOM     25  O   UNL     1       5.876   8.580  18.282  1.00  0.00    -0.507 OA
ATOM     26  H   UNL     1       5.185   8.016  18.764  1.00  0.00     0.293 HD
ENDBRANCH   5  25
BRANCH   7  27
ATOM     27  O   UNL     1       7.019  10.413  13.977  1.00  0.00    -0.507 OA
ATOM     28  H   UNL     1       6.328  11.100  13.711  1.00  0.00     0.293 HD
ENDBRANCH   7  27
TORSDOF 7
ENDMDL
MODEL 2
REMARK VINA RESULT:    -2.534      2.468      4.644
REMARK INTER + INTRA:          -2.912
REMARK INTER:                  -2.972
REMARK INTRA:                   0.060
REMARK UNBOUND:                 0.214
REMARK SMILES Oc1cc(O)c2cc(O)c(-c3cc(O)c(O)c(O)c3)[o+]c2c1
REMARK SMILES IDX 10 1 20 2 21 3 22 4 2 5 3 6 4 7 6 8 7 9 8 10 11 11 12 12
REMARK SMILES IDX 13 13 19 14 15 15 17 16 14 17 16 19 18 21 9 23 1 25 5 27
REMARK H PARENT 14 18 16 20 18 22 9 24 1 26 5 28
REMARK Flexibility Score: inf
ROOT
ATOM      1  C   UNL     1       6.764   1.447  13.054  1.00  0.00     0.402 A 
ATOM      2  O   UNL     1       7.192   2.401  12.231  1.00  0.00    -0.202 OA
ATOM      3  C   UNL     1       7.313   3.675  12.590  1.00  0.00     0.368 A 
ATOM      4  C   UNL     1       7.774   4.605  11.656  1.00  0.00     0.162 A 
ATOM      5  C   UNL     1       7.913   5.947  12.006  1.00  0.00     0.128 A 
ATOM      6  C   UNL     1       7.589   6.367  13.301  1.00  0.00     0.093 A 
ATOM      7  C   UNL     1       7.124   5.454  14.257  1.00  0.00     0.136 A 
ATOM      8  C   UNL     1       6.980   4.087  13.903  1.00  0.00     0.125 A 
ATOM      9  C   UNL     1       6.509   3.106  14.791  1.00  0.00     0.078 A 
ATOM     10  C   UNL     1       6.389   1.779  14.368  1.00  0.00     0.223 A 
ENDROOT
BRANCH   1  11
ATOM     11  C   UNL     1       6.684   0.061  12.538  1.00  0.00     0.091 A 
ATOM     12  C   UNL     1       7.020  -1.041  13.342  1.00  0.00     0.068 A 
ATOM     13  C   UNL     1       6.960  -2.344  12.829  1.00  0.00     0.162 A 
ATOM     14  C   UNL     1       6.318  -0.157  11.200  1.00  0.00     0.068 A 
ATOM     15  C   UNL     1       6.571  -2.553  11.494  1.00  0.00     0.200 A 
ATOM     16  C   UNL     1       6.253  -1.458  10.682  1.00  0.00     0.162 A 
BRANCH  13  17
ATOM     17  O   UNL     1       7.289  -3.431  13.636  1.00  0.00    -0.504 OA
ATOM     18  H   UNL     1       6.753  -3.658  14.466  1.00  0.00     0.293 HD
ENDBRANCH  13  17
BRANCH  15  19
ATOM     19  O   UNL     1       6.497  -3.840  10.962  1.00  0.00    -0.502 OA
ATOM     20  H   UNL     1       5.794  -4.507  11.258  1.00  0.00     0.293 HD
ENDBRANCH  15  19
BRANCH  16  21
ATOM     21  O   UNL     1       5.875  -1.668   9.356  1.00  0.00    -0.504 OA
ATOM     22  H   UNL     1       6.479  -2.156   8.704  1.00  0.00     0.293 HD
ENDBRANCH  16  21
ENDBRANCH   1  11
BRANCH  10  23
ATOM     23  O   UNL     1       5.875   0.813  15.233  1.00  0.00    -0.500 OA
ATOM     24  H   UNL     1       6.348  -0.070  15.388  1.00  0.00     0.294 HD
ENDBRANCH  10  23
BRANCH   5  25
ATOM     25  O   UNL     1       8.374   6.860  11.059  1.00  0.00    -0.507 OA
ATOM     26  H   UNL     1       7.871   7.027  10.196  1.00  0.00     0.293 HD
ENDBRANCH   5  25
BRANCH   7  27
ATOM     27  O   UNL     1       6.827   5.951  15.529  1.00  0.00    -0.507 OA
ATOM     28  H   UNL     1       7.170   6.828  15.894  1.00  0.00     0.293 HD
ENDBRANCH   7  27
TORSDOF 7
ENDMDL
MODEL 3
REMARK VINA RESULT:    -1.959      2.195      7.778
REMARK INTER + INTRA:          -2.203
REMARK INTER:                  -1.993
REMARK INTRA:                  -0.210
REMARK UNBOUND:                 0.214
REMARK SMILES Oc1cc(O)c2cc(O)c(-c3cc(O)c(O)c(O)c3)[o+]c2c1
REMARK SMILES IDX 10 1 20 2 21 3 22 4 2 5 3 6 4 7 6 8 7 9 8 10 11 11 12 12
REMARK SMILES IDX 13 13 19 14 15 15 17 16 14 17 16 19 18 21 9 23 1 25 5 27
REMARK H PARENT 14 18 16 20 18 22 9 24 1 26 5 28
REMARK Flexibility Score: inf
ROOT
ATOM      1  C   UNL     1       6.943   2.133  12.568  1.00  0.00     0.402 A 
ATOM      2  O   UNL     1       7.312   1.199  13.440  1.00  0.00    -0.202 OA
ATOM      3  C   UNL     1       7.159  -0.104  13.223  1.00  0.00     0.368 A 
ATOM      4  C   UNL     1       7.580  -1.010  14.198  1.00  0.00     0.162 A 
ATOM      5  C   UNL     1       7.435  -2.382  13.997  1.00  0.00     0.128 A 
ATOM      6  C   UNL     1       6.863  -2.855  12.811  1.00  0.00     0.093 A 
ATOM      7  C   UNL     1       6.431  -1.967  11.817  1.00  0.00     0.136 A 
ATOM      8  C   UNL     1       6.576  -0.570  12.020  1.00  0.00     0.125 A 
ATOM      9  C   UNL     1       6.161   0.393  11.085  1.00  0.00     0.078 A 
ATOM     10  C   UNL     1       6.332   1.753  11.358  1.00  0.00     0.223 A 
ENDROOT
BRANCH   1  11
ATOM     11  C   UNL     1       7.177   3.552  12.921  1.00  0.00     0.091 A 
ATOM     12  C   UNL     1       7.989   4.380  12.127  1.00  0.00     0.068 A 
ATOM     13  C   UNL     1       8.217   5.715  12.490  1.00  0.00     0.162 A 
ATOM     14  C   UNL     1       6.623   4.070  14.102  1.00  0.00     0.068 A 
ATOM     15  C   UNL     1       7.639   6.230  13.663  1.00  0.00     0.200 A 
ATOM     16  C   UNL     1       6.845   5.404  14.468  1.00  0.00     0.162 A 
BRANCH  13  17
ATOM     17  O   UNL     1       9.019   6.530  11.693  1.00  0.00    -0.504 OA
ATOM     18  H   UNL     1       9.895   6.909  12.033  1.00  0.00     0.293 HD
ENDBRANCH  13  17
BRANCH  15  19
ATOM     19  O   UNL     1       7.847   7.556  14.042  1.00  0.00    -0.502 OA
ATOM     20  H   UNL     1       7.294   8.317  13.667  1.00  0.00     0.293 HD
ENDBRANCH  15  19
BRANCH  16  21
ATOM     21  O   UNL     1       6.280   5.917  15.636  1.00  0.00    -0.504 OA
ATOM     22  H   UNL     1       6.617   6.775  16.056  1.00  0.00     0.293 HD
ENDBRANCH  16  21
ENDBRANCH   1  11
BRANCH  10  23
ATOM     23  O   UNL     1       5.875   2.711  10.453  1.00  0.00    -0.500 OA
ATOM     24  H   UNL     1       5.782   2.509   9.465  1.00  0.00     0.294 HD
ENDBRANCH  10  23
BRANCH   5  25
ATOM     25  O   UNL     1       7.861  -3.270  14.982  1.00  0.00    -0.507 OA
ATOM     26  H   UNL     1       8.471  -4.050  14.765  1.00  0.00     0.293 HD
ENDBRANCH   5  25
BRANCH   7  27
ATOM     27  O   UNL     1       5.875  -2.518  10.659  1.00  0.00    -0.507 OA
ATOM     28  H   UNL     1       5.183  -3.254  10.653  1.00  0.00     0.293 HD
ENDBRANCH   7  27
TORSDOF 7
ENDMDL
MODEL 4
REMARK VINA RESULT:    -1.557      1.869      3.454
REMARK INTER + INTRA:          -1.707
REMARK INTER:                  -2.083
REMARK INTRA:                   0.376
REMARK UNBOUND:                 0.214
REMARK SMILES Oc1cc(O)c2cc(O)c(-c3cc(O)c(O)c(O)c3)[o+]c2c1
REMARK SMILES IDX 10 1 20 2 21 3 22 4 2 5 3 6 4 7 6 8 7 9 8 10 11 11 12 12
REMARK SMILES IDX 13 13 19 14 15 15 17 16 14 17 16 19 18 21 9 23 1 25 5 27
REMARK H PARENT 14 18 16 20 18 22 9 24 1 26 5 28
REMARK Flexibility Score: inf
ROOT
ATOM      1  C   UNL     1       6.394   2.582  12.617  1.00  0.00     0.402 A 
ATOM      2  O   UNL     1       6.619   3.182  13.783  1.00  0.00    -0.202 OA
ATOM      3  C   UNL     1       6.731   4.500  13.916  1.00  0.00     0.368 A 
ATOM      4  C   UNL     1       6.965   5.038  15.183  1.00  0.00     0.162 A 
ATOM      5  C   UNL     1       7.083   6.417  15.353  1.00  0.00     0.128 A 
ATOM      6  C   UNL     1       6.967   7.268  14.249  1.00  0.00     0.093 A 
ATOM      7  C   UNL     1       6.732   6.754  12.967  1.00  0.00     0.136 A 
ATOM      8  C   UNL     1       6.613   5.350  12.790  1.00  0.00     0.125 A 
ATOM      9  C   UNL     1       6.390   4.746  11.542  1.00  0.00     0.078 A 
ATOM     10  C   UNL     1       6.290   3.355  11.445  1.00  0.00     0.223 A 
ENDROOT
BRANCH   1  11
ATOM     11  C   UNL     1       6.279   1.106  12.600  1.00  0.00     0.091 A 
ATOM     12  C   UNL     1       6.238   0.389  11.392  1.00  0.00     0.068 A 
ATOM     13  C   UNL     1       6.106  -1.008  11.396  1.00  0.00     0.162 A 
ATOM     14  C   UNL     1       6.151   0.410  13.812  1.00  0.00     0.068 A 
ATOM     15  C   UNL     1       6.002  -1.697  12.616  1.00  0.00     0.200 A 
ATOM     16  C   UNL     1       6.022  -0.986  13.822  1.00  0.00     0.162 A 
BRANCH  13  17
ATOM     17  O   UNL     1       6.073  -1.711  10.193  1.00  0.00    -0.504 OA
ATOM     18  H   UNL     1       6.892  -2.188   9.834  1.00  0.00     0.293 HD
ENDBRANCH  13  17
BRANCH  15  19
ATOM     19  O   UNL     1       5.875  -3.086  12.646  1.00  0.00    -0.502 OA
ATOM     20  H   UNL     1       6.614  -3.702  12.328  1.00  0.00     0.293 HD
ENDBRANCH  15  19
BRANCH  16  21
ATOM     21  O   UNL     1       5.910  -1.673  15.030  1.00  0.00    -0.504 OA
ATOM     22  H   UNL     1       6.264  -1.284  15.896  1.00  0.00     0.293 HD
ENDBRANCH  16  21
ENDBRANCH   1  11
BRANCH  10  23
ATOM     23  O   UNL     1       6.119   2.751  10.200  1.00  0.00    -0.500 OA
ATOM     24  H   UNL     1       5.371   3.024   9.573  1.00  0.00     0.294 HD
ENDBRANCH  10  23
BRANCH   5  25
ATOM     25  O   UNL     1       7.318   6.935  16.625  1.00  0.00    -0.507 OA
ATOM     26  H   UNL     1       6.615   6.889  17.354  1.00  0.00     0.293 HD
ENDBRANCH   5  25
BRANCH   7  27
ATOM     27  O   UNL     1       6.623   7.669  11.916  1.00  0.00    -0.507 OA
ATOM     28  H   UNL     1       7.091   8.563  11.888  1.00  0.00     0.293 HD
ENDBRANCH   7  27
TORSDOF 7
ENDMDL
MODEL 5
REMARK VINA RESULT:    -1.531      1.861      3.002
REMARK INTER + INTRA:          -1.675
REMARK INTER:                  -2.127
REMARK INTRA:                   0.452
REMARK UNBOUND:                 0.214
REMARK SMILES Oc1cc(O)c2cc(O)c(-c3cc(O)c(O)c(O)c3)[o+]c2c1
REMARK SMILES IDX 10 1 20 2 21 3 22 4 2 5 3 6 4 7 6 8 7 9 8 10 11 11 12 12
REMARK SMILES IDX 13 13 19 14 15 15 17 16 14 17 16 19 18 21 9 23 1 25 5 27
REMARK H PARENT 14 18 16 20 18 22 9 24 1 26 5 28
REMARK Flexibility Score: inf
ROOT
ATOM      1  C   UNL     1       6.328   2.592  12.552  1.00  0.00     0.402 A 
ATOM      2  O   UNL     1       6.520   3.184  13.728  1.00  0.00    -0.202 OA
ATOM      3  C   UNL     1       6.648   4.499  13.871  1.00  0.00     0.368 A 
ATOM      4  C   UNL     1       6.845   5.030  15.147  1.00  0.00     0.162 A 
ATOM      5  C   UNL     1       6.979   6.406  15.327  1.00  0.00     0.128 A 
ATOM      6  C   UNL     1       6.915   7.262  14.223  1.00  0.00     0.093 A 
ATOM      7  C   UNL     1       6.719   6.756  12.931  1.00  0.00     0.136 A 
ATOM      8  C   UNL     1       6.584   5.355  12.745  1.00  0.00     0.125 A 
ATOM      9  C   UNL     1       6.397   4.759  11.487  1.00  0.00     0.078 A 
ATOM     10  C   UNL     1       6.278   3.370  11.381  1.00  0.00     0.223 A 
ENDROOT
BRANCH   1  11
ATOM     11  C   UNL     1       6.190   1.118  12.526  1.00  0.00     0.091 A 
ATOM     12  C   UNL     1       6.105   0.369  13.712  1.00  0.00     0.068 A 
ATOM     13  C   UNL     1       5.998  -1.029  13.667  1.00  0.00     0.162 A 
ATOM     14  C   UNL     1       6.200   0.446  11.293  1.00  0.00     0.068 A 
ATOM     15  C   UNL     1       5.986  -1.690  12.426  1.00  0.00     0.200 A 
ATOM     16  C   UNL     1       6.091  -0.951  11.242  1.00  0.00     0.162 A 
BRANCH  13  17
ATOM     17  O   UNL     1       5.908  -1.763  14.848  1.00  0.00    -0.504 OA
ATOM     18  H   UNL     1       6.644  -2.398  15.136  1.00  0.00     0.293 HD
ENDBRANCH  13  17
BRANCH  15  19
ATOM     19  O   UNL     1       5.875  -3.079  12.355  1.00  0.00    -0.502 OA
ATOM     20  H   UNL     1       4.978  -3.549  12.365  1.00  0.00     0.293 HD
ENDBRANCH  15  19
BRANCH  16  21
ATOM     21  O   UNL     1       6.086  -1.611  10.014  1.00  0.00    -0.504 OA
ATOM     22  H   UNL     1       6.408  -2.568   9.925  1.00  0.00     0.293 HD
ENDBRANCH  16  21
ENDBRANCH   1  11
BRANCH  10  23
ATOM     23  O   UNL     1       6.143   2.773  10.128  1.00  0.00    -0.500 OA
ATOM     24  H   UNL     1       5.509   3.141   9.428  1.00  0.00     0.294 HD
ENDBRANCH  10  23
BRANCH   5  25
ATOM     25  O   UNL     1       7.175   6.915  16.609  1.00  0.00    -0.507 OA
ATOM     26  H   UNL     1       7.412   7.888  16.762  1.00  0.00     0.293 HD
ENDBRANCH   5  25
BRANCH   7  27
ATOM     27  O   UNL     1       6.662   7.676  11.881  1.00  0.00    -0.507 OA
ATOM     28  H   UNL     1       6.010   8.446  11.831  1.00  0.00     0.293 HD
ENDBRANCH   7  27
TORSDOF 7
ENDMDL
