MODEL 1
REMARK VINA RESULT:    -4.294      0.000      0.000
REMARK INTER + INTRA:          -4.704
REMARK INTER:                  -4.545
REMARK INTRA:                  -0.159
REMARK UNBOUND:                -0.159
REMARK SMILES C=C(C)[C@H]1CC=C(C)CC1
REMARK SMILES IDX 8 1 7 2 6 3 5 4 4 5 10 6 9 7 2 8 1 9 3 10
REMARK H PARENT
REMARK Flexibility Score: inf
ROOT
ATOM      1  C   UNL     1     165.232 161.968 196.009  1.00  0.00     0.039 C 
ATOM      2  C   UNL     1     165.739 162.355 197.370  1.00  0.00    -0.077 C 
ATOM      3  C   UNL     1     165.160 161.855 198.475  1.00  0.00    -0.027 C 
ATOM      4  C   UNL     1     165.714 162.214 199.825  1.00  0.00     0.035 C 
ATOM      5  C   UNL     1     167.257 162.086 199.822  1.00  0.00     0.018 C 
ATOM      6  C   UNL     1     167.931 162.688 198.545  1.00  0.00     0.013 C 
ATOM      7  C   UNL     1     166.928 163.273 197.532  1.00  0.00     0.031 C 
ENDROOT
BRANCH   5   8
ATOM      8  C   UNL     1     167.848 162.663 201.101  1.00  0.00    -0.077 C 
ATOM      9  C   UNL     1     167.457 162.213 202.306  1.00  0.00     0.008 C 
ATOM     10  C   UNL     1     168.887 163.753 201.038  1.00  0.00     0.039 C 
ENDBRANCH   5   8
TORSDOF 1
ENDMDL
MODEL 2
REMARK VINA RESULT:    -4.279      6.847      7.654
REMARK INTER + INTRA:          -4.687
REMARK INTER:                  -4.529
REMARK INTRA:                  -0.159
REMARK UNBOUND:                -0.159
REMARK SMILES C=C(C)[C@H]1CC=C(C)CC1
REMARK SMILES IDX 8 1 7 2 6 3 5 4 4 5 10 6 9 7 2 8 1 9 3 10
REMARK H PARENT
REMARK Flexibility Score: inf
ROOT
ATOM      1  C   UNL     1     166.776 170.009 196.037  1.00  0.00     0.039 C 
ATOM      2  C   UNL     1     166.295 169.638 197.412  1.00  0.00    -0.077 C 
ATOM      3  C   UNL     1     166.895 170.148 198.500  1.00  0.00    -0.027 C 
ATOM      4  C   UNL     1     166.366 169.805 199.865  1.00  0.00     0.035 C 
ATOM      5  C   UNL     1     164.824 169.936 199.890  1.00  0.00     0.018 C 
ATOM      6  C   UNL     1     164.124 169.323 198.632  1.00  0.00     0.013 C 
ATOM      7  C   UNL     1     165.107 168.724 197.607  1.00  0.00     0.031 C 
ENDROOT
BRANCH   5   8
ATOM      8  C   UNL     1     164.255 169.375 201.186  1.00  0.00    -0.077 C 
ATOM      9  C   UNL     1     164.655 169.851 202.378  1.00  0.00     0.008 C 
ATOM     10  C   UNL     1     163.230 168.271 201.154  1.00  0.00     0.039 C 
ENDBRANCH   5   8
TORSDOF 1
ENDMDL
MODEL 3
REMARK VINA RESULT:    -4.150      4.624      5.624
REMARK INTER + INTRA:          -4.551
REMARK INTER:                  -4.392
REMARK INTRA:                  -0.160
REMARK UNBOUND:                -0.159
REMARK SMILES C=C(C)[C@H]1CC=C(C)CC1
REMARK SMILES IDX 8 1 7 2 6 3 5 4 4 5 10 6 9 7 2 8 1 9 3 10
REMARK H PARENT
REMARK Flexibility Score: inf
ROOT
ATOM      1  C   UNL     1     163.695 161.993 198.881  1.00  0.00     0.039 C 
ATOM      2  C   UNL     1     163.712 163.454 199.236  1.00  0.00    -0.077 C 
ATOM      3  C   UNL     1     163.735 164.386 198.269  1.00  0.00    -0.027 C 
ATOM      4  C   UNL     1     163.700 165.841 198.643  1.00  0.00     0.035 C 
ATOM      5  C   UNL     1     162.614 166.090 199.718  1.00  0.00     0.018 C 
ATOM      6  C   UNL     1     162.603 165.016 200.856  1.00  0.00     0.013 C 
ATOM      7  C   UNL     1     163.661 163.911 200.675  1.00  0.00     0.031 C 
ENDROOT
BRANCH   5   8
ATOM      8  C   UNL     1     162.719 167.504 200.274  1.00  0.00    -0.077 C 
ATOM      9  C   UNL     1     162.238 168.554 199.585  1.00  0.00     0.008 C 
ATOM     10  C   UNL     1     163.368 167.752 201.611  1.00  0.00     0.039 C 
ENDBRANCH   5   8
TORSDOF 1
ENDMDL
MODEL 4
REMARK VINA RESULT:    -4.150      3.833      5.489
REMARK INTER + INTRA:          -4.551
REMARK INTER:                  -4.392
REMARK INTRA:                  -0.159
REMARK UNBOUND:                -0.159
REMARK SMILES C=C(C)[C@H]1CC=C(C)CC1
REMARK SMILES IDX 8 1 7 2 6 3 5 4 4 5 10 6 9 7 2 8 1 9 3 10
REMARK H PARENT
REMARK Flexibility Score: inf
ROOT
ATOM      1  C   UNL     1     168.280 170.038 198.893  1.00  0.00     0.039 C 
ATOM      2  C   UNL     1     168.276 168.570 199.215  1.00  0.00    -0.077 C 
ATOM      3  C   UNL     1     168.341 167.660 198.229  1.00  0.00    -0.027 C 
ATOM      4  C   UNL     1     168.387 166.199 198.575  1.00  0.00     0.035 C 
ATOM      5  C   UNL     1     169.404 165.950 199.715  1.00  0.00     0.018 C 
ATOM      6  C   UNL     1     169.312 166.998 200.873  1.00  0.00     0.013 C 
ATOM      7  C   UNL     1     168.241 168.082 200.645  1.00  0.00     0.031 C 
ENDROOT
BRANCH   5   8
ATOM      8  C   UNL     1     169.296 164.522 200.232  1.00  0.00    -0.077 C 
ATOM      9  C   UNL     1     169.777 163.491 199.516  1.00  0.00     0.008 C 
ATOM     10  C   UNL     1     168.646 164.239 201.562  1.00  0.00     0.039 C 
ENDBRANCH   5   8
TORSDOF 1
ENDMDL
MODEL 5
REMARK VINA RESULT:    -4.109      6.601      7.319
REMARK INTER + INTRA:          -4.508
REMARK INTER:                  -4.349
REMARK INTRA:                  -0.159
REMARK UNBOUND:                -0.159
REMARK SMILES C=C(C)[C@H]1CC=C(C)CC1
REMARK SMILES IDX 8 1 7 2 6 3 5 4 4 5 10 6 9 7 2 8 1 9 3 10
REMARK H PARENT
REMARK Flexibility Score: inf
ROOT
ATOM      1  C   UNL     1     161.918 168.736 199.518  1.00  0.00     0.039 C 
ATOM      2  C   UNL     1     163.420 168.706 199.472  1.00  0.00    -0.077 C 
ATOM      3  C   UNL     1     164.067 168.943 198.319  1.00  0.00    -0.027 C 
ATOM      4  C   UNL     1     165.570 168.959 198.304  1.00  0.00     0.035 C 
ATOM      5  C   UNL     1     166.108 169.786 199.497  1.00  0.00     0.018 C 
ATOM      6  C   UNL     1     165.368 169.493 200.844  1.00  0.00     0.013 C 
ATOM      7  C   UNL     1     164.238 168.453 200.717  1.00  0.00     0.031 C 
ENDROOT
BRANCH   5   8
ATOM      8  C   UNL     1     167.616 169.622 199.631  1.00  0.00    -0.077 C 
ATOM      9  C   UNL     1     168.444 170.044 198.659  1.00  0.00     0.008 C 
ATOM     10  C   UNL     1     168.208 168.982 200.859  1.00  0.00     0.039 C 
ENDBRANCH   5   8
TORSDOF 1
ENDMDL
MODEL 6
REMARK VINA RESULT:    -4.101      1.364      4.705
REMARK INTER + INTRA:          -4.499
REMARK INTER:                  -4.341
REMARK INTRA:                  -0.158
REMARK UNBOUND:                -0.159
REMARK SMILES C=C(C)[C@H]1CC=C(C)CC1
REMARK SMILES IDX 8 1 7 2 6 3 5 4 4 5 10 6 9 7 2 8 1 9 3 10
REMARK H PARENT
REMARK Flexibility Score: inf
ROOT
ATOM      1  C   UNL     1     167.454 162.263 202.911  1.00  0.00     0.039 C 
ATOM      2  C   UNL     1     166.798 162.525 201.583  1.00  0.00    -0.077 C 
ATOM      3  C   UNL     1     167.290 161.969 200.464  1.00  0.00    -0.027 C 
ATOM      4  C   UNL     1     166.590 162.203 199.155  1.00  0.00     0.035 C 
ATOM      5  C   UNL     1     165.063 162.011 199.322  1.00  0.00     0.018 C 
ATOM      6  C   UNL     1     164.488 162.677 200.616  1.00  0.00     0.013 C 
ATOM      7  C   UNL     1     165.556 163.378 201.478  1.00  0.00     0.031 C 
ENDROOT
BRANCH   5   8
ATOM      8  C   UNL     1     164.321 162.465 198.072  1.00  0.00    -0.077 C 
ATOM      9  C   UNL     1     164.826 162.231 196.848  1.00  0.00     0.008 C 
ATOM     10  C   UNL     1     163.004 163.188 198.187  1.00  0.00     0.039 C 
ENDBRANCH   5   8
TORSDOF 1
ENDMDL
MODEL 7
REMARK VINA RESULT:    -4.099      6.693      7.984
REMARK INTER + INTRA:          -4.498
REMARK INTER:                  -4.340
REMARK INTRA:                  -0.158
REMARK UNBOUND:                -0.159
REMARK SMILES C=C(C)[C@H]1CC=C(C)CC1
REMARK SMILES IDX 8 1 7 2 6 3 5 4 4 5 10 6 9 7 2 8 1 9 3 10
REMARK H PARENT
REMARK Flexibility Score: inf
ROOT
ATOM      1  C   UNL     1     164.569 169.726 202.919  1.00  0.00     0.039 C 
ATOM      2  C   UNL     1     165.221 169.465 201.590  1.00  0.00    -0.077 C 
ATOM      3  C   UNL     1     164.735 170.033 200.474  1.00  0.00    -0.027 C 
ATOM      4  C   UNL     1     165.432 169.801 199.163  1.00  0.00     0.035 C 
ATOM      5  C   UNL     1     166.961 169.976 199.332  1.00  0.00     0.018 C 
ATOM      6  C   UNL     1     167.529 169.295 200.621  1.00  0.00     0.013 C 
ATOM      7  C   UNL     1     166.455 168.600 201.479  1.00  0.00     0.031 C 
ENDROOT
BRANCH   5   8
ATOM      8  C   UNL     1     167.697 169.522 198.079  1.00  0.00    -0.077 C 
ATOM      9  C   UNL     1     167.180 169.742 196.857  1.00  0.00     0.008 C 
ATOM     10  C   UNL     1     169.023 168.814 198.187  1.00  0.00     0.039 C 
ENDBRANCH   5   8
TORSDOF 1
ENDMDL
MODEL 8
REMARK VINA RESULT:    -4.066      6.863      7.685
REMARK INTER + INTRA:          -4.462
REMARK INTER:                  -4.300
REMARK INTRA:                  -0.162
REMARK UNBOUND:                -0.159
REMARK SMILES C=C(C)[C@H]1CC=C(C)CC1
REMARK SMILES IDX 8 1 7 2 6 3 5 4 4 5 10 6 9 7 2 8 1 9 3 10
REMARK H PARENT
REMARK Flexibility Score: inf
ROOT
ATOM      1  C   UNL     1     167.519 170.311 197.802  1.00  0.00     0.039 C 
ATOM      2  C   UNL     1     166.724 169.715 198.930  1.00  0.00    -0.077 C 
ATOM      3  C   UNL     1     167.295 169.515 200.129  1.00  0.00    -0.027 C 
ATOM      4  C   UNL     1     166.469 168.965 201.258  1.00  0.00     0.035 C 
ATOM      5  C   UNL     1     165.110 169.702 201.335  1.00  0.00     0.018 C 
ATOM      6  C   UNL     1     164.436 169.916 199.939  1.00  0.00     0.013 C 
ATOM      7  C   UNL     1     165.263 169.368 198.761  1.00  0.00     0.031 C 
ENDROOT
BRANCH   5   8
ATOM      8  C   UNL     1     164.175 169.009 202.316  1.00  0.00    -0.077 C 
ATOM      9  C   UNL     1     163.435 167.952 201.936  1.00  0.00     0.008 C 
ATOM     10  C   UNL     1     164.062 169.497 203.737  1.00  0.00     0.039 C 
ENDBRANCH   5   8
TORSDOF 1
ENDMDL
MODEL 9
REMARK VINA RESULT:    -4.049      1.517      2.037
REMARK INTER + INTRA:          -4.444
REMARK INTER:                  -4.284
REMARK INTRA:                  -0.161
REMARK UNBOUND:                -0.159
REMARK SMILES C=C(C)[C@H]1CC=C(C)CC1
REMARK SMILES IDX 8 1 7 2 6 3 5 4 4 5 10 6 9 7 2 8 1 9 3 10
REMARK H PARENT
REMARK Flexibility Score: inf
ROOT
ATOM      1  C   UNL     1     163.377 161.878 198.765  1.00  0.00     0.039 C 
ATOM      2  C   UNL     1     164.556 162.463 199.492  1.00  0.00    -0.077 C 
ATOM      3  C   UNL     1     164.399 163.009 200.708  1.00  0.00    -0.027 C 
ATOM      4  C   UNL     1     165.599 163.543 201.439  1.00  0.00     0.035 C 
ATOM      5  C   UNL     1     166.767 162.530 201.362  1.00  0.00     0.018 C 
ATOM      6  C   UNL     1     166.963 161.910 199.938  1.00  0.00     0.013 C 
ATOM      7  C   UNL     1     165.945 162.415 198.897  1.00  0.00     0.031 C 
ENDROOT
BRANCH   5   8
ATOM      8  C   UNL     1     168.053 163.147 201.893  1.00  0.00    -0.077 C 
ATOM      9  C   UNL     1     168.325 163.148 203.210  1.00  0.00     0.008 C 
ATOM     10  C   UNL     1     169.048 163.771 200.948  1.00  0.00     0.039 C 
ENDBRANCH   5   8
TORSDOF 1
ENDMDL
