MODEL 1
REMARK VINA RESULT:    -2.802      0.000      0.000
REMARK INTER + INTRA:          -2.802
REMARK INTER:                  -2.802
REMARK INTRA:                   0.000
REMARK UNBOUND:                 0.000
REMARK SMILES CC(=O)[O-]
REMARK SMILES IDX 1 1 2 2 3 3 4 4
REMARK H PARENT
REMARK Flexibility Score: inf
ROOT
ATOM      1  C   UNL     1      19.946   4.254   2.340  1.00  0.00     0.063 C 
ATOM      2  C   UNL     1      20.952   4.250   1.238  1.00  0.00     0.038 C 
ATOM      3  O   UNL     1      20.625   4.633   0.084  1.00  0.00    -0.550 OA
ATOM      4  O   UNL     1      22.264   3.875   1.494  1.00  0.00    -0.550 OA
ENDROOT
TORSDOF 0
ENDMDL
MODEL 2
REMARK VINA RESULT:    -2.757      0.353      1.650
REMARK INTER + INTRA:          -2.757
REMARK INTER:                  -2.757
REMARK INTRA:                   0.000
REMARK UNBOUND:                 0.000
REMARK SMILES CC(=O)[O-]
REMARK SMILES IDX 1 1 2 2 3 3 4 4
REMARK H PARENT
REMARK Flexibility Score: inf
ROOT
ATOM      1  C   UNL     1      20.373   4.229   2.741  1.00  0.00     0.063 C 
ATOM      2  C   UNL     1      21.138   4.218   1.461  1.00  0.00     0.038 C 
ATOM      3  O   UNL     1      22.352   3.883   1.454  1.00  0.00    -0.550 OA
ATOM      4  O   UNL     1      20.501   4.524   0.266  1.00  0.00    -0.550 OA
ENDROOT
TORSDOF 0
ENDMDL
MODEL 3
REMARK VINA RESULT:    -2.740     16.146     16.487
REMARK INTER + INTRA:          -2.740
REMARK INTER:                  -2.740
REMARK INTRA:                   0.000
REMARK UNBOUND:                 0.000
REMARK SMILES CC(=O)[O-]
REMARK SMILES IDX 1 1 2 2 3 3 4 4
REMARK H PARENT
REMARK Flexibility Score: inf
ROOT
ATOM      1  C   UNL     1      16.377  20.768  -0.742  1.00  0.00     0.063 C 
ATOM      2  C   UNL     1      16.440  19.967   0.514  1.00  0.00     0.038 C 
ATOM      3  O   UNL     1      16.456  20.546   1.632  1.00  0.00    -0.550 OA
ATOM      4  O   UNL     1      16.425  18.579   0.457  1.00  0.00    -0.550 OA
ENDROOT
TORSDOF 0
ENDMDL
MODEL 4
REMARK VINA RESULT:    -2.735     15.459     15.663
REMARK INTER + INTRA:          -2.735
REMARK INTER:                  -2.735
REMARK INTRA:                   0.000
REMARK UNBOUND:                 0.000
REMARK SMILES CC(=O)[O-]
REMARK SMILES IDX 1 1 2 2 3 3 4 4
REMARK H PARENT
REMARK Flexibility Score: inf
ROOT
ATOM      1  C   UNL     1      14.437  18.867   1.669  1.00  0.00     0.063 C 
ATOM      2  C   UNL     1      15.250  18.800   0.420  1.00  0.00     0.038 C 
ATOM      3  O   UNL     1      14.680  18.772  -0.702  1.00  0.00    -0.550 OA
ATOM      4  O   UNL     1      16.636  18.825   0.489  1.00  0.00    -0.550 OA
ENDROOT
TORSDOF 0
ENDMDL
MODEL 5
REMARK VINA RESULT:    -2.727     18.388     18.799
REMARK INTER + INTRA:          -2.727
REMARK INTER:                  -2.727
REMARK INTRA:                   0.000
REMARK UNBOUND:                 0.000
REMARK SMILES CC(=O)[O-]
REMARK SMILES IDX 1 1 2 2 3 3 4 4
REMARK H PARENT
REMARK Flexibility Score: inf
ROOT
ATOM      1  C   UNL     1      30.421  16.204  -7.788  1.00  0.00     0.063 C 
ATOM      2  C   UNL     1      30.021  17.136  -8.882  1.00  0.00     0.038 C 
ATOM      3  O   UNL     1      29.156  18.025  -8.668  1.00  0.00    -0.550 OA
ATOM      4  O   UNL     1      30.641  17.061 -10.122  1.00  0.00    -0.550 OA
ENDROOT
TORSDOF 0
ENDMDL
MODEL 6
REMARK VINA RESULT:    -2.634     13.860     14.240
REMARK INTER + INTRA:          -2.634
REMARK INTER:                  -2.634
REMARK INTRA:                   0.000
REMARK UNBOUND:                 0.000
REMARK SMILES CC(=O)[O-]
REMARK SMILES IDX 1 1 2 2 3 3 4 4
REMARK H PARENT
REMARK Flexibility Score: inf
ROOT
ATOM      1  C   UNL     1      30.934  14.957  -1.664  1.00  0.00     0.063 C 
ATOM      2  C   UNL     1      30.839  14.166  -0.403  1.00  0.00     0.038 C 
ATOM      3  O   UNL     1      30.676  14.752   0.699  1.00  0.00    -0.550 OA
ATOM      4  O   UNL     1      30.877  12.778  -0.446  1.00  0.00    -0.550 OA
ENDROOT
TORSDOF 0
ENDMDL
MODEL 7
REMARK VINA RESULT:    -2.589      8.231      8.674
REMARK INTER + INTRA:          -2.589
REMARK INTER:                  -2.589
REMARK INTRA:                   0.000
REMARK UNBOUND:                 0.000
REMARK SMILES CC(=O)[O-]
REMARK SMILES IDX 1 1 2 2 3 3 4 4
REMARK H PARENT
REMARK Flexibility Score: inf
ROOT
ATOM      1  C   UNL     1      19.472   5.468   8.527  1.00  0.00     0.063 C 
ATOM      2  C   UNL     1      18.185   5.089   9.179  1.00  0.00     0.038 C 
ATOM      3  O   UNL     1      17.890   3.875   9.334  1.00  0.00    -0.550 OA
ATOM      4  O   UNL     1      17.335   6.073   9.668  1.00  0.00    -0.550 OA
ENDROOT
TORSDOF 0
ENDMDL
MODEL 8
REMARK VINA RESULT:    -2.512      1.366      1.848
REMARK INTER + INTRA:          -2.512
REMARK INTER:                  -2.512
REMARK INTRA:                   0.000
REMARK UNBOUND:                 0.000
REMARK SMILES CC(=O)[O-]
REMARK SMILES IDX 1 1 2 2 3 3 4 4
REMARK H PARENT
REMARK Flexibility Score: inf
ROOT
ATOM      1  C   UNL     1      22.448   6.027   0.796  1.00  0.00     0.063 C 
ATOM      2  C   UNL     1      21.475   4.903   0.672  1.00  0.00     0.038 C 
ATOM      3  O   UNL     1      20.689   4.855  -0.310  1.00  0.00    -0.550 OA
ATOM      4  O   UNL     1      21.471   3.878   1.609  1.00  0.00    -0.550 OA
ENDROOT
TORSDOF 0
ENDMDL
MODEL 9
REMARK VINA RESULT:    -2.472      9.262      9.394
REMARK INTER + INTRA:          -2.472
REMARK INTER:                  -2.472
REMARK INTRA:                   0.000
REMARK UNBOUND:                 0.000
REMARK SMILES CC(=O)[O-]
REMARK SMILES IDX 1 1 2 2 3 3 4 4
REMARK H PARENT
REMARK Flexibility Score: inf
ROOT
ATOM      1  C   UNL     1      22.677  14.335   3.878  1.00  0.00     0.063 C 
ATOM      2  C   UNL     1      22.698  12.843   3.892  1.00  0.00     0.038 C 
ATOM      3  O   UNL     1      23.421  12.230   4.721  1.00  0.00    -0.550 OA
ATOM      4  O   UNL     1      21.879  12.126   3.030  1.00  0.00    -0.550 OA
ENDROOT
TORSDOF 0
ENDMDL
