MODEL 1
REMARK VINA RESULT:     3.732      0.000      0.000
REMARK INTER + INTRA:           6.068
REMARK INTER:                   5.477
REMARK INTRA:                   0.591
REMARK UNBOUND:                 0.591
REMARK SMILES C=C1C=C[C@H](C(C)C)CCC(C)=CCC1
REMARK SMILES IDX 3 1 4 2 5 3 9 4 10 5 11 6 12 7 13 8 6 10 7 11 8 12 2 13 1 14
REMARK SMILES IDX 15 15 14 16
REMARK H PARENT
REMARK Flexibility Score: 70.00
ROOT
ATOM      1  C   UNL     1     152.581 135.906 162.106  1.00  0.00    -0.001 C 
ATOM      2  C   UNL     1     152.610 136.091 160.782  1.00  0.00    -0.023 C 
ENDROOT
BRANCH   2   3
ATOM      3  C   UNL     1     151.428 136.689 160.057  1.00  0.00     0.014 C 
BRANCH   3   4
ATOM      4  C   UNL     1     151.156 138.135 160.553  1.00  0.00     0.012 C 
BRANCH   4   5
ATOM      5  C   UNL     1     151.855 138.528 161.879  1.00  0.00     0.031 C 
BRANCH   5   6
ATOM      6  C   UNL     1     153.062 139.448 161.700  1.00  0.00    -0.077 C 
ATOM      7  C   UNL     1     152.928 140.611 160.746  1.00  0.00     0.039 C 
ATOM      8  C   UNL     1     154.281 139.258 162.281  1.00  0.00    -0.028 CG0
ATOM      9  G   UNL     1     154.698 138.147 163.236  1.00  0.00     0.000 G0
ENDBRANCH   5   6
ENDBRANCH   4   5
ENDBRANCH   3   4
BRANCH   3  10
ATOM     10  C   UNL     1     151.608 136.571 158.512  1.00  0.00    -0.010 C 
ATOM     11  C   UNL     1     150.282 136.783 157.769  1.00  0.00     0.008 C 
ATOM     12  C   UNL     1     152.698 137.492 157.928  1.00  0.00     0.008 C 
ENDBRANCH   3  10
ENDBRANCH   2   3
BRANCH   1  13
ATOM     13  C   UNL     1     153.839 135.813 162.855  1.00  0.00    -0.055 C 
ATOM     14  C   UNL     1     153.982 134.884 163.822  1.00  0.00     0.012 C 
BRANCH  13  15
ATOM     15  C   UNL     1     154.938 136.801 162.525  1.00  0.00     0.039 C 
BRANCH  15  16
ATOM     16  C   UNL     1     154.729 138.149 163.245  1.00  0.00     0.032 CG0
ATOM     17  G   UNL     1     154.264 139.236 162.285  1.00  0.00     0.000 G0
ENDBRANCH  15  16
ENDBRANCH  13  15
ENDBRANCH   1  13
TORSDOF 1
ENDMDL
MODEL 2
REMARK VINA RESULT:     4.944      1.915      4.843
REMARK INTER + INTRA:           7.848
REMARK INTER:                   5.178
REMARK INTRA:                   2.669
REMARK UNBOUND:                 0.591
REMARK SMILES C=C1C=C[C@H](C(C)C)CCC(C)=CCC1
REMARK SMILES IDX 3 1 4 2 5 3 9 4 10 5 11 6 12 7 13 8 6 10 7 11 8 12 2 13 1 14
REMARK SMILES IDX 15 15 14 16
REMARK H PARENT
REMARK Flexibility Score: 70.00
ROOT
ATOM      1  C   UNL     1     151.669 137.631 160.471  1.00  0.00    -0.001 C 
ATOM      2  C   UNL     1     152.853 137.796 161.069  1.00  0.00    -0.023 C 
ENDROOT
BRANCH   2   3
ATOM      3  C   UNL     1     152.945 138.384 162.458  1.00  0.00     0.014 C 
BRANCH   3   4
ATOM      4  C   UNL     1     152.196 137.489 163.482  1.00  0.00     0.012 C 
BRANCH   4   5
ATOM      5  C   UNL     1     152.923 136.179 163.878  1.00  0.00     0.031 C 
BRANCH   5   6
ATOM      6  C   UNL     1     153.609 135.467 162.713  1.00  0.00    -0.077 C 
ATOM      7  C   UNL     1     155.117 135.381 162.727  1.00  0.00     0.039 C 
ATOM      8  C   UNL     1     152.968 134.966 161.619  1.00  0.00    -0.028 CG0
ATOM      9  G   UNL     1     151.472 134.965 161.331  1.00  0.00     0.000 G0
ENDBRANCH   5   6
ENDBRANCH   4   5
ENDBRANCH   3   4
BRANCH   3  10
ATOM     10  C   UNL     1     154.429 138.680 162.836  1.00  0.00    -0.010 C 
ATOM     11  C   UNL     1     154.902 140.023 162.263  1.00  0.00     0.008 C 
ATOM     12  C   UNL     1     154.722 138.615 164.349  1.00  0.00     0.008 C 
ENDBRANCH   3  10
ENDBRANCH   2   3
BRANCH   1  13
ATOM     13  C   UNL     1     151.529 136.642 159.397  1.00  0.00    -0.055 C 
ATOM     14  C   UNL     1     151.641 137.025 158.109  1.00  0.00     0.012 C 
BRANCH  13  15
ATOM     15  C   UNL     1     151.229 135.209 159.782  1.00  0.00     0.039 C 
BRANCH  15  16
ATOM     16  C   UNL     1     151.476 134.958 161.285  1.00  0.00     0.032 CG0
ATOM     17  G   UNL     1     152.962 134.929 161.616  1.00  0.00     0.000 G0
ENDBRANCH  15  16
ENDBRANCH  13  15
ENDBRANCH   1  13
TORSDOF 1
ENDMDL
MODEL 3
REMARK VINA RESULT:     5.608      1.690      2.697
REMARK INTER + INTRA:           8.823
REMARK INTER:                   6.831
REMARK INTRA:                   1.992
REMARK UNBOUND:                 0.591
REMARK SMILES C=C1C=C[C@H](C(C)C)CCC(C)=CCC1
REMARK SMILES IDX 3 1 4 2 5 3 9 4 10 5 11 6 12 7 13 8 6 10 7 11 8 12 2 13 1 14
REMARK SMILES IDX 15 15 14 16
REMARK H PARENT
REMARK Flexibility Score: 70.00
ROOT
ATOM      1  C   UNL     1     152.900 137.671 164.224  1.00  0.00    -0.001 C 
ATOM      2  C   UNL     1     153.147 136.664 163.380  1.00  0.00    -0.023 C 
ENDROOT
BRANCH   2   3
ATOM      3  C   UNL     1     152.021 135.968 162.652  1.00  0.00     0.014 C 
BRANCH   3   4
ATOM      4  C   UNL     1     151.053 137.007 162.021  1.00  0.00     0.012 C 
BRANCH   4   5
ATOM      5  C   UNL     1     151.603 137.767 160.788  1.00  0.00     0.031 C 
BRANCH   5   6
ATOM      6  C   UNL     1     152.025 139.206 161.078  1.00  0.00    -0.077 C 
ATOM      7  C   UNL     1     151.071 140.313 160.694  1.00  0.00     0.039 C 
ATOM      8  C   UNL     1     153.233 139.577 161.590  1.00  0.00    -0.028 CG0
ATOM      9  G   UNL     1     154.385 138.675 162.013  1.00  0.00     0.000 G0
ENDBRANCH   5   6
ENDBRANCH   4   5
ENDBRANCH   3   4
BRANCH   3  10
ATOM     10  C   UNL     1     152.578 134.922 161.639  1.00  0.00    -0.010 C 
ATOM     11  C   UNL     1     151.740 134.875 160.354  1.00  0.00     0.008 C 
ATOM     12  C   UNL     1     154.070 135.105 161.295  1.00  0.00     0.008 C 
ENDBRANCH   3  10
ENDBRANCH   2   3
BRANCH   1  13
ATOM     13  C   UNL     1     153.957 138.641 164.527  1.00  0.00    -0.055 C 
ATOM     14  C   UNL     1     154.058 139.165 165.765  1.00  0.00     0.012 C 
BRANCH  13  15
ATOM     15  C   UNL     1     154.894 139.045 163.408  1.00  0.00     0.039 C 
BRANCH  15  16
ATOM     16  C   UNL     1     154.337 138.648 162.025  1.00  0.00     0.032 CG0
ATOM     17  G   UNL     1     153.245 139.602 161.561  1.00  0.00     0.000 G0
ENDBRANCH  15  16
ENDBRANCH  13  15
ENDBRANCH   1  13
TORSDOF 1
ENDMDL
MODEL 4
REMARK VINA RESULT:     5.952      2.834      5.465
REMARK INTER + INTRA:           9.326
REMARK INTER:                   7.990
REMARK INTRA:                   1.336
REMARK UNBOUND:                 0.591
REMARK SMILES C=C1C=C[C@H](C(C)C)CCC(C)=CCC1
REMARK SMILES IDX 3 1 4 2 5 3 9 4 10 5 11 6 12 7 13 8 6 10 7 11 8 12 2 13 1 14
REMARK SMILES IDX 15 15 14 16
REMARK H PARENT
REMARK Flexibility Score: 70.00
ROOT
ATOM      1  C   UNL     1     153.125 137.928 158.424  1.00  0.00    -0.001 C 
ATOM      2  C   UNL     1     152.950 136.859 159.206  1.00  0.00    -0.023 C 
ENDROOT
BRANCH   2   3
ATOM      3  C   UNL     1     152.613 137.016 160.670  1.00  0.00     0.014 C 
BRANCH   3   4
ATOM      4  C   UNL     1     151.086 137.222 160.862  1.00  0.00     0.012 C 
BRANCH   4   5
ATOM      5  C   UNL     1     150.451 138.338 159.994  1.00  0.00     0.031 C 
BRANCH   5   6
ATOM      6  C   UNL     1     149.401 137.839 159.003  1.00  0.00    -0.077 C 
ATOM      7  C   UNL     1     147.966 138.261 159.221  1.00  0.00     0.039 C 
ATOM      8  C   UNL     1     149.645 136.977 157.975  1.00  0.00    -0.028 CG0
ATOM      9  G   UNL     1     150.978 136.364 157.568  1.00  0.00     0.000 G0
ENDBRANCH   5   6
ENDBRANCH   4   5
ENDBRANCH   3   4
BRANCH   3  10
ATOM     10  C   UNL     1     153.204 135.838 161.504  1.00  0.00    -0.010 C 
ATOM     11  C   UNL     1     154.207 136.335 162.555  1.00  0.00     0.008 C 
ATOM     12  C   UNL     1     152.145 134.935 162.167  1.00  0.00     0.008 C 
ENDBRANCH   3  10
ENDBRANCH   2   3
BRANCH   1  13
ATOM     13  C   UNL     1     152.952 137.803 156.972  1.00  0.00    -0.055 C 
ATOM     14  C   UNL     1     153.905 138.262 156.137  1.00  0.00     0.012 C 
BRANCH  13  15
ATOM     15  C   UNL     1     151.671 137.178 156.460  1.00  0.00     0.039 C 
BRANCH  15  16
ATOM     16  C   UNL     1     150.963 136.348 157.551  1.00  0.00     0.032 CG0
ATOM     17  G   UNL     1     149.629 136.963 157.951  1.00  0.00     0.000 G0
ENDBRANCH  15  16
ENDBRANCH  13  15
ENDBRANCH   1  13
TORSDOF 1
ENDMDL
MODEL 5
REMARK VINA RESULT:     5.968     19.724     21.582
REMARK INTER + INTRA:           9.350
REMARK INTER:                   8.595
REMARK INTRA:                   0.755
REMARK UNBOUND:                 0.591
REMARK SMILES C=C1C=C[C@H](C(C)C)CCC(C)=CCC1
REMARK SMILES IDX 3 1 4 2 5 3 9 4 10 5 11 6 12 7 13 8 6 10 7 11 8 12 2 13 1 14
REMARK SMILES IDX 15 15 14 16
REMARK H PARENT
REMARK Flexibility Score: 70.00
ROOT
ATOM      1  C   UNL     1     138.263 154.035 162.473  1.00  0.00    -0.001 C 
ATOM      2  C   UNL     1     138.478 153.782 161.178  1.00  0.00    -0.023 C 
ENDROOT
BRANCH   2   3
ATOM      3  C   UNL     1     139.750 153.108 160.720  1.00  0.00     0.014 C 
BRANCH   3   4
ATOM      4  C   UNL     1     139.529 151.580 160.548  1.00  0.00     0.012 C 
BRANCH   4   5
ATOM      5  C   UNL     1     138.968 150.845 161.791  1.00  0.00     0.031 C 
BRANCH   5   6
ATOM      6  C   UNL     1     137.445 150.718 161.808  1.00  0.00    -0.077 C 
ATOM      7  C   UNL     1     136.777 150.069 160.618  1.00  0.00     0.039 C 
ATOM      8  C   UNL     1     136.631 151.213 162.784  1.00  0.00    -0.028 CG0
ATOM      9  G   UNL     1     137.037 151.947 164.055  1.00  0.00     0.000 G0
ENDBRANCH   5   6
ENDBRANCH   4   5
ENDBRANCH   3   4
BRANCH   3  10
ATOM     10  C   UNL     1     140.325 153.813 159.454  1.00  0.00    -0.010 C 
ATOM     11  C   UNL     1     141.644 153.172 158.999  1.00  0.00     0.008 C 
ATOM     12  C   UNL     1     139.339 153.897 158.271  1.00  0.00     0.008 C 
ENDBRANCH   3  10
ENDBRANCH   2   3
BRANCH   1  13
ATOM     13  C   UNL     1     136.891 154.209 162.962  1.00  0.00    -0.055 C 
ATOM     14  C   UNL     1     136.083 155.125 162.392  1.00  0.00     0.012 C 
BRANCH  13  15
ATOM     15  C   UNL     1     136.437 153.355 164.128  1.00  0.00     0.039 C 
BRANCH  15  16
ATOM     16  C   UNL     1     137.036 151.935 164.063  1.00  0.00     0.032 CG0
ATOM     17  G   UNL     1     136.635 151.210 162.786  1.00  0.00     0.000 G0
ENDBRANCH  15  16
ENDBRANCH  13  15
ENDBRANCH   1  13
TORSDOF 1
ENDMDL
