MODEL 1
REMARK VINA RESULT:    -2.186      0.000      0.000
REMARK INTER + INTRA:          -2.186
REMARK INTER:                  -2.186
REMARK INTRA:                   0.000
REMARK UNBOUND:                 0.000
REMARK SMILES CC(=O)[O-]
REMARK SMILES IDX 1 1 2 2 3 3 4 4
REMARK H PARENT
REMARK Flexibility Score: inf
ROOT
ATOM      1  C   UNL     1      40.134  17.935  11.296  1.00  0.00     0.063 C 
ATOM      2  C   UNL     1      41.261  18.075  12.262  1.00  0.00     0.038 C 
ATOM      3  O   UNL     1      42.140  17.177  12.341  1.00  0.00    -0.550 OA
ATOM      4  O   UNL     1      41.316  19.170  13.115  1.00  0.00    -0.550 OA
ENDROOT
TORSDOF 0
ENDMDL
MODEL 2
REMARK VINA RESULT:    -2.160      2.496      2.788
REMARK INTER + INTRA:          -2.160
REMARK INTER:                  -2.160
REMARK INTRA:                   0.000
REMARK UNBOUND:                 0.000
REMARK SMILES CC(=O)[O-]
REMARK SMILES IDX 1 1 2 2 3 3 4 4
REMARK H PARENT
REMARK Flexibility Score: inf
ROOT
ATOM      1  C   UNL     1      38.236  18.986  10.733  1.00  0.00     0.063 C 
ATOM      2  C   UNL     1      39.629  18.489  10.551  1.00  0.00     0.038 C 
ATOM      3  O   UNL     1      40.281  18.801   9.520  1.00  0.00    -0.550 OA
ATOM      4  O   UNL     1      40.194  17.637  11.491  1.00  0.00    -0.550 OA
ENDROOT
TORSDOF 0
ENDMDL
MODEL 3
REMARK VINA RESULT:    -2.142     14.662     14.931
REMARK INTER + INTRA:          -2.142
REMARK INTER:                  -2.142
REMARK INTRA:                   0.000
REMARK UNBOUND:                 0.000
REMARK SMILES CC(=O)[O-]
REMARK SMILES IDX 1 1 2 2 3 3 4 4
REMARK H PARENT
REMARK Flexibility Score: inf
ROOT
ATOM      1  C   UNL     1      32.799   6.223  16.755  1.00  0.00     0.063 C 
ATOM      2  C   UNL     1      34.137   6.064  17.393  1.00  0.00     0.038 C 
ATOM      3  O   UNL     1      34.271   6.243  18.632  1.00  0.00    -0.550 OA
ATOM      4  O   UNL     1      35.250   5.770  16.616  1.00  0.00    -0.550 OA
ENDROOT
TORSDOF 0
ENDMDL
MODEL 4
REMARK VINA RESULT:    -2.129     14.869     14.939
REMARK INTER + INTRA:          -2.129
REMARK INTER:                  -2.129
REMARK INTRA:                   0.000
REMARK UNBOUND:                 0.000
REMARK SMILES CC(=O)[O-]
REMARK SMILES IDX 1 1 2 2 3 3 4 4
REMARK H PARENT
REMARK Flexibility Score: inf
ROOT
ATOM      1  C   UNL     1      35.227   5.504  16.622  1.00  0.00     0.063 C 
ATOM      2  C   UNL     1      34.125   6.099  17.430  1.00  0.00     0.038 C 
ATOM      3  O   UNL     1      33.042   6.425  16.876  1.00  0.00    -0.550 OA
ATOM      4  O   UNL     1      34.308   6.346  18.784  1.00  0.00    -0.550 OA
ENDROOT
TORSDOF 0
ENDMDL
MODEL 5
REMARK VINA RESULT:    -2.126      1.471      1.890
REMARK INTER + INTRA:          -2.126
REMARK INTER:                  -2.126
REMARK INTRA:                   0.000
REMARK UNBOUND:                 0.000
REMARK SMILES CC(=O)[O-]
REMARK SMILES IDX 1 1 2 2 3 3 4 4
REMARK H PARENT
REMARK Flexibility Score: inf
ROOT
ATOM      1  C   UNL     1      39.393  18.257  11.132  1.00  0.00     0.063 C 
ATOM      2  C   UNL     1      40.842  17.907  11.121  1.00  0.00     0.038 C 
ATOM      3  O   UNL     1      41.414  17.552  12.185  1.00  0.00    -0.550 OA
ATOM      4  O   UNL     1      41.578  18.022   9.949  1.00  0.00    -0.550 OA
ENDROOT
TORSDOF 0
ENDMDL
MODEL 6
REMARK VINA RESULT:    -2.117      1.327      1.695
REMARK INTER + INTRA:          -2.117
REMARK INTER:                  -2.117
REMARK INTRA:                   0.000
REMARK UNBOUND:                 0.000
REMARK SMILES CC(=O)[O-]
REMARK SMILES IDX 1 1 2 2 3 3 4 4
REMARK H PARENT
REMARK Flexibility Score: inf
ROOT
ATOM      1  C   UNL     1      42.426  17.466  12.257  1.00  0.00     0.063 C 
ATOM      2  C   UNL     1      41.109  18.163  12.269  1.00  0.00     0.038 C 
ATOM      3  O   UNL     1      40.185  17.782  11.503  1.00  0.00    -0.550 OA
ATOM      4  O   UNL     1      40.913  19.269  13.086  1.00  0.00    -0.550 OA
ENDROOT
TORSDOF 0
ENDMDL
MODEL 7
REMARK VINA RESULT:    -2.094     14.887     15.185
REMARK INTER + INTRA:          -2.094
REMARK INTER:                  -2.094
REMARK INTRA:                   0.000
REMARK UNBOUND:                 0.000
REMARK SMILES CC(=O)[O-]
REMARK SMILES IDX 1 1 2 2 3 3 4 4
REMARK H PARENT
REMARK Flexibility Score: inf
ROOT
ATOM      1  C   UNL     1      37.412   3.364  14.691  1.00  0.00     0.063 C 
ATOM      2  C   UNL     1      36.281   3.912  13.888  1.00  0.00     0.038 C 
ATOM      3  O   UNL     1      36.104   3.527  12.702  1.00  0.00    -0.550 OA
ATOM      4  O   UNL     1      35.453   4.887  14.426  1.00  0.00    -0.550 OA
ENDROOT
TORSDOF 0
ENDMDL
MODEL 8
REMARK VINA RESULT:    -2.081      2.004      2.504
REMARK INTER + INTRA:          -2.081
REMARK INTER:                  -2.081
REMARK INTRA:                   0.000
REMARK UNBOUND:                 0.000
REMARK SMILES CC(=O)[O-]
REMARK SMILES IDX 1 1 2 2 3 3 4 4
REMARK H PARENT
REMARK Flexibility Score: inf
ROOT
ATOM      1  C   UNL     1      44.261  17.033  12.425  1.00  0.00     0.063 C 
ATOM      2  C   UNL     1      42.971  17.756  12.615  1.00  0.00     0.038 C 
ATOM      3  O   UNL     1      41.883  17.195  12.317  1.00  0.00    -0.550 OA
ATOM      4  O   UNL     1      42.967  19.068  13.070  1.00  0.00    -0.550 OA
ENDROOT
TORSDOF 0
ENDMDL
MODEL 9
REMARK VINA RESULT:    -2.073      2.614      3.230
REMARK INTER + INTRA:          -2.073
REMARK INTER:                  -2.073
REMARK INTRA:                   0.000
REMARK UNBOUND:                 0.000
REMARK SMILES CC(=O)[O-]
REMARK SMILES IDX 1 1 2 2 3 3 4 4
REMARK H PARENT
REMARK Flexibility Score: inf
ROOT
ATOM      1  C   UNL     1      42.398  17.339  12.282  1.00  0.00     0.063 C 
ATOM      2  C   UNL     1      43.888  17.292  12.302  1.00  0.00     0.038 C 
ATOM      3  O   UNL     1      44.555  18.353  12.181  1.00  0.00    -0.550 OA
ATOM      4  O   UNL     1      44.546  16.073  12.399  1.00  0.00    -0.550 OA
ENDROOT
TORSDOF 0
ENDMDL
