MODEL 1
REMARK VINA RESULT:    -3.566      0.000      0.000
REMARK INTER + INTRA:          -5.425
REMARK INTER:                  -5.442
REMARK INTRA:                   0.017
REMARK UNBOUND:                 0.017
REMARK SMILES CC1=CCC[C@@H](C)C(=O)C[C@H](C(C)C)C(=O)C1
REMARK SMILES IDX 8 1 9 2 6 3 7 4 5 5 4 6 3 7 2 8 1 9 10 11 11 12 15 13 16 14
REMARK SMILES IDX 17 15 12 17 13 18 14 19
REMARK H PARENT
REMARK Flexibility Score: 70.00
ROOT
ATOM      1  C   UNL     1      19.886  30.213  29.796  1.00  0.00     0.136 C 
ATOM      2  O   UNL     1      20.807  30.297  28.998  1.00  0.00    -0.299 OA
ENDROOT
BRANCH   1   3
ATOM      3  C   UNL     1      20.035  29.285  30.988  1.00  0.00     0.053 C 
ATOM      4  C   UNL     1      18.804  29.364  31.902  1.00  0.00     0.016 C 
BRANCH   3   5
ATOM      5  C   UNL     1      21.332  29.579  31.769  1.00  0.00     0.015 C 
BRANCH   5   6
ATOM      6  C   UNL     1      21.334  30.999  32.367  1.00  0.00     0.028 C 
BRANCH   6   7
ATOM      7  C   UNL     1      22.217  31.930  31.578  1.00  0.00    -0.028 C 
ATOM      8  C   UNL     1      21.826  33.129  31.085  1.00  0.00    -0.070 CG0
ATOM      9  C   UNL     1      22.841  33.952  30.335  1.00  0.00     0.039 C 
ATOM     10  G   UNL     1      20.422  33.686  31.258  1.00  0.00     0.000 G0
ENDBRANCH   6   7
ENDBRANCH   5   6
ENDBRANCH   3   5
ENDBRANCH   1   3
BRANCH   1  11
ATOM     11  C   UNL     1      18.601  30.973  29.536  1.00  0.00     0.087 C 
BRANCH  11  12
ATOM     12  C   UNL     1      18.369  32.218  30.432  1.00  0.00     0.066 C 
BRANCH  12  13
ATOM     13  C   UNL     1      19.447  33.267  30.185  1.00  0.00     0.140 C 
ATOM     14  O   UNL     1      19.547  33.747  29.065  1.00  0.00    -0.299 OA
BRANCH  13  15
ATOM     15  C   UNL     1      20.421  33.699  31.262  1.00  0.00     0.106 CG0
ATOM     16  G   UNL     1      21.807  33.105  31.065  1.00  0.00     0.000 G0
ENDBRANCH  13  15
ENDBRANCH  12  13
BRANCH  12  17
ATOM     17  C   UNL     1      16.917  32.803  30.420  1.00  0.00    -0.006 C 
ATOM     18  C   UNL     1      16.261  32.710  29.031  1.00  0.00     0.008 C 
ATOM     19  C   UNL     1      16.022  32.064  31.432  1.00  0.00     0.008 C 
ENDBRANCH  12  17
ENDBRANCH  11  12
ENDBRANCH   1  11
TORSDOF 1
ENDMDL
MODEL 2
REMARK VINA RESULT:    -3.310      2.647      5.008
REMARK INTER + INTRA:          -5.035
REMARK INTER:                  -4.863
REMARK INTRA:                  -0.172
REMARK UNBOUND:                 0.017
REMARK SMILES CC1=CCC[C@@H](C)C(=O)C[C@H](C(C)C)C(=O)C1
REMARK SMILES IDX 8 1 9 2 6 3 7 4 5 5 4 6 3 7 2 8 1 9 10 11 11 12 15 13 16 14
REMARK SMILES IDX 17 15 12 17 13 18 14 19
REMARK H PARENT
REMARK Flexibility Score: 70.00
ROOT
ATOM      1  C   UNL     1      21.196  29.588  29.914  1.00  0.00     0.136 C 
ATOM      2  O   UNL     1      21.238  29.487  28.697  1.00  0.00    -0.299 OA
ENDROOT
BRANCH   1   3
ATOM      3  C   UNL     1      20.078  30.401  30.541  1.00  0.00     0.053 C 
ATOM      4  C   UNL     1      18.719  30.022  29.935  1.00  0.00     0.016 C 
BRANCH   3   5
ATOM      5  C   UNL     1      20.345  31.915  30.413  1.00  0.00     0.015 C 
BRANCH   5   6
ATOM      6  C   UNL     1      20.589  32.574  31.784  1.00  0.00     0.028 C 
BRANCH   6   7
ATOM      7  C   UNL     1      21.965  33.181  31.868  1.00  0.00    -0.028 C 
ATOM      8  C   UNL     1      23.038  32.582  32.435  1.00  0.00    -0.070 CG0
ATOM      9  C   UNL     1      24.353  33.317  32.417  1.00  0.00     0.039 C 
ATOM     10  G   UNL     1      22.982  31.206  33.080  1.00  0.00     0.000 G0
ENDBRANCH   6   7
ENDBRANCH   5   6
ENDBRANCH   3   5
ENDBRANCH   1   3
BRANCH   1  11
ATOM     11  C   UNL     1      22.296  28.967  30.753  1.00  0.00     0.087 C 
BRANCH  11  12
ATOM     12  C   UNL     1      23.584  29.819  30.901  1.00  0.00     0.066 C 
BRANCH  12  13
ATOM     13  C   UNL     1      23.829  30.174  32.363  1.00  0.00     0.140 C 
ATOM     14  O   UNL     1      24.712  29.581  32.965  1.00  0.00    -0.299 OA
BRANCH  13  15
ATOM     15  C   UNL     1      22.993  31.199  33.100  1.00  0.00     0.106 CG0
ATOM     16  G   UNL     1      23.041  32.569  32.444  1.00  0.00     0.000 G0
ENDBRANCH  13  15
ENDBRANCH  12  13
BRANCH  12  17
ATOM     17  C   UNL     1      24.853  29.262  30.173  1.00  0.00    -0.006 C 
ATOM     18  C   UNL     1      24.496  28.284  29.040  1.00  0.00     0.008 C 
ATOM     19  C   UNL     1      25.691  30.410  29.580  1.00  0.00     0.008 C 
ENDBRANCH  12  17
ENDBRANCH  11  12
ENDBRANCH   1  11
TORSDOF 1
ENDMDL
MODEL 3
REMARK VINA RESULT:    -3.191      2.130      3.679
REMARK INTER + INTRA:          -4.854
REMARK INTER:                  -4.877
REMARK INTRA:                   0.024
REMARK UNBOUND:                 0.017
REMARK SMILES CC1=CCC[C@@H](C)C(=O)C[C@H](C(C)C)C(=O)C1
REMARK SMILES IDX 8 1 9 2 6 3 7 4 5 5 4 6 3 7 2 8 1 9 10 11 11 12 15 13 16 14
REMARK SMILES IDX 17 15 12 17 13 18 14 19
REMARK H PARENT
REMARK Flexibility Score: 70.00
ROOT
ATOM      1  C   UNL     1      19.176  32.620  32.775  1.00  0.00     0.136 C 
ATOM      2  O   UNL     1      18.418  33.513  33.125  1.00  0.00    -0.299 OA
ENDROOT
BRANCH   1   3
ATOM      3  C   UNL     1      20.673  32.857  32.866  1.00  0.00     0.053 C 
ATOM      4  C   UNL     1      21.112  33.963  31.896  1.00  0.00     0.016 C 
BRANCH   3   5
ATOM      5  C   UNL     1      21.463  31.555  32.624  1.00  0.00     0.015 C 
BRANCH   5   6
ATOM      6  C   UNL     1      22.186  31.565  31.263  1.00  0.00     0.028 C 
BRANCH   6   7
ATOM      7  C   UNL     1      22.417  30.168  30.749  1.00  0.00    -0.028 C 
ATOM      8  C   UNL     1      21.645  29.550  29.826  1.00  0.00    -0.070 CG0
ATOM      9  C   UNL     1      22.026  28.156  29.401  1.00  0.00     0.039 C 
ATOM     10  G   UNL     1      20.420  30.193  29.195  1.00  0.00     0.000 G0
ENDBRANCH   6   7
ENDBRANCH   5   6
ENDBRANCH   3   5
ENDBRANCH   1   3
BRANCH   1  11
ATOM     11  C   UNL     1      18.606  31.341  32.195  1.00  0.00     0.087 C 
BRANCH  11  12
ATOM     12  C   UNL     1      18.493  31.302  30.649  1.00  0.00     0.066 C 
BRANCH  12  13
ATOM     13  C   UNL     1      19.192  30.069  30.089  1.00  0.00     0.140 C 
ATOM     14  O   UNL     1      18.774  28.966  30.413  1.00  0.00    -0.299 OA
BRANCH  13  15
ATOM     15  C   UNL     1      20.404  30.162  29.187  1.00  0.00     0.106 CG0
ATOM     16  G   UNL     1      21.652  29.576  29.826  1.00  0.00     0.000 G0
ENDBRANCH  13  15
ENDBRANCH  12  13
BRANCH  12  17
ATOM     17  C   UNL     1      17.056  31.522  30.068  1.00  0.00    -0.006 C 
ATOM     18  C   UNL     1      16.090  32.120  31.106  1.00  0.00     0.008 C 
ATOM     19  C   UNL     1      17.098  32.458  28.845  1.00  0.00     0.008 C 
ENDBRANCH  12  17
ENDBRANCH  11  12
ENDBRANCH   1  11
TORSDOF 1
ENDMDL
MODEL 4
REMARK VINA RESULT:    -3.187      1.868      4.455
REMARK INTER + INTRA:          -4.847
REMARK INTER:                  -4.921
REMARK INTRA:                   0.075
REMARK UNBOUND:                 0.017
REMARK SMILES CC1=CCC[C@@H](C)C(=O)C[C@H](C(C)C)C(=O)C1
REMARK SMILES IDX 8 1 9 2 6 3 7 4 5 5 4 6 3 7 2 8 1 9 10 11 11 12 15 13 16 14
REMARK SMILES IDX 17 15 12 17 13 18 14 19
REMARK H PARENT
REMARK Flexibility Score: 70.00
ROOT
ATOM      1  C   UNL     1      22.323  29.725  32.105  1.00  0.00     0.136 C 
ATOM      2  O   UNL     1      23.237  29.115  32.640  1.00  0.00    -0.299 OA
ENDROOT
BRANCH   1   3
ATOM      3  C   UNL     1      21.398  28.976  31.163  1.00  0.00     0.053 C 
ATOM      4  C   UNL     1      22.056  28.781  29.790  1.00  0.00     0.016 C 
BRANCH   3   5
ATOM      5  C   UNL     1      20.034  29.684  31.035  1.00  0.00     0.015 C 
BRANCH   5   6
ATOM      6  C   UNL     1      19.837  30.304  29.638  1.00  0.00     0.028 C 
BRANCH   6   7
ATOM      7  C   UNL     1      18.881  31.467  29.679  1.00  0.00    -0.028 C 
ATOM      8  C   UNL     1      19.249  32.768  29.631  1.00  0.00    -0.070 CG0
ATOM      9  C   UNL     1      18.164  33.814  29.659  1.00  0.00     0.039 C 
ATOM     10  G   UNL     1      20.696  33.225  29.544  1.00  0.00     0.000 G0
ENDBRANCH   6   7
ENDBRANCH   5   6
ENDBRANCH   3   5
ENDBRANCH   1   3
BRANCH   1  11
ATOM     11  C   UNL     1      22.184  31.216  32.338  1.00  0.00     0.087 C 
BRANCH  11  12
ATOM     12  C   UNL     1      22.540  32.117  31.126  1.00  0.00     0.066 C 
BRANCH  12  13
ATOM     13  C   UNL     1      21.438  33.138  30.873  1.00  0.00     0.140 C 
ATOM     14  O   UNL     1      21.109  33.878  31.788  1.00  0.00    -0.299 OA
BRANCH  13  15
ATOM     15  C   UNL     1      20.712  33.238  29.547  1.00  0.00     0.106 CG0
ATOM     16  G   UNL     1      19.272  32.759  29.635  1.00  0.00     0.000 G0
ENDBRANCH  13  15
ENDBRANCH  12  13
BRANCH  12  17
ATOM     17  C   UNL     1      23.976  32.740  31.141  1.00  0.00    -0.006 C 
ATOM     18  C   UNL     1      25.055  31.735  30.702  1.00  0.00     0.008 C 
ATOM     19  C   UNL     1      24.049  33.968  30.215  1.00  0.00     0.008 C 
ENDBRANCH  12  17
ENDBRANCH  11  12
ENDBRANCH   1  11
TORSDOF 1
ENDMDL
MODEL 5
REMARK VINA RESULT:    -3.170      3.022      5.007
REMARK INTER + INTRA:          -4.821
REMARK INTER:                  -4.765
REMARK INTRA:                  -0.056
REMARK UNBOUND:                 0.017
REMARK SMILES CC1=CCC[C@@H](C)C(=O)C[C@H](C(C)C)C(=O)C1
REMARK SMILES IDX 8 1 9 2 6 3 7 4 5 5 4 6 3 7 2 8 1 9 10 11 11 12 15 13 16 14
REMARK SMILES IDX 17 15 12 17 13 18 14 19
REMARK H PARENT
REMARK Flexibility Score: 70.00
ROOT
ATOM      1  C   UNL     1      23.734  30.364  32.472  1.00  0.00     0.136 C 
ATOM      2  O   UNL     1      23.735  29.279  33.035  1.00  0.00    -0.299 OA
ENDROOT
BRANCH   1   3
ATOM      3  C   UNL     1      25.009  30.840  31.799  1.00  0.00     0.053 C 
ATOM      4  C   UNL     1      24.821  32.240  31.198  1.00  0.00     0.016 C 
BRANCH   3   5
ATOM      5  C   UNL     1      25.489  29.833  30.734  1.00  0.00     0.015 C 
BRANCH   5   6
ATOM      6  C   UNL     1      24.538  29.777  29.524  1.00  0.00     0.028 C 
BRANCH   6   7
ATOM      7  C   UNL     1      23.845  28.443  29.426  1.00  0.00    -0.028 C 
ATOM      8  C   UNL     1      22.505  28.276  29.334  1.00  0.00    -0.070 CG0
ATOM      9  C   UNL     1      21.972  26.871  29.220  1.00  0.00     0.039 C 
ATOM     10  G   UNL     1      21.518  29.432  29.333  1.00  0.00     0.000 G0
ENDBRANCH   6   7
ENDBRANCH   5   6
ENDBRANCH   3   5
ENDBRANCH   1   3
BRANCH   1  11
ATOM     11  C   UNL     1      22.491  31.231  32.527  1.00  0.00     0.087 C 
BRANCH  11  12
ATOM     12  C   UNL     1      21.697  31.343  31.198  1.00  0.00     0.066 C 
BRANCH  12  13
ATOM     13  C   UNL     1      21.225  29.969  30.738  1.00  0.00     0.140 C 
ATOM     14  O   UNL     1      20.626  29.262  31.535  1.00  0.00    -0.299 OA
BRANCH  13  15
ATOM     15  C   UNL     1      21.508  29.437  29.348  1.00  0.00     0.106 CG0
ATOM     16  G   UNL     1      22.520  28.303  29.355  1.00  0.00     0.000 G0
ENDBRANCH  13  15
ENDBRANCH  12  13
BRANCH  12  17
ATOM     17  C   UNL     1      20.572  32.431  31.170  1.00  0.00    -0.006 C 
ATOM     18  C   UNL     1      20.900  33.636  32.070  1.00  0.00     0.008 C 
ATOM     19  C   UNL     1      20.343  32.942  29.735  1.00  0.00     0.008 C 
ENDBRANCH  12  17
ENDBRANCH  11  12
ENDBRANCH   1  11
TORSDOF 1
ENDMDL
MODEL 6
REMARK VINA RESULT:    -2.925      1.767      3.354
REMARK INTER + INTRA:          -4.447
REMARK INTER:                  -5.217
REMARK INTRA:                   0.770
REMARK UNBOUND:                 0.017
REMARK SMILES CC1=CCC[C@@H](C)C(=O)C[C@H](C(C)C)C(=O)C1
REMARK SMILES IDX 8 1 9 2 6 3 7 4 5 5 4 6 3 7 2 8 1 9 10 11 11 12 15 13 16 14
REMARK SMILES IDX 17 15 12 17 13 18 14 19
REMARK H PARENT
REMARK Flexibility Score: 70.00
ROOT
ATOM      1  C   UNL     1      19.582  33.106  29.699  1.00  0.00     0.136 C 
ATOM      2  O   UNL     1      19.267  34.110  29.076  1.00  0.00    -0.299 OA
ENDROOT
BRANCH   1   3
ATOM      3  C   UNL     1      20.933  33.069  30.390  1.00  0.00     0.053 C 
ATOM      4  C   UNL     1      21.903  34.073  29.751  1.00  0.00     0.016 C 
BRANCH   3   5
ATOM      5  C   UNL     1      21.523  31.644  30.390  1.00  0.00     0.015 C 
BRANCH   5   6
ATOM      6  C   UNL     1      21.607  31.057  31.812  1.00  0.00     0.028 C 
BRANCH   6   7
ATOM      7  C   UNL     1      20.509  30.056  32.063  1.00  0.00    -0.028 C 
ATOM      8  C   UNL     1      19.321  30.345  32.642  1.00  0.00    -0.070 CG0
ATOM      9  C   UNL     1      18.319  29.231  32.800  1.00  0.00     0.039 C 
ATOM     10  G   UNL     1      18.947  31.735  33.132  1.00  0.00     0.000 G0
ENDBRANCH   6   7
ENDBRANCH   5   6
ENDBRANCH   3   5
ENDBRANCH   1   3
BRANCH   1  11
ATOM     11  C   UNL     1      18.653  31.908  29.701  1.00  0.00     0.087 C 
BRANCH  11  12
ATOM     12  C   UNL     1      17.590  31.891  30.831  1.00  0.00     0.066 C 
BRANCH  12  13
ATOM     13  C   UNL     1      18.142  32.532  32.098  1.00  0.00     0.140 C 
ATOM     14  O   UNL     1      17.960  33.728  32.273  1.00  0.00    -0.299 OA
BRANCH  13  15
ATOM     15  C   UNL     1      18.940  31.750  33.121  1.00  0.00     0.106 CG0
ATOM     16  G   UNL     1      19.298  30.354  32.637  1.00  0.00     0.000 G0
ENDBRANCH  13  15
ENDBRANCH  12  13
BRANCH  12  17
ATOM     17  C   UNL     1      16.169  32.416  30.435  1.00  0.00    -0.006 C 
ATOM     18  C   UNL     1      15.887  32.263  28.930  1.00  0.00     0.008 C 
ATOM     19  C   UNL     1      15.072  31.668  31.215  1.00  0.00     0.008 C 
ENDBRANCH  12  17
ENDBRANCH  11  12
ENDBRANCH   1  11
TORSDOF 1
ENDMDL
MODEL 7
REMARK VINA RESULT:    -2.878      2.178      3.810
REMARK INTER + INTRA:          -4.375
REMARK INTER:                  -4.145
REMARK INTRA:                  -0.229
REMARK UNBOUND:                 0.017
REMARK SMILES CC1=CCC[C@@H](C)C(=O)C[C@H](C(C)C)C(=O)C1
REMARK SMILES IDX 8 1 9 2 6 3 7 4 5 5 4 6 3 7 2 8 1 9 10 11 11 12 15 13 16 14
REMARK SMILES IDX 17 15 12 17 13 18 14 19
REMARK H PARENT
REMARK Flexibility Score: 70.00
ROOT
ATOM      1  C   UNL     1      19.510  33.195  30.452  1.00  0.00     0.136 C 
ATOM      2  O   UNL     1      19.161  34.014  29.614  1.00  0.00    -0.299 OA
ENDROOT
BRANCH   1   3
ATOM      3  C   UNL     1      20.983  32.848  30.563  1.00  0.00     0.053 C 
ATOM      4  C   UNL     1      21.833  34.114  30.741  1.00  0.00     0.016 C 
BRANCH   3   5
ATOM      5  C   UNL     1      21.458  32.022  29.350  1.00  0.00     0.015 C 
BRANCH   5   6
ATOM      6  C   UNL     1      21.189  30.516  29.539  1.00  0.00     0.028 C 
BRANCH   6   7
ATOM      7  C   UNL     1      21.445  30.082  30.958  1.00  0.00    -0.028 C 
ATOM      8  C   UNL     1      20.565  29.396  31.724  1.00  0.00    -0.070 CG0
ATOM      9  C   UNL     1      20.986  29.016  33.121  1.00  0.00     0.039 C 
ATOM     10  G   UNL     1      19.183  28.984  31.244  1.00  0.00     0.000 G0
ENDBRANCH   6   7
ENDBRANCH   5   6
ENDBRANCH   3   5
ENDBRANCH   1   3
BRANCH   1  11
ATOM     11  C   UNL     1      18.462  32.501  31.298  1.00  0.00     0.087 C 
BRANCH  11  12
ATOM     12  C   UNL     1      17.845  31.220  30.677  1.00  0.00     0.066 C 
BRANCH  12  13
ATOM     13  C   UNL     1      18.105  30.011  31.569  1.00  0.00     0.140 C 
ATOM     14  O   UNL     1      17.460  29.899  32.601  1.00  0.00    -0.299 OA
BRANCH  13  15
ATOM     15  C   UNL     1      19.160  28.975  31.242  1.00  0.00     0.106 CG0
ATOM     16  G   UNL     1      20.547  29.388  31.709  1.00  0.00     0.000 G0
ENDBRANCH  13  15
ENDBRANCH  12  13
BRANCH  12  17
ATOM     17  C   UNL     1      16.355  31.341  30.212  1.00  0.00    -0.006 C 
ATOM     18  C   UNL     1      16.134  32.531  29.262  1.00  0.00     0.008 C 
ATOM     19  C   UNL     1      15.900  30.055  29.496  1.00  0.00     0.008 C 
ENDBRANCH  12  17
ENDBRANCH  11  12
ENDBRANCH   1  11
TORSDOF 1
ENDMDL
MODEL 8
REMARK VINA RESULT:    -2.739      8.171     10.696
REMARK INTER + INTRA:          -4.163
REMARK INTER:                  -4.407
REMARK INTRA:                   0.244
REMARK UNBOUND:                 0.017
REMARK SMILES CC1=CCC[C@@H](C)C(=O)C[C@H](C(C)C)C(=O)C1
REMARK SMILES IDX 8 1 9 2 6 3 7 4 5 5 4 6 3 7 2 8 1 9 10 11 11 12 15 13 16 14
REMARK SMILES IDX 17 15 12 17 13 18 14 19
REMARK H PARENT
REMARK Flexibility Score: 70.00
ROOT
ATOM      1  C   UNL     1      29.277  30.777  28.299  1.00  0.00     0.136 C 
ATOM      2  O   UNL     1      28.275  30.316  27.774  1.00  0.00    -0.299 OA
ENDROOT
BRANCH   1   3
ATOM      3  C   UNL     1      29.996  31.928  27.618  1.00  0.00     0.053 C 
ATOM      4  C   UNL     1      31.371  31.484  27.098  1.00  0.00     0.016 C 
BRANCH   3   5
ATOM      5  C   UNL     1      30.119  33.147  28.555  1.00  0.00     0.015 C 
BRANCH   5   6
ATOM      6  C   UNL     1      31.548  33.306  29.107  1.00  0.00     0.028 C 
BRANCH   6   7
ATOM      7  C   UNL     1      31.540  33.822  30.522  1.00  0.00    -0.028 C 
ATOM      8  C   UNL     1      31.521  33.040  31.626  1.00  0.00    -0.070 CG0
ATOM      9  C   UNL     1      31.539  33.715  32.974  1.00  0.00     0.039 C 
ATOM     10  G   UNL     1      31.489  31.521  31.574  1.00  0.00     0.000 G0
ENDBRANCH   6   7
ENDBRANCH   5   6
ENDBRANCH   3   5
ENDBRANCH   1   3
BRANCH   1  11
ATOM     11  C   UNL     1      29.813  30.144  29.568  1.00  0.00     0.087 C 
BRANCH  11  12
ATOM     12  C   UNL     1      29.108  30.578  30.880  1.00  0.00     0.066 C 
BRANCH  12  13
ATOM     13  C   UNL     1      30.134  30.951  31.943  1.00  0.00     0.140 C 
ATOM     14  O   UNL     1      29.830  30.814  33.119  1.00  0.00    -0.299 OA
BRANCH  13  15
ATOM     15  C   UNL     1      31.493  31.521  31.595  1.00  0.00     0.106 CG0
ATOM     16  G   UNL     1      31.513  33.041  31.633  1.00  0.00     0.000 G0
ENDBRANCH  13  15
ENDBRANCH  12  13
BRANCH  12  17
ATOM     17  C   UNL     1      27.966  31.636  30.718  1.00  0.00    -0.006 C 
ATOM     18  C   UNL     1      26.580  31.056  31.051  1.00  0.00     0.008 C 
ATOM     19  C   UNL     1      28.216  32.854  31.628  1.00  0.00     0.008 C 
ENDBRANCH  12  17
ENDBRANCH  11  12
ENDBRANCH   1  11
TORSDOF 1
ENDMDL
MODEL 9
REMARK VINA RESULT:    -2.610      2.004      3.939
REMARK INTER + INTRA:          -3.966
REMARK INTER:                  -4.319
REMARK INTRA:                   0.353
REMARK UNBOUND:                 0.017
REMARK SMILES CC1=CCC[C@@H](C)C(=O)C[C@H](C(C)C)C(=O)C1
REMARK SMILES IDX 8 1 9 2 6 3 7 4 5 5 4 6 3 7 2 8 1 9 10 11 11 12 15 13 16 14
REMARK SMILES IDX 17 15 12 17 13 18 14 19
REMARK H PARENT
REMARK Flexibility Score: 70.00
ROOT
ATOM      1  C   UNL     1      21.643  33.047  30.874  1.00  0.00     0.136 C 
ATOM      2  O   UNL     1      21.533  33.777  29.900  1.00  0.00    -0.299 OA
ENDROOT
BRANCH   1   3
ATOM      3  C   UNL     1      23.027  32.789  31.441  1.00  0.00     0.053 C 
ATOM      4  C   UNL     1      23.591  34.054  32.104  1.00  0.00     0.016 C 
BRANCH   3   5
ATOM      5  C   UNL     1      23.985  32.250  30.360  1.00  0.00     0.015 C 
BRANCH   5   6
ATOM      6  C   UNL     1      24.036  30.710  30.353  1.00  0.00     0.028 C 
BRANCH   6   7
ATOM      7  C   UNL     1      23.506  30.133  31.640  1.00  0.00    -0.028 C 
ATOM      8  C   UNL     1      22.312  29.508  31.769  1.00  0.00    -0.070 CG0
ATOM      9  C   UNL     1      21.938  28.967  33.125  1.00  0.00     0.039 C 
ATOM     10  G   UNL     1      21.339  29.321  30.617  1.00  0.00     0.000 G0
ENDBRANCH   6   7
ENDBRANCH   5   6
ENDBRANCH   3   5
ENDBRANCH   1   3
BRANCH   1  11
ATOM     11  C   UNL     1      20.412  32.365  31.437  1.00  0.00     0.087 C 
BRANCH  11  12
ATOM     12  C   UNL     1      19.689  31.390  30.472  1.00  0.00     0.066 C 
BRANCH  12  13
ATOM     13  C   UNL     1      19.985  29.943  30.848  1.00  0.00     0.140 C 
ATOM     14  O   UNL     1      19.107  29.291  31.393  1.00  0.00    -0.299 OA
BRANCH  13  15
ATOM     15  C   UNL     1      21.337  29.303  30.610  1.00  0.00     0.106 CG0
ATOM     16  G   UNL     1      22.300  29.531  31.764  1.00  0.00     0.000 G0
ENDBRANCH  13  15
ENDBRANCH  12  13
BRANCH  12  17
ATOM     17  C   UNL     1      18.167  31.672  30.234  1.00  0.00    -0.006 C 
ATOM     18  C   UNL     1      17.388  31.827  31.553  1.00  0.00     0.008 C 
ATOM     19  C   UNL     1      17.973  32.952  29.400  1.00  0.00     0.008 C 
ENDBRANCH  12  17
ENDBRANCH  11  12
ENDBRANCH   1  11
TORSDOF 1
ENDMDL
