MODEL 1
REMARK VINA RESULT:    49.483      0.000      0.000
REMARK INTER + INTRA:          69.673
REMARK INTER:                  69.732
REMARK INTRA:                  -0.059
REMARK UNBOUND:                -0.059
REMARK SMILES C[C@H](CO)CCC(=O)[C@H](C)[C@H]1C(=O)C[C@H]2[C@@H]3CC=C4C[C@H](O)CC[C@]4(C)[C@H]3CC[C@]12C
REMARK SMILES IDX 6 1 5 2 2 3 1 4 3 5 4 6 7 8 8 9 9 10 10 11 11 12 12 13 30 14
REMARK SMILES IDX 13 15 14 16 15 17 29 18 31 19 16 20 28 21 27 22 17 23 25 24
REMARK SMILES IDX 18 25 19 26 24 27 26 28 20 29 23 30 21 31 22 32
REMARK H PARENT 4 7 22 33
REMARK Flexibility Score: inf
ROOT
ATOM      1  C   UNL     1     -22.781  27.878  -7.261  1.00  0.00     0.076 C 
ENDROOT
BRANCH   1   2
ATOM      2  C   UNL     1     -21.427  27.959  -6.534  1.00  0.00     0.013 C 
BRANCH   2   3
ATOM      3  C   UNL     1     -20.977  26.615  -5.894  1.00  0.00     0.012 C 
ATOM      4  C   UNL     1     -21.121  26.658  -4.364  1.00  0.00     0.010 C 
BRANCH   3   5
ATOM      5  C   UNL     1     -19.531  26.246  -6.283  1.00  0.00     0.159 C 
BRANCH   5   6
ATOM      6  O   UNL     1     -19.064  27.079  -7.311  1.00  0.00    -0.396 OA
ATOM      7  H   UNL     1     -19.167  28.009  -6.982  1.00  0.00     0.210 HD
ENDBRANCH   5   6
ENDBRANCH   3   5
ENDBRANCH   2   3
ENDBRANCH   1   2
BRANCH   1   8
ATOM      8  C   UNL     1     -23.332  29.237  -7.636  1.00  0.00     0.136 C 
ATOM      9  O   UNL     1     -22.524  30.119  -7.888  1.00  0.00    -0.299 OA
BRANCH   8  10
ATOM     10  C   UNL     1     -24.824  29.582  -7.647  1.00  0.00     0.064 C 
ATOM     11  C   UNL     1     -25.447  29.658  -9.051  1.00  0.00     0.017 C 
BRANCH  10  12
ATOM     12  C   UNL     1     -25.239  30.820  -6.776  1.00  0.00     0.072 C 
ATOM     13  C   UNL     1     -25.648  32.024  -7.585  1.00  0.00     0.137 C 
ATOM     14  C   UNL     1     -26.409  30.709  -5.740  1.00  0.00    -0.019 C 
ATOM     15  O   UNL     1     -25.070  32.390  -8.597  1.00  0.00    -0.299 OA
ATOM     16  C   UNL     1     -26.762  32.800  -6.964  1.00  0.00     0.080 C 
ATOM     17  C   UNL     1     -26.779  32.201  -5.561  1.00  0.00     0.007 C 
ATOM     18  C   UNL     1     -26.002  30.187  -4.341  1.00  0.00     0.008 C 
ATOM     19  C   UNL     1     -27.591  29.867  -6.309  1.00  0.00     0.012 C 
ATOM     20  C   UNL     1     -28.011  32.428  -4.662  1.00  0.00     0.001 C 
ATOM     21  C   UNL     1     -27.142  30.375  -3.309  1.00  0.00     0.005 C 
ATOM     22  C   UNL     1     -27.714  31.832  -3.251  1.00  0.00     0.003 C 
ATOM     23  C   UNL     1     -28.304  33.930  -4.524  1.00  0.00     0.031 C 
ATOM     24  C   UNL     1     -28.949  32.001  -2.285  1.00  0.00    -0.008 C 
ATOM     25  C   UNL     1     -29.302  34.229  -3.441  1.00  0.00    -0.027 C 
ATOM     26  C   UNL     1     -29.506  33.434  -2.368  1.00  0.00    -0.065 C 
ATOM     27  C   UNL     1     -28.482  31.729  -0.820  1.00  0.00     0.014 C 
ATOM     28  C   UNL     1     -30.094  31.016  -2.648  1.00  0.00     0.016 C 
ATOM     29  C   UNL     1     -30.471  33.909  -1.296  1.00  0.00     0.063 C 
ATOM     30  C   UNL     1     -29.510  32.132   0.250  1.00  0.00     0.033 C 
ATOM     31  C   UNL     1     -29.948  33.598   0.116  1.00  0.00     0.118 C 
BRANCH  31  32
ATOM     32  O   UNL     1     -28.915  34.477   0.495  1.00  0.00    -0.393 OA
ATOM     33  H   UNL     1     -29.324  35.276   0.919  1.00  0.00     0.210 HD
ENDBRANCH  31  32
ENDBRANCH  10  12
ENDBRANCH   8  10
ENDBRANCH   1   8
TORSDOF 8
ENDMDL
