MODEL 1
REMARK VINA RESULT:    -3.636      0.000      0.000
REMARK INTER + INTRA:          -3.866
REMARK INTER:                  -3.849
REMARK INTRA:                  -0.017
REMARK UNBOUND:                -0.017
REMARK SMILES O=C([O-])c1cccnc1
REMARK SMILES IDX 4 1 5 2 9 3 6 4 8 5 7 6 2 7 1 8 3 9
REMARK H PARENT
REMARK Flexibility Score: inf
ROOT
ATOM      1  C   UNL     1      26.219  34.076  33.842  1.00  0.00     0.016 A 
ATOM      2  C   UNL     1      26.960  35.234  33.550  1.00  0.00     0.013 A 
ATOM      3  C   UNL     1      25.751  33.295  32.773  1.00  0.00     0.120 A 
ATOM      4  C   UNL     1      27.217  35.585  32.224  1.00  0.00     0.021 A 
ATOM      5  N   UNL     1      26.014  33.660  31.490  1.00  0.00    -0.264 NA
ATOM      6  C   UNL     1      26.731  34.777  31.196  1.00  0.00     0.111 A 
ENDROOT
BRANCH   1   7
ATOM      7  C   UNL     1      25.936  33.687  35.241  1.00  0.00     0.073 C 
ATOM      8  O   UNL     1      26.430  32.633  35.724  1.00  0.00    -0.545 OA
ATOM      9  O   UNL     1      25.121  34.478  36.042  1.00  0.00    -0.545 OA
ENDBRANCH   1   7
TORSDOF 1
ENDMDL
MODEL 2
REMARK VINA RESULT:    -3.603      1.898      2.104
REMARK INTER + INTRA:          -3.831
REMARK INTER:                  -3.813
REMARK INTRA:                  -0.018
REMARK UNBOUND:                -0.017
REMARK SMILES O=C([O-])c1cccnc1
REMARK SMILES IDX 4 1 5 2 9 3 6 4 8 5 7 6 2 7 1 8 3 9
REMARK H PARENT
REMARK Flexibility Score: inf
ROOT
ATOM      1  C   UNL     1      27.947  34.075  33.695  1.00  0.00     0.016 A 
ATOM      2  C   UNL     1      27.041  35.143  33.587  1.00  0.00     0.013 A 
ATOM      3  C   UNL     1      28.368  33.434  32.519  1.00  0.00     0.120 A 
ATOM      4  C   UNL     1      26.579  35.546  32.332  1.00  0.00     0.021 A 
ATOM      5  N   UNL     1      27.903  33.845  31.309  1.00  0.00    -0.264 NA
ATOM      6  C   UNL     1      27.027  34.877  31.192  1.00  0.00     0.111 A 
ENDROOT
BRANCH   1   7
ATOM      7  C   UNL     1      28.448  33.633  35.015  1.00  0.00     0.073 C 
ATOM      8  O   UNL     1      29.683  33.633  35.264  1.00  0.00    -0.545 OA
ATOM      9  O   UNL     1      27.562  33.212  36.000  1.00  0.00    -0.545 OA
ENDBRANCH   1   7
TORSDOF 1
ENDMDL
MODEL 3
REMARK VINA RESULT:    -3.566      1.050      1.657
REMARK INTER + INTRA:          -3.792
REMARK INTER:                  -3.775
REMARK INTRA:                  -0.016
REMARK UNBOUND:                -0.017
REMARK SMILES O=C([O-])c1cccnc1
REMARK SMILES IDX 4 1 5 2 9 3 6 4 8 5 7 6 2 7 1 8 3 9
REMARK H PARENT
REMARK Flexibility Score: inf
ROOT
ATOM      1  C   UNL     1      26.367  33.832  33.438  1.00  0.00     0.016 A 
ATOM      2  C   UNL     1      25.572  33.409  32.360  1.00  0.00     0.013 A 
ATOM      3  C   UNL     1      27.570  34.502  33.160  1.00  0.00     0.120 A 
ATOM      4  C   UNL     1      25.982  33.655  31.048  1.00  0.00     0.021 A 
ATOM      5  N   UNL     1      27.946  34.729  31.873  1.00  0.00    -0.264 NA
ATOM      6  C   UNL     1      27.185  34.324  30.822  1.00  0.00     0.111 A 
ENDROOT
BRANCH   1   7
ATOM      7  C   UNL     1      25.950  33.581  34.835  1.00  0.00     0.073 C 
ATOM      8  O   UNL     1      26.171  32.465  35.378  1.00  0.00    -0.545 OA
ATOM      9  O   UNL     1      25.309  34.572  35.569  1.00  0.00    -0.545 OA
ENDBRANCH   1   7
TORSDOF 1
ENDMDL
MODEL 4
REMARK VINA RESULT:    -3.543      2.860      4.018
REMARK INTER + INTRA:          -3.767
REMARK INTER:                  -3.747
REMARK INTRA:                  -0.020
REMARK UNBOUND:                -0.017
REMARK SMILES O=C([O-])c1cccnc1
REMARK SMILES IDX 4 1 5 2 9 3 6 4 8 5 7 6 2 7 1 8 3 9
REMARK H PARENT
REMARK Flexibility Score: inf
ROOT
ATOM      1  C   UNL     1      27.173  34.479  33.998  1.00  0.00     0.016 A 
ATOM      2  C   UNL     1      25.998  34.498  34.768  1.00  0.00     0.013 A 
ATOM      3  C   UNL     1      28.249  33.693  34.440  1.00  0.00     0.120 A 
ATOM      4  C   UNL     1      25.918  33.748  35.942  1.00  0.00     0.021 A 
ATOM      5  N   UNL     1      28.146  32.971  35.587  1.00  0.00    -0.264 NA
ATOM      6  C   UNL     1      27.014  32.981  36.340  1.00  0.00     0.111 A 
ENDROOT
BRANCH   1   7
ATOM      7  C   UNL     1      27.277  35.268  32.750  1.00  0.00     0.073 C 
ATOM      8  O   UNL     1      26.799  36.432  32.687  1.00  0.00    -0.545 OA
ATOM      9  O   UNL     1      27.906  34.735  31.631  1.00  0.00    -0.545 OA
ENDBRANCH   1   7
TORSDOF 1
ENDMDL
MODEL 5
REMARK VINA RESULT:    -3.463      3.103      3.752
REMARK INTER + INTRA:          -3.682
REMARK INTER:                  -3.660
REMARK INTRA:                  -0.022
REMARK UNBOUND:                -0.017
REMARK SMILES O=C([O-])c1cccnc1
REMARK SMILES IDX 4 1 5 2 9 3 6 4 8 5 7 6 2 7 1 8 3 9
REMARK H PARENT
REMARK Flexibility Score: inf
ROOT
ATOM      1  C   UNL     1      27.083  33.901  32.617  1.00  0.00     0.016 A 
ATOM      2  C   UNL     1      28.346  33.959  33.230  1.00  0.00     0.013 A 
ATOM      3  C   UNL     1      25.967  33.600  33.414  1.00  0.00     0.120 A 
ATOM      4  C   UNL     1      28.472  33.720  34.600  1.00  0.00     0.021 A 
ATOM      5  N   UNL     1      26.116  33.370  34.745  1.00  0.00    -0.264 NA
ATOM      6  C   UNL     1      27.333  33.424  35.349  1.00  0.00     0.111 A 
ENDROOT
BRANCH   1   7
ATOM      7  C   UNL     1      26.929  34.152  31.167  1.00  0.00     0.073 C 
ATOM      8  O   UNL     1      27.850  33.844  30.363  1.00  0.00    -0.545 OA
ATOM      9  O   UNL     1      25.767  34.730  30.671  1.00  0.00    -0.545 OA
ENDBRANCH   1   7
TORSDOF 1
ENDMDL
MODEL 6
REMARK VINA RESULT:    -3.459      2.896      3.806
REMARK INTER + INTRA:          -3.678
REMARK INTER:                  -3.662
REMARK INTRA:                  -0.016
REMARK UNBOUND:                -0.017
REMARK SMILES O=C([O-])c1cccnc1
REMARK SMILES IDX 4 1 5 2 9 3 6 4 8 5 7 6 2 7 1 8 3 9
REMARK H PARENT
REMARK Flexibility Score: inf
ROOT
ATOM      1  C   UNL     1      27.220  34.214  33.616  1.00  0.00     0.016 A 
ATOM      2  C   UNL     1      28.466  33.936  34.202  1.00  0.00     0.013 A 
ATOM      3  C   UNL     1      26.075  33.609  34.161  1.00  0.00     0.120 A 
ATOM      4  C   UNL     1      28.548  33.076  35.299  1.00  0.00     0.021 A 
ATOM      5  N   UNL     1      26.183  32.776  35.230  1.00  0.00    -0.264 NA
ATOM      6  C   UNL     1      27.383  32.500  35.805  1.00  0.00     0.111 A 
ENDROOT
BRANCH   1   7
ATOM      7  C   UNL     1      27.111  35.121  32.453  1.00  0.00     0.073 C 
ATOM      8  O   UNL     1      26.723  36.311  32.603  1.00  0.00    -0.545 OA
ATOM      9  O   UNL     1      27.436  34.675  31.178  1.00  0.00    -0.545 OA
ENDBRANCH   1   7
TORSDOF 1
ENDMDL
MODEL 7
REMARK VINA RESULT:    -3.435      1.585      1.965
REMARK INTER + INTRA:          -3.653
REMARK INTER:                  -3.629
REMARK INTRA:                  -0.024
REMARK UNBOUND:                -0.017
REMARK SMILES O=C([O-])c1cccnc1
REMARK SMILES IDX 4 1 5 2 9 3 6 4 8 5 7 6 2 7 1 8 3 9
REMARK H PARENT
REMARK Flexibility Score: inf
ROOT
ATOM      1  C   UNL     1      26.646  33.928  34.760  1.00  0.00     0.016 A 
ATOM      2  C   UNL     1      26.298  35.090  34.051  1.00  0.00     0.013 A 
ATOM      3  C   UNL     1      27.796  33.224  34.365  1.00  0.00     0.120 A 
ATOM      4  C   UNL     1      27.085  35.520  32.981  1.00  0.00     0.021 A 
ATOM      5  N   UNL     1      28.545  33.664  33.320  1.00  0.00    -0.264 NA
ATOM      6  C   UNL     1      28.218  34.787  32.627  1.00  0.00     0.111 A 
ENDROOT
BRANCH   1   7
ATOM      7  C   UNL     1      25.825  33.455  35.896  1.00  0.00     0.073 C 
ATOM      8  O   UNL     1      24.769  34.063  36.219  1.00  0.00    -0.545 OA
ATOM      9  O   UNL     1      26.207  32.333  36.622  1.00  0.00    -0.545 OA
ENDBRANCH   1   7
TORSDOF 1
ENDMDL
MODEL 8
REMARK VINA RESULT:    -3.240      3.251      4.146
REMARK INTER + INTRA:          -3.447
REMARK INTER:                  -3.423
REMARK INTRA:                  -0.024
REMARK UNBOUND:                -0.017
REMARK SMILES O=C([O-])c1cccnc1
REMARK SMILES IDX 4 1 5 2 9 3 6 4 8 5 7 6 2 7 1 8 3 9
REMARK H PARENT
REMARK Flexibility Score: inf
ROOT
ATOM      1  C   UNL     1      27.035  33.349  35.194  1.00  0.00     0.016 A 
ATOM      2  C   UNL     1      25.902  34.120  34.882  1.00  0.00     0.013 A 
ATOM      3  C   UNL     1      26.997  32.540  36.342  1.00  0.00     0.120 A 
ATOM      4  C   UNL     1      24.775  34.073  35.703  1.00  0.00     0.021 A 
ATOM      5  N   UNL     1      25.886  32.512  37.125  1.00  0.00    -0.264 NA
ATOM      6  C   UNL     1      24.785  33.254  36.833  1.00  0.00     0.111 A 
ENDROOT
BRANCH   1   7
ATOM      7  C   UNL     1      28.240  33.385  34.337  1.00  0.00     0.073 C 
ATOM      8  O   UNL     1      28.360  34.261  33.439  1.00  0.00    -0.545 OA
ATOM      9  O   UNL     1      29.256  32.453  34.510  1.00  0.00    -0.545 OA
ENDBRANCH   1   7
TORSDOF 1
ENDMDL
MODEL 9
REMARK VINA RESULT:    -3.201      1.759      2.203
REMARK INTER + INTRA:          -3.405
REMARK INTER:                  -3.381
REMARK INTRA:                  -0.024
REMARK UNBOUND:                -0.017
REMARK SMILES O=C([O-])c1cccnc1
REMARK SMILES IDX 4 1 5 2 9 3 6 4 8 5 7 6 2 7 1 8 3 9
REMARK H PARENT
REMARK Flexibility Score: inf
ROOT
ATOM      1  C   UNL     1      26.585  33.481  35.277  1.00  0.00     0.016 A 
ATOM      2  C   UNL     1      27.815  32.900  34.924  1.00  0.00     0.013 A 
ATOM      3  C   UNL     1      26.139  34.596  34.549  1.00  0.00     0.120 A 
ATOM      4  C   UNL     1      28.563  33.431  33.871  1.00  0.00     0.021 A 
ATOM      5  N   UNL     1      26.887  35.093  33.529  1.00  0.00    -0.264 NA
ATOM      6  C   UNL     1      28.078  34.539  33.177  1.00  0.00     0.111 A 
ENDROOT
BRANCH   1   7
ATOM      7  C   UNL     1      25.777  32.934  36.389  1.00  0.00     0.073 C 
ATOM      8  O   UNL     1      26.237  32.019  37.125  1.00  0.00    -0.545 OA
ATOM      9  O   UNL     1      24.500  33.422  36.639  1.00  0.00    -0.545 OA
ENDBRANCH   1   7
TORSDOF 1
ENDMDL
