MODEL 1
REMARK VINA RESULT:    -6.880      0.000      0.000
REMARK INTER + INTRA:          -8.360
REMARK INTER:                  -8.087
REMARK INTRA:                  -0.273
REMARK UNBOUND:                -0.273
REMARK SMILES O=c1cc(-c2ccc(O)c(O)c2)oc2cc(O)cc(O)c12
REMARK SMILES IDX 4 1 3 2 2 3 1 4 21 5 19 6 18 7 16 8 15 9 14 10 13 11 5 12
REMARK SMILES IDX 6 13 7 14 8 15 12 16 10 17 9 18 11 20 20 22 17 24
REMARK H PARENT 9 19 11 21 20 23 17 25
REMARK Flexibility Score: inf
ROOT
ATOM      1  C   UNL     1       5.952 -39.098  32.170  1.00  0.00     0.138 A 
ATOM      2  C   UNL     1       5.785 -40.143  33.088  1.00  0.00     0.100 A 
ATOM      3  C   UNL     1       6.602 -40.208  34.218  1.00  0.00     0.197 A 
ATOM      4  O   UNL     1       6.386 -41.122  35.055  1.00  0.00    -0.289 OA
ATOM      5  C   UNL     1       7.612 -39.236  34.411  1.00  0.00     0.107 A 
ATOM      6  C   UNL     1       8.530 -39.225  35.503  1.00  0.00     0.134 A 
ATOM      7  C   UNL     1       9.412 -38.147  35.652  1.00  0.00     0.093 A 
ATOM      8  C   UNL     1       9.451 -37.114  34.718  1.00  0.00     0.123 A 
ATOM      9  C   UNL     1       8.595 -37.142  33.616  1.00  0.00     0.094 A 
ATOM     10  C   UNL     1       7.680 -38.185  33.458  1.00  0.00     0.146 A 
ATOM     11  O   UNL     1       6.872 -38.168  32.403  1.00  0.00    -0.456 OA
ENDROOT
BRANCH   1  12
ATOM     12  C   UNL     1       5.111 -38.981  30.952  1.00  0.00     0.021 A 
ATOM     13  C   UNL     1       5.185 -39.926  29.910  1.00  0.00     0.016 A 
ATOM     14  C   UNL     1       4.389 -39.786  28.770  1.00  0.00     0.051 A 
ATOM     15  C   UNL     1       3.516 -38.703  28.644  1.00  0.00     0.157 A 
ATOM     16  C   UNL     1       4.240 -37.886  30.813  1.00  0.00     0.062 A 
ATOM     17  C   UNL     1       3.441 -37.746  29.669  1.00  0.00     0.158 A 
BRANCH  15  18
ATOM     18  O   UNL     1       2.734 -38.592  27.494  1.00  0.00    -0.504 OA
ATOM     19  H   UNL     1       3.142 -38.547  26.568  1.00  0.00     0.293 HD
ENDBRANCH  15  18
BRANCH  17  20
ATOM     20  O   UNL     1       2.575 -36.660  29.549  1.00  0.00    -0.504 OA
ATOM     21  H   UNL     1       2.905 -35.746  29.263  1.00  0.00     0.293 HD
ENDBRANCH  17  20
ENDBRANCH   1  12
BRANCH   6  22
ATOM     22  O   UNL     1       8.633 -40.251  36.449  1.00  0.00    -0.507 OA
ATOM     23  H   UNL     1       7.933 -40.468  37.142  1.00  0.00     0.293 HD
ENDBRANCH   6  22
BRANCH   8  24
ATOM     24  O   UNL     1      10.353 -36.065  34.890  1.00  0.00    -0.508 OA
ATOM     25  H   UNL     1      10.620 -35.741  35.811  1.00  0.00     0.293 HD
ENDBRANCH   8  24
TORSDOF 5
ENDMDL
MODEL 2
REMARK VINA RESULT:    -6.536      2.680      3.867
REMARK INTER + INTRA:          -7.956
REMARK INTER:                  -7.643
REMARK INTRA:                  -0.313
REMARK UNBOUND:                -0.273
REMARK SMILES O=c1cc(-c2ccc(O)c(O)c2)oc2cc(O)cc(O)c12
REMARK SMILES IDX 4 1 3 2 2 3 1 4 21 5 19 6 18 7 16 8 15 9 14 10 13 11 5 12
REMARK SMILES IDX 6 13 7 14 8 15 12 16 10 17 9 18 11 20 20 22 17 24
REMARK H PARENT 9 19 11 21 20 23 17 25
REMARK Flexibility Score: inf
ROOT
ATOM      1  C   UNL     1       4.912 -37.788  30.621  1.00  0.00     0.138 A 
ATOM      2  C   UNL     1       6.109 -38.234  31.196  1.00  0.00     0.100 A 
ATOM      3  C   UNL     1       6.773 -37.426  32.121  1.00  0.00     0.197 A 
ATOM      4  O   UNL     1       7.811 -37.880  32.667  1.00  0.00    -0.289 OA
ATOM      5  C   UNL     1       6.249 -36.153  32.446  1.00  0.00     0.107 A 
ATOM      6  C   UNL     1       6.861 -35.227  33.343  1.00  0.00     0.134 A 
ATOM      7  C   UNL     1       6.191 -34.044  33.677  1.00  0.00     0.093 A 
ATOM      8  C   UNL     1       4.962 -33.724  33.102  1.00  0.00     0.123 A 
ATOM      9  C   UNL     1       4.379 -34.597  32.181  1.00  0.00     0.094 A 
ATOM     10  C   UNL     1       5.007 -35.801  31.853  1.00  0.00     0.146 A 
ATOM     11  O   UNL     1       4.413 -36.611  30.984  1.00  0.00    -0.456 OA
ENDROOT
BRANCH   1  12
ATOM     12  C   UNL     1       4.165 -38.606  29.631  1.00  0.00     0.021 A 
ATOM     13  C   UNL     1       4.787 -39.643  28.910  1.00  0.00     0.016 A 
ATOM     14  C   UNL     1       4.062 -40.390  27.977  1.00  0.00     0.051 A 
ATOM     15  C   UNL     1       2.714 -40.114  27.741  1.00  0.00     0.157 A 
ATOM     16  C   UNL     1       2.811 -38.323  29.379  1.00  0.00     0.062 A 
ATOM     17  C   UNL     1       2.083 -39.074  28.443  1.00  0.00     0.158 A 
BRANCH  15  18
ATOM     18  O   UNL     1       2.018 -40.878  26.805  1.00  0.00    -0.504 OA
ATOM     19  H   UNL     1       2.423 -41.135  25.913  1.00  0.00     0.293 HD
ENDBRANCH  15  18
BRANCH  17  20
ATOM     20  O   UNL     1       0.739 -38.788  28.211  1.00  0.00    -0.504 OA
ATOM     21  H   UNL     1       0.180 -38.280  28.885  1.00  0.00     0.293 HD
ENDBRANCH  17  20
ENDBRANCH   1  12
BRANCH   6  22
ATOM     22  O   UNL     1       8.126 -35.409  33.911  1.00  0.00    -0.507 OA
ATOM     23  H   UNL     1       8.438 -34.987  34.773  1.00  0.00     0.293 HD
ENDBRANCH   6  22
BRANCH   8  24
ATOM     24  O   UNL     1       4.331 -32.530  33.445  1.00  0.00    -0.508 OA
ATOM     25  H   UNL     1       4.830 -31.781  33.909  1.00  0.00     0.293 HD
ENDBRANCH   8  24
TORSDOF 5
ENDMDL
MODEL 3
REMARK VINA RESULT:    -6.229      1.822      7.173
REMARK INTER + INTRA:          -7.595
REMARK INTER:                  -7.326
REMARK INTRA:                  -0.269
REMARK UNBOUND:                -0.273
REMARK SMILES O=c1cc(-c2ccc(O)c(O)c2)oc2cc(O)cc(O)c12
REMARK SMILES IDX 4 1 3 2 2 3 1 4 21 5 19 6 18 7 16 8 15 9 14 10 13 11 5 12
REMARK SMILES IDX 6 13 7 14 8 15 12 16 10 17 9 18 11 20 20 22 17 24
REMARK H PARENT 9 19 11 21 20 23 17 25
REMARK Flexibility Score: inf
ROOT
ATOM      1  C   UNL     1       5.068 -39.268  32.141  1.00  0.00     0.138 A 
ATOM      2  C   UNL     1       3.758 -39.033  32.580  1.00  0.00     0.100 A 
ATOM      3  C   UNL     1       2.699 -39.128  31.676  1.00  0.00     0.197 A 
ATOM      4  O   UNL     1       1.530 -38.974  32.113  1.00  0.00    -0.289 OA
ATOM      5  C   UNL     1       2.959 -39.429  30.318  1.00  0.00     0.107 A 
ATOM      6  C   UNL     1       1.964 -39.511  29.299  1.00  0.00     0.134 A 
ATOM      7  C   UNL     1       2.326 -39.930  28.013  1.00  0.00     0.093 A 
ATOM      8  C   UNL     1       3.653 -40.211  27.693  1.00  0.00     0.123 A 
ATOM      9  C   UNL     1       4.643 -40.082  28.668  1.00  0.00     0.094 A 
ATOM     10  C   UNL     1       4.309 -39.699  29.969  1.00  0.00     0.146 A 
ATOM     11  O   UNL     1       5.279 -39.601  30.872  1.00  0.00    -0.456 OA
ENDROOT
BRANCH   1  12
ATOM     12  C   UNL     1       6.231 -39.180  33.060  1.00  0.00     0.021 A 
ATOM     13  C   UNL     1       6.430 -40.118  34.091  1.00  0.00     0.016 A 
ATOM     14  C   UNL     1       7.528 -40.004  34.948  1.00  0.00     0.051 A 
ATOM     15  C   UNL     1       8.438 -38.955  34.800  1.00  0.00     0.157 A 
ATOM     16  C   UNL     1       7.143 -38.118  32.925  1.00  0.00     0.062 A 
ATOM     17  C   UNL     1       8.245 -38.004  33.784  1.00  0.00     0.158 A 
BRANCH  15  18
ATOM     18  O   UNL     1       9.525 -38.870  35.671  1.00  0.00    -0.504 OA
ATOM     19  H   UNL     1      10.296 -39.526  35.634  1.00  0.00     0.293 HD
ENDBRANCH  15  18
BRANCH  17  20
ATOM     20  O   UNL     1       9.146 -36.952  33.632  1.00  0.00    -0.504 OA
ATOM     21  H   UNL     1       9.244 -36.230  34.335  1.00  0.00     0.293 HD
ENDBRANCH  17  20
ENDBRANCH   1  12
BRANCH   6  22
ATOM     22  O   UNL     1       0.620 -39.171  29.489  1.00  0.00    -0.507 OA
ATOM     23  H   UNL     1      -0.003 -38.851  28.763  1.00  0.00     0.293 HD
ENDBRANCH   6  22
BRANCH   8  24
ATOM     24  O   UNL     1       3.979 -40.610  26.399  1.00  0.00    -0.508 OA
ATOM     25  H   UNL     1       3.670 -40.088  25.589  1.00  0.00     0.293 HD
ENDBRANCH   8  24
TORSDOF 5
ENDMDL
MODEL 4
REMARK VINA RESULT:    -6.027      2.911      3.996
REMARK INTER + INTRA:          -7.358
REMARK INTER:                  -7.088
REMARK INTRA:                  -0.270
REMARK UNBOUND:                -0.273
REMARK SMILES O=c1cc(-c2ccc(O)c(O)c2)oc2cc(O)cc(O)c12
REMARK SMILES IDX 4 1 3 2 2 3 1 4 21 5 19 6 18 7 16 8 15 9 14 10 13 11 5 12
REMARK SMILES IDX 6 13 7 14 8 15 12 16 10 17 9 18 11 20 20 22 17 24
REMARK H PARENT 9 19 11 21 20 23 17 25
REMARK Flexibility Score: inf
ROOT
ATOM      1  C   UNL     1       3.716 -38.895  31.994  1.00  0.00     0.138 A 
ATOM      2  C   UNL     1       4.258 -37.673  31.574  1.00  0.00     0.100 A 
ATOM      3  C   UNL     1       5.546 -37.315  31.976  1.00  0.00     0.197 A 
ATOM      4  O   UNL     1       6.029 -36.242  31.532  1.00  0.00    -0.289 OA
ATOM      5  C   UNL     1       6.280 -38.172  32.829  1.00  0.00     0.107 A 
ATOM      6  C   UNL     1       7.584 -37.892  33.336  1.00  0.00     0.134 A 
ATOM      7  C   UNL     1       8.260 -38.868  34.078  1.00  0.00     0.093 A 
ATOM      8  C   UNL     1       7.658 -40.087  34.383  1.00  0.00     0.123 A 
ATOM      9  C   UNL     1       6.361 -40.351  33.938  1.00  0.00     0.094 A 
ATOM     10  C   UNL     1       5.674 -39.412  33.167  1.00  0.00     0.146 A 
ATOM     11  O   UNL     1       4.447 -39.706  32.750  1.00  0.00    -0.456 OA
ENDROOT
BRANCH   1  12
ATOM     12  C   UNL     1       2.351 -39.325  31.596  1.00  0.00     0.021 A 
ATOM     13  C   UNL     1       2.033 -39.628  30.258  1.00  0.00     0.016 A 
ATOM     14  C   UNL     1       0.737 -40.021  29.911  1.00  0.00     0.051 A 
ATOM     15  C   UNL     1      -0.262 -40.109  30.883  1.00  0.00     0.157 A 
ATOM     16  C   UNL     1       1.338 -39.402  32.567  1.00  0.00     0.062 A 
ATOM     17  C   UNL     1       0.038 -39.796  32.219  1.00  0.00     0.158 A 
BRANCH  15  18
ATOM     18  O   UNL     1      -1.545 -40.504  30.504  1.00  0.00    -0.504 OA
ATOM     19  H   UNL     1      -1.918 -40.308  29.583  1.00  0.00     0.293 HD
ENDBRANCH  15  18
BRANCH  17  20
ATOM     20  O   UNL     1      -0.954 -39.878  33.195  1.00  0.00    -0.504 OA
ATOM     21  H   UNL     1      -1.019 -39.200  33.944  1.00  0.00     0.293 HD
ENDBRANCH  17  20
ENDBRANCH   1  12
BRANCH   6  22
ATOM     22  O   UNL     1       8.245 -36.672  33.161  1.00  0.00    -0.507 OA
ATOM     23  H   UNL     1       8.184 -35.887  33.793  1.00  0.00     0.293 HD
ENDBRANCH   6  22
BRANCH   8  24
ATOM     24  O   UNL     1       8.354 -41.029  35.138  1.00  0.00    -0.508 OA
ATOM     25  H   UNL     1       8.058 -41.285  36.072  1.00  0.00     0.293 HD
ENDBRANCH   8  24
TORSDOF 5
ENDMDL
MODEL 5
REMARK VINA RESULT:    -6.003      3.702      9.464
REMARK INTER + INTRA:          -7.329
REMARK INTER:                  -7.066
REMARK INTRA:                  -0.263
REMARK UNBOUND:                -0.273
REMARK SMILES O=c1cc(-c2ccc(O)c(O)c2)oc2cc(O)cc(O)c12
REMARK SMILES IDX 4 1 3 2 2 3 1 4 21 5 19 6 18 7 16 8 15 9 14 10 13 11 5 12
REMARK SMILES IDX 6 13 7 14 8 15 12 16 10 17 9 18 11 20 20 22 17 24
REMARK H PARENT 9 19 11 21 20 23 17 25
REMARK Flexibility Score: inf
ROOT
ATOM      1  C   UNL     1       2.459 -39.101  27.873  1.00  0.00     0.138 A 
ATOM      2  C   UNL     1       1.171 -39.238  28.409  1.00  0.00     0.100 A 
ATOM      3  C   UNL     1       0.078 -39.376  27.552  1.00  0.00     0.197 A 
ATOM      4  O   UNL     1      -1.056 -39.560  28.063  1.00  0.00    -0.289 OA
ATOM      5  C   UNL     1       0.274 -39.345  26.151  1.00  0.00     0.107 A 
ATOM      6  C   UNL     1      -0.769 -39.435  25.182  1.00  0.00     0.134 A 
ATOM      7  C   UNL     1      -0.444 -39.509  23.823  1.00  0.00     0.093 A 
ATOM      8  C   UNL     1       0.880 -39.436  23.393  1.00  0.00     0.123 A 
ATOM      9  C   UNL     1       1.906 -39.294  24.329  1.00  0.00     0.094 A 
ATOM     10  C   UNL     1       1.616 -39.250  25.694  1.00  0.00     0.146 A 
ATOM     11  O   UNL     1       2.622 -39.128  26.555  1.00  0.00    -0.456 OA
ENDROOT
BRANCH   1  12
ATOM     12  C   UNL     1       3.657 -38.950  28.738  1.00  0.00     0.021 A 
ATOM     13  C   UNL     1       4.573 -40.003  28.921  1.00  0.00     0.016 A 
ATOM     14  C   UNL     1       5.686 -39.837  29.750  1.00  0.00     0.051 A 
ATOM     15  C   UNL     1       5.901 -38.627  30.415  1.00  0.00     0.157 A 
ATOM     16  C   UNL     1       3.870 -37.740  29.421  1.00  0.00     0.062 A 
ATOM     17  C   UNL     1       4.988 -37.572  30.252  1.00  0.00     0.158 A 
BRANCH  15  18
ATOM     18  O   UNL     1       7.021 -38.492  31.233  1.00  0.00    -0.504 OA
ATOM     19  H   UNL     1       7.801 -39.138  31.189  1.00  0.00     0.293 HD
ENDBRANCH  15  18
BRANCH  17  20
ATOM     20  O   UNL     1       5.192 -36.363  30.915  1.00  0.00    -0.504 OA
ATOM     21  H   UNL     1       4.542 -36.024  31.614  1.00  0.00     0.293 HD
ENDBRANCH  17  20
ENDBRANCH   1  12
BRANCH   6  22
ATOM     22  O   UNL     1      -2.132 -39.429  25.499  1.00  0.00    -0.507 OA
ATOM     23  H   UNL     1      -2.643 -38.627  25.836  1.00  0.00     0.293 HD
ENDBRANCH   6  22
BRANCH   8  24
ATOM     24  O   UNL     1       1.166 -39.498  22.031  1.00  0.00    -0.508 OA
ATOM     25  H   UNL     1       2.118 -39.482  21.687  1.00  0.00     0.293 HD
ENDBRANCH   8  24
TORSDOF 5
ENDMDL
MODEL 6
REMARK VINA RESULT:    -5.988      2.160      7.390
REMARK INTER + INTRA:          -7.312
REMARK INTER:                  -7.022
REMARK INTRA:                  -0.290
REMARK UNBOUND:                -0.273
REMARK SMILES O=c1cc(-c2ccc(O)c(O)c2)oc2cc(O)cc(O)c12
REMARK SMILES IDX 4 1 3 2 2 3 1 4 21 5 19 6 18 7 16 8 15 9 14 10 13 11 5 12
REMARK SMILES IDX 6 13 7 14 8 15 12 16 10 17 9 18 11 20 20 22 17 24
REMARK H PARENT 9 19 11 21 20 23 17 25
REMARK Flexibility Score: inf
ROOT
ATOM      1  C   UNL     1       5.435 -38.981  32.025  1.00  0.00     0.138 A 
ATOM      2  C   UNL     1       5.601 -38.338  30.791  1.00  0.00     0.100 A 
ATOM      3  C   UNL     1       4.566 -38.364  29.855  1.00  0.00     0.197 A 
ATOM      4  O   UNL     1       4.721 -37.725  28.782  1.00  0.00    -0.289 OA
ATOM      5  C   UNL     1       3.372 -39.064  30.145  1.00  0.00     0.107 A 
ATOM      6  C   UNL     1       2.267 -39.193  29.251  1.00  0.00     0.134 A 
ATOM      7  C   UNL     1       1.091 -39.811  29.693  1.00  0.00     0.093 A 
ATOM      8  C   UNL     1       1.001 -40.359  30.971  1.00  0.00     0.123 A 
ATOM      9  C   UNL     1       2.094 -40.286  31.836  1.00  0.00     0.094 A 
ATOM     10  C   UNL     1       3.269 -39.646  31.437  1.00  0.00     0.146 A 
ATOM     11  O   UNL     1       4.283 -39.586  32.295  1.00  0.00    -0.456 OA
ENDROOT
BRANCH   1  12
ATOM     12  C   UNL     1       6.503 -38.985  33.057  1.00  0.00     0.021 A 
ATOM     13  C   UNL     1       6.515 -39.927  34.104  1.00  0.00     0.016 A 
ATOM     14  C   UNL     1       7.527 -39.901  35.068  1.00  0.00     0.051 A 
ATOM     15  C   UNL     1       8.535 -38.936  35.012  1.00  0.00     0.157 A 
ATOM     16  C   UNL     1       7.512 -38.007  33.014  1.00  0.00     0.062 A 
ATOM     17  C   UNL     1       8.528 -37.982  33.981  1.00  0.00     0.158 A 
BRANCH  15  18
ATOM     18  O   UNL     1       9.531 -38.937  35.987  1.00  0.00    -0.504 OA
ATOM     19  H   UNL     1       9.413 -39.409  36.876  1.00  0.00     0.293 HD
ENDBRANCH  15  18
BRANCH  17  20
ATOM     20  O   UNL     1       9.528 -37.012  33.920  1.00  0.00    -0.504 OA
ATOM     21  H   UNL     1      10.014 -36.698  34.750  1.00  0.00     0.293 HD
ENDBRANCH  17  20
ENDBRANCH   1  12
BRANCH   6  22
ATOM     22  O   UNL     1       2.282 -38.755  27.923  1.00  0.00    -0.507 OA
ATOM     23  H   UNL     1       2.860 -39.145  27.194  1.00  0.00     0.293 HD
ENDBRANCH   6  22
BRANCH   8  24
ATOM     24  O   UNL     1      -0.180 -40.981  31.371  1.00  0.00    -0.508 OA
ATOM     25  H   UNL     1      -1.025 -40.924  30.816  1.00  0.00     0.293 HD
ENDBRANCH   8  24
TORSDOF 5
ENDMDL
MODEL 7
REMARK VINA RESULT:    -5.906     13.808     15.046
REMARK INTER + INTRA:          -7.216
REMARK INTER:                  -6.949
REMARK INTRA:                  -0.266
REMARK UNBOUND:                -0.273
REMARK SMILES O=c1cc(-c2ccc(O)c(O)c2)oc2cc(O)cc(O)c12
REMARK SMILES IDX 4 1 3 2 2 3 1 4 21 5 19 6 18 7 16 8 15 9 14 10 13 11 5 12
REMARK SMILES IDX 6 13 7 14 8 15 12 16 10 17 9 18 11 20 20 22 17 24
REMARK H PARENT 9 19 11 21 20 23 17 25
REMARK Flexibility Score: inf
ROOT
ATOM      1  C   UNL     1       7.500 -25.866  38.875  1.00  0.00     0.138 A 
ATOM      2  C   UNL     1       7.770 -26.133  37.526  1.00  0.00     0.100 A 
ATOM      3  C   UNL     1       9.087 -26.351  37.116  1.00  0.00     0.197 A 
ATOM      4  O   UNL     1       9.291 -26.650  35.912  1.00  0.00    -0.289 OA
ATOM      5  C   UNL     1      10.139 -26.269  38.058  1.00  0.00     0.107 A 
ATOM      6  C   UNL     1      11.522 -26.432  37.748  1.00  0.00     0.134 A 
ATOM      7  C   UNL     1      12.465 -26.446  38.783  1.00  0.00     0.093 A 
ATOM      8  C   UNL     1      12.083 -26.241  40.108  1.00  0.00     0.123 A 
ATOM      9  C   UNL     1      10.739 -26.027  40.418  1.00  0.00     0.094 A 
ATOM     10  C   UNL     1       9.771 -26.042  39.412  1.00  0.00     0.146 A 
ATOM     11  O   UNL     1       8.500 -25.848  39.749  1.00  0.00    -0.456 OA
ENDROOT
BRANCH   1  12
ATOM     12  C   UNL     1       6.118 -25.626  39.365  1.00  0.00     0.021 A 
ATOM     13  C   UNL     1       5.493 -24.372  39.229  1.00  0.00     0.016 A 
ATOM     14  C   UNL     1       4.196 -24.172  39.709  1.00  0.00     0.051 A 
ATOM     15  C   UNL     1       3.505 -25.210  40.339  1.00  0.00     0.157 A 
ATOM     16  C   UNL     1       5.423 -26.663  40.012  1.00  0.00     0.062 A 
ATOM     17  C   UNL     1       4.121 -26.462  40.494  1.00  0.00     0.158 A 
BRANCH  15  18
ATOM     18  O   UNL     1       2.211 -24.979  40.806  1.00  0.00    -0.504 OA
ATOM     19  H   UNL     1       1.943 -25.174  41.763  1.00  0.00     0.293 HD
ENDBRANCH  15  18
BRANCH  17  20
ATOM     20  O   UNL     1       3.440 -27.503  41.124  1.00  0.00    -0.504 OA
ATOM     21  H   UNL     1       2.454 -27.669  40.960  1.00  0.00     0.293 HD
ENDBRANCH  17  20
ENDBRANCH   1  12
BRANCH   6  22
ATOM     22  O   UNL     1      12.021 -26.559  36.447  1.00  0.00    -0.507 OA
ATOM     23  H   UNL     1      12.892 -27.007  36.205  1.00  0.00     0.293 HD
ENDBRANCH   6  22
BRANCH   8  24
ATOM     24  O   UNL     1      13.051 -26.245  41.111  1.00  0.00    -0.508 OA
ATOM     25  H   UNL     1      14.030 -26.089  40.904  1.00  0.00     0.293 HD
ENDBRANCH   8  24
TORSDOF 5
ENDMDL
MODEL 8
REMARK VINA RESULT:    -5.900      2.536      4.649
REMARK INTER + INTRA:          -7.209
REMARK INTER:                  -6.896
REMARK INTRA:                  -0.313
REMARK UNBOUND:                -0.273
REMARK SMILES O=c1cc(-c2ccc(O)c(O)c2)oc2cc(O)cc(O)c12
REMARK SMILES IDX 4 1 3 2 2 3 1 4 21 5 19 6 18 7 16 8 15 9 14 10 13 11 5 12
REMARK SMILES IDX 6 13 7 14 8 15 12 16 10 17 9 18 11 20 20 22 17 24
REMARK H PARENT 9 19 11 21 20 23 17 25
REMARK Flexibility Score: inf
ROOT
ATOM      1  C   UNL     1       3.304 -39.282  29.554  1.00  0.00     0.138 A 
ATOM      2  C   UNL     1       4.514 -38.735  29.105  1.00  0.00     0.100 A 
ATOM      3  C   UNL     1       5.575 -38.581  29.998  1.00  0.00     0.197 A 
ATOM      4  O   UNL     1       6.667 -38.146  29.551  1.00  0.00    -0.289 OA
ATOM      5  C   UNL     1       5.412 -38.949  31.354  1.00  0.00     0.107 A 
ATOM      6  C   UNL     1       6.410 -38.799  32.363  1.00  0.00     0.134 A 
ATOM      7  C   UNL     1       6.175 -39.306  33.647  1.00  0.00     0.093 A 
ATOM      8  C   UNL     1       4.959 -39.901  33.976  1.00  0.00     0.123 A 
ATOM      9  C   UNL     1       3.954 -40.005  33.011  1.00  0.00     0.094 A 
ATOM     10  C   UNL     1       4.170 -39.539  31.713  1.00  0.00     0.146 A 
ATOM     11  O   UNL     1       3.194 -39.669  30.820  1.00  0.00    -0.456 OA
ENDROOT
BRANCH   1  12
ATOM     12  C   UNL     1       2.143 -39.468  28.647  1.00  0.00     0.021 A 
ATOM     13  C   UNL     1       2.289 -39.450  27.246  1.00  0.00     0.016 A 
ATOM     14  C   UNL     1       1.176 -39.616  26.417  1.00  0.00     0.051 A 
ATOM     15  C   UNL     1      -0.096 -39.794  26.964  1.00  0.00     0.157 A 
ATOM     16  C   UNL     1       0.857 -39.633  29.192  1.00  0.00     0.062 A 
ATOM     17  C   UNL     1      -0.259 -39.801  28.359  1.00  0.00     0.158 A 
BRANCH  15  18
ATOM     18  O   UNL     1      -1.186 -39.959  26.110  1.00  0.00    -0.504 OA
ATOM     19  H   UNL     1      -1.870 -40.694  26.246  1.00  0.00     0.293 HD
ENDBRANCH  15  18
BRANCH  17  20
ATOM     20  O   UNL     1      -1.526 -39.974  28.914  1.00  0.00    -0.504 OA
ATOM     21  H   UNL     1      -1.816 -39.471  29.744  1.00  0.00     0.293 HD
ENDBRANCH  17  20
ENDBRANCH   1  12
BRANCH   6  22
ATOM     22  O   UNL     1       7.630 -38.144  32.164  1.00  0.00    -0.507 OA
ATOM     23  H   UNL     1       7.961 -37.799  31.275  1.00  0.00     0.293 HD
ENDBRANCH   6  22
BRANCH   8  24
ATOM     24  O   UNL     1       4.754 -40.380  35.268  1.00  0.00    -0.508 OA
ATOM     25  H   UNL     1       3.958 -40.090  35.821  1.00  0.00     0.293 HD
ENDBRANCH   8  24
TORSDOF 5
ENDMDL
MODEL 9
REMARK VINA RESULT:    -5.896     13.454     15.333
REMARK INTER + INTRA:          -7.203
REMARK INTER:                  -6.913
REMARK INTRA:                  -0.290
REMARK UNBOUND:                -0.273
REMARK SMILES O=c1cc(-c2ccc(O)c(O)c2)oc2cc(O)cc(O)c12
REMARK SMILES IDX 4 1 3 2 2 3 1 4 21 5 19 6 18 7 16 8 15 9 14 10 13 11 5 12
REMARK SMILES IDX 6 13 7 14 8 15 12 16 10 17 9 18 11 20 20 22 17 24
REMARK H PARENT 9 19 11 21 20 23 17 25
REMARK Flexibility Score: inf
ROOT
ATOM      1  C   UNL     1       8.721 -25.216  37.957  1.00  0.00     0.138 A 
ATOM      2  C   UNL     1       9.174 -23.927  37.646  1.00  0.00     0.100 A 
ATOM      3  C   UNL     1      10.384 -23.766  36.970  1.00  0.00     0.197 A 
ATOM      4  O   UNL     1      10.734 -22.601  36.649  1.00  0.00    -0.289 OA
ATOM      5  C   UNL     1      11.157 -24.901  36.631  1.00  0.00     0.107 A 
ATOM      6  C   UNL     1      12.425 -24.856  35.977  1.00  0.00     0.134 A 
ATOM      7  C   UNL     1      13.044 -26.050  35.588  1.00  0.00     0.093 A 
ATOM      8  C   UNL     1      12.473 -27.287  35.882  1.00  0.00     0.123 A 
ATOM      9  C   UNL     1      11.259 -27.345  36.569  1.00  0.00     0.094 A 
ATOM     10  C   UNL     1      10.600 -26.171  36.940  1.00  0.00     0.146 A 
ATOM     11  O   UNL     1       9.439 -26.268  37.580  1.00  0.00    -0.456 OA
ENDROOT
BRANCH   1  12
ATOM     12  C   UNL     1       7.441 -25.446  38.676  1.00  0.00     0.021 A 
ATOM     13  C   UNL     1       7.165 -26.666  39.322  1.00  0.00     0.016 A 
ATOM     14  C   UNL     1       5.948 -26.858  39.982  1.00  0.00     0.051 A 
ATOM     15  C   UNL     1       4.986 -25.845  40.003  1.00  0.00     0.157 A 
ATOM     16  C   UNL     1       6.463 -24.436  38.689  1.00  0.00     0.062 A 
ATOM     17  C   UNL     1       5.242 -24.628  39.352  1.00  0.00     0.158 A 
BRANCH  15  18
ATOM     18  O   UNL     1       3.782 -26.067  40.672  1.00  0.00    -0.504 OA
ATOM     19  H   UNL     1       3.730 -26.630  41.512  1.00  0.00     0.293 HD
ENDBRANCH  15  18
BRANCH  17  20
ATOM     20  O   UNL     1       4.286 -23.614  39.365  1.00  0.00    -0.504 OA
ATOM     21  H   UNL     1       4.535 -22.646  39.197  1.00  0.00     0.293 HD
ENDBRANCH  17  20
ENDBRANCH   1  12
BRANCH   6  22
ATOM     22  O   UNL     1      13.125 -23.674  35.711  1.00  0.00    -0.507 OA
ATOM     23  H   UNL     1      13.656 -23.496  34.872  1.00  0.00     0.293 HD
ENDBRANCH   6  22
BRANCH   8  24
ATOM     24  O   UNL     1      13.125 -28.456  35.494  1.00  0.00    -0.508 OA
ATOM     25  H   UNL     1      14.052 -28.683  35.831  1.00  0.00     0.293 HD
ENDBRANCH   8  24
TORSDOF 5
ENDMDL
