MODEL 1
REMARK VINA RESULT:    -7.622      0.000      0.000
REMARK INTER + INTRA:          -9.537
REMARK INTER:                  -9.182
REMARK INTRA:                  -0.355
REMARK UNBOUND:                -0.355
REMARK SMILES O=c1c(O)c(-c2ccc(O)cc2O)oc2cc(O)cc(O)c12
REMARK SMILES IDX 5 1 3 2 2 3 1 4 22 5 20 6 19 7 17 8 16 9 15 10 14 11 6 12
REMARK SMILES IDX 8 13 7 14 9 15 11 16 12 17 10 18 13 20 4 22 21 24 18 26
REMARK H PARENT 10 19 13 21 4 23 21 25 18 27
REMARK Flexibility Score: inf
ROOT
ATOM      1  C   UNL     1      38.172  -0.305  -3.265  1.00  0.00     0.184 A 
ATOM      2  C   UNL     1      39.117  -1.180  -2.705  1.00  0.00     0.208 A 
ATOM      3  C   UNL     1      40.116  -1.720  -3.528  1.00  0.00     0.238 A 
ATOM      4  O   UNL     1      40.928  -2.545  -3.032  1.00  0.00    -0.285 OA
ATOM      5  C   UNL     1      40.167  -1.367  -4.899  1.00  0.00     0.111 A 
ATOM      6  C   UNL     1      41.159  -1.824  -5.818  1.00  0.00     0.134 A 
ATOM      7  C   UNL     1      41.036  -1.513  -7.178  1.00  0.00     0.093 A 
ATOM      8  C   UNL     1      39.995  -0.711  -7.642  1.00  0.00     0.123 A 
ATOM      9  C   UNL     1      39.053  -0.210  -6.744  1.00  0.00     0.094 A 
ATOM     10  C   UNL     1      39.127  -0.532  -5.386  1.00  0.00     0.146 A 
ATOM     11  O   UNL     1      38.204  -0.044  -4.566  1.00  0.00    -0.451 OA
ENDROOT
BRANCH   1  12
ATOM     12  C   UNL     1      37.105   0.311  -2.451  1.00  0.00     0.063 A 
ATOM     13  C   UNL     1      34.764   0.372  -1.794  1.00  0.00     0.047 A 
ATOM     14  C   UNL     1      35.799  -0.193  -2.547  1.00  0.00     0.020 A 
ATOM     15  C   UNL     1      35.022   1.456  -0.947  1.00  0.00     0.119 A 
ATOM     16  C   UNL     1      36.316   1.979  -0.863  1.00  0.00     0.093 A 
ATOM     17  C   UNL     1      37.358   1.423  -1.619  1.00  0.00     0.130 A 
BRANCH  15  18
ATOM     18  O   UNL     1      34.000   2.024  -0.190  1.00  0.00    -0.508 OA
ATOM     19  H   UNL     1      33.297   2.619  -0.612  1.00  0.00     0.293 HD
ENDBRANCH  15  18
BRANCH  17  20
ATOM     20  O   UNL     1      38.633   1.986  -1.563  1.00  0.00    -0.507 OA
ATOM     21  H   UNL     1      38.793   2.902  -1.161  1.00  0.00     0.293 HD
ENDBRANCH  17  20
ENDBRANCH   1  12
BRANCH   2  22
ATOM     22  O   UNL     1      39.033  -1.526  -1.353  1.00  0.00    -0.502 OA
ATOM     23  H   UNL     1      39.852  -1.721  -0.791  1.00  0.00     0.293 HD
ENDBRANCH   2  22
BRANCH   6  24
ATOM     24  O   UNL     1      42.291  -2.554  -5.444  1.00  0.00    -0.507 OA
ATOM     25  H   UNL     1      42.301  -3.546  -5.260  1.00  0.00     0.293 HD
ENDBRANCH   6  24
BRANCH   8  26
ATOM     26  O   UNL     1      39.913  -0.410  -9.000  1.00  0.00    -0.508 OA
ATOM     27  H   UNL     1      40.664   0.067  -9.484  1.00  0.00     0.293 HD
ENDBRANCH   8  26
TORSDOF 6
ENDMDL
MODEL 2
REMARK VINA RESULT:    -7.557      1.806      6.601
REMARK INTER + INTRA:          -9.458
REMARK INTER:                  -9.039
REMARK INTRA:                  -0.419
REMARK UNBOUND:                -0.355
REMARK SMILES O=c1c(O)c(-c2ccc(O)cc2O)oc2cc(O)cc(O)c12
REMARK SMILES IDX 5 1 3 2 2 3 1 4 22 5 20 6 19 7 17 8 16 9 15 10 14 11 6 12
REMARK SMILES IDX 8 13 7 14 9 15 11 16 12 17 10 18 13 20 4 22 21 24 18 26
REMARK H PARENT 10 19 13 21 4 23 21 25 18 27
REMARK Flexibility Score: inf
ROOT
ATOM      1  C   UNL     1      39.391  -1.568  -3.409  1.00  0.00     0.184 A 
ATOM      2  C   UNL     1      39.595  -2.535  -2.411  1.00  0.00     0.208 A 
ATOM      3  C   UNL     1      39.056  -2.319  -1.134  1.00  0.00     0.238 A 
ATOM      4  O   UNL     1      39.288  -3.164  -0.229  1.00  0.00    -0.285 OA
ATOM      5  C   UNL     1      38.307  -1.145  -0.875  1.00  0.00     0.111 A 
ATOM      6  C   UNL     1      37.681  -0.841   0.372  1.00  0.00     0.134 A 
ATOM      7  C   UNL     1      37.075   0.408   0.554  1.00  0.00     0.093 A 
ATOM      8  C   UNL     1      37.015   1.337  -0.483  1.00  0.00     0.123 A 
ATOM      9  C   UNL     1      37.571   1.027  -1.725  1.00  0.00     0.094 A 
ATOM     10  C   UNL     1      38.215  -0.196  -1.926  1.00  0.00     0.146 A 
ATOM     11  O   UNL     1      38.741  -0.448  -3.120  1.00  0.00    -0.451 OA
ENDROOT
BRANCH   1  12
ATOM     12  C   UNL     1      39.916  -1.742  -4.778  1.00  0.00     0.063 A 
ATOM     13  C   UNL     1      41.806  -1.651  -6.307  1.00  0.00     0.047 A 
ATOM     14  C   UNL     1      41.278  -1.502  -5.021  1.00  0.00     0.020 A 
ATOM     15  C   UNL     1      40.975  -2.029  -7.368  1.00  0.00     0.119 A 
ATOM     16  C   UNL     1      39.613  -2.247  -7.140  1.00  0.00     0.093 A 
ATOM     17  C   UNL     1      39.074  -2.094  -5.855  1.00  0.00     0.130 A 
BRANCH  15  18
ATOM     18  O   UNL     1      41.491  -2.185  -8.653  1.00  0.00    -0.508 OA
ATOM     19  H   UNL     1      40.885  -2.321  -9.454  1.00  0.00     0.293 HD
ENDBRANCH  15  18
BRANCH  17  20
ATOM     20  O   UNL     1      37.705  -2.267  -5.651  1.00  0.00    -0.507 OA
ATOM     21  H   UNL     1      37.022  -1.649  -6.075  1.00  0.00     0.293 HD
ENDBRANCH  17  20
ENDBRANCH   1  12
BRANCH   2  22
ATOM     22  O   UNL     1      40.353  -3.676  -2.689  1.00  0.00    -0.502 OA
ATOM     23  H   UNL     1      41.211  -3.641  -3.226  1.00  0.00     0.293 HD
ENDBRANCH   2  22
BRANCH   6  24
ATOM     24  O   UNL     1      37.603  -1.735   1.444  1.00  0.00    -0.507 OA
ATOM     25  H   UNL     1      37.536  -1.467   2.414  1.00  0.00     0.293 HD
ENDBRANCH   6  24
BRANCH   8  26
ATOM     26  O   UNL     1      36.391   2.564  -0.271  1.00  0.00    -0.508 OA
ATOM     27  H   UNL     1      36.925   3.413  -0.129  1.00  0.00     0.293 HD
ENDBRANCH   8  26
TORSDOF 6
ENDMDL
MODEL 3
REMARK VINA RESULT:    -7.246      1.896      6.908
REMARK INTER + INTRA:          -9.083
REMARK INTER:                  -8.664
REMARK INTRA:                  -0.419
REMARK UNBOUND:                -0.355
REMARK SMILES O=c1c(O)c(-c2ccc(O)cc2O)oc2cc(O)cc(O)c12
REMARK SMILES IDX 5 1 3 2 2 3 1 4 22 5 20 6 19 7 17 8 16 9 15 10 14 11 6 12
REMARK SMILES IDX 8 13 7 14 9 15 11 16 12 17 10 18 13 20 4 22 21 24 18 26
REMARK H PARENT 10 19 13 21 4 23 21 25 18 27
REMARK Flexibility Score: inf
ROOT
ATOM      1  C   UNL     1      39.360  -0.347  -4.026  1.00  0.00     0.184 A 
ATOM      2  C   UNL     1      38.712   0.897  -4.083  1.00  0.00     0.208 A 
ATOM      3  C   UNL     1      38.015   1.355  -2.955  1.00  0.00     0.238 A 
ATOM      4  O   UNL     1      37.391   2.446  -3.031  1.00  0.00    -0.285 OA
ATOM      5  C   UNL     1      37.988   0.568  -1.777  1.00  0.00     0.111 A 
ATOM      6  C   UNL     1      37.345   0.951  -0.562  1.00  0.00     0.134 A 
ATOM      7  C   UNL     1      37.272   0.038   0.498  1.00  0.00     0.093 A 
ATOM      8  C   UNL     1      37.873  -1.217   0.410  1.00  0.00     0.123 A 
ATOM      9  C   UNL     1      38.555  -1.579  -0.752  1.00  0.00     0.094 A 
ATOM     10  C   UNL     1      38.614  -0.704  -1.840  1.00  0.00     0.146 A 
ATOM     11  O   UNL     1      39.263  -1.092  -2.932  1.00  0.00    -0.451 OA
ENDROOT
BRANCH   1  12
ATOM     12  C   UNL     1      40.126  -0.879  -5.172  1.00  0.00     0.063 A 
ATOM     13  C   UNL     1      40.123  -1.936  -7.362  1.00  0.00     0.047 A 
ATOM     14  C   UNL     1      39.429  -1.418  -6.264  1.00  0.00     0.020 A 
ATOM     15  C   UNL     1      41.523  -1.930  -7.374  1.00  0.00     0.119 A 
ATOM     16  C   UNL     1      42.225  -1.416  -6.281  1.00  0.00     0.093 A 
ATOM     17  C   UNL     1      41.537  -0.901  -5.173  1.00  0.00     0.130 A 
BRANCH  15  18
ATOM     18  O   UNL     1      42.225  -2.439  -8.465  1.00  0.00    -0.508 OA
ATOM     19  H   UNL     1      42.323  -3.437  -8.612  1.00  0.00     0.293 HD
ENDBRANCH  15  18
BRANCH  17  20
ATOM     20  O   UNL     1      42.250  -0.435  -4.067  1.00  0.00    -0.507 OA
ATOM     21  H   UNL     1      42.925  -1.018  -3.587  1.00  0.00     0.293 HD
ENDBRANCH  17  20
ENDBRANCH   1  12
BRANCH   2  22
ATOM     22  O   UNL     1      38.739   1.645  -5.264  1.00  0.00    -0.502 OA
ATOM     23  H   UNL     1      38.816   1.216  -6.178  1.00  0.00     0.293 HD
ENDBRANCH   2  22
BRANCH   6  24
ATOM     24  O   UNL     1      36.793   2.215  -0.336  1.00  0.00    -0.507 OA
ATOM     25  H   UNL     1      37.261   3.089  -0.521  1.00  0.00     0.293 HD
ENDBRANCH   6  24
BRANCH   8  26
ATOM     26  O   UNL     1      37.793  -2.094   1.489  1.00  0.00    -0.508 OA
ATOM     27  H   UNL     1      38.619  -2.532   1.879  1.00  0.00     0.293 HD
ENDBRANCH   8  26
TORSDOF 6
ENDMDL
MODEL 4
REMARK VINA RESULT:    -7.193      2.825      4.009
REMARK INTER + INTRA:          -9.020
REMARK INTER:                  -8.611
REMARK INTRA:                  -0.409
REMARK UNBOUND:                -0.355
REMARK SMILES O=c1c(O)c(-c2ccc(O)cc2O)oc2cc(O)cc(O)c12
REMARK SMILES IDX 5 1 3 2 2 3 1 4 22 5 20 6 19 7 17 8 16 9 15 10 14 11 6 12
REMARK SMILES IDX 8 13 7 14 9 15 11 16 12 17 10 18 13 20 4 22 21 24 18 26
REMARK H PARENT 10 19 13 21 4 23 21 25 18 27
REMARK Flexibility Score: inf
ROOT
ATOM      1  C   UNL     1      39.929  -0.919  -2.701  1.00  0.00     0.184 A 
ATOM      2  C   UNL     1      40.000   0.463  -2.938  1.00  0.00     0.208 A 
ATOM      3  C   UNL     1      40.081   0.924  -4.261  1.00  0.00     0.238 A 
ATOM      4  O   UNL     1      40.198   2.161  -4.465  1.00  0.00    -0.285 OA
ATOM      5  C   UNL     1      40.077  -0.004  -5.331  1.00  0.00     0.111 A 
ATOM      6  C   UNL     1      40.115   0.352  -6.713  1.00  0.00     0.134 A 
ATOM      7  C   UNL     1      40.237  -0.652  -7.681  1.00  0.00     0.093 A 
ATOM      8  C   UNL     1      40.255  -1.999  -7.324  1.00  0.00     0.123 A 
ATOM      9  C   UNL     1      40.158  -2.361  -5.980  1.00  0.00     0.094 A 
ATOM     10  C   UNL     1      40.073  -1.381  -4.987  1.00  0.00     0.146 A 
ATOM     11  O   UNL     1      39.993  -1.768  -3.719  1.00  0.00    -0.451 OA
ENDROOT
BRANCH   1  12
ATOM     12  C   UNL     1      39.825  -1.469  -1.334  1.00  0.00     0.063 A 
ATOM     13  C   UNL     1      38.418  -2.185   0.516  1.00  0.00     0.047 A 
ATOM     14  C   UNL     1      38.553  -1.671  -0.777  1.00  0.00     0.020 A 
ATOM     15  C   UNL     1      39.556  -2.489   1.273  1.00  0.00     0.119 A 
ATOM     16  C   UNL     1      40.827  -2.269   0.735  1.00  0.00     0.093 A 
ATOM     17  C   UNL     1      40.971  -1.749  -0.560  1.00  0.00     0.130 A 
BRANCH  15  18
ATOM     18  O   UNL     1      39.434  -3.006   2.561  1.00  0.00    -0.508 OA
ATOM     19  H   UNL     1      38.755  -3.725   2.781  1.00  0.00     0.293 HD
ENDBRANCH  15  18
BRANCH  17  20
ATOM     20  O   UNL     1      42.245  -1.488  -1.066  1.00  0.00    -0.507 OA
ATOM     21  H   UNL     1      42.946  -1.003  -0.517  1.00  0.00     0.293 HD
ENDBRANCH  17  20
ENDBRANCH   1  12
BRANCH   2  22
ATOM     22  O   UNL     1      40.021   1.356  -1.863  1.00  0.00    -0.502 OA
ATOM     23  H   UNL     1      39.359   1.303  -1.099  1.00  0.00     0.293 HD
ENDBRANCH   2  22
BRANCH   6  24
ATOM     24  O   UNL     1      40.010   1.664  -7.183  1.00  0.00    -0.507 OA
ATOM     25  H   UNL     1      39.845   2.472  -6.603  1.00  0.00     0.293 HD
ENDBRANCH   6  24
BRANCH   8  26
ATOM     26  O   UNL     1      40.362  -2.972  -8.315  1.00  0.00    -0.508 OA
ATOM     27  H   UNL     1      40.068  -2.793  -9.268  1.00  0.00     0.293 HD
ENDBRANCH   8  26
TORSDOF 6
ENDMDL
MODEL 5
REMARK VINA RESULT:    -7.186      2.998      4.783
REMARK INTER + INTRA:          -9.012
REMARK INTER:                  -8.621
REMARK INTRA:                  -0.391
REMARK UNBOUND:                -0.355
REMARK SMILES O=c1c(O)c(-c2ccc(O)cc2O)oc2cc(O)cc(O)c12
REMARK SMILES IDX 5 1 3 2 2 3 1 4 22 5 20 6 19 7 17 8 16 9 15 10 14 11 6 12
REMARK SMILES IDX 8 13 7 14 9 15 11 16 12 17 10 18 13 20 4 22 21 24 18 26
REMARK H PARENT 10 19 13 21 4 23 21 25 18 27
REMARK Flexibility Score: inf
ROOT
ATOM      1  C   UNL     1      40.080  -1.428  -1.801  1.00  0.00     0.184 A 
ATOM      2  C   UNL     1      40.412  -2.162  -2.951  1.00  0.00     0.208 A 
ATOM      3  C   UNL     1      40.305  -1.546  -4.207  1.00  0.00     0.238 A 
ATOM      4  O   UNL     1      40.552  -2.225  -5.237  1.00  0.00    -0.285 OA
ATOM      5  C   UNL     1      39.882  -0.196  -4.295  1.00  0.00     0.111 A 
ATOM      6  C   UNL     1      39.775   0.542  -5.512  1.00  0.00     0.134 A 
ATOM      7  C   UNL     1      39.223   1.829  -5.493  1.00  0.00     0.093 A 
ATOM      8  C   UNL     1      38.835   2.428  -4.296  1.00  0.00     0.123 A 
ATOM      9  C   UNL     1      38.990   1.738  -3.093  1.00  0.00     0.094 A 
ATOM     10  C   UNL     1      39.503   0.439  -3.083  1.00  0.00     0.146 A 
ATOM     11  O   UNL     1      39.624  -0.187  -1.918  1.00  0.00    -0.451 OA
ENDROOT
BRANCH   1  12
ATOM     12  C   UNL     1      40.187  -2.012  -0.448  1.00  0.00     0.063 A 
ATOM     13  C   UNL     1      39.092  -3.043   1.463  1.00  0.00     0.047 A 
ATOM     14  C   UNL     1      39.027  -2.490   0.180  1.00  0.00     0.020 A 
ATOM     15  C   UNL     1      40.317  -3.113   2.137  1.00  0.00     0.119 A 
ATOM     16  C   UNL     1      41.473  -2.618   1.528  1.00  0.00     0.093 A 
ATOM     17  C   UNL     1      41.416  -2.056   0.244  1.00  0.00     0.130 A 
BRANCH  15  18
ATOM     18  O   UNL     1      40.394  -3.666   3.413  1.00  0.00    -0.508 OA
ATOM     19  H   UNL     1      39.904  -3.254   4.199  1.00  0.00     0.293 HD
ENDBRANCH  15  18
BRANCH  17  20
ATOM     20  O   UNL     1      42.569  -1.521  -0.332  1.00  0.00    -0.507 OA
ATOM     21  H   UNL     1      43.017  -1.959  -1.128  1.00  0.00     0.293 HD
ENDBRANCH  17  20
ENDBRANCH   1  12
BRANCH   2  22
ATOM     22  O   UNL     1      40.809  -3.497  -2.837  1.00  0.00    -0.502 OA
ATOM     23  H   UNL     1      40.829  -3.985  -1.949  1.00  0.00     0.293 HD
ENDBRANCH   2  22
BRANCH   6  24
ATOM     24  O   UNL     1      40.220   0.072  -6.751  1.00  0.00    -0.507 OA
ATOM     25  H   UNL     1      39.825   0.333  -7.641  1.00  0.00     0.293 HD
ENDBRANCH   6  24
BRANCH   8  26
ATOM     26  O   UNL     1      38.303   3.715  -4.313  1.00  0.00    -0.508 OA
ATOM     27  H   UNL     1      37.317   3.884  -4.149  1.00  0.00     0.293 HD
ENDBRANCH   8  26
TORSDOF 6
ENDMDL
MODEL 6
REMARK VINA RESULT:    -7.030      2.963      6.426
REMARK INTER + INTRA:          -8.824
REMARK INTER:                  -8.404
REMARK INTRA:                  -0.420
REMARK UNBOUND:                -0.355
REMARK SMILES O=c1c(O)c(-c2ccc(O)cc2O)oc2cc(O)cc(O)c12
REMARK SMILES IDX 5 1 3 2 2 3 1 4 22 5 20 6 19 7 17 8 16 9 15 10 14 11 6 12
REMARK SMILES IDX 8 13 7 14 9 15 11 16 12 17 10 18 13 20 4 22 21 24 18 26
REMARK H PARENT 10 19 13 21 4 23 21 25 18 27
REMARK Flexibility Score: inf
ROOT
ATOM      1  C   UNL     1      40.897  -1.537  -3.522  1.00  0.00     0.184 A 
ATOM      2  C   UNL     1      42.201  -1.726  -3.037  1.00  0.00     0.208 A 
ATOM      3  C   UNL     1      42.382  -2.073  -1.689  1.00  0.00     0.238 A 
ATOM      4  O   UNL     1      43.555  -2.188  -1.247  1.00  0.00    -0.285 OA
ATOM      5  C   UNL     1      41.254  -2.242  -0.848  1.00  0.00     0.111 A 
ATOM      6  C   UNL     1      41.318  -2.631   0.524  1.00  0.00     0.134 A 
ATOM      7  C   UNL     1      40.148  -2.641   1.293  1.00  0.00     0.093 A 
ATOM      8  C   UNL     1      38.911  -2.340   0.727  1.00  0.00     0.123 A 
ATOM      9  C   UNL     1      38.829  -2.015  -0.628  1.00  0.00     0.094 A 
ATOM     10  C   UNL     1      39.983  -1.961  -1.414  1.00  0.00     0.146 A 
ATOM     11  O   UNL     1      39.863  -1.637  -2.696  1.00  0.00    -0.451 OA
ENDROOT
BRANCH   1  12
ATOM     12  C   UNL     1      40.636  -1.188  -4.934  1.00  0.00     0.063 A 
ATOM     13  C   UNL     1      40.589  -1.867  -7.268  1.00  0.00     0.047 A 
ATOM     14  C   UNL     1      40.821  -2.166  -5.923  1.00  0.00     0.020 A 
ATOM     15  C   UNL     1      40.181  -0.581  -7.642  1.00  0.00     0.119 A 
ATOM     16  C   UNL     1      40.016   0.406  -6.666  1.00  0.00     0.093 A 
ATOM     17  C   UNL     1      40.253   0.116  -5.314  1.00  0.00     0.130 A 
BRANCH  15  18
ATOM     18  O   UNL     1      39.942  -0.272  -8.979  1.00  0.00    -0.508 OA
ATOM     19  H   UNL     1      39.620  -0.974  -9.635  1.00  0.00     0.293 HD
ENDBRANCH  15  18
BRANCH  17  20
ATOM     20  O   UNL     1      40.133   1.123  -4.356  1.00  0.00    -0.507 OA
ATOM     21  H   UNL     1      39.724   0.945  -3.446  1.00  0.00     0.293 HD
ENDBRANCH  17  20
ENDBRANCH   1  12
BRANCH   2  22
ATOM     22  O   UNL     1      43.296  -1.536  -3.884  1.00  0.00    -0.502 OA
ATOM     23  H   UNL     1      43.598  -0.617  -4.184  1.00  0.00     0.293 HD
ENDBRANCH   2  22
BRANCH   6  24
ATOM     24  O   UNL     1      42.491  -3.041   1.165  1.00  0.00    -0.507 OA
ATOM     25  H   UNL     1      42.672  -3.979   1.488  1.00  0.00     0.293 HD
ENDBRANCH   6  24
BRANCH   8  26
ATOM     26  O   UNL     1      37.766  -2.374   1.519  1.00  0.00    -0.508 OA
ATOM     27  H   UNL     1      37.795  -2.140   2.504  1.00  0.00     0.293 HD
ENDBRANCH   8  26
TORSDOF 6
ENDMDL
MODEL 7
REMARK VINA RESULT:    -7.015      3.278      6.366
REMARK INTER + INTRA:          -8.805
REMARK INTER:                  -8.388
REMARK INTRA:                  -0.417
REMARK UNBOUND:                -0.355
REMARK SMILES O=c1c(O)c(-c2ccc(O)cc2O)oc2cc(O)cc(O)c12
REMARK SMILES IDX 5 1 3 2 2 3 1 4 22 5 20 6 19 7 17 8 16 9 15 10 14 11 6 12
REMARK SMILES IDX 8 13 7 14 9 15 11 16 12 17 10 18 13 20 4 22 21 24 18 26
REMARK H PARENT 10 19 13 21 4 23 21 25 18 27
REMARK Flexibility Score: inf
ROOT
ATOM      1  C   UNL     1      39.821  -2.020  -3.783  1.00  0.00     0.184 A 
ATOM      2  C   UNL     1      38.705  -2.704  -3.275  1.00  0.00     0.208 A 
ATOM      3  C   UNL     1      38.714  -3.124  -1.937  1.00  0.00     0.238 A 
ATOM      4  O   UNL     1      37.734  -3.784  -1.503  1.00  0.00    -0.285 OA
ATOM      5  C   UNL     1      39.836  -2.841  -1.118  1.00  0.00     0.111 A 
ATOM      6  C   UNL     1      39.938  -3.185   0.264  1.00  0.00     0.134 A 
ATOM      7  C   UNL     1      41.144  -2.970   0.941  1.00  0.00     0.093 A 
ATOM      8  C   UNL     1      42.229  -2.367   0.307  1.00  0.00     0.123 A 
ATOM      9  C   UNL     1      42.121  -1.973  -1.027  1.00  0.00     0.094 A 
ATOM     10  C   UNL     1      40.942  -2.207  -1.741  1.00  0.00     0.146 A 
ATOM     11  O   UNL     1      40.884  -1.827  -3.012  1.00  0.00    -0.451 OA
ENDROOT
BRANCH   1  12
ATOM     12  C   UNL     1      39.868  -1.536  -5.178  1.00  0.00     0.063 A 
ATOM     13  C   UNL     1      40.120  -2.036  -7.544  1.00  0.00     0.047 A 
ATOM     14  C   UNL     1      40.064  -2.462  -6.213  1.00  0.00     0.020 A 
ATOM     15  C   UNL     1      39.993  -0.677  -7.853  1.00  0.00     0.119 A 
ATOM     16  C   UNL     1      39.820   0.255  -6.826  1.00  0.00     0.093 A 
ATOM     17  C   UNL     1      39.769  -0.162  -5.487  1.00  0.00     0.130 A 
BRANCH  15  18
ATOM     18  O   UNL     1      40.042  -0.242  -9.175  1.00  0.00    -0.508 OA
ATOM     19  H   UNL     1      39.215  -0.237  -9.762  1.00  0.00     0.293 HD
ENDBRANCH  15  18
BRANCH  17  20
ATOM     20  O   UNL     1      39.646   0.783  -4.469  1.00  0.00    -0.507 OA
ATOM     21  H   UNL     1      39.619   1.777  -4.667  1.00  0.00     0.293 HD
ENDBRANCH  17  20
ENDBRANCH   1  12
BRANCH   2  22
ATOM     22  O   UNL     1      37.620  -2.986  -4.110  1.00  0.00    -0.502 OA
ATOM     23  H   UNL     1      36.828  -2.362  -4.202  1.00  0.00     0.293 HD
ENDBRANCH   2  22
BRANCH   6  24
ATOM     24  O   UNL     1      38.883  -3.707   1.017  1.00  0.00    -0.507 OA
ATOM     25  H   UNL     1      38.963  -4.039   1.967  1.00  0.00     0.293 HD
ENDBRANCH   6  24
BRANCH   8  26
ATOM     26  O   UNL     1      43.409  -2.156   1.016  1.00  0.00    -0.508 OA
ATOM     27  H   UNL     1      44.200  -2.783   0.929  1.00  0.00     0.293 HD
ENDBRANCH   8  26
TORSDOF 6
ENDMDL
MODEL 8
REMARK VINA RESULT:    -6.931      3.389      5.081
REMARK INTER + INTRA:          -8.705
REMARK INTER:                  -8.547
REMARK INTRA:                  -0.158
REMARK UNBOUND:                -0.355
REMARK SMILES O=c1c(O)c(-c2ccc(O)cc2O)oc2cc(O)cc(O)c12
REMARK SMILES IDX 5 1 3 2 2 3 1 4 22 5 20 6 19 7 17 8 16 9 15 10 14 11 6 12
REMARK SMILES IDX 8 13 7 14 9 15 11 16 12 17 10 18 13 20 4 22 21 24 18 26
REMARK H PARENT 10 19 13 21 4 23 21 25 18 27
REMARK Flexibility Score: inf
ROOT
ATOM      1  C   UNL     1      41.374  -2.269  -3.169  1.00  0.00     0.184 A 
ATOM      2  C   UNL     1      42.402  -2.208  -4.122  1.00  0.00     0.208 A 
ATOM      3  C   UNL     1      42.070  -2.005  -5.470  1.00  0.00     0.238 A 
ATOM      4  O   UNL     1      42.993  -2.005  -6.327  1.00  0.00    -0.285 OA
ATOM      5  C   UNL     1      40.713  -1.851  -5.845  1.00  0.00     0.111 A 
ATOM      6  C   UNL     1      40.263  -1.602  -7.177  1.00  0.00     0.134 A 
ATOM      7  C   UNL     1      38.890  -1.596  -7.452  1.00  0.00     0.093 A 
ATOM      8  C   UNL     1      37.951  -1.765  -6.436  1.00  0.00     0.123 A 
ATOM      9  C   UNL     1      38.379  -1.950  -5.121  1.00  0.00     0.094 A 
ATOM     10  C   UNL     1      39.742  -1.998  -4.820  1.00  0.00     0.146 A 
ATOM     11  O   UNL     1      40.107  -2.187  -3.557  1.00  0.00    -0.451 OA
ENDROOT
BRANCH   1  12
ATOM     12  C   UNL     1      41.656  -2.463  -1.731  1.00  0.00     0.063 A 
ATOM     13  C   UNL     1      42.803  -3.713   0.011  1.00  0.00     0.047 A 
ATOM     14  C   UNL     1      42.519  -3.498  -1.341  1.00  0.00     0.020 A 
ATOM     15  C   UNL     1      42.216  -2.902   0.989  1.00  0.00     0.119 A 
ATOM     16  C   UNL     1      41.337  -1.883   0.611  1.00  0.00     0.093 A 
ATOM     17  C   UNL     1      41.042  -1.665  -0.743  1.00  0.00     0.130 A 
BRANCH  15  18
ATOM     18  O   UNL     1      42.495  -3.104   2.339  1.00  0.00    -0.508 OA
ATOM     19  H   UNL     1      42.078  -3.869   2.857  1.00  0.00     0.293 HD
ENDBRANCH  15  18
BRANCH  17  20
ATOM     20  O   UNL     1      40.126  -0.677  -1.103  1.00  0.00    -0.507 OA
ATOM     21  H   UNL     1      40.427   0.224  -1.457  1.00  0.00     0.293 HD
ENDBRANCH  17  20
ENDBRANCH   1  12
BRANCH   2  22
ATOM     22  O   UNL     1      43.732  -2.381  -3.727  1.00  0.00    -0.502 OA
ATOM     23  H   UNL     1      44.360  -1.602  -3.573  1.00  0.00     0.293 HD
ENDBRANCH   2  22
BRANCH   6  24
ATOM     24  O   UNL     1      41.116  -1.328  -8.250  1.00  0.00    -0.507 OA
ATOM     25  H   UNL     1      42.080  -1.045  -8.160  1.00  0.00     0.293 HD
ENDBRANCH   6  24
BRANCH   8  26
ATOM     26  O   UNL     1      36.593  -1.738  -6.744  1.00  0.00    -0.508 OA
ATOM     27  H   UNL     1      36.263  -1.841  -7.696  1.00  0.00     0.293 HD
ENDBRANCH   8  26
TORSDOF 6
ENDMDL
MODEL 9
REMARK VINA RESULT:    -6.929      1.678      6.596
REMARK INTER + INTRA:          -8.702
REMARK INTER:                  -8.285
REMARK INTRA:                  -0.416
REMARK UNBOUND:                -0.355
REMARK SMILES O=c1c(O)c(-c2ccc(O)cc2O)oc2cc(O)cc(O)c12
REMARK SMILES IDX 5 1 3 2 2 3 1 4 22 5 20 6 19 7 17 8 16 9 15 10 14 11 6 12
REMARK SMILES IDX 8 13 7 14 9 15 11 16 12 17 10 18 13 20 4 22 21 24 18 26
REMARK H PARENT 10 19 13 21 4 23 21 25 18 27
REMARK Flexibility Score: inf
ROOT
ATOM      1  C   UNL     1      38.110  -0.091  -3.232  1.00  0.00     0.184 A 
ATOM      2  C   UNL     1      38.729  -0.738  -2.150  1.00  0.00     0.208 A 
ATOM      3  C   UNL     1      38.165  -0.616  -0.871  1.00  0.00     0.238 A 
ATOM      4  O   UNL     1      38.754  -1.153   0.103  1.00  0.00    -0.285 OA
ATOM      5  C   UNL     1      36.979   0.139  -0.694  1.00  0.00     0.111 A 
ATOM      6  C   UNL     1      36.298   0.298   0.551  1.00  0.00     0.134 A 
ATOM      7  C   UNL     1      35.207   1.172   0.634  1.00  0.00     0.093 A 
ATOM      8  C   UNL     1      34.734   1.842  -0.492  1.00  0.00     0.123 A 
ATOM      9  C   UNL     1      35.355   1.648  -1.726  1.00  0.00     0.094 A 
ATOM     10  C   UNL     1      36.469   0.811  -1.835  1.00  0.00     0.146 A 
ATOM     11  O   UNL     1      37.038   0.663  -3.025  1.00  0.00    -0.451 OA
ENDROOT
BRANCH   1  12
ATOM     12  C   UNL     1      38.643  -0.193  -4.606  1.00  0.00     0.063 A 
ATOM     13  C   UNL     1      40.015   0.750  -6.378  1.00  0.00     0.047 A 
ATOM     14  C   UNL     1      39.498   0.813  -5.081  1.00  0.00     0.020 A 
ATOM     15  C   UNL     1      39.671  -0.313  -7.221  1.00  0.00     0.119 A 
ATOM     16  C   UNL     1      38.801  -1.308  -6.765  1.00  0.00     0.093 A 
ATOM     17  C   UNL     1      38.273  -1.249  -5.466  1.00  0.00     0.130 A 
BRANCH  15  18
ATOM     18  O   UNL     1      40.184  -0.388  -8.514  1.00  0.00    -0.508 OA
ATOM     19  H   UNL     1      39.952  -1.159  -9.131  1.00  0.00     0.293 HD
ENDBRANCH  15  18
BRANCH  17  20
ATOM     20  O   UNL     1      37.368  -2.221  -5.040  1.00  0.00    -0.507 OA
ATOM     21  H   UNL     1      37.087  -2.297  -4.069  1.00  0.00     0.293 HD
ENDBRANCH  17  20
ENDBRANCH   1  12
BRANCH   2  22
ATOM     22  O   UNL     1      39.908  -1.461  -2.350  1.00  0.00    -0.502 OA
ATOM     23  H   UNL     1      40.293  -1.630  -3.271  1.00  0.00     0.293 HD
ENDBRANCH   2  22
BRANCH   6  24
ATOM     24  O   UNL     1      36.633  -0.397   1.717  1.00  0.00    -0.507 OA
ATOM     25  H   UNL     1      37.350  -1.103   1.781  1.00  0.00     0.293 HD
ENDBRANCH   6  24
BRANCH   8  26
ATOM     26  O   UNL     1      33.637   2.693  -0.375  1.00  0.00    -0.508 OA
ATOM     27  H   UNL     1      32.766   2.505  -0.858  1.00  0.00     0.293 HD
ENDBRANCH   8  26
TORSDOF 6
ENDMDL
