MODEL 1
REMARK VINA RESULT:    -4.539      0.000      0.000
REMARK INTER + INTRA:          -8.319
REMARK INTER:                  -6.928
REMARK INTRA:                  -1.392
REMARK UNBOUND:                -1.392
REMARK SMILES CCCCCCCCCCC(=O)[O-]
REMARK SMILES IDX 7 1 8 2 9 3 10 4 11 5 12 6 13 7 6 8 5 9 4 10 3 11 2 12 1 13
REMARK H PARENT
REMARK Flexibility Score: inf
ROOT
ATOM      1  C   UNL     1      10.059  13.012 161.789  1.00  0.00     0.000 C 
ENDROOT
BRANCH   1   2
ATOM      2  C   UNL     1      11.214  12.741 162.766  1.00  0.00     0.000 C 
BRANCH   2   3
ATOM      3  C   UNL     1      12.584  12.672 162.065  1.00  0.00     0.006 C 
BRANCH   3   4
ATOM      4  C   UNL     1      13.710  13.413 162.804  1.00  0.00     0.053 C 
BRANCH   4   5
ATOM      5  C   UNL     1      14.057  14.711 162.142  1.00  0.00     0.041 C 
ATOM      6  O   UNL     1      13.806  14.886 160.920  1.00  0.00    -0.550 OA
ATOM      7  O   UNL     1      14.688  15.715 162.866  1.00  0.00    -0.550 OA
ENDBRANCH   4   5
ENDBRANCH   3   4
ENDBRANCH   2   3
ENDBRANCH   1   2
BRANCH   1   8
ATOM      8  C   UNL     1       9.459  14.403 162.022  1.00  0.00     0.000 C 
BRANCH   8   9
ATOM      9  C   UNL     1      10.145  15.455 161.141  1.00  0.00    -0.000 C 
BRANCH   9  10
ATOM     10  C   UNL     1      10.918  16.468 161.997  1.00  0.00    -0.000 C 
BRANCH  10  11
ATOM     11  C   UNL     1      10.476  16.460 163.469  1.00  0.00    -0.000 C 
BRANCH  11  12
ATOM     12  C   UNL     1      11.663  16.411 164.443  1.00  0.00    -0.003 C 
ATOM     13  C   UNL     1      11.546  15.223 165.392  1.00  0.00     0.004 C 
ENDBRANCH  11  12
ENDBRANCH  10  11
ENDBRANCH   9  10
ENDBRANCH   8   9
ENDBRANCH   1   8
TORSDOF 9
ENDMDL
MODEL 2
REMARK VINA RESULT:    -4.526      2.075      3.917
REMARK INTER + INTRA:          -8.299
REMARK INTER:                  -6.914
REMARK INTRA:                  -1.385
REMARK UNBOUND:                -1.392
REMARK SMILES CCCCCCCCCCC(=O)[O-]
REMARK SMILES IDX 7 1 8 2 9 3 10 4 11 5 12 6 13 7 6 8 5 9 4 10 3 11 2 12 1 13
REMARK H PARENT
REMARK Flexibility Score: inf
ROOT
ATOM      1  C   UNL     1      14.419  15.637 163.229  1.00  0.00     0.000 C 
ENDROOT
BRANCH   1   2
ATOM      2  C   UNL     1      13.931  14.740 162.081  1.00  0.00     0.000 C 
BRANCH   2   3
ATOM      3  C   UNL     1      13.459  13.356 162.565  1.00  0.00     0.006 C 
BRANCH   3   4
ATOM      4  C   UNL     1      12.215  12.822 161.838  1.00  0.00     0.053 C 
BRANCH   4   5
ATOM      5  C   UNL     1      11.007  12.813 162.723  1.00  0.00     0.041 C 
ATOM      6  O   UNL     1      11.139  12.846 163.975  1.00  0.00    -0.550 OA
ATOM      7  O   UNL     1       9.737  12.736 162.166  1.00  0.00    -0.550 OA
ENDBRANCH   4   5
ENDBRANCH   3   4
ENDBRANCH   2   3
ENDBRANCH   1   2
BRANCH   1   8
ATOM      8  C   UNL     1      13.410  16.756 163.517  1.00  0.00     0.000 C 
BRANCH   8   9
ATOM      9  C   UNL     1      12.279  16.259 164.426  1.00  0.00    -0.000 C 
BRANCH   9  10
ATOM     10  C   UNL     1      10.911  16.449 163.755  1.00  0.00    -0.000 C 
BRANCH  10  11
ATOM     11  C   UNL     1      11.016  17.117 162.374  1.00  0.00    -0.000 C 
BRANCH  11  12
ATOM     12  C   UNL     1      10.619  16.173 161.230  1.00  0.00    -0.003 C 
ATOM     13  C   UNL     1      11.412  16.480 159.963  1.00  0.00     0.004 C 
ENDBRANCH  11  12
ENDBRANCH  10  11
ENDBRANCH   9  10
ENDBRANCH   8   9
ENDBRANCH   1   8
TORSDOF 9
ENDMDL
MODEL 3
REMARK VINA RESULT:    -4.459      1.780      4.269
REMARK INTER + INTRA:          -8.196
REMARK INTER:                  -6.902
REMARK INTRA:                  -1.295
REMARK UNBOUND:                -1.392
REMARK SMILES CCCCCCCCCCC(=O)[O-]
REMARK SMILES IDX 7 1 8 2 9 3 10 4 11 5 12 6 13 7 6 8 5 9 4 10 3 11 2 12 1 13
REMARK H PARENT
REMARK Flexibility Score: inf
ROOT
ATOM      1  C   UNL     1      13.444  16.797 163.248  1.00  0.00     0.000 C 
ENDROOT
BRANCH   1   2
ATOM      2  C   UNL     1      12.105  16.517 163.946  1.00  0.00     0.000 C 
BRANCH   2   3
ATOM      3  C   UNL     1      10.895  17.029 163.142  1.00  0.00     0.006 C 
BRANCH   3   4
ATOM      4  C   UNL     1      11.230  17.478 161.711  1.00  0.00     0.053 C 
BRANCH   4   5
ATOM      5  C   UNL     1      10.969  16.398 160.707  1.00  0.00     0.041 C 
ATOM      6  O   UNL     1       9.918  15.707 160.779  1.00  0.00    -0.550 OA
ATOM      7  O   UNL     1      11.900  16.133 159.711  1.00  0.00    -0.550 OA
ENDBRANCH   4   5
ENDBRANCH   3   4
ENDBRANCH   2   3
ENDBRANCH   1   2
BRANCH   1   8
ATOM      8  C   UNL     1      14.326  15.543 163.229  1.00  0.00     0.000 C 
BRANCH   8   9
ATOM      9  C   UNL     1      14.010  14.664 162.013  1.00  0.00    -0.000 C 
BRANCH   9  10
ATOM     10  C   UNL     1      13.432  13.310 162.449  1.00  0.00    -0.000 C 
BRANCH  10  11
ATOM     11  C   UNL     1      12.039  13.042 161.855  1.00  0.00    -0.000 C 
BRANCH  11  12
ATOM     12  C   UNL     1      10.966  12.841 162.936  1.00  0.00    -0.003 C 
ATOM     13  C   UNL     1      11.554  13.015 164.333  1.00  0.00     0.004 C 
ENDBRANCH  11  12
ENDBRANCH  10  11
ENDBRANCH   9  10
ENDBRANCH   8   9
ENDBRANCH   1   8
TORSDOF 9
ENDMDL
MODEL 4
REMARK VINA RESULT:    -4.436      1.608      3.170
REMARK INTER + INTRA:          -8.161
REMARK INTER:                  -6.695
REMARK INTRA:                  -1.466
REMARK UNBOUND:                -1.392
REMARK SMILES CCCCCCCCCCC(=O)[O-]
REMARK SMILES IDX 7 1 8 2 9 3 10 4 11 5 12 6 13 7 6 8 5 9 4 10 3 11 2 12 1 13
REMARK H PARENT
REMARK Flexibility Score: inf
ROOT
ATOM      1  C   UNL     1      11.511  12.873 163.374  1.00  0.00     0.000 C 
ENDROOT
BRANCH   1   2
ATOM      2  C   UNL     1      10.345  13.416 162.535  1.00  0.00     0.000 C 
BRANCH   2   3
ATOM      3  C   UNL     1      10.807  14.053 161.211  1.00  0.00     0.006 C 
BRANCH   3   4
ATOM      4  C   UNL     1      10.270  15.473 160.971  1.00  0.00     0.053 C 
BRANCH   4   5
ATOM      5  C   UNL     1      11.313  16.378 160.391  1.00  0.00     0.041 C 
ATOM      6  O   UNL     1      12.305  15.894 159.785  1.00  0.00    -0.550 OA
ATOM      7  O   UNL     1      11.205  17.754 160.546  1.00  0.00    -0.550 OA
ENDBRANCH   4   5
ENDBRANCH   3   4
ENDBRANCH   2   3
ENDBRANCH   1   2
BRANCH   1   8
ATOM      8  C   UNL     1      12.855  13.147 162.687  1.00  0.00     0.000 C 
BRANCH   8   9
ATOM      9  C   UNL     1      13.755  14.023 163.567  1.00  0.00    -0.000 C 
BRANCH   9  10
ATOM     10  C   UNL     1      14.160  15.308 162.831  1.00  0.00    -0.000 C 
BRANCH  10  11
ATOM     11  C   UNL     1      13.372  16.538 163.308  1.00  0.00    -0.000 C 
BRANCH  11  12
ATOM     12  C   UNL     1      12.482  16.235 164.523  1.00  0.00    -0.003 C 
ATOM     13  C   UNL     1      11.057  16.730 164.298  1.00  0.00     0.004 C 
ENDBRANCH  11  12
ENDBRANCH  10  11
ENDBRANCH   9  10
ENDBRANCH   8   9
ENDBRANCH   1   8
TORSDOF 9
ENDMDL
MODEL 5
REMARK VINA RESULT:    -4.393      2.309      3.494
REMARK INTER + INTRA:          -8.097
REMARK INTER:                  -6.786
REMARK INTRA:                  -1.311
REMARK UNBOUND:                -1.392
REMARK SMILES CCCCCCCCCCC(=O)[O-]
REMARK SMILES IDX 7 1 8 2 9 3 10 4 11 5 12 6 13 7 6 8 5 9 4 10 3 11 2 12 1 13
REMARK H PARENT
REMARK Flexibility Score: inf
ROOT
ATOM      1  C   UNL     1      13.701  15.063 162.131  1.00  0.00     0.000 C 
ENDROOT
BRANCH   1   2
ATOM      2  C   UNL     1      13.780  13.625 162.666  1.00  0.00     0.000 C 
BRANCH   2   3
ATOM      3  C   UNL     1      12.685  12.711 162.086  1.00  0.00     0.006 C 
BRANCH   3   4
ATOM      4  C   UNL     1      11.616  13.449 161.263  1.00  0.00     0.053 C 
BRANCH   4   5
ATOM      5  C   UNL     1      10.227  13.072 161.680  1.00  0.00     0.041 C 
ATOM      6  O   UNL     1       9.866  11.865 161.662  1.00  0.00    -0.550 OA
ATOM      7  O   UNL     1       9.323  14.056 162.057  1.00  0.00    -0.550 OA
ENDBRANCH   4   5
ENDBRANCH   3   4
ENDBRANCH   2   3
ENDBRANCH   1   2
BRANCH   1   8
ATOM      8  C   UNL     1      14.317  16.054 163.126  1.00  0.00     0.000 C 
BRANCH   8   9
ATOM      9  C   UNL     1      13.253  17.009 163.683  1.00  0.00    -0.000 C 
BRANCH   9  10
ATOM     10  C   UNL     1      11.859  16.651 163.147  1.00  0.00    -0.000 C 
BRANCH  10  11
ATOM     11  C   UNL     1      10.841  16.393 164.270  1.00  0.00    -0.000 C 
BRANCH  11  12
ATOM     12  C   UNL     1      11.455  15.645 165.463  1.00  0.00    -0.003 C 
ATOM     13  C   UNL     1      11.355  14.135 165.274  1.00  0.00     0.004 C 
ENDBRANCH  11  12
ENDBRANCH  10  11
ENDBRANCH   9  10
ENDBRANCH   8   9
ENDBRANCH   1   8
TORSDOF 9
ENDMDL
MODEL 6
REMARK VINA RESULT:    -4.382      2.112      4.279
REMARK INTER + INTRA:          -8.079
REMARK INTER:                  -6.652
REMARK INTRA:                  -1.426
REMARK UNBOUND:                -1.392
REMARK SMILES CCCCCCCCCCC(=O)[O-]
REMARK SMILES IDX 7 1 8 2 9 3 10 4 11 5 12 6 13 7 6 8 5 9 4 10 3 11 2 12 1 13
REMARK H PARENT
REMARK Flexibility Score: inf
ROOT
ATOM      1  C   UNL     1      14.295  14.330 163.174  1.00  0.00     0.000 C 
ENDROOT
BRANCH   1   2
ATOM      2  C   UNL     1      13.861  15.685 162.595  1.00  0.00     0.000 C 
BRANCH   2   3
ATOM      3  C   UNL     1      13.479  16.704 163.684  1.00  0.00     0.006 C 
BRANCH   3   4
ATOM      4  C   UNL     1      12.025  17.197 163.608  1.00  0.00     0.053 C 
BRANCH   4   5
ATOM      5  C   UNL     1      11.137  16.480 164.578  1.00  0.00     0.041 C 
ATOM      6  O   UNL     1       9.886  16.513 164.435  1.00  0.00    -0.550 OA
ATOM      7  O   UNL     1      11.690  15.802 165.657  1.00  0.00    -0.550 OA
ENDBRANCH   4   5
ENDBRANCH   3   4
ENDBRANCH   2   3
ENDBRANCH   1   2
BRANCH   1   8
ATOM      8  C   UNL     1      13.365  13.207 162.700  1.00  0.00     0.000 C 
BRANCH   8   9
ATOM      9  C   UNL     1      12.151  13.067 163.628  1.00  0.00    -0.000 C 
BRANCH   9  10
ATOM     10  C   UNL     1      10.843  13.061 162.824  1.00  0.00    -0.000 C 
BRANCH  10  11
ATOM     11  C   UNL     1      11.001  13.691 161.430  1.00  0.00    -0.000 C 
BRANCH  11  12
ATOM     12  C   UNL     1      10.173  14.974 161.265  1.00  0.00    -0.003 C 
ATOM     13  C   UNL     1      10.870  15.960 160.331  1.00  0.00     0.004 C 
ENDBRANCH  11  12
ENDBRANCH  10  11
ENDBRANCH   9  10
ENDBRANCH   8   9
ENDBRANCH   1   8
TORSDOF 9
ENDMDL
MODEL 7
REMARK VINA RESULT:    -4.346      2.275      4.260
REMARK INTER + INTRA:          -8.024
REMARK INTER:                  -6.954
REMARK INTRA:                  -1.070
REMARK UNBOUND:                -1.392
REMARK SMILES CCCCCCCCCCC(=O)[O-]
REMARK SMILES IDX 7 1 8 2 9 3 10 4 11 5 12 6 13 7 6 8 5 9 4 10 3 11 2 12 1 13
REMARK H PARENT
REMARK Flexibility Score: inf
ROOT
ATOM      1  C   UNL     1      10.914  15.962 161.704  1.00  0.00     0.000 C 
ENDROOT
BRANCH   1   2
ATOM      2  C   UNL     1      11.263  17.266 162.438  1.00  0.00     0.000 C 
BRANCH   2   3
ATOM      3  C   UNL     1      11.040  17.171 163.960  1.00  0.00     0.006 C 
BRANCH   3   4
ATOM      4  C   UNL     1      12.001  16.213 164.681  1.00  0.00     0.053 C 
BRANCH   4   5
ATOM      5  C   UNL     1      11.270  15.166 165.463  1.00  0.00     0.041 C 
ATOM      6  O   UNL     1      11.404  13.948 165.172  1.00  0.00    -0.550 OA
ATOM      7  O   UNL     1      10.415  15.538 166.493  1.00  0.00    -0.550 OA
ENDBRANCH   4   5
ENDBRANCH   3   4
ENDBRANCH   2   3
ENDBRANCH   1   2
BRANCH   1   8
ATOM      8  C   UNL     1      11.756  15.807 160.432  1.00  0.00     0.000 C 
BRANCH   8   9
ATOM      9  C   UNL     1      12.945  14.867 160.670  1.00  0.00    -0.000 C 
BRANCH   9  10
ATOM     10  C   UNL     1      12.589  13.779 161.693  1.00  0.00    -0.000 C 
BRANCH  10  11
ATOM     11  C   UNL     1      13.715  13.531 162.710  1.00  0.00    -0.000 C 
BRANCH  11  12
ATOM     12  C   UNL     1      14.668  14.728 162.839  1.00  0.00    -0.003 C 
ATOM     13  C   UNL     1      16.120  14.267 162.932  1.00  0.00     0.004 C 
ENDBRANCH  11  12
ENDBRANCH  10  11
ENDBRANCH   9  10
ENDBRANCH   8   9
ENDBRANCH   1   8
TORSDOF 9
ENDMDL
MODEL 8
REMARK VINA RESULT:    -4.299      1.361      3.690
REMARK INTER + INTRA:          -7.953
REMARK INTER:                  -6.933
REMARK INTRA:                  -1.020
REMARK UNBOUND:                -1.392
REMARK SMILES CCCCCCCCCCC(=O)[O-]
REMARK SMILES IDX 7 1 8 2 9 3 10 4 11 5 12 6 13 7 6 8 5 9 4 10 3 11 2 12 1 13
REMARK H PARENT
REMARK Flexibility Score: inf
ROOT
ATOM      1  C   UNL     1       9.489  14.590 161.807  1.00  0.00     0.000 C 
ENDROOT
BRANCH   1   2
ATOM      2  C   UNL     1      10.470  15.532 161.093  1.00  0.00     0.000 C 
BRANCH   2   3
ATOM      3  C   UNL     1      10.898  16.724 161.969  1.00  0.00     0.006 C 
BRANCH   3   4
ATOM      4  C   UNL     1      10.722  16.495 163.478  1.00  0.00     0.053 C 
BRANCH   4   5
ATOM      5  C   UNL     1      12.036  16.435 164.194  1.00  0.00     0.041 C 
ATOM      6  O   UNL     1      13.043  17.026 163.721  1.00  0.00    -0.550 OA
ATOM      7  O   UNL     1      12.157  15.701 165.367  1.00  0.00    -0.550 OA
ENDBRANCH   4   5
ENDBRANCH   3   4
ENDBRANCH   2   3
ENDBRANCH   1   2
BRANCH   1   8
ATOM      8  C   UNL     1      10.003  13.146 161.789  1.00  0.00     0.000 C 
BRANCH   8   9
ATOM      9  C   UNL     1      11.156  12.958 162.784  1.00  0.00    -0.000 C 
BRANCH   9  10
ATOM     10  C   UNL     1      12.471  12.656 162.051  1.00  0.00    -0.000 C 
BRANCH  10  11
ATOM     11  C   UNL     1      13.477  13.815 162.137  1.00  0.00    -0.000 C 
BRANCH  11  12
ATOM     12  C   UNL     1      14.423  13.687 163.341  1.00  0.00    -0.003 C 
ATOM     13  C   UNL     1      15.822  14.188 162.996  1.00  0.00     0.004 C 
ENDBRANCH  11  12
ENDBRANCH  10  11
ENDBRANCH   9  10
ENDBRANCH   8   9
ENDBRANCH   1   8
TORSDOF 9
ENDMDL
MODEL 9
REMARK VINA RESULT:    -4.218      1.943      4.286
REMARK INTER + INTRA:          -7.829
REMARK INTER:                  -6.562
REMARK INTRA:                  -1.267
REMARK UNBOUND:                -1.392
REMARK SMILES CCCCCCCCCCC(=O)[O-]
REMARK SMILES IDX 7 1 8 2 9 3 10 4 11 5 12 6 13 7 6 8 5 9 4 10 3 11 2 12 1 13
REMARK H PARENT
REMARK Flexibility Score: inf
ROOT
ATOM      1  C   UNL     1      10.897  16.230 161.119  1.00  0.00     0.000 C 
ENDROOT
BRANCH   1   2
ATOM      2  C   UNL     1      11.227  17.630 161.658  1.00  0.00     0.000 C 
BRANCH   2   3
ATOM      3  C   UNL     1      10.984  17.758 163.174  1.00  0.00     0.006 C 
BRANCH   3   4
ATOM      4  C   UNL     1      10.437  16.483 163.836  1.00  0.00     0.053 C 
BRANCH   4   5
ATOM      5  C   UNL     1      11.309  16.015 164.960  1.00  0.00     0.041 C 
ATOM      6  O   UNL     1      12.559  16.161 164.894  1.00  0.00    -0.550 OA
ATOM      7  O   UNL     1      10.746  15.388 166.064  1.00  0.00    -0.550 OA
ENDBRANCH   4   5
ENDBRANCH   3   4
ENDBRANCH   2   3
ENDBRANCH   1   2
BRANCH   1   8
ATOM      8  C   UNL     1      12.135  15.576 160.495  1.00  0.00     0.000 C 
BRANCH   8   9
ATOM      9  C   UNL     1      13.113  15.102 161.578  1.00  0.00    -0.000 C 
BRANCH   9  10
ATOM     10  C   UNL     1      13.071  13.574 161.724  1.00  0.00    -0.000 C 
BRANCH  10  11
ATOM     11  C   UNL     1      12.386  13.122 163.024  1.00  0.00    -0.000 C 
BRANCH  11  12
ATOM     12  C   UNL     1      10.886  12.846 162.837  1.00  0.00    -0.003 C 
ATOM     13  C   UNL     1      10.610  12.216 161.475  1.00  0.00     0.004 C 
ENDBRANCH  11  12
ENDBRANCH  10  11
ENDBRANCH   9  10
ENDBRANCH   8   9
ENDBRANCH   1   8
TORSDOF 9
ENDMDL
