MODEL 1
REMARK VINA RESULT:    -5.352      0.000      0.000
REMARK INTER + INTRA:          -7.041
REMARK INTER:                  -6.760
REMARK INTRA:                  -0.281
REMARK UNBOUND:                -0.281
REMARK SMILES CC(C)=CCCC(C)=CCO
REMARK SMILES IDX 7 1 9 2 8 3 6 4 5 5 4 6 1 7 2 8 3 9 10 10 11 11
REMARK H PARENT 11 12
REMARK Flexibility Score: inf
ROOT
ATOM      1  C   UNL     1      38.242 -30.861  -6.257  1.00  0.00    -0.075 C 
ATOM      2  C   UNL     1      39.131 -31.745  -6.764  1.00  0.00    -0.000 C 
ATOM      3  C   UNL     1      37.764 -31.062  -4.841  1.00  0.00     0.039 C 
ENDROOT
BRANCH   1   4
ATOM      4  C   UNL     1      37.689 -29.690  -7.049  1.00  0.00     0.034 C 
BRANCH   4   5
ATOM      5  C   UNL     1      36.240 -29.365  -6.659  1.00  0.00     0.032 C 
BRANCH   5   6
ATOM      6  C   UNL     1      35.348 -29.277  -7.874  1.00  0.00    -0.028 C 
ATOM      7  C   UNL     1      34.339 -27.081  -7.215  1.00  0.00     0.039 C 
ATOM      8  C   UNL     1      34.476 -28.276  -8.126  1.00  0.00    -0.080 C 
ATOM      9  C   UNL     1      33.618 -28.367  -9.362  1.00  0.00     0.039 C 
ENDBRANCH   5   6
ENDBRANCH   4   5
ENDBRANCH   1   4
BRANCH   2  10
ATOM     10  C   UNL     1      39.733 -31.661  -8.140  1.00  0.00     0.183 C 
BRANCH  10  11
ATOM     11  O   UNL     1      40.931 -30.939  -8.089  1.00  0.00    -0.392 OA
ATOM     12  H   UNL     1      41.366 -31.064  -8.972  1.00  0.00     0.210 HD
ENDBRANCH  10  11
ENDBRANCH   2  10
TORSDOF 5
ENDMDL
MODEL 2
REMARK VINA RESULT:    -5.047      2.307      4.963
REMARK INTER + INTRA:          -6.656
REMARK INTER:                  -6.352
REMARK INTRA:                  -0.303
REMARK UNBOUND:                -0.281
REMARK SMILES CC(C)=CCCC(C)=CCO
REMARK SMILES IDX 7 1 9 2 8 3 6 4 5 5 4 6 1 7 2 8 3 9 10 10 11 11
REMARK H PARENT 11 12
REMARK Flexibility Score: inf
ROOT
ATOM      1  C   UNL     1      37.303 -30.060  -6.464  1.00  0.00    -0.075 C 
ATOM      2  C   UNL     1      38.173 -30.271  -7.478  1.00  0.00    -0.000 C 
ATOM      3  C   UNL     1      36.021 -29.325  -6.764  1.00  0.00     0.039 C 
ENDROOT
BRANCH   1   4
ATOM      4  C   UNL     1      37.563 -30.510  -5.037  1.00  0.00     0.034 C 
BRANCH   4   5
ATOM      5  C   UNL     1      36.400 -30.152  -4.100  1.00  0.00     0.032 C 
BRANCH   5   6
ATOM      6  C   UNL     1      36.893 -29.814  -2.713  1.00  0.00    -0.028 C 
ATOM      7  C   UNL     1      36.540 -32.126  -1.816  1.00  0.00     0.039 C 
ATOM      8  C   UNL     1      36.940 -30.677  -1.675  1.00  0.00    -0.080 C 
ATOM      9  C   UNL     1      37.410 -30.164  -0.338  1.00  0.00     0.039 C 
ENDBRANCH   5   6
ENDBRANCH   4   5
ENDBRANCH   1   4
BRANCH   2  10
ATOM     10  C   UNL     1      39.472 -31.019  -7.351  1.00  0.00     0.183 C 
BRANCH  10  11
ATOM     11  O   UNL     1      40.516 -30.117  -7.114  1.00  0.00    -0.392 OA
ATOM     12  H   UNL     1      40.122 -29.210  -7.204  1.00  0.00     0.210 HD
ENDBRANCH  10  11
ENDBRANCH   2  10
TORSDOF 5
ENDMDL
MODEL 3
REMARK VINA RESULT:    -4.923      3.074      5.583
REMARK INTER + INTRA:          -6.499
REMARK INTER:                  -6.212
REMARK INTRA:                  -0.287
REMARK UNBOUND:                -0.281
REMARK SMILES CC(C)=CCCC(C)=CCO
REMARK SMILES IDX 7 1 9 2 8 3 6 4 5 5 4 6 1 7 2 8 3 9 10 10 11 11
REMARK H PARENT 11 12
REMARK Flexibility Score: inf
ROOT
ATOM      1  C   UNL     1      36.990 -29.713  -6.688  1.00  0.00    -0.075 C 
ATOM      2  C   UNL     1      36.345 -29.033  -7.663  1.00  0.00    -0.000 C 
ATOM      3  C   UNL     1      38.413 -30.143  -6.939  1.00  0.00     0.039 C 
ENDROOT
BRANCH   1   4
ATOM      4  C   UNL     1      36.345 -30.082  -5.364  1.00  0.00     0.034 C 
BRANCH   4   5
ATOM      5  C   UNL     1      37.390 -30.406  -4.286  1.00  0.00     0.032 C 
BRANCH   5   6
ATOM      6  C   UNL     1      36.951 -29.915  -2.927  1.00  0.00    -0.028 C 
ATOM      7  C   UNL     1      36.707 -32.213  -1.962  1.00  0.00     0.039 C 
ATOM      8  C   UNL     1      36.620 -30.709  -1.885  1.00  0.00    -0.080 C 
ATOM      9  C   UNL     1      36.150 -30.057  -0.610  1.00  0.00     0.039 C 
ENDBRANCH   5   6
ENDBRANCH   4   5
ENDBRANCH   1   4
BRANCH   2  10
ATOM     10  C   UNL     1      34.941 -28.502  -7.553  1.00  0.00     0.183 C 
BRANCH  10  11
ATOM     11  O   UNL     1      34.034 -29.468  -8.003  1.00  0.00    -0.392 OA
ATOM     12  H   UNL     1      34.182 -30.270  -7.437  1.00  0.00     0.210 HD
ENDBRANCH  10  11
ENDBRANCH   2  10
TORSDOF 5
ENDMDL
MODEL 4
REMARK VINA RESULT:    -4.844      2.509      5.297
REMARK INTER + INTRA:          -6.400
REMARK INTER:                  -6.035
REMARK INTRA:                  -0.365
REMARK UNBOUND:                -0.281
REMARK SMILES CC(C)=CCCC(C)=CCO
REMARK SMILES IDX 7 1 9 2 8 3 6 4 5 5 4 6 1 7 2 8 3 9 10 10 11 11
REMARK H PARENT 11 12
REMARK Flexibility Score: inf
ROOT
ATOM      1  C   UNL     1      35.152 -28.734  -7.362  1.00  0.00    -0.075 C 
ATOM      2  C   UNL     1      34.038 -28.288  -7.985  1.00  0.00    -0.000 C 
ATOM      3  C   UNL     1      35.098 -28.954  -5.871  1.00  0.00     0.039 C 
ENDROOT
BRANCH   1   4
ATOM      4  C   UNL     1      36.459 -29.006  -8.086  1.00  0.00     0.034 C 
BRANCH   4   5
ATOM      5  C   UNL     1      37.657 -29.023  -7.125  1.00  0.00     0.032 C 
BRANCH   5   6
ATOM      6  C   UNL     1      38.364 -30.357  -7.148  1.00  0.00    -0.028 C 
ATOM      7  C   UNL     1      37.726 -30.952  -4.800  1.00  0.00     0.039 C 
ATOM      8  C   UNL     1      38.425 -31.220  -6.110  1.00  0.00    -0.080 C 
ATOM      9  C   UNL     1      39.219 -32.489  -6.281  1.00  0.00     0.039 C 
ENDBRANCH   5   6
ENDBRANCH   4   5
ENDBRANCH   1   4
BRANCH   2  10
ATOM     10  C   UNL     1      33.919 -28.058  -9.467  1.00  0.00     0.183 C 
BRANCH  10  11
ATOM     11  O   UNL     1      33.770 -29.285 -10.125  1.00  0.00    -0.392 OA
ATOM     12  H   UNL     1      34.016 -29.121 -11.072  1.00  0.00     0.210 HD
ENDBRANCH  10  11
ENDBRANCH   2  10
TORSDOF 5
ENDMDL
MODEL 5
REMARK VINA RESULT:    -4.840      1.932      2.581
REMARK INTER + INTRA:          -6.394
REMARK INTER:                  -6.590
REMARK INTRA:                   0.195
REMARK UNBOUND:                -0.281
REMARK SMILES CC(C)=CCCC(C)=CCO
REMARK SMILES IDX 7 1 9 2 8 3 6 4 5 5 4 6 1 7 2 8 3 9 10 10 11 11
REMARK H PARENT 11 12
REMARK Flexibility Score: inf
ROOT
ATOM      1  C   UNL     1      38.268 -30.851  -6.599  1.00  0.00    -0.075 C 
ATOM      2  C   UNL     1      38.181 -31.400  -5.366  1.00  0.00    -0.000 C 
ATOM      3  C   UNL     1      39.031 -31.600  -7.662  1.00  0.00     0.039 C 
ENDROOT
BRANCH   1   4
ATOM      4  C   UNL     1      37.651 -29.511  -6.959  1.00  0.00     0.034 C 
BRANCH   4   5
ATOM      5  C   UNL     1      36.150 -29.464  -6.638  1.00  0.00     0.032 C 
BRANCH   5   6
ATOM      6  C   UNL     1      35.325 -29.257  -7.886  1.00  0.00    -0.028 C 
ATOM      7  C   UNL     1      34.320 -27.103  -7.097  1.00  0.00     0.039 C 
ATOM      8  C   UNL     1      34.484 -28.221  -8.097  1.00  0.00    -0.080 C 
ATOM      9  C   UNL     1      33.692 -28.191  -9.379  1.00  0.00     0.039 C 
ENDBRANCH   5   6
ENDBRANCH   4   5
ENDBRANCH   1   4
BRANCH   2  10
ATOM     10  C   UNL     1      37.425 -30.800  -4.212  1.00  0.00     0.183 C 
BRANCH  10  11
ATOM     11  O   UNL     1      36.997 -31.815  -3.348  1.00  0.00    -0.392 OA
ATOM     12  H   UNL     1      36.166 -31.481  -2.922  1.00  0.00     0.210 HD
ENDBRANCH  10  11
ENDBRANCH   2  10
TORSDOF 5
ENDMDL
MODEL 6
REMARK VINA RESULT:    -4.768      2.409      3.196
REMARK INTER + INTRA:          -6.303
REMARK INTER:                  -6.421
REMARK INTRA:                   0.118
REMARK UNBOUND:                -0.281
REMARK SMILES CC(C)=CCCC(C)=CCO
REMARK SMILES IDX 7 1 9 2 8 3 6 4 5 5 4 6 1 7 2 8 3 9 10 10 11 11
REMARK H PARENT 11 12
REMARK Flexibility Score: inf
ROOT
ATOM      1  C   UNL     1      37.467 -30.641  -5.332  1.00  0.00    -0.075 C 
ATOM      2  C   UNL     1      37.473 -30.934  -4.012  1.00  0.00    -0.000 C 
ATOM      3  C   UNL     1      38.569 -31.203  -6.193  1.00  0.00     0.039 C 
ENDROOT
BRANCH   1   4
ATOM      4  C   UNL     1      36.416 -29.760  -5.984  1.00  0.00     0.034 C 
BRANCH   4   5
ATOM      5  C   UNL     1      36.934 -29.104  -7.272  1.00  0.00     0.032 C 
BRANCH   5   6
ATOM      6  C   UNL     1      35.833 -28.950  -8.294  1.00  0.00    -0.028 C 
ATOM      7  C   UNL     1      34.372 -27.572  -6.796  1.00  0.00     0.039 C 
ATOM      8  C   UNL     1      34.672 -28.289  -8.090  1.00  0.00    -0.080 C 
ATOM      9  C   UNL     1      33.653 -28.274  -9.200  1.00  0.00     0.039 C 
ENDBRANCH   5   6
ENDBRANCH   4   5
ENDBRANCH   1   4
BRANCH   2  10
ATOM     10  C   UNL     1      36.425 -30.486  -3.030  1.00  0.00     0.183 C 
BRANCH  10  11
ATOM     11  O   UNL     1      37.039 -29.875  -1.930  1.00  0.00    -0.392 OA
ATOM     12  H   UNL     1      37.364 -30.612  -1.350  1.00  0.00     0.210 HD
ENDBRANCH  10  11
ENDBRANCH   2  10
TORSDOF 5
ENDMDL
MODEL 7
REMARK VINA RESULT:    -4.680      2.721      5.393
REMARK INTER + INTRA:          -6.193
REMARK INTER:                  -6.022
REMARK INTRA:                  -0.170
REMARK UNBOUND:                -0.281
REMARK SMILES CC(C)=CCCC(C)=CCO
REMARK SMILES IDX 7 1 9 2 8 3 6 4 5 5 4 6 1 7 2 8 3 9 10 10 11 11
REMARK H PARENT 11 12
REMARK Flexibility Score: inf
ROOT
ATOM      1  C   UNL     1      35.625 -29.027  -7.118  1.00  0.00    -0.075 C 
ATOM      2  C   UNL     1      34.437 -28.797  -7.722  1.00  0.00    -0.000 C 
ATOM      3  C   UNL     1      35.634 -29.270  -5.630  1.00  0.00     0.039 C 
ENDROOT
BRANCH   1   4
ATOM      4  C   UNL     1      36.949 -29.035  -7.860  1.00  0.00     0.034 C 
BRANCH   4   5
ATOM      5  C   UNL     1      38.098 -29.554  -6.984  1.00  0.00     0.032 C 
BRANCH   5   6
ATOM      6  C   UNL     1      38.143 -31.064  -6.971  1.00  0.00    -0.028 C 
ATOM      7  C   UNL     1      40.168 -31.208  -8.438  1.00  0.00     0.039 C 
ATOM      8  C   UNL     1      39.046 -31.818  -7.634  1.00  0.00    -0.080 C 
ATOM      9  C   UNL     1      38.919 -33.318  -7.559  1.00  0.00     0.039 C 
ENDBRANCH   5   6
ENDBRANCH   4   5
ENDBRANCH   1   4
BRANCH   2  10
ATOM     10  C   UNL     1      34.256 -28.577  -9.199  1.00  0.00     0.183 C 
BRANCH  10  11
ATOM     11  O   UNL     1      33.515 -27.409  -9.415  1.00  0.00    -0.392 OA
ATOM     12  H   UNL     1      32.588 -27.613  -9.124  1.00  0.00     0.210 HD
ENDBRANCH  10  11
ENDBRANCH   2  10
TORSDOF 5
ENDMDL
MODEL 8
REMARK VINA RESULT:    -4.267      1.665      2.325
REMARK INTER + INTRA:          -5.671
REMARK INTER:                  -5.522
REMARK INTRA:                  -0.148
REMARK UNBOUND:                -0.281
REMARK SMILES CC(C)=CCCC(C)=CCO
REMARK SMILES IDX 7 1 9 2 8 3 6 4 5 5 4 6 1 7 2 8 3 9 10 10 11 11
REMARK H PARENT 11 12
REMARK Flexibility Score: inf
ROOT
ATOM      1  C   UNL     1      39.184 -31.192  -7.860  1.00  0.00    -0.075 C 
ATOM      2  C   UNL     1      39.258 -32.410  -7.276  1.00  0.00    -0.000 C 
ATOM      3  C   UNL     1      39.449 -31.093  -9.341  1.00  0.00     0.039 C 
ENDROOT
BRANCH   1   4
ATOM      4  C   UNL     1      38.865 -29.920  -7.096  1.00  0.00     0.034 C 
BRANCH   4   5
ATOM      5  C   UNL     1      37.387 -29.851  -6.684  1.00  0.00     0.032 C 
BRANCH   5   6
ATOM      6  C   UNL     1      36.518 -29.379  -7.824  1.00  0.00    -0.028 C 
ATOM      7  C   UNL     1      34.737 -28.442  -6.333  1.00  0.00     0.039 C 
ATOM      8  C   UNL     1      35.320 -28.769  -7.686  1.00  0.00    -0.080 C 
ATOM      9  C   UNL     1      34.552 -28.408  -8.931  1.00  0.00     0.039 C 
ENDBRANCH   5   6
ENDBRANCH   4   5
ENDBRANCH   1   4
BRANCH   2  10
ATOM     10  C   UNL     1      38.983 -32.681  -5.823  1.00  0.00     0.183 C 
BRANCH  10  11
ATOM     11  O   UNL     1      39.912 -33.604  -5.330  1.00  0.00    -0.392 OA
ATOM     12  H   UNL     1      40.794 -33.329  -5.694  1.00  0.00     0.210 HD
ENDBRANCH  10  11
ENDBRANCH   2  10
TORSDOF 5
ENDMDL
MODEL 9
REMARK VINA RESULT:    -3.759      2.274      5.191
REMARK INTER + INTRA:          -5.029
REMARK INTER:                  -5.062
REMARK INTRA:                   0.033
REMARK UNBOUND:                -0.281
REMARK SMILES CC(C)=CCCC(C)=CCO
REMARK SMILES IDX 7 1 9 2 8 3 6 4 5 5 4 6 1 7 2 8 3 9 10 10 11 11
REMARK H PARENT 11 12
REMARK Flexibility Score: inf
ROOT
ATOM      1  C   UNL     1      36.359 -29.469  -6.130  1.00  0.00    -0.075 C 
ATOM      2  C   UNL     1      36.034 -29.906  -4.892  1.00  0.00    -0.000 C 
ATOM      3  C   UNL     1      35.241 -29.118  -7.079  1.00  0.00     0.039 C 
ENDROOT
BRANCH   1   4
ATOM      4  C   UNL     1      37.791 -29.333  -6.616  1.00  0.00     0.034 C 
BRANCH   4   5
ATOM      5  C   UNL     1      38.531 -30.678  -6.611  1.00  0.00     0.032 C 
BRANCH   5   6
ATOM      6  C   UNL     1      39.627 -30.708  -7.649  1.00  0.00    -0.028 C 
ATOM      7  C   UNL     1      39.109 -33.039  -8.408  1.00  0.00     0.039 C 
ATOM      8  C   UNL     1      39.914 -31.763  -8.444  1.00  0.00    -0.080 C 
ATOM      9  C   UNL     1      41.079 -31.648  -9.393  1.00  0.00     0.039 C 
ENDBRANCH   5   6
ENDBRANCH   4   5
ENDBRANCH   1   4
BRANCH   2  10
ATOM     10  C   UNL     1      37.028 -30.258  -3.820  1.00  0.00     0.183 C 
BRANCH  10  11
ATOM     11  O   UNL     1      37.034 -31.643  -3.616  1.00  0.00    -0.392 OA
ATOM     12  H   UNL     1      36.895 -32.053  -4.509  1.00  0.00     0.210 HD
ENDBRANCH  10  11
ENDBRANCH   2  10
TORSDOF 5
ENDMDL
