MODEL 1
REMARK VINA RESULT:    -5.072      0.000      0.000
REMARK INTER + INTRA:          -6.413
REMARK INTER:                  -6.258
REMARK INTRA:                  -0.156
REMARK UNBOUND:                -0.156
REMARK SMILES C=CC[C@H](C)C(=O)CC
REMARK SMILES IDX 4 1 5 2 6 3 7 4 8 5 9 6 3 7 2 8 1 9
REMARK H PARENT
REMARK Flexibility Score: inf
ROOT
ATOM      1  C   UNL     1      26.479 -13.249  28.345  1.00  0.00     0.057 C 
ATOM      2  C   UNL     1      25.471 -14.363  28.036  1.00  0.00     0.016 C 
ENDROOT
BRANCH   1   3
ATOM      3  C   UNL     1      27.516 -13.143  27.243  1.00  0.00     0.135 C 
ATOM      4  O   UNL     1      27.522 -13.980  26.352  1.00  0.00    -0.299 OA
BRANCH   3   5
ATOM      5  C   UNL     1      28.525 -12.021  27.197  1.00  0.00     0.072 C 
ATOM      6  C   UNL     1      28.635 -11.446  25.788  1.00  0.00     0.012 C 
ENDBRANCH   3   5
ENDBRANCH   1   3
BRANCH   1   7
ATOM      7  C   UNL     1      27.128 -13.464  29.729  1.00  0.00     0.038 C 
BRANCH   7   8
ATOM      8  C   UNL     1      26.317 -14.386  30.601  1.00  0.00    -0.034 C 
ATOM      9  C   UNL     1      26.550 -14.502  31.912  1.00  0.00     0.004 C 
ENDBRANCH   7   8
ENDBRANCH   1   7
TORSDOF 4
ENDMDL
MODEL 2
REMARK VINA RESULT:    -4.927      1.735      2.391
REMARK INTER + INTRA:          -6.235
REMARK INTER:                  -5.996
REMARK INTRA:                  -0.239
REMARK UNBOUND:                -0.156
REMARK SMILES C=CC[C@H](C)C(=O)CC
REMARK SMILES IDX 4 1 5 2 6 3 7 4 8 5 9 6 3 7 2 8 1 9
REMARK H PARENT
REMARK Flexibility Score: inf
ROOT
ATOM      1  C   UNL     1      27.665 -13.057  28.857  1.00  0.00     0.057 C 
ATOM      2  C   UNL     1      27.724 -11.830  29.775  1.00  0.00     0.016 C 
ENDROOT
BRANCH   1   3
ATOM      3  C   UNL     1      28.681 -12.940  27.737  1.00  0.00     0.135 C 
ATOM      4  O   UNL     1      29.870 -13.024  28.005  1.00  0.00    -0.299 OA
BRANCH   3   5
ATOM      5  C   UNL     1      28.269 -12.748  26.298  1.00  0.00     0.072 C 
ATOM      6  C   UNL     1      28.673 -11.366  25.795  1.00  0.00     0.012 C 
ENDBRANCH   3   5
ENDBRANCH   1   3
BRANCH   1   7
ATOM      7  C   UNL     1      26.234 -13.272  28.319  1.00  0.00     0.038 C 
BRANCH   7   8
ATOM      8  C   UNL     1      25.557 -14.457  28.955  1.00  0.00    -0.034 C 
ATOM      9  C   UNL     1      24.506 -15.057  28.390  1.00  0.00     0.004 C 
ENDBRANCH   7   8
ENDBRANCH   1   7
TORSDOF 4
ENDMDL
MODEL 3
REMARK VINA RESULT:    -4.773      1.740      4.557
REMARK INTER + INTRA:          -6.045
REMARK INTER:                  -5.858
REMARK INTRA:                  -0.188
REMARK UNBOUND:                -0.156
REMARK SMILES C=CC[C@H](C)C(=O)CC
REMARK SMILES IDX 4 1 5 2 6 3 7 4 8 5 9 6 3 7 2 8 1 9
REMARK H PARENT
REMARK Flexibility Score: inf
ROOT
ATOM      1  C   UNL     1      27.127 -13.233  28.704  1.00  0.00     0.057 C 
ATOM      2  C   UNL     1      25.853 -13.834  28.097  1.00  0.00     0.016 C 
ENDROOT
BRANCH   1   3
ATOM      3  C   UNL     1      27.140 -13.413  30.210  1.00  0.00     0.135 C 
ATOM      4  O   UNL     1      27.862 -12.694  30.886  1.00  0.00    -0.299 OA
BRANCH   3   5
ATOM      5  C   UNL     1      26.271 -14.433  30.904  1.00  0.00     0.072 C 
ATOM      6  C   UNL     1      26.762 -14.690  32.325  1.00  0.00     0.012 C 
ENDBRANCH   3   5
ENDBRANCH   1   3
BRANCH   1   7
ATOM      7  C   UNL     1      27.282 -11.752  28.298  1.00  0.00     0.038 C 
BRANCH   7   8
ATOM      8  C   UNL     1      28.533 -11.509  27.496  1.00  0.00    -0.034 C 
ATOM      9  C   UNL     1      28.549 -11.618  26.164  1.00  0.00     0.004 C 
ENDBRANCH   7   8
ENDBRANCH   1   7
TORSDOF 4
ENDMDL
MODEL 4
REMARK VINA RESULT:    -4.772      2.214      3.533
REMARK INTER + INTRA:          -6.044
REMARK INTER:                  -5.848
REMARK INTRA:                  -0.196
REMARK UNBOUND:                -0.156
REMARK SMILES C=CC[C@H](C)C(=O)CC
REMARK SMILES IDX 4 1 5 2 6 3 7 4 8 5 9 6 3 7 2 8 1 9
REMARK H PARENT
REMARK Flexibility Score: inf
ROOT
ATOM      1  C   UNL     1      28.244 -11.961  27.311  1.00  0.00     0.057 C 
ATOM      2  C   UNL     1      28.694 -11.484  25.925  1.00  0.00     0.016 C 
ENDROOT
BRANCH   1   3
ATOM      3  C   UNL     1      29.429 -12.070  28.252  1.00  0.00     0.135 C 
ATOM      4  O   UNL     1      29.593 -11.205  29.100  1.00  0.00    -0.299 OA
BRANCH   3   5
ATOM      5  C   UNL     1      30.397 -13.226  28.192  1.00  0.00     0.072 C 
ATOM      6  C   UNL     1      31.304 -13.241  29.419  1.00  0.00     0.012 C 
ENDBRANCH   3   5
ENDBRANCH   1   3
BRANCH   1   7
ATOM      7  C   UNL     1      27.464 -13.289  27.209  1.00  0.00     0.038 C 
BRANCH   7   8
ATOM      8  C   UNL     1      26.359 -13.381  28.228  1.00  0.00    -0.034 C 
ATOM      9  C   UNL     1      25.414 -14.322  28.160  1.00  0.00     0.004 C 
ENDBRANCH   7   8
ENDBRANCH   1   7
TORSDOF 4
ENDMDL
MODEL 5
REMARK VINA RESULT:    -4.730      1.107      1.616
REMARK INTER + INTRA:          -5.992
REMARK INTER:                  -5.717
REMARK INTRA:                  -0.275
REMARK UNBOUND:                -0.156
REMARK SMILES C=CC[C@H](C)C(=O)CC
REMARK SMILES IDX 4 1 5 2 6 3 7 4 8 5 9 6 3 7 2 8 1 9
REMARK H PARENT
REMARK Flexibility Score: inf
ROOT
ATOM      1  C   UNL     1      26.686 -13.143  28.362  1.00  0.00     0.057 C 
ATOM      2  C   UNL     1      25.534 -14.149  28.256  1.00  0.00     0.016 C 
ENDROOT
BRANCH   1   3
ATOM      3  C   UNL     1      27.606 -13.251  27.160  1.00  0.00     0.135 C 
ATOM      4  O   UNL     1      27.338 -14.057  26.281  1.00  0.00    -0.299 OA
BRANCH   3   5
ATOM      5  C   UNL     1      28.826 -12.377  27.002  1.00  0.00     0.072 C 
ATOM      6  C   UNL     1      28.643 -11.390  25.854  1.00  0.00     0.012 C 
ENDBRANCH   3   5
ENDBRANCH   1   3
BRANCH   1   7
ATOM      7  C   UNL     1      27.451 -13.320  29.691  1.00  0.00     0.038 C 
BRANCH   7   8
ATOM      8  C   UNL     1      27.583 -12.026  30.450  1.00  0.00    -0.034 C 
ATOM      9  C   UNL     1      28.772 -11.463  30.680  1.00  0.00     0.004 C 
ENDBRANCH   7   8
ENDBRANCH   1   7
TORSDOF 4
ENDMDL
MODEL 6
REMARK VINA RESULT:    -4.714      2.371      3.582
REMARK INTER + INTRA:          -5.973
REMARK INTER:                  -5.801
REMARK INTRA:                  -0.172
REMARK UNBOUND:                -0.156
REMARK SMILES C=CC[C@H](C)C(=O)CC
REMARK SMILES IDX 4 1 5 2 6 3 7 4 8 5 9 6 3 7 2 8 1 9
REMARK H PARENT
REMARK Flexibility Score: inf
ROOT
ATOM      1  C   UNL     1      27.636 -12.452  29.731  1.00  0.00     0.057 C 
ATOM      2  C   UNL     1      27.477 -11.601  28.466  1.00  0.00     0.016 C 
ENDROOT
BRANCH   1   3
ATOM      3  C   UNL     1      29.079 -12.885  29.909  1.00  0.00     0.135 C 
ATOM      4  O   UNL     1      29.734 -13.181  28.920  1.00  0.00    -0.299 OA
BRANCH   3   5
ATOM      5  C   UNL     1      29.740 -12.935  31.264  1.00  0.00     0.072 C 
ATOM      6  C   UNL     1      31.255 -12.802  31.137  1.00  0.00     0.012 C 
ENDBRANCH   3   5
ENDBRANCH   1   3
BRANCH   1   7
ATOM      7  C   UNL     1      26.671 -13.656  29.709  1.00  0.00     0.038 C 
BRANCH   7   8
ATOM      8  C   UNL     1      25.959 -13.791  28.389  1.00  0.00    -0.034 C 
ATOM      9  C   UNL     1      24.972 -14.673  28.207  1.00  0.00     0.004 C 
ENDBRANCH   7   8
ENDBRANCH   1   7
TORSDOF 4
ENDMDL
MODEL 7
REMARK VINA RESULT:    -4.655      1.853      4.457
REMARK INTER + INTRA:          -5.900
REMARK INTER:                  -5.711
REMARK INTRA:                  -0.189
REMARK UNBOUND:                -0.156
REMARK SMILES C=CC[C@H](C)C(=O)CC
REMARK SMILES IDX 4 1 5 2 6 3 7 4 8 5 9 6 3 7 2 8 1 9
REMARK H PARENT
REMARK Flexibility Score: inf
ROOT
ATOM      1  C   UNL     1      27.890 -12.681  29.163  1.00  0.00     0.057 C 
ATOM      2  C   UNL     1      28.938 -12.875  30.266  1.00  0.00     0.016 C 
ENDROOT
BRANCH   1   3
ATOM      3  C   UNL     1      26.718 -13.622  29.365  1.00  0.00     0.135 C 
ATOM      4  O   UNL     1      26.527 -14.101  30.474  1.00  0.00    -0.299 OA
BRANCH   3   5
ATOM      5  C   UNL     1      25.763 -13.965  28.248  1.00  0.00     0.072 C 
ATOM      6  C   UNL     1      24.821 -15.091  28.664  1.00  0.00     0.012 C 
ENDBRANCH   3   5
ENDBRANCH   1   3
BRANCH   1   7
ATOM      7  C   UNL     1      28.526 -12.842  27.766  1.00  0.00     0.038 C 
BRANCH   7   8
ATOM      8  C   UNL     1      28.733 -11.519  27.077  1.00  0.00    -0.034 C 
ATOM      9  C   UNL     1      28.632 -11.391  25.751  1.00  0.00     0.004 C 
ENDBRANCH   7   8
ENDBRANCH   1   7
TORSDOF 4
ENDMDL
MODEL 8
REMARK VINA RESULT:    -4.587      1.879      2.215
REMARK INTER + INTRA:          -5.816
REMARK INTER:                  -5.627
REMARK INTRA:                  -0.189
REMARK UNBOUND:                -0.156
REMARK SMILES C=CC[C@H](C)C(=O)CC
REMARK SMILES IDX 4 1 5 2 6 3 7 4 8 5 9 6 3 7 2 8 1 9
REMARK H PARENT
REMARK Flexibility Score: inf
ROOT
ATOM      1  C   UNL     1      27.834 -12.739  29.249  1.00  0.00     0.057 C 
ATOM      2  C   UNL     1      26.588 -13.170  28.466  1.00  0.00     0.016 C 
ENDROOT
BRANCH   1   3
ATOM      3  C   UNL     1      29.097 -13.146  28.515  1.00  0.00     0.135 C 
ATOM      4  O   UNL     1      29.005 -13.597  27.382  1.00  0.00    -0.299 OA
BRANCH   3   5
ATOM      5  C   UNL     1      30.467 -12.987  29.127  1.00  0.00     0.072 C 
ATOM      6  C   UNL     1      31.496 -13.839  28.390  1.00  0.00     0.012 C 
ENDBRANCH   3   5
ENDBRANCH   1   3
BRANCH   1   7
ATOM      7  C   UNL     1      27.798 -13.296  30.688  1.00  0.00     0.038 C 
BRANCH   7   8
ATOM      8  C   UNL     1      26.635 -14.228  30.910  1.00  0.00    -0.034 C 
ATOM      9  C   UNL     1      26.373 -14.756  32.109  1.00  0.00     0.004 C 
ENDBRANCH   7   8
ENDBRANCH   1   7
TORSDOF 4
ENDMDL
MODEL 9
REMARK VINA RESULT:    -4.529      1.905      2.996
REMARK INTER + INTRA:          -5.744
REMARK INTER:                  -5.247
REMARK INTRA:                  -0.498
REMARK UNBOUND:                -0.156
REMARK SMILES C=CC[C@H](C)C(=O)CC
REMARK SMILES IDX 4 1 5 2 6 3 7 4 8 5 9 6 3 7 2 8 1 9
REMARK H PARENT
REMARK Flexibility Score: inf
ROOT
ATOM      1  C   UNL     1      28.644 -12.343  30.665  1.00  0.00     0.057 C 
ATOM      2  C   UNL     1      27.740 -11.188  31.113  1.00  0.00     0.016 C 
ENDROOT
BRANCH   1   3
ATOM      3  C   UNL     1      28.361 -12.717  29.222  1.00  0.00     0.135 C 
ATOM      4  O   UNL     1      29.213 -13.325  28.590  1.00  0.00    -0.299 OA
BRANCH   3   5
ATOM      5  C   UNL     1      27.051 -12.387  28.550  1.00  0.00     0.072 C 
ATOM      6  C   UNL     1      26.140 -13.610  28.501  1.00  0.00     0.012 C 
ENDBRANCH   3   5
ENDBRANCH   1   3
BRANCH   1   7
ATOM      7  C   UNL     1      28.500 -13.553  31.614  1.00  0.00     0.038 C 
BRANCH   7   8
ATOM      8  C   UNL     1      27.144 -13.607  32.267  1.00  0.00    -0.034 C 
ATOM      9  C   UNL     1      26.379 -14.701  32.214  1.00  0.00     0.004 C 
ENDBRANCH   7   8
ENDBRANCH   1   7
TORSDOF 4
ENDMDL
