MODEL 1
REMARK VINA RESULT:    -2.981      0.000      0.000
REMARK INTER + INTRA:          -4.208
REMARK INTER:                  -3.852
REMARK INTRA:                  -0.356
REMARK UNBOUND:                -0.356
REMARK SMILES CCCCCCC(=O)[O-]
REMARK SMILES IDX 5 1 6 2 7 3 8 4 9 5 4 6 3 7 2 8 1 9
REMARK H PARENT
REMARK Flexibility Score: inf
ROOT
ATOM      1  C   UNL     1     125.961  55.590  42.967  1.00  0.00     0.006 C 
ENDROOT
BRANCH   1   2
ATOM      2  C   UNL     1     124.534  55.809  43.484  1.00  0.00     0.053 C 
BRANCH   2   3
ATOM      3  C   UNL     1     124.528  56.817  44.589  1.00  0.00     0.041 C 
ATOM      4  O   UNL     1     124.617  58.046  44.326  1.00  0.00    -0.550 OA
ATOM      5  O   UNL     1     124.475  56.399  45.913  1.00  0.00    -0.550 OA
ENDBRANCH   2   3
ENDBRANCH   1   2
BRANCH   1   6
ATOM      6  C   UNL     1     126.569  54.265  43.452  1.00  0.00     0.000 C 
BRANCH   6   7
ATOM      7  C   UNL     1     125.587  53.086  43.330  1.00  0.00    -0.000 C 
BRANCH   7   8
ATOM      8  C   UNL     1     125.434  52.309  44.647  1.00  0.00    -0.003 C 
ATOM      9  C   UNL     1     125.913  53.106  45.860  1.00  0.00     0.004 C 
ENDBRANCH   7   8
ENDBRANCH   6   7
ENDBRANCH   1   6
TORSDOF 5
ENDMDL
MODEL 2
REMARK VINA RESULT:    -2.947      2.361      4.106
REMARK INTER + INTRA:          -4.165
REMARK INTER:                  -3.938
REMARK INTRA:                  -0.226
REMARK UNBOUND:                -0.356
REMARK SMILES CCCCCCC(=O)[O-]
REMARK SMILES IDX 5 1 6 2 7 3 8 4 9 5 4 6 3 7 2 8 1 9
REMARK H PARENT
REMARK Flexibility Score: inf
ROOT
ATOM      1  C   UNL     1     126.527  54.443  43.389  1.00  0.00     0.006 C 
ENDROOT
BRANCH   1   2
ATOM      2  C   UNL     1     125.586  53.232  43.364  1.00  0.00     0.053 C 
BRANCH   2   3
ATOM      3  C   UNL     1     125.659  52.487  44.659  1.00  0.00     0.041 C 
ATOM      4  O   UNL     1     126.439  52.874  45.569  1.00  0.00    -0.550 OA
ATOM      5  O   UNL     1     124.902  51.337  44.844  1.00  0.00    -0.550 OA
ENDBRANCH   2   3
ENDBRANCH   1   2
BRANCH   1   6
ATOM      6  C   UNL     1     125.822  55.748  42.987  1.00  0.00     0.000 C 
BRANCH   6   7
ATOM      7  C   UNL     1     124.439  55.899  43.647  1.00  0.00    -0.000 C 
BRANCH   7   8
ATOM      8  C   UNL     1     124.448  56.905  44.807  1.00  0.00    -0.003 C 
ATOM      9  C   UNL     1     125.084  58.241  44.425  1.00  0.00     0.004 C 
ENDBRANCH   7   8
ENDBRANCH   6   7
ENDBRANCH   1   6
TORSDOF 5
ENDMDL
MODEL 3
REMARK VINA RESULT:    -2.932      1.373      1.913
REMARK INTER + INTRA:          -4.145
REMARK INTER:                  -3.881
REMARK INTRA:                  -0.264
REMARK UNBOUND:                -0.356
REMARK SMILES CCCCCCC(=O)[O-]
REMARK SMILES IDX 5 1 6 2 7 3 8 4 9 5 4 6 3 7 2 8 1 9
REMARK H PARENT
REMARK Flexibility Score: inf
ROOT
ATOM      1  C   UNL     1     124.431  56.091  43.781  1.00  0.00     0.006 C 
ENDROOT
BRANCH   1   2
ATOM      2  C   UNL     1     124.611  57.055  44.960  1.00  0.00     0.053 C 
BRANCH   2   3
ATOM      3  C   UNL     1     124.656  58.470  44.476  1.00  0.00     0.041 C 
ATOM      4  O   UNL     1     123.594  59.057  44.137  1.00  0.00    -0.550 OA
ATOM      5  O   UNL     1     125.874  59.125  44.351  1.00  0.00    -0.550 OA
ENDBRANCH   2   3
ENDBRANCH   1   2
BRANCH   1   6
ATOM      6  C   UNL     1     125.755  55.779  43.065  1.00  0.00     0.000 C 
BRANCH   6   7
ATOM      7  C   UNL     1     126.098  54.279  43.088  1.00  0.00    -0.000 C 
BRANCH   7   8
ATOM      8  C   UNL     1     126.516  53.792  44.484  1.00  0.00    -0.003 C 
ATOM      9  C   UNL     1     125.618  52.674  45.013  1.00  0.00     0.004 C 
ENDBRANCH   7   8
ENDBRANCH   6   7
ENDBRANCH   1   6
TORSDOF 5
ENDMDL
MODEL 4
REMARK VINA RESULT:    -2.887      2.385      4.520
REMARK INTER + INTRA:          -4.087
REMARK INTER:                  -3.823
REMARK INTRA:                  -0.264
REMARK UNBOUND:                -0.356
REMARK SMILES CCCCCCC(=O)[O-]
REMARK SMILES IDX 5 1 6 2 7 3 8 4 9 5 4 6 3 7 2 8 1 9
REMARK H PARENT
REMARK Flexibility Score: inf
ROOT
ATOM      1  C   UNL     1     124.256  55.831  43.549  1.00  0.00     0.006 C 
ENDROOT
BRANCH   1   2
ATOM      2  C   UNL     1     125.653  55.363  43.120  1.00  0.00     0.053 C 
BRANCH   2   3
ATOM      3  C   UNL     1     125.939  54.003  43.674  1.00  0.00     0.041 C 
ATOM      4  O   UNL     1     125.690  52.975  42.990  1.00  0.00    -0.550 OA
ATOM      5  O   UNL     1     126.435  53.867  44.964  1.00  0.00    -0.550 OA
ENDBRANCH   2   3
ENDBRANCH   1   2
BRANCH   1   6
ATOM      6  C   UNL     1     124.290  56.726  44.798  1.00  0.00     0.000 C 
BRANCH   6   7
ATOM      7  C   UNL     1     124.145  58.220  44.458  1.00  0.00    -0.000 C 
BRANCH   7   8
ATOM      8  C   UNL     1     125.313  59.062  44.993  1.00  0.00    -0.003 C 
ATOM      9  C   UNL     1     126.489  59.125  44.019  1.00  0.00     0.004 C 
ENDBRANCH   7   8
ENDBRANCH   6   7
ENDBRANCH   1   6
TORSDOF 5
ENDMDL
MODEL 5
REMARK VINA RESULT:    -2.876     11.647     12.899
REMARK INTER + INTRA:          -4.073
REMARK INTER:                  -3.750
REMARK INTRA:                  -0.323
REMARK UNBOUND:                -0.356
REMARK SMILES CCCCCCC(=O)[O-]
REMARK SMILES IDX 5 1 6 2 7 3 8 4 9 5 4 6 3 7 2 8 1 9
REMARK H PARENT
REMARK Flexibility Score: inf
ROOT
ATOM      1  C   UNL     1     116.726  52.329  54.679  1.00  0.00     0.006 C 
ENDROOT
BRANCH   1   2
ATOM      2  C   UNL     1     118.164  52.360  54.143  1.00  0.00     0.053 C 
BRANCH   2   3
ATOM      3  C   UNL     1     118.840  53.635  54.537  1.00  0.00     0.041 C 
ATOM      4  O   UNL     1     118.962  53.938  55.753  1.00  0.00    -0.550 OA
ATOM      5  O   UNL     1     119.292  54.513  53.560  1.00  0.00    -0.550 OA
ENDBRANCH   2   3
ENDBRANCH   1   2
BRANCH   1   6
ATOM      6  C   UNL     1     115.684  52.148  53.565  1.00  0.00     0.000 C 
BRANCH   6   7
ATOM      7  C   UNL     1     115.189  53.489  52.995  1.00  0.00    -0.000 C 
BRANCH   7   8
ATOM      8  C   UNL     1     115.448  53.619  51.487  1.00  0.00    -0.003 C 
ATOM      9  C   UNL     1     116.765  54.327  51.173  1.00  0.00     0.004 C 
ENDBRANCH   7   8
ENDBRANCH   6   7
ENDBRANCH   1   6
TORSDOF 5
ENDMDL
MODEL 6
REMARK VINA RESULT:    -2.875     12.097     13.051
REMARK INTER + INTRA:          -4.071
REMARK INTER:                  -3.790
REMARK INTRA:                  -0.281
REMARK UNBOUND:                -0.356
REMARK SMILES CCCCCCC(=O)[O-]
REMARK SMILES IDX 5 1 6 2 7 3 8 4 9 5 4 6 3 7 2 8 1 9
REMARK H PARENT
REMARK Flexibility Score: inf
ROOT
ATOM      1  C   UNL     1     118.168  52.250  53.895  1.00  0.00     0.006 C 
ENDROOT
BRANCH   1   2
ATOM      2  C   UNL     1     118.868  53.613  53.966  1.00  0.00     0.053 C 
BRANCH   2   3
ATOM      3  C   UNL     1     119.488  53.811  55.313  1.00  0.00     0.041 C 
ATOM      4  O   UNL     1     118.989  54.636  56.124  1.00  0.00    -0.550 OA
ATOM      5  O   UNL     1     120.645  53.123  55.655  1.00  0.00    -0.550 OA
ENDBRANCH   2   3
ENDBRANCH   1   2
BRANCH   1   6
ATOM      6  C   UNL     1     116.796  52.253  54.588  1.00  0.00     0.000 C 
BRANCH   6   7
ATOM      7  C   UNL     1     115.629  52.163  53.588  1.00  0.00    -0.000 C 
BRANCH   7   8
ATOM      8  C   UNL     1     115.267  53.528  52.983  1.00  0.00    -0.003 C 
ATOM      9  C   UNL     1     115.536  53.598  51.480  1.00  0.00     0.004 C 
ENDBRANCH   7   8
ENDBRANCH   6   7
ENDBRANCH   1   6
TORSDOF 5
ENDMDL
MODEL 7
REMARK VINA RESULT:    -2.861     11.580     12.658
REMARK INTER + INTRA:          -4.053
REMARK INTER:                  -3.635
REMARK INTRA:                  -0.418
REMARK UNBOUND:                -0.356
REMARK SMILES CCCCCCC(=O)[O-]
REMARK SMILES IDX 5 1 6 2 7 3 8 4 9 5 4 6 3 7 2 8 1 9
REMARK H PARENT
REMARK Flexibility Score: inf
ROOT
ATOM      1  C   UNL     1     115.614  52.156  53.487  1.00  0.00     0.006 C 
ENDROOT
BRANCH   1   2
ATOM      2  C   UNL     1     115.228  53.514  52.887  1.00  0.00     0.053 C 
BRANCH   2   3
ATOM      3  C   UNL     1     115.578  53.560  51.433  1.00  0.00     0.041 C 
ATOM      4  O   UNL     1     114.935  54.309  50.651  1.00  0.00    -0.550 OA
ATOM      5  O   UNL     1     116.582  52.741  50.933  1.00  0.00    -0.550 OA
ENDBRANCH   2   3
ENDBRANCH   1   2
BRANCH   1   6
ATOM      6  C   UNL     1     116.615  52.285  54.647  1.00  0.00     0.000 C 
BRANCH   6   7
ATOM      7  C   UNL     1     118.077  52.294  54.166  1.00  0.00    -0.000 C 
BRANCH   7   8
ATOM      8  C   UNL     1     118.749  53.663  54.352  1.00  0.00    -0.003 C 
ATOM      9  C   UNL     1     118.897  54.430  53.038  1.00  0.00     0.004 C 
ENDBRANCH   7   8
ENDBRANCH   6   7
ENDBRANCH   1   6
TORSDOF 5
ENDMDL
MODEL 8
REMARK VINA RESULT:    -2.853     12.544     13.170
REMARK INTER + INTRA:          -4.044
REMARK INTER:                  -3.864
REMARK INTRA:                  -0.180
REMARK UNBOUND:                -0.356
REMARK SMILES CCCCCCC(=O)[O-]
REMARK SMILES IDX 5 1 6 2 7 3 8 4 9 5 4 6 3 7 2 8 1 9
REMARK H PARENT
REMARK Flexibility Score: inf
ROOT
ATOM      1  C   UNL     1     118.167  52.471  54.250  1.00  0.00     0.006 C 
ENDROOT
BRANCH   1   2
ATOM      2  C   UNL     1     116.694  52.384  54.669  1.00  0.00     0.053 C 
BRANCH   2   3
ATOM      3  C   UNL     1     115.806  52.419  53.464  1.00  0.00     0.041 C 
ATOM      4  O   UNL     1     115.250  53.495  53.119  1.00  0.00    -0.550 OA
ATOM      5  O   UNL     1     115.554  51.253  52.752  1.00  0.00    -0.550 OA
ENDBRANCH   2   3
ENDBRANCH   1   2
BRANCH   1   6
ATOM      6  C   UNL     1     118.722  53.902  54.336  1.00  0.00     0.000 C 
BRANCH   6   7
ATOM      7  C   UNL     1     119.247  54.248  55.741  1.00  0.00    -0.000 C 
BRANCH   7   8
ATOM      8  C   UNL     1     120.505  53.449  56.112  1.00  0.00    -0.003 C 
ATOM      9  C   UNL     1     121.792  54.251  55.920  1.00  0.00     0.004 C 
ENDBRANCH   7   8
ENDBRANCH   6   7
ENDBRANCH   1   6
TORSDOF 5
ENDMDL
MODEL 9
REMARK VINA RESULT:    -2.812     11.494     12.754
REMARK INTER + INTRA:          -3.991
REMARK INTER:                  -3.677
REMARK INTRA:                  -0.313
REMARK UNBOUND:                -0.356
REMARK SMILES CCCCCCC(=O)[O-]
REMARK SMILES IDX 5 1 6 2 7 3 8 4 9 5 4 6 3 7 2 8 1 9
REMARK H PARENT
REMARK Flexibility Score: inf
ROOT
ATOM      1  C   UNL     1     117.856  52.292  54.173  1.00  0.00     0.006 C 
ENDROOT
BRANCH   1   2
ATOM      2  C   UNL     1     116.354  52.263  54.482  1.00  0.00     0.053 C 
BRANCH   2   3
ATOM      3  C   UNL     1     115.559  52.447  53.228  1.00  0.00     0.041 C 
ATOM      4  O   UNL     1     115.217  53.602  52.859  1.00  0.00    -0.550 OA
ATOM      5  O   UNL     1     115.154  51.341  52.492  1.00  0.00    -0.550 OA
ENDBRANCH   2   3
ENDBRANCH   1   2
BRANCH   1   6
ATOM      6  C   UNL     1     118.568  53.497  54.808  1.00  0.00     0.000 C 
BRANCH   6   7
ATOM      7  C   UNL     1     119.365  54.321  53.781  1.00  0.00    -0.000 C 
BRANCH   7   8
ATOM      8  C   UNL     1     118.739  54.276  52.379  1.00  0.00    -0.003 C 
ATOM      9  C   UNL     1     118.383  55.663  51.847  1.00  0.00     0.004 C 
ENDBRANCH   7   8
ENDBRANCH   6   7
ENDBRANCH   1   6
TORSDOF 5
ENDMDL
