MODEL 1
REMARK VINA RESULT:    -3.409      0.000      0.000
REMARK INTER + INTRA:          -9.151
REMARK INTER:                  -6.399
REMARK INTRA:                  -2.753
REMARK UNBOUND:                -2.753
REMARK SMILES CCCCCCCCC=CCCCCCCCC(=O)[O-]
REMARK SMILES IDX 10 1 9 2 11 3 12 4 13 5 14 6 15 7 16 8 17 9 18 10 19 11
REMARK SMILES IDX 20 12 8 13 7 14 6 15 5 16 4 17 3 18 2 19 1 20
REMARK H PARENT
REMARK Flexibility Score: inf
ROOT
ATOM      1  C   UNL     1      -1.853  32.879 -13.491  1.00  0.00    -0.031 C 
ATOM      2  C   UNL     1      -1.866  31.865 -12.608  1.00  0.00    -0.031 C 
ENDROOT
BRANCH   1   3
ATOM      3  C   UNL     1      -2.925  33.126 -14.523  1.00  0.00     0.027 C 
BRANCH   3   4
ATOM      4  C   UNL     1      -2.412  32.802 -15.934  1.00  0.00     0.004 C 
BRANCH   4   5
ATOM      5  C   UNL     1      -3.336  31.836 -16.691  1.00  0.00     0.000 C 
BRANCH   5   6
ATOM      6  C   UNL     1      -2.688  31.277 -17.967  1.00  0.00     0.000 C 
BRANCH   6   7
ATOM      7  C   UNL     1      -3.085  29.810 -18.189  1.00  0.00     0.000 C 
BRANCH   7   8
ATOM      8  C   UNL     1      -1.986  28.994 -18.894  1.00  0.00     0.006 C 
BRANCH   8   9
ATOM      9  C   UNL     1      -1.823  29.311 -20.389  1.00  0.00     0.053 C 
BRANCH   9  10
ATOM     10  C   UNL     1      -1.464  28.094 -21.186  1.00  0.00     0.041 C 
ATOM     11  O   UNL     1      -0.423  28.085 -21.894  1.00  0.00    -0.550 OA
ATOM     12  O   UNL     1      -2.295  26.982 -21.171  1.00  0.00    -0.550 OA
ENDBRANCH   9  10
ENDBRANCH   8   9
ENDBRANCH   7   8
ENDBRANCH   6   7
ENDBRANCH   5   6
ENDBRANCH   4   5
ENDBRANCH   3   4
ENDBRANCH   1   3
BRANCH   2  13
ATOM     13  C   UNL     1      -2.982  30.852 -12.513  1.00  0.00     0.027 C 
BRANCH  13  14
ATOM     14  C   UNL     1      -2.540  29.446 -12.954  1.00  0.00     0.004 C 
BRANCH  14  15
ATOM     15  C   UNL     1      -2.597  29.201 -14.477  1.00  0.00     0.000 C 
BRANCH  15  16
ATOM     16  C   UNL     1      -1.266  28.774 -15.122  1.00  0.00     0.000 C 
BRANCH  16  17
ATOM     17  C   UNL     1      -0.334  29.965 -15.411  1.00  0.00    -0.000 C 
BRANCH  17  18
ATOM     18  C   UNL     1       0.892  29.992 -14.486  1.00  0.00    -0.000 C 
BRANCH  18  19
ATOM     19  C   UNL     1       1.438  31.410 -14.271  1.00  0.00    -0.003 C 
ATOM     20  C   UNL     1       1.708  32.101 -15.605  1.00  0.00     0.004 C 
ENDBRANCH  18  19
ENDBRANCH  17  18
ENDBRANCH  16  17
ENDBRANCH  15  16
ENDBRANCH  14  15
ENDBRANCH  13  14
ENDBRANCH   2  13
TORSDOF 15
ENDMDL
MODEL 2
REMARK VINA RESULT:    -3.274      1.940      3.903
REMARK INTER + INTRA:          -8.897
REMARK INTER:                  -6.387
REMARK INTRA:                  -2.510
REMARK UNBOUND:                -2.753
REMARK SMILES CCCCCCCCC=CCCCCCCCC(=O)[O-]
REMARK SMILES IDX 10 1 9 2 11 3 12 4 13 5 14 6 15 7 16 8 17 9 18 10 19 11
REMARK SMILES IDX 20 12 8 13 7 14 6 15 5 16 4 17 3 18 2 19 1 20
REMARK H PARENT
REMARK Flexibility Score: inf
ROOT
ATOM      1  C   UNL     1      -0.241  32.273 -14.177  1.00  0.00    -0.031 C 
ATOM      2  C   UNL     1       0.317  31.050 -14.232  1.00  0.00    -0.031 C 
ENDROOT
BRANCH   1   3
ATOM      3  C   UNL     1      -1.374  32.652 -13.256  1.00  0.00     0.027 C 
BRANCH   3   4
ATOM      4  C   UNL     1      -2.637  32.997 -14.057  1.00  0.00     0.004 C 
BRANCH   4   5
ATOM      5  C   UNL     1      -2.460  32.773 -15.567  1.00  0.00     0.000 C 
BRANCH   5   6
ATOM      6  C   UNL     1      -3.210  31.530 -16.071  1.00  0.00     0.000 C 
BRANCH   6   7
ATOM      7  C   UNL     1      -2.321  30.689 -16.999  1.00  0.00     0.000 C 
BRANCH   7   8
ATOM      8  C   UNL     1      -3.110  30.031 -18.146  1.00  0.00     0.006 C 
BRANCH   8   9
ATOM      9  C   UNL     1      -2.427  28.798 -18.759  1.00  0.00     0.053 C 
BRANCH   9  10
ATOM     10  C   UNL     1      -2.417  27.634 -17.815  1.00  0.00     0.041 C 
ATOM     11  O   UNL     1      -1.348  27.290 -17.245  1.00  0.00    -0.550 OA
ATOM     12  O   UNL     1      -3.580  26.910 -17.592  1.00  0.00    -0.550 OA
ENDBRANCH   9  10
ENDBRANCH   8   9
ENDBRANCH   7   8
ENDBRANCH   6   7
ENDBRANCH   5   6
ENDBRANCH   4   5
ENDBRANCH   3   4
ENDBRANCH   1   3
BRANCH   2  13
ATOM     13  C   UNL     1      -0.100  29.898 -13.349  1.00  0.00     0.027 C 
BRANCH  13  14
ATOM     14  C   UNL     1      -0.853  28.804 -14.126  1.00  0.00     0.004 C 
BRANCH  14  15
ATOM     15  C   UNL     1      -2.294  28.543 -13.638  1.00  0.00     0.000 C 
BRANCH  15  16
ATOM     16  C   UNL     1      -2.683  29.260 -12.333  1.00  0.00     0.000 C 
BRANCH  16  17
ATOM     17  C   UNL     1      -3.993  30.059 -12.458  1.00  0.00    -0.000 C 
BRANCH  17  18
ATOM     18  C   UNL     1      -4.564  30.474 -11.093  1.00  0.00    -0.000 C 
BRANCH  18  19
ATOM     19  C   UNL     1      -4.589  31.996 -10.903  1.00  0.00    -0.003 C 
ATOM     20  C   UNL     1      -4.949  32.363  -9.466  1.00  0.00     0.004 C 
ENDBRANCH  18  19
ENDBRANCH  17  18
ENDBRANCH  16  17
ENDBRANCH  15  16
ENDBRANCH  14  15
ENDBRANCH  13  14
ENDBRANCH   2  13
TORSDOF 15
ENDMDL
MODEL 3
REMARK VINA RESULT:    -3.259      3.241      5.869
REMARK INTER + INTRA:          -8.869
REMARK INTER:                  -6.265
REMARK INTRA:                  -2.604
REMARK UNBOUND:                -2.753
REMARK SMILES CCCCCCCCC=CCCCCCCCC(=O)[O-]
REMARK SMILES IDX 10 1 9 2 11 3 12 4 13 5 14 6 15 7 16 8 17 9 18 10 19 11
REMARK SMILES IDX 20 12 8 13 7 14 6 15 5 16 4 17 3 18 2 19 1 20
REMARK H PARENT
REMARK Flexibility Score: inf
ROOT
ATOM      1  C   UNL     1      -1.722  32.099 -12.765  1.00  0.00    -0.031 C 
ATOM      2  C   UNL     1      -1.714  33.055 -13.711  1.00  0.00    -0.031 C 
ENDROOT
BRANCH   1   3
ATOM      3  C   UNL     1      -2.925  31.262 -12.407  1.00  0.00     0.027 C 
BRANCH   3   4
ATOM      4  C   UNL     1      -2.799  29.847 -12.990  1.00  0.00     0.004 C 
BRANCH   4   5
ATOM      5  C   UNL     1      -1.605  29.074 -12.411  1.00  0.00     0.000 C 
BRANCH   5   6
ATOM      6  C   UNL     1      -0.547  28.738 -13.474  1.00  0.00     0.000 C 
BRANCH   6   7
ATOM      7  C   UNL     1       0.769  29.480 -13.195  1.00  0.00     0.000 C 
BRANCH   7   8
ATOM      8  C   UNL     1       1.238  30.331 -14.390  1.00  0.00     0.006 C 
BRANCH   8   9
ATOM      9  C   UNL     1       1.741  31.733 -14.009  1.00  0.00     0.053 C 
BRANCH   9  10
ATOM     10  C   UNL     1       3.236  31.831 -14.078  1.00  0.00     0.041 C 
ATOM     11  O   UNL     1       3.928  30.802 -14.295  1.00  0.00    -0.550 OA
ATOM     12  O   UNL     1       3.863  33.051 -13.870  1.00  0.00    -0.550 OA
ENDBRANCH   9  10
ENDBRANCH   8   9
ENDBRANCH   7   8
ENDBRANCH   6   7
ENDBRANCH   5   6
ENDBRANCH   4   5
ENDBRANCH   3   4
ENDBRANCH   1   3
BRANCH   2  13
ATOM     13  C   UNL     1      -2.910  33.394 -14.570  1.00  0.00     0.027 C 
BRANCH  13  14
ATOM     14  C   UNL     1      -2.983  32.533 -15.843  1.00  0.00     0.004 C 
BRANCH  14  15
ATOM     15  C   UNL     1      -1.612  32.150 -16.441  1.00  0.00     0.000 C 
BRANCH  15  16
ATOM     16  C   UNL     1      -1.396  30.643 -16.670  1.00  0.00     0.000 C 
BRANCH  16  17
ATOM     17  C   UNL     1      -2.715  29.851 -16.712  1.00  0.00    -0.000 C 
BRANCH  17  18
ATOM     18  C   UNL     1      -3.190  29.570 -18.146  1.00  0.00    -0.000 C 
BRANCH  18  19
ATOM     19  C   UNL     1      -2.241  28.635 -18.909  1.00  0.00    -0.003 C 
ATOM     20  C   UNL     1      -1.727  29.297 -20.185  1.00  0.00     0.004 C 
ENDBRANCH  18  19
ENDBRANCH  17  18
ENDBRANCH  16  17
ENDBRANCH  15  16
ENDBRANCH  14  15
ENDBRANCH  13  14
ENDBRANCH   2  13
TORSDOF 15
ENDMDL
MODEL 4
REMARK VINA RESULT:    -3.245      4.585      7.471
REMARK INTER + INTRA:          -8.843
REMARK INTER:                  -6.305
REMARK INTRA:                  -2.537
REMARK UNBOUND:                -2.753
REMARK SMILES CCCCCCCCC=CCCCCCCCC(=O)[O-]
REMARK SMILES IDX 10 1 9 2 11 3 12 4 13 5 14 6 15 7 16 8 17 9 18 10 19 11
REMARK SMILES IDX 20 12 8 13 7 14 6 15 5 16 4 17 3 18 2 19 1 20
REMARK H PARENT
REMARK Flexibility Score: inf
ROOT
ATOM      1  C   UNL     1      -4.054  30.339 -12.194  1.00  0.00    -0.031 C 
ATOM      2  C   UNL     1      -3.255  29.324 -12.566  1.00  0.00    -0.031 C 
ENDROOT
BRANCH   1   3
ATOM      3  C   UNL     1      -3.652  31.437 -11.241  1.00  0.00     0.027 C 
BRANCH   3   4
ATOM      4  C   UNL     1      -4.006  31.062  -9.794  1.00  0.00     0.004 C 
BRANCH   4   5
ATOM      5  C   UNL     1      -5.378  30.381  -9.679  1.00  0.00     0.000 C 
BRANCH   5   6
ATOM      6  C   UNL     1      -5.329  29.090  -8.847  1.00  0.00     0.000 C 
BRANCH   6   7
ATOM      7  C   UNL     1      -3.902  28.810  -8.350  1.00  0.00     0.000 C 
BRANCH   7   8
ATOM      8  C   UNL     1      -3.346  27.469  -8.863  1.00  0.00     0.006 C 
BRANCH   8   9
ATOM      9  C   UNL     1      -1.830  27.298  -8.672  1.00  0.00     0.053 C 
BRANCH   9  10
ATOM     10  C   UNL     1      -1.286  26.160  -9.482  1.00  0.00     0.041 C 
ATOM     11  O   UNL     1      -1.792  25.881 -10.601  1.00  0.00    -0.550 OA
ATOM     12  O   UNL     1      -0.243  25.390  -8.987  1.00  0.00    -0.550 OA
ENDBRANCH   9  10
ENDBRANCH   8   9
ENDBRANCH   7   8
ENDBRANCH   6   7
ENDBRANCH   5   6
ENDBRANCH   4   5
ENDBRANCH   3   4
ENDBRANCH   1   3
BRANCH   2  13
ATOM     13  C   UNL     1      -1.827  29.168 -12.099  1.00  0.00     0.027 C 
BRANCH  13  14
ATOM     14  C   UNL     1      -0.813  29.732 -13.109  1.00  0.00     0.004 C 
BRANCH  14  15
ATOM     15  C   UNL     1      -0.247  31.122 -12.745  1.00  0.00     0.000 C 
BRANCH  15  16
ATOM     16  C   UNL     1      -0.408  32.199 -13.832  1.00  0.00     0.000 C 
BRANCH  16  17
ATOM     17  C   UNL     1      -1.670  33.059 -13.639  1.00  0.00    -0.000 C 
BRANCH  17  18
ATOM     18  C   UNL     1      -2.754  32.758 -14.685  1.00  0.00    -0.000 C 
BRANCH  18  19
ATOM     19  C   UNL     1      -2.219  31.949 -15.874  1.00  0.00    -0.003 C 
ATOM     20  C   UNL     1      -3.276  31.814 -16.967  1.00  0.00     0.004 C 
ENDBRANCH  18  19
ENDBRANCH  17  18
ENDBRANCH  16  17
ENDBRANCH  15  16
ENDBRANCH  14  15
ENDBRANCH  13  14
ENDBRANCH   2  13
TORSDOF 15
ENDMDL
MODEL 5
REMARK VINA RESULT:    -3.233      2.152      4.092
REMARK INTER + INTRA:          -8.820
REMARK INTER:                  -5.669
REMARK INTRA:                  -3.151
REMARK UNBOUND:                -2.753
REMARK SMILES CCCCCCCCC=CCCCCCCCC(=O)[O-]
REMARK SMILES IDX 10 1 9 2 11 3 12 4 13 5 14 6 15 7 16 8 17 9 18 10 19 11
REMARK SMILES IDX 20 12 8 13 7 14 6 15 5 16 4 17 3 18 2 19 1 20
REMARK H PARENT
REMARK Flexibility Score: inf
ROOT
ATOM      1  C   UNL     1      -2.845  32.313 -12.968  1.00  0.00    -0.031 C 
ATOM      2  C   UNL     1      -1.591  32.691 -13.275  1.00  0.00    -0.031 C 
ENDROOT
BRANCH   1   3
ATOM      3  C   UNL     1      -3.191  31.231 -11.977  1.00  0.00     0.027 C 
BRANCH   3   4
ATOM      4  C   UNL     1      -3.318  29.870 -12.675  1.00  0.00     0.004 C 
BRANCH   4   5
ATOM      5  C   UNL     1      -2.228  28.878 -12.239  1.00  0.00     0.000 C 
BRANCH   5   6
ATOM      6  C   UNL     1      -1.663  28.067 -13.416  1.00  0.00     0.000 C 
BRANCH   6   7
ATOM      7  C   UNL     1      -2.741  27.818 -14.481  1.00  0.00     0.000 C 
BRANCH   7   8
ATOM      8  C   UNL     1      -2.284  26.835 -15.574  1.00  0.00     0.006 C 
BRANCH   8   9
ATOM      9  C   UNL     1      -3.046  26.965 -16.902  1.00  0.00     0.053 C 
BRANCH   9  10
ATOM     10  C   UNL     1      -2.972  25.710 -17.719  1.00  0.00     0.041 C 
ATOM     11  O   UNL     1      -2.948  24.587 -17.151  1.00  0.00    -0.550 OA
ATOM     12  O   UNL     1      -2.898  25.784 -19.103  1.00  0.00    -0.550 OA
ENDBRANCH   9  10
ENDBRANCH   8   9
ENDBRANCH   7   8
ENDBRANCH   6   7
ENDBRANCH   5   6
ENDBRANCH   4   5
ENDBRANCH   3   4
ENDBRANCH   1   3
BRANCH   2  13
ATOM     13  C   UNL     1      -0.357  32.098 -12.636  1.00  0.00     0.027 C 
BRANCH  13  14
ATOM     14  C   UNL     1       0.419  31.181 -13.597  1.00  0.00     0.004 C 
BRANCH  14  15
ATOM     15  C   UNL     1       0.172  31.459 -15.095  1.00  0.00     0.000 C 
BRANCH  15  16
ATOM     16  C   UNL     1      -0.062  30.211 -15.963  1.00  0.00     0.000 C 
BRANCH  16  17
ATOM     17  C   UNL     1      -1.304  30.334 -16.865  1.00  0.00    -0.000 C 
BRANCH  17  18
ATOM     18  C   UNL     1      -1.807  31.781 -16.980  1.00  0.00    -0.000 C 
BRANCH  18  19
ATOM     19  C   UNL     1      -3.269  31.934 -16.539  1.00  0.00    -0.003 C 
ATOM     20  C   UNL     1      -3.930  30.572 -16.349  1.00  0.00     0.004 C 
ENDBRANCH  18  19
ENDBRANCH  17  18
ENDBRANCH  16  17
ENDBRANCH  15  16
ENDBRANCH  14  15
ENDBRANCH  13  14
ENDBRANCH   2  13
TORSDOF 15
ENDMDL
MODEL 6
REMARK VINA RESULT:    -3.231      3.076      5.524
REMARK INTER + INTRA:          -8.817
REMARK INTER:                  -5.774
REMARK INTRA:                  -3.043
REMARK UNBOUND:                -2.753
REMARK SMILES CCCCCCCCC=CCCCCCCCC(=O)[O-]
REMARK SMILES IDX 10 1 9 2 11 3 12 4 13 5 14 6 15 7 16 8 17 9 18 10 19 11
REMARK SMILES IDX 20 12 8 13 7 14 6 15 5 16 4 17 3 18 2 19 1 20
REMARK H PARENT
REMARK Flexibility Score: inf
ROOT
ATOM      1  C   UNL     1      -1.956  31.881 -12.594  1.00  0.00    -0.031 C 
ATOM      2  C   UNL     1      -1.767  32.836 -13.523  1.00  0.00    -0.031 C 
ENDROOT
BRANCH   1   3
ATOM      3  C   UNL     1      -3.270  31.185 -12.342  1.00  0.00     0.027 C 
BRANCH   3   4
ATOM      4  C   UNL     1      -3.403  29.934 -13.223  1.00  0.00     0.004 C 
BRANCH   4   5
ATOM      5  C   UNL     1      -2.765  28.691 -12.584  1.00  0.00     0.000 C 
BRANCH   5   6
ATOM      6  C   UNL     1      -1.799  27.968 -13.535  1.00  0.00     0.000 C 
BRANCH   6   7
ATOM      7  C   UNL     1      -0.498  28.765 -13.710  1.00  0.00     0.000 C 
BRANCH   7   8
ATOM      8  C   UNL     1      -0.235  29.163 -15.174  1.00  0.00     0.006 C 
BRANCH   8   9
ATOM      9  C   UNL     1       0.349  30.574 -15.352  1.00  0.00     0.053 C 
BRANCH   9  10
ATOM     10  C   UNL     1       1.588  30.776 -14.533  1.00  0.00     0.041 C 
ATOM     11  O   UNL     1       2.607  30.066 -14.740  1.00  0.00    -0.550 OA
ATOM     12  O   UNL     1       1.606  31.727 -13.522  1.00  0.00    -0.550 OA
ENDBRANCH   9  10
ENDBRANCH   8   9
ENDBRANCH   7   8
ENDBRANCH   6   7
ENDBRANCH   5   6
ENDBRANCH   4   5
ENDBRANCH   3   4
ENDBRANCH   1   3
BRANCH   2  13
ATOM     13  C   UNL     1      -2.847  33.314 -14.465  1.00  0.00     0.027 C 
BRANCH  13  14
ATOM     14  C   UNL     1      -2.604  32.865 -15.916  1.00  0.00     0.004 C 
BRANCH  14  15
ATOM     15  C   UNL     1      -3.505  31.706 -16.392  1.00  0.00     0.000 C 
BRANCH  15  16
ATOM     16  C   UNL     1      -2.851  30.737 -17.392  1.00  0.00     0.000 C 
BRANCH  16  17
ATOM     17  C   UNL     1      -3.751  29.535 -17.734  1.00  0.00    -0.000 C 
BRANCH  17  18
ATOM     18  C   UNL     1      -3.582  28.371 -16.746  1.00  0.00    -0.000 C 
BRANCH  18  19
ATOM     19  C   UNL     1      -4.904  27.966 -16.081  1.00  0.00    -0.003 C 
ATOM     20  C   UNL     1      -6.063  28.811 -16.603  1.00  0.00     0.004 C 
ENDBRANCH  18  19
ENDBRANCH  17  18
ENDBRANCH  16  17
ENDBRANCH  15  16
ENDBRANCH  14  15
ENDBRANCH  13  14
ENDBRANCH   2  13
TORSDOF 15
ENDMDL
MODEL 7
REMARK VINA RESULT:    -3.202      2.629      5.176
REMARK INTER + INTRA:          -8.763
REMARK INTER:                  -5.914
REMARK INTRA:                  -2.849
REMARK UNBOUND:                -2.753
REMARK SMILES CCCCCCCCC=CCCCCCCCC(=O)[O-]
REMARK SMILES IDX 10 1 9 2 11 3 12 4 13 5 14 6 15 7 16 8 17 9 18 10 19 11
REMARK SMILES IDX 20 12 8 13 7 14 6 15 5 16 4 17 3 18 2 19 1 20
REMARK H PARENT
REMARK Flexibility Score: inf
ROOT
ATOM      1  C   UNL     1      -3.290  31.364 -17.785  1.00  0.00    -0.031 C 
ATOM      2  C   UNL     1      -3.415  31.959 -16.585  1.00  0.00    -0.031 C 
ENDROOT
BRANCH   1   3
ATOM      3  C   UNL     1      -2.023  31.349 -18.602  1.00  0.00     0.027 C 
BRANCH   3   4
ATOM      4  C   UNL     1      -1.765  29.953 -19.187  1.00  0.00     0.004 C 
BRANCH   4   5
ATOM      5  C   UNL     1      -2.141  28.826 -18.212  1.00  0.00     0.000 C 
BRANCH   5   6
ATOM      6  C   UNL     1      -0.920  28.022 -17.740  1.00  0.00     0.000 C 
BRANCH   6   7
ATOM      7  C   UNL     1      -0.720  28.166 -16.224  1.00  0.00     0.000 C 
BRANCH   7   8
ATOM      8  C   UNL     1      -0.373  29.605 -15.803  1.00  0.00     0.006 C 
BRANCH   8   9
ATOM      9  C   UNL     1       0.794  29.710 -14.807  1.00  0.00     0.053 C 
BRANCH   9  10
ATOM     10  C   UNL     1       1.778  30.769 -15.203  1.00  0.00     0.041 C 
ATOM     11  O   UNL     1       2.634  30.535 -16.097  1.00  0.00    -0.550 OA
ATOM     12  O   UNL     1       1.770  32.000 -14.563  1.00  0.00    -0.550 OA
ENDBRANCH   9  10
ENDBRANCH   8   9
ENDBRANCH   7   8
ENDBRANCH   6   7
ENDBRANCH   5   6
ENDBRANCH   4   5
ENDBRANCH   3   4
ENDBRANCH   1   3
BRANCH   2  13
ATOM     13  C   UNL     1      -2.283  32.667 -15.879  1.00  0.00     0.027 C 
BRANCH  13  14
ATOM     14  C   UNL     1      -2.632  33.032 -14.426  1.00  0.00     0.004 C 
BRANCH  14  15
ATOM     15  C   UNL     1      -1.515  32.738 -13.401  1.00  0.00     0.000 C 
BRANCH  15  16
ATOM     16  C   UNL     1      -1.757  31.512 -12.503  1.00  0.00     0.000 C 
BRANCH  16  17
ATOM     17  C   UNL     1      -3.212  31.409 -12.012  1.00  0.00    -0.000 C 
BRANCH  17  18
ATOM     18  C   UNL     1      -3.891  30.103 -12.452  1.00  0.00    -0.000 C 
BRANCH  18  19
ATOM     19  C   UNL     1      -3.118  29.380 -13.563  1.00  0.00    -0.003 C 
ATOM     20  C   UNL     1      -4.050  28.955 -14.694  1.00  0.00     0.004 C 
ENDBRANCH  18  19
ENDBRANCH  17  18
ENDBRANCH  16  17
ENDBRANCH  15  16
ENDBRANCH  14  15
ENDBRANCH  13  14
ENDBRANCH   2  13
TORSDOF 15
ENDMDL
MODEL 8
REMARK VINA RESULT:    -3.196      1.644      3.487
REMARK INTER + INTRA:          -8.751
REMARK INTER:                  -5.929
REMARK INTRA:                  -2.821
REMARK UNBOUND:                -2.753
REMARK SMILES CCCCCCCCC=CCCCCCCCC(=O)[O-]
REMARK SMILES IDX 10 1 9 2 11 3 12 4 13 5 14 6 15 7 16 8 17 9 18 10 19 11
REMARK SMILES IDX 20 12 8 13 7 14 6 15 5 16 4 17 3 18 2 19 1 20
REMARK H PARENT
REMARK Flexibility Score: inf
ROOT
ATOM      1  C   UNL     1      -0.943  32.602 -13.306  1.00  0.00    -0.031 C 
ATOM      2  C   UNL     1      -0.303  31.442 -13.074  1.00  0.00    -0.031 C 
ENDROOT
BRANCH   1   3
ATOM      3  C   UNL     1      -2.441  32.748 -13.393  1.00  0.00     0.027 C 
BRANCH   3   4
ATOM      4  C   UNL     1      -2.852  33.382 -14.730  1.00  0.00     0.004 C 
BRANCH   4   5
ATOM      5  C   UNL     1      -2.405  32.549 -15.941  1.00  0.00     0.000 C 
BRANCH   5   6
ATOM      6  C   UNL     1      -3.584  31.875 -16.661  1.00  0.00     0.000 C 
BRANCH   6   7
ATOM      7  C   UNL     1      -3.086  30.868 -17.708  1.00  0.00     0.000 C 
BRANCH   7   8
ATOM      8  C   UNL     1      -1.589  30.542 -17.557  1.00  0.00     0.006 C 
BRANCH   8   9
ATOM      9  C   UNL     1      -1.200  29.125 -18.008  1.00  0.00     0.053 C 
BRANCH   9  10
ATOM     10  C   UNL     1      -0.702  29.102 -19.422  1.00  0.00     0.041 C 
ATOM     11  O   UNL     1      -1.513  29.193 -20.380  1.00  0.00    -0.550 OA
ATOM     12  O   UNL     1       0.653  28.948 -19.679  1.00  0.00    -0.550 OA
ENDBRANCH   9  10
ENDBRANCH   8   9
ENDBRANCH   7   8
ENDBRANCH   6   7
ENDBRANCH   5   6
ENDBRANCH   4   5
ENDBRANCH   3   4
ENDBRANCH   1   3
BRANCH   2  13
ATOM     13  C   UNL     1      -1.011  30.129 -12.836  1.00  0.00     0.027 C 
BRANCH  13  14
ATOM     14  C   UNL     1      -1.273  29.357 -14.141  1.00  0.00     0.004 C 
BRANCH  14  15
ATOM     15  C   UNL     1      -2.613  28.592 -14.179  1.00  0.00     0.000 C 
BRANCH  15  16
ATOM     16  C   UNL     1      -3.871  29.468 -14.046  1.00  0.00     0.000 C 
BRANCH  16  17
ATOM     17  C   UNL     1      -4.691  29.149 -12.783  1.00  0.00    -0.000 C 
BRANCH  17  18
ATOM     18  C   UNL     1      -4.438  30.151 -11.647  1.00  0.00    -0.000 C 
BRANCH  18  19
ATOM     19  C   UNL     1      -4.145  29.462 -10.307  1.00  0.00    -0.003 C 
ATOM     20  C   UNL     1      -3.204  28.275 -10.495  1.00  0.00     0.004 C 
ENDBRANCH  18  19
ENDBRANCH  17  18
ENDBRANCH  16  17
ENDBRANCH  15  16
ENDBRANCH  14  15
ENDBRANCH  13  14
ENDBRANCH   2  13
TORSDOF 15
ENDMDL
MODEL 9
REMARK VINA RESULT:    -3.177      1.597      2.625
REMARK INTER + INTRA:          -8.716
REMARK INTER:                  -6.413
REMARK INTRA:                  -2.303
REMARK UNBOUND:                -2.753
REMARK SMILES CCCCCCCCC=CCCCCCCCC(=O)[O-]
REMARK SMILES IDX 10 1 9 2 11 3 12 4 13 5 14 6 15 7 16 8 17 9 18 10 19 11
REMARK SMILES IDX 20 12 8 13 7 14 6 15 5 16 4 17 3 18 2 19 1 20
REMARK H PARENT
REMARK Flexibility Score: inf
ROOT
ATOM      1  C   UNL     1      -2.904  32.980 -15.630  1.00  0.00    -0.031 C 
ATOM      2  C   UNL     1      -2.665  33.314 -14.349  1.00  0.00    -0.031 C 
ENDROOT
BRANCH   1   3
ATOM      3  C   UNL     1      -3.013  31.564 -16.137  1.00  0.00     0.027 C 
BRANCH   3   4
ATOM      4  C   UNL     1      -2.904  31.521 -17.668  1.00  0.00     0.004 C 
BRANCH   4   5
ATOM      5  C   UNL     1      -2.981  30.092 -18.226  1.00  0.00     0.000 C 
BRANCH   5   6
ATOM      6  C   UNL     1      -2.066  29.882 -19.443  1.00  0.00     0.000 C 
BRANCH   6   7
ATOM      7  C   UNL     1      -2.131  28.429 -19.937  1.00  0.00     0.000 C 
BRANCH   7   8
ATOM      8  C   UNL     1      -1.366  28.214 -21.255  1.00  0.00     0.006 C 
BRANCH   8   9
ATOM      9  C   UNL     1      -0.520  29.418 -21.700  1.00  0.00     0.053 C 
BRANCH   9  10
ATOM     10  C   UNL     1       0.623  29.008 -22.578  1.00  0.00     0.041 C 
ATOM     11  O   UNL     1       1.013  29.766 -23.505  1.00  0.00    -0.550 OA
ATOM     12  O   UNL     1       1.237  27.777 -22.393  1.00  0.00    -0.550 OA
ENDBRANCH   9  10
ENDBRANCH   8   9
ENDBRANCH   7   8
ENDBRANCH   6   7
ENDBRANCH   5   6
ENDBRANCH   4   5
ENDBRANCH   3   4
ENDBRANCH   1   3
BRANCH   2  13
ATOM     13  C   UNL     1      -2.508  32.305 -13.236  1.00  0.00     0.027 C 
BRANCH  13  14
ATOM     14  C   UNL     1      -1.052  32.185 -12.752  1.00  0.00     0.004 C 
BRANCH  14  15
ATOM     15  C   UNL     1      -0.425  30.787 -12.937  1.00  0.00     0.000 C 
BRANCH  15  16
ATOM     16  C   UNL     1       0.035  30.459 -14.368  1.00  0.00     0.000 C 
BRANCH  16  17
ATOM     17  C   UNL     1       0.627  31.677 -15.099  1.00  0.00    -0.000 C 
BRANCH  17  18
ATOM     18  C   UNL     1       0.741  31.458 -16.615  1.00  0.00    -0.000 C 
BRANCH  18  19
ATOM     19  C   UNL     1       0.570  29.985 -17.013  1.00  0.00    -0.003 C 
ATOM     20  C   UNL     1       1.416  29.645 -18.237  1.00  0.00     0.004 C 
ENDBRANCH  18  19
ENDBRANCH  17  18
ENDBRANCH  16  17
ENDBRANCH  15  16
ENDBRANCH  14  15
ENDBRANCH  13  14
ENDBRANCH   2  13
TORSDOF 15
ENDMDL
