MODEL 1
REMARK VINA RESULT:    -4.522      0.000      0.000
REMARK INTER + INTRA:          -6.606
REMARK INTER:                  -6.108
REMARK INTRA:                  -0.499
REMARK UNBOUND:                -0.499
REMARK SMILES C[C@@H](O)[C@@H](O)[C@H](O)[C@@H](O)C=O
REMARK SMILES IDX 4 1 2 2 1 3 3 4 6 6 8 7 10 8 11 9 9 10 7 12 5 14
REMARK H PARENT 3 5 9 11 7 13 5 15
REMARK Flexibility Score: inf
ROOT
ATOM      1  C   UNL     1      74.449 -37.801  11.291  1.00  0.00     0.174 C 
ENDROOT
BRANCH   1   2
ATOM      2  C   UNL     1      75.678 -36.888  11.024  1.00  0.00     0.142 C 
ATOM      3  C   UNL     1      76.936 -37.451  11.695  1.00  0.00     0.041 C 
BRANCH   2   4
ATOM      4  O   UNL     1      75.907 -36.785   9.643  1.00  0.00    -0.391 OA
ATOM      5  H   UNL     1      76.084 -37.704   9.310  1.00  0.00     0.211 HD
ENDBRANCH   2   4
ENDBRANCH   1   2
BRANCH   1   6
ATOM      6  C   UNL     1      73.082 -37.061  11.459  1.00  0.00     0.181 C 
BRANCH   6   7
ATOM      7  C   UNL     1      72.214 -36.922  10.175  1.00  0.00     0.209 C 
BRANCH   7   8
ATOM      8  C   UNL     1      71.065 -37.888  10.165  1.00  0.00     0.258 C 
ATOM      9  O   UNL     1      70.055 -37.661  10.814  1.00  0.00    -0.300 OA
ENDBRANCH   7   8
BRANCH   7  10
ATOM     10  O   UNL     1      73.002 -37.170   9.039  1.00  0.00    -0.383 OA
ATOM     11  H   UNL     1      72.677 -36.568   8.319  1.00  0.00     0.211 HD
ENDBRANCH   7  10
ENDBRANCH   6   7
BRANCH   6  12
ATOM     12  O   UNL     1      72.338 -37.654  12.498  1.00  0.00    -0.387 OA
ATOM     13  H   UNL     1      71.836 -38.420  12.118  1.00  0.00     0.211 HD
ENDBRANCH   6  12
ENDBRANCH   1   6
BRANCH   1  14
ATOM     14  O   UNL     1      74.674 -38.658  12.387  1.00  0.00    -0.388 OA
ATOM     15  H   UNL     1      75.567 -39.073  12.275  1.00  0.00     0.211 HD
ENDBRANCH   1  14
TORSDOF 8
ENDMDL
MODEL 2
REMARK VINA RESULT:    -4.415      8.089     10.609
REMARK INTER + INTRA:          -6.462
REMARK INTER:                  -5.737
REMARK INTRA:                  -0.725
REMARK UNBOUND:                -0.499
REMARK SMILES C[C@@H](O)[C@@H](O)[C@H](O)[C@@H](O)C=O
REMARK SMILES IDX 4 1 2 2 1 3 3 4 6 6 8 7 10 8 11 9 9 10 7 12 5 14
REMARK H PARENT 3 5 9 11 7 13 5 15
REMARK Flexibility Score: inf
ROOT
ATOM      1  C   UNL     1      63.215 -33.488  11.269  1.00  0.00     0.174 C 
ENDROOT
BRANCH   1   2
ATOM      2  C   UNL     1      62.576 -32.563  12.343  1.00  0.00     0.142 C 
ATOM      3  C   UNL     1      62.216 -33.355  13.606  1.00  0.00     0.041 C 
BRANCH   2   4
ATOM      4  O   UNL     1      63.472 -31.540  12.688  1.00  0.00    -0.391 OA
ATOM      5  H   UNL     1      63.868 -31.786  13.565  1.00  0.00     0.211 HD
ENDBRANCH   2   4
ENDBRANCH   1   2
BRANCH   1   6
ATOM      6  C   UNL     1      64.363 -34.420  11.778  1.00  0.00     0.181 C 
BRANCH   6   7
ATOM      7  C   UNL     1      64.930 -35.436  10.744  1.00  0.00     0.209 C 
BRANCH   7   8
ATOM      8  C   UNL     1      65.694 -36.545  11.408  1.00  0.00     0.258 C 
ATOM      9  O   UNL     1      66.387 -36.324  12.390  1.00  0.00    -0.300 OA
ENDBRANCH   7   8
BRANCH   7  10
ATOM     10  O   UNL     1      65.799 -34.778   9.858  1.00  0.00    -0.383 OA
ATOM     11  H   UNL     1      66.719 -34.887  10.215  1.00  0.00     0.211 HD
ENDBRANCH   7  10
ENDBRANCH   6   7
BRANCH   6  12
ATOM     12  O   UNL     1      65.400 -33.646  12.333  1.00  0.00    -0.387 OA
ATOM     13  H   UNL     1      66.196 -34.227  12.436  1.00  0.00     0.211 HD
ENDBRANCH   6  12
ENDBRANCH   1   6
BRANCH   1  14
ATOM     14  O   UNL     1      63.648 -32.752  10.150  1.00  0.00    -0.388 OA
ATOM     15  H   UNL     1      64.288 -32.062  10.462  1.00  0.00     0.211 HD
ENDBRANCH   1  14
TORSDOF 8
ENDMDL
MODEL 3
REMARK VINA RESULT:    -4.316     10.317     11.225
REMARK INTER + INTRA:          -6.328
REMARK INTER:                  -5.582
REMARK INTRA:                  -0.746
REMARK UNBOUND:                -0.499
REMARK SMILES C[C@@H](O)[C@@H](O)[C@H](O)[C@@H](O)C=O
REMARK SMILES IDX 4 1 2 2 1 3 3 4 6 6 8 7 10 8 11 9 9 10 7 12 5 14
REMARK H PARENT 3 5 9 11 7 13 5 15
REMARK Flexibility Score: inf
ROOT
ATOM      1  C   UNL     1      72.345 -28.175  16.689  1.00  0.00     0.174 C 
ENDROOT
BRANCH   1   2
ATOM      2  C   UNL     1      72.566 -26.678  17.045  1.00  0.00     0.142 C 
ATOM      3  C   UNL     1      72.187 -26.400  18.505  1.00  0.00     0.041 C 
BRANCH   2   4
ATOM      4  O   UNL     1      73.912 -26.333  16.851  1.00  0.00    -0.391 OA
ATOM      5  H   UNL     1      74.257 -26.912  16.121  1.00  0.00     0.211 HD
ENDBRANCH   2   4
ENDBRANCH   1   2
BRANCH   1   6
ATOM      6  C   UNL     1      72.983 -29.205  17.676  1.00  0.00     0.181 C 
BRANCH   6   7
ATOM      7  C   UNL     1      72.528 -30.685  17.514  1.00  0.00     0.209 C 
BRANCH   7   8
ATOM      8  C   UNL     1      72.791 -31.493  18.752  1.00  0.00     0.258 C 
ATOM      9  O   UNL     1      73.566 -31.090  19.606  1.00  0.00    -0.300 OA
ENDBRANCH   7   8
BRANCH   7  10
ATOM     10  O   UNL     1      73.219 -31.282  16.448  1.00  0.00    -0.383 OA
ATOM     11  H   UNL     1      72.566 -31.844  15.953  1.00  0.00     0.211 HD
ENDBRANCH   7  10
ENDBRANCH   6   7
BRANCH   6  12
ATOM     12  O   UNL     1      74.388 -29.112  17.628  1.00  0.00    -0.387 OA
ATOM     13  H   UNL     1      74.761 -30.021  17.754  1.00  0.00     0.211 HD
ENDBRANCH   6  12
ENDBRANCH   1   6
BRANCH   1  14
ATOM     14  O   UNL     1      72.751 -28.454  15.369  1.00  0.00    -0.388 OA
ATOM     15  H   UNL     1      73.675 -28.810  15.398  1.00  0.00     0.211 HD
ENDBRANCH   1  14
TORSDOF 8
ENDMDL
MODEL 4
REMARK VINA RESULT:    -4.241      9.068     10.590
REMARK INTER + INTRA:          -6.228
REMARK INTER:                  -5.496
REMARK INTRA:                  -0.731
REMARK UNBOUND:                -0.499
REMARK SMILES C[C@@H](O)[C@@H](O)[C@H](O)[C@@H](O)C=O
REMARK SMILES IDX 4 1 2 2 1 3 3 4 6 6 8 7 10 8 11 9 9 10 7 12 5 14
REMARK H PARENT 3 5 9 11 7 13 5 15
REMARK Flexibility Score: inf
ROOT
ATOM      1  C   UNL     1      65.044 -34.649  12.000  1.00  0.00     0.174 C 
ENDROOT
BRANCH   1   2
ATOM      2  C   UNL     1      64.705 -34.576  10.484  1.00  0.00     0.142 C 
ATOM      3  C   UNL     1      63.952 -35.832  10.030  1.00  0.00     0.041 C 
BRANCH   2   4
ATOM      4  O   UNL     1      63.909 -33.450  10.225  1.00  0.00    -0.391 OA
ATOM      5  H   UNL     1      64.517 -32.732   9.907  1.00  0.00     0.211 HD
ENDBRANCH   2   4
ENDBRANCH   1   2
BRANCH   1   6
ATOM      6  C   UNL     1      63.874 -34.288  12.971  1.00  0.00     0.181 C 
BRANCH   6   7
ATOM      7  C   UNL     1      63.945 -34.914  14.394  1.00  0.00     0.209 C 
BRANCH   7   8
ATOM      8  C   UNL     1      63.081 -34.178  15.377  1.00  0.00     0.258 C 
ATOM      9  O   UNL     1      61.915 -33.926  15.115  1.00  0.00    -0.300 OA
ENDBRANCH   7   8
BRANCH   7  10
ATOM     10  O   UNL     1      65.268 -34.879  14.865  1.00  0.00    -0.383 OA
ATOM     11  H   UNL     1      65.368 -34.044  15.394  1.00  0.00     0.211 HD
ENDBRANCH   7  10
ENDBRANCH   6   7
BRANCH   6  12
ATOM     12  O   UNL     1      63.729 -32.889  13.053  1.00  0.00    -0.387 OA
ATOM     13  H   UNL     1      64.541 -32.473  12.664  1.00  0.00     0.211 HD
ENDBRANCH   6  12
ENDBRANCH   1   6
BRANCH   1  14
ATOM     14  O   UNL     1      66.184 -33.881  12.308  1.00  0.00    -0.388 OA
ATOM     15  H   UNL     1      66.110 -33.013  11.835  1.00  0.00     0.211 HD
ENDBRANCH   1  14
TORSDOF 8
ENDMDL
MODEL 5
REMARK VINA RESULT:    -4.224     10.781     11.712
REMARK INTER + INTRA:          -6.204
REMARK INTER:                  -5.482
REMARK INTRA:                  -0.723
REMARK UNBOUND:                -0.499
REMARK SMILES C[C@@H](O)[C@@H](O)[C@H](O)[C@@H](O)C=O
REMARK SMILES IDX 4 1 2 2 1 3 3 4 6 6 8 7 10 8 11 9 9 10 7 12 5 14
REMARK H PARENT 3 5 9 11 7 13 5 15
REMARK Flexibility Score: inf
ROOT
ATOM      1  C   UNL     1      72.996 -29.308  17.733  1.00  0.00     0.174 C 
ENDROOT
BRANCH   1   2
ATOM      2  C   UNL     1      72.164 -30.542  17.285  1.00  0.00     0.142 C 
ATOM      3  C   UNL     1      70.662 -30.272  17.429  1.00  0.00     0.041 C 
BRANCH   2   4
ATOM      4  O   UNL     1      72.445 -30.848  15.944  1.00  0.00    -0.391 OA
ATOM      5  H   UNL     1      73.226 -31.461  15.945  1.00  0.00     0.211 HD
ENDBRANCH   2   4
ENDBRANCH   1   2
BRANCH   1   6
ATOM      6  C   UNL     1      72.570 -27.941  17.105  1.00  0.00     0.181 C 
BRANCH   6   7
ATOM      7  C   UNL     1      73.138 -26.664  17.788  1.00  0.00     0.209 C 
BRANCH   7   8
ATOM      8  C   UNL     1      72.956 -25.442  16.936  1.00  0.00     0.258 C 
ATOM      9  O   UNL     1      73.838 -25.076  16.173  1.00  0.00    -0.300 OA
ENDBRANCH   7   8
BRANCH   7  10
ATOM     10  O   UNL     1      74.512 -26.825  18.031  1.00  0.00    -0.383 OA
ATOM     11  H   UNL     1      74.603 -27.291  18.903  1.00  0.00     0.211 HD
ENDBRANCH   7  10
ENDBRANCH   6   7
BRANCH   6  12
ATOM     12  O   UNL     1      72.857 -27.935  15.726  1.00  0.00    -0.387 OA
ATOM     13  H   UNL     1      72.389 -27.162  15.318  1.00  0.00     0.211 HD
ENDBRANCH   6  12
ENDBRANCH   1   6
BRANCH   1  14
ATOM     14  O   UNL     1      74.375 -29.520  17.539  1.00  0.00    -0.388 OA
ATOM     15  H   UNL     1      74.490 -30.366  17.035  1.00  0.00     0.211 HD
ENDBRANCH   1  14
TORSDOF 8
ENDMDL
MODEL 6
REMARK VINA RESULT:    -4.074      9.596     10.610
REMARK INTER + INTRA:          -6.002
REMARK INTER:                  -5.555
REMARK INTRA:                  -0.447
REMARK UNBOUND:                -0.499
REMARK SMILES C[C@@H](O)[C@@H](O)[C@H](O)[C@@H](O)C=O
REMARK SMILES IDX 4 1 2 2 1 3 3 4 6 6 8 7 10 8 11 9 9 10 7 12 5 14
REMARK H PARENT 3 5 9 11 7 13 5 15
REMARK Flexibility Score: inf
ROOT
ATOM      1  C   UNL     1      71.501 -29.953  17.515  1.00  0.00     0.174 C 
ENDROOT
BRANCH   1   2
ATOM      2  C   UNL     1      71.954 -28.748  16.643  1.00  0.00     0.142 C 
ATOM      3  C   UNL     1      72.961 -27.873  17.397  1.00  0.00     0.041 C 
BRANCH   2   4
ATOM      4  O   UNL     1      72.550 -29.212  15.459  1.00  0.00    -0.391 OA
ATOM      5  H   UNL     1      72.040 -28.817  14.705  1.00  0.00     0.211 HD
ENDBRANCH   2   4
ENDBRANCH   1   2
BRANCH   1   6
ATOM      6  C   UNL     1      72.651 -30.775  18.181  1.00  0.00     0.181 C 
BRANCH   6   7
ATOM      7  C   UNL     1      72.285 -31.532  19.490  1.00  0.00     0.209 C 
BRANCH   7   8
ATOM      8  C   UNL     1      73.496 -31.828  20.327  1.00  0.00     0.258 C 
ATOM      9  O   UNL     1      73.412 -32.540  21.315  1.00  0.00    -0.300 OA
ENDBRANCH   7   8
BRANCH   7  10
ATOM     10  O   UNL     1      71.664 -32.752  19.177  1.00  0.00    -0.383 OA
ATOM     11  H   UNL     1      70.991 -32.565  18.471  1.00  0.00     0.211 HD
ENDBRANCH   7  10
ENDBRANCH   6   7
BRANCH   6  12
ATOM     12  O   UNL     1      73.220 -31.657  17.241  1.00  0.00    -0.387 OA
ATOM     13  H   UNL     1      74.061 -32.015  17.625  1.00  0.00     0.211 HD
ENDBRANCH   6  12
ENDBRANCH   1   6
BRANCH   1  14
ATOM     14  O   UNL     1      70.644 -30.812  16.799  1.00  0.00    -0.388 OA
ATOM     15  H   UNL     1      71.010 -30.922  15.884  1.00  0.00     0.211 HD
ENDBRANCH   1  14
TORSDOF 8
ENDMDL
MODEL 7
REMARK VINA RESULT:    -4.028      8.692     10.586
REMARK INTER + INTRA:          -5.939
REMARK INTER:                  -5.161
REMARK INTRA:                  -0.778
REMARK UNBOUND:                -0.499
REMARK SMILES C[C@@H](O)[C@@H](O)[C@H](O)[C@@H](O)C=O
REMARK SMILES IDX 4 1 2 2 1 3 3 4 6 6 8 7 10 8 11 9 9 10 7 12 5 14
REMARK H PARENT 3 5 9 11 7 13 5 15
REMARK Flexibility Score: inf
ROOT
ATOM      1  C   UNL     1      64.851 -34.737  11.822  1.00  0.00     0.174 C 
ENDROOT
BRANCH   1   2
ATOM      2  C   UNL     1      65.346 -35.601  10.628  1.00  0.00     0.142 C 
ATOM      3  C   UNL     1      64.194 -36.411  10.022  1.00  0.00     0.041 C 
BRANCH   2   4
ATOM      4  O   UNL     1      65.893 -34.774   9.634  1.00  0.00    -0.391 OA
ATOM      5  H   UNL     1      66.084 -35.353   8.850  1.00  0.00     0.211 HD
ENDBRANCH   2   4
ENDBRANCH   1   2
BRANCH   1   6
ATOM      6  C   UNL     1      63.450 -34.069  11.638  1.00  0.00     0.181 C 
BRANCH   6   7
ATOM      7  C   UNL     1      62.731 -33.611  12.939  1.00  0.00     0.209 C 
BRANCH   7   8
ATOM      8  C   UNL     1      62.285 -32.179  12.862  1.00  0.00     0.258 C 
ATOM      9  O   UNL     1      63.076 -31.269  13.057  1.00  0.00    -0.300 OA
ENDBRANCH   7   8
BRANCH   7  10
ATOM     10  O   UNL     1      63.601 -33.738  14.034  1.00  0.00    -0.383 OA
ATOM     11  H   UNL     1      63.576 -34.689  14.321  1.00  0.00     0.211 HD
ENDBRANCH   7  10
ENDBRANCH   6   7
BRANCH   6  12
ATOM     12  O   UNL     1      63.542 -33.003  10.721  1.00  0.00    -0.387 OA
ATOM     13  H   UNL     1      63.010 -33.241   9.919  1.00  0.00     0.211 HD
ENDBRANCH   6  12
ENDBRANCH   1   6
BRANCH   1  14
ATOM     14  O   UNL     1      65.806 -33.767  12.185  1.00  0.00    -0.388 OA
ATOM     15  H   UNL     1      65.327 -32.990  12.572  1.00  0.00     0.211 HD
ENDBRANCH   1  14
TORSDOF 8
ENDMDL
MODEL 8
REMARK VINA RESULT:    -4.011      8.702     10.798
REMARK INTER + INTRA:          -5.916
REMARK INTER:                  -5.196
REMARK INTRA:                  -0.720
REMARK UNBOUND:                -0.499
REMARK SMILES C[C@@H](O)[C@@H](O)[C@H](O)[C@@H](O)C=O
REMARK SMILES IDX 4 1 2 2 1 3 3 4 6 6 8 7 10 8 11 9 9 10 7 12 5 14
REMARK H PARENT 3 5 9 11 7 13 5 15
REMARK Flexibility Score: inf
ROOT
ATOM      1  C   UNL     1      63.227 -33.590  12.963  1.00  0.00     0.174 C 
ENDROOT
BRANCH   1   2
ATOM      2  C   UNL     1      63.041 -33.977  14.458  1.00  0.00     0.142 C 
ATOM      3  C   UNL     1      61.904 -34.991  14.625  1.00  0.00     0.041 C 
BRANCH   2   4
ATOM      4  O   UNL     1      64.227 -34.537  14.958  1.00  0.00    -0.391 OA
ATOM      5  H   UNL     1      63.999 -35.442  15.298  1.00  0.00     0.211 HD
ENDBRANCH   2   4
ENDBRANCH   1   2
BRANCH   1   6
ATOM      6  C   UNL     1      64.288 -34.426  12.177  1.00  0.00     0.181 C 
BRANCH   6   7
ATOM      7  C   UNL     1      64.023 -34.614  10.655  1.00  0.00     0.209 C 
BRANCH   7   8
ATOM      8  C   UNL     1      65.171 -35.292   9.964  1.00  0.00     0.258 C 
ATOM      9  O   UNL     1      65.785 -36.194  10.514  1.00  0.00    -0.300 OA
ENDBRANCH   7   8
BRANCH   7  10
ATOM     10  O   UNL     1      63.826 -33.363  10.047  1.00  0.00    -0.383 OA
ATOM     11  H   UNL     1      64.364 -32.702  10.557  1.00  0.00     0.211 HD
ENDBRANCH   7  10
ENDBRANCH   6   7
BRANCH   6  12
ATOM     12  O   UNL     1      65.575 -33.895  12.393  1.00  0.00    -0.387 OA
ATOM     13  H   UNL     1      65.575 -32.953  12.088  1.00  0.00     0.211 HD
ENDBRANCH   6  12
ENDBRANCH   1   6
BRANCH   1  14
ATOM     14  O   UNL     1      63.488 -32.214  12.818  1.00  0.00    -0.388 OA
ATOM     15  H   UNL     1      64.328 -32.112  12.301  1.00  0.00     0.211 HD
ENDBRANCH   1  14
TORSDOF 8
ENDMDL
MODEL 9
REMARK VINA RESULT:    -4.000      9.845     10.913
REMARK INTER + INTRA:          -5.902
REMARK INTER:                  -5.335
REMARK INTRA:                  -0.567
REMARK UNBOUND:                -0.499
REMARK SMILES C[C@@H](O)[C@@H](O)[C@H](O)[C@@H](O)C=O
REMARK SMILES IDX 4 1 2 2 1 3 3 4 6 6 8 7 10 8 11 9 9 10 7 12 5 14
REMARK H PARENT 3 5 9 11 7 13 5 15
REMARK Flexibility Score: inf
ROOT
ATOM      1  C   UNL     1      72.865 -31.241  18.898  1.00  0.00     0.174 C 
ENDROOT
BRANCH   1   2
ATOM      2  C   UNL     1      72.217 -32.158  19.973  1.00  0.00     0.142 C 
ATOM      3  C   UNL     1      71.352 -31.343  20.940  1.00  0.00     0.041 C 
BRANCH   2   4
ATOM      4  O   UNL     1      71.414 -33.129  19.353  1.00  0.00    -0.391 OA
ATOM      5  H   UNL     1      70.472 -32.907  19.572  1.00  0.00     0.211 HD
ENDBRANCH   2   4
ENDBRANCH   1   2
BRANCH   1   6
ATOM      6  C   UNL     1      72.168 -29.860  18.679  1.00  0.00     0.181 C 
BRANCH   6   7
ATOM      7  C   UNL     1      73.080 -28.701  18.181  1.00  0.00     0.209 C 
BRANCH   7   8
ATOM      8  C   UNL     1      72.427 -27.901  17.091  1.00  0.00     0.258 C 
ATOM      9  O   UNL     1      72.439 -28.296  15.935  1.00  0.00    -0.300 OA
ENDBRANCH   7   8
BRANCH   7  10
ATOM     10  O   UNL     1      74.282 -29.225  17.677  1.00  0.00    -0.383 OA
ATOM     11  H   UNL     1      74.047 -29.810  16.909  1.00  0.00     0.211 HD
ENDBRANCH   7  10
ENDBRANCH   6   7
BRANCH   6  12
ATOM     12  O   UNL     1      71.052 -30.012  17.833  1.00  0.00    -0.387 OA
ATOM     13  H   UNL     1      70.923 -29.162  17.339  1.00  0.00     0.211 HD
ENDBRANCH   6  12
ENDBRANCH   1   6
BRANCH   1  14
ATOM     14  O   UNL     1      73.006 -31.913  17.667  1.00  0.00    -0.388 OA
ATOM     15  H   UNL     1      73.594 -31.368  17.083  1.00  0.00     0.211 HD
ENDBRANCH   1  14
TORSDOF 8
ENDMDL
