MODEL 1
REMARK VINA RESULT:    -4.302      0.000      0.000
REMARK INTER + INTRA:          -4.693
REMARK INTER:                  -4.679
REMARK INTRA:                  -0.013
REMARK UNBOUND:                -0.013
REMARK SMILES OCc1ccccc1
REMARK SMILES IDX 2 1 3 2 6 3 5 4 7 5 4 6 8 7 1 8
REMARK H PARENT 1 9
REMARK Flexibility Score: inf
ROOT
ATOM      1  C   UNL     1      54.533  11.793 150.765  1.00  0.00     0.191 C 
ENDROOT
BRANCH   1   2
ATOM      2  C   UNL     1      53.413  12.795 150.809  1.00  0.00    -0.023 A 
ATOM      3  C   UNL     1      51.278  14.618 150.843  1.00  0.00     0.000 A 
ATOM      4  C   UNL     1      51.363  13.623 151.820  1.00  0.00     0.000 A 
ATOM      5  C   UNL     1      52.251  14.700 149.842  1.00  0.00     0.000 A 
ATOM      6  C   UNL     1      52.422  12.709 151.801  1.00  0.00     0.006 A 
ATOM      7  C   UNL     1      53.313  13.789 149.821  1.00  0.00     0.006 A 
ENDBRANCH   1   2
BRANCH   1   8
ATOM      8  O   UNL     1      54.557  11.153 149.519  1.00  0.00    -0.392 OA
ATOM      9  H   UNL     1      54.817  11.840 148.851  1.00  0.00     0.211 HD
ENDBRANCH   1   8
TORSDOF 2
ENDMDL
MODEL 2
REMARK VINA RESULT:    -4.285     14.277     15.356
REMARK INTER + INTRA:          -4.674
REMARK INTER:                  -4.663
REMARK INTRA:                  -0.011
REMARK UNBOUND:                -0.013
REMARK SMILES OCc1ccccc1
REMARK SMILES IDX 2 1 3 2 6 3 5 4 7 5 4 6 8 7 1 8
REMARK H PARENT 1 9
REMARK Flexibility Score: inf
ROOT
ATOM      1  C   UNL     1      36.497  11.617 147.114  1.00  0.00     0.191 C 
ENDROOT
BRANCH   1   2
ATOM      2  C   UNL     1      37.540  12.648 147.444  1.00  0.00    -0.023 A 
ATOM      3  C   UNL     1      39.439  14.630 148.030  1.00  0.00     0.000 A 
ATOM      4  C   UNL     1      38.485  14.272 148.987  1.00  0.00     0.000 A 
ATOM      5  C   UNL     1      39.442  14.008 146.778  1.00  0.00     0.000 A 
ATOM      6  C   UNL     1      37.533  13.289 148.694  1.00  0.00     0.006 A 
ATOM      7  C   UNL     1      38.492  13.023 146.483  1.00  0.00     0.006 A 
ENDBRANCH   1   2
BRANCH   1   8
ATOM      8  O   UNL     1      36.603  10.527 147.988  1.00  0.00    -0.392 OA
ATOM      9  H   UNL     1      36.081   9.786 147.583  1.00  0.00     0.211 HD
ENDBRANCH   1   8
TORSDOF 2
ENDMDL
MODEL 3
REMARK VINA RESULT:    -4.271     20.498     20.993
REMARK INTER + INTRA:          -4.658
REMARK INTER:                  -4.645
REMARK INTRA:                  -0.014
REMARK UNBOUND:                -0.013
REMARK SMILES OCc1ccccc1
REMARK SMILES IDX 2 1 3 2 6 3 5 4 7 5 4 6 8 7 1 8
REMARK H PARENT 1 9
REMARK Flexibility Score: inf
ROOT
ATOM      1  C   UNL     1      39.824  -2.167 148.582  1.00  0.00     0.191 C 
ENDROOT
BRANCH   1   2
ATOM      2  C   UNL     1      38.745  -1.550 147.737  1.00  0.00    -0.023 A 
ATOM      3  C   UNL     1      36.766  -0.325 146.168  1.00  0.00     0.000 A 
ATOM      4  C   UNL     1      37.905  -0.861 145.562  1.00  0.00     0.000 A 
ATOM      5  C   UNL     1      36.616  -0.390 147.556  1.00  0.00     0.000 A 
ATOM      6  C   UNL     1      38.896  -1.466 146.342  1.00  0.00     0.006 A 
ATOM      7  C   UNL     1      37.604  -0.995 148.340  1.00  0.00     0.006 A 
ENDBRANCH   1   2
BRANCH   1   8
ATOM      8  O   UNL     1      39.258  -3.022 149.536  1.00  0.00    -0.392 OA
ATOM      9  H   UNL     1      39.959  -3.683 149.777  1.00  0.00     0.211 HD
ENDBRANCH   1   8
TORSDOF 2
ENDMDL
MODEL 4
REMARK VINA RESULT:    -4.260     13.607     15.015
REMARK INTER + INTRA:          -4.647
REMARK INTER:                  -4.635
REMARK INTRA:                  -0.012
REMARK UNBOUND:                -0.013
REMARK SMILES OCc1ccccc1
REMARK SMILES IDX 2 1 3 2 6 3 5 4 7 5 4 6 8 7 1 8
REMARK H PARENT 1 9
REMARK Flexibility Score: inf
ROOT
ATOM      1  C   UNL     1      55.354   0.333 146.938  1.00  0.00     0.191 C 
ENDROOT
BRANCH   1   2
ATOM      2  C   UNL     1      54.278  -0.681 146.662  1.00  0.00    -0.023 A 
ATOM      3  C   UNL     1      52.326  -2.621 146.110  1.00  0.00     0.000 A 
ATOM      4  C   UNL     1      53.023  -2.655 147.321  1.00  0.00     0.000 A 
ATOM      5  C   UNL     1      52.609  -1.626 145.169  1.00  0.00     0.000 A 
ATOM      6  C   UNL     1      54.001  -1.693 147.595  1.00  0.00     0.006 A 
ATOM      7  C   UNL     1      53.585  -0.662 145.440  1.00  0.00     0.006 A 
ENDBRANCH   1   2
BRANCH   1   8
ATOM      8  O   UNL     1      55.066   1.031 148.118  1.00  0.00    -0.392 OA
ATOM      9  H   UNL     1      55.936   1.330 148.491  1.00  0.00     0.211 HD
ENDBRANCH   1   8
TORSDOF 2
ENDMDL
MODEL 5
REMARK VINA RESULT:    -4.256     14.263     15.335
REMARK INTER + INTRA:          -4.642
REMARK INTER:                  -4.632
REMARK INTRA:                  -0.010
REMARK UNBOUND:                -0.013
REMARK SMILES OCc1ccccc1
REMARK SMILES IDX 2 1 3 2 6 3 5 4 7 5 4 6 8 7 1 8
REMARK H PARENT 1 9
REMARK Flexibility Score: inf
ROOT
ATOM      1  C   UNL     1      37.812  12.007 145.534  1.00  0.00     0.191 C 
ENDROOT
BRANCH   1   2
ATOM      2  C   UNL     1      38.114  12.868 146.729  1.00  0.00    -0.023 A 
ATOM      3  C   UNL     1      38.725  14.415 148.989  1.00  0.00     0.000 A 
ATOM      4  C   UNL     1      39.508  14.522 147.837  1.00  0.00     0.000 A 
ATOM      5  C   UNL     1      37.643  13.530 149.020  1.00  0.00     0.000 A 
ATOM      6  C   UNL     1      39.209  13.747 146.711  1.00  0.00     0.006 A 
ATOM      7  C   UNL     1      37.341  12.754 147.895  1.00  0.00     0.006 A 
ENDBRANCH   1   2
BRANCH   1   8
ATOM      8  O   UNL     1      37.213  12.775 144.526  1.00  0.00    -0.392 OA
ATOM      9  H   UNL     1      37.666  13.658 144.535  1.00  0.00     0.211 HD
ENDBRANCH   1   8
TORSDOF 2
ENDMDL
MODEL 6
REMARK VINA RESULT:    -4.249      1.670      2.389
REMARK INTER + INTRA:          -4.635
REMARK INTER:                  -4.624
REMARK INTRA:                  -0.011
REMARK UNBOUND:                -0.013
REMARK SMILES OCc1ccccc1
REMARK SMILES IDX 2 1 3 2 6 3 5 4 7 5 4 6 8 7 1 8
REMARK H PARENT 1 9
REMARK Flexibility Score: inf
ROOT
ATOM      1  C   UNL     1      53.169  11.585 152.241  1.00  0.00     0.191 C 
ENDROOT
BRANCH   1   2
ATOM      2  C   UNL     1      52.729  12.766 151.420  1.00  0.00    -0.023 A 
ATOM      3  C   UNL     1      51.949  15.018 149.939  1.00  0.00     0.000 A 
ATOM      4  C   UNL     1      53.110  14.322 149.592  1.00  0.00     0.000 A 
ATOM      5  C   UNL     1      51.180  14.598 151.029  1.00  0.00     0.000 A 
ATOM      6  C   UNL     1      53.504  13.204 150.334  1.00  0.00     0.006 A 
ATOM      7  C   UNL     1      51.571  13.479 151.771  1.00  0.00     0.006 A 
ENDBRANCH   1   2
BRANCH   1   8
ATOM      8  O   UNL     1      53.554  12.005 153.520  1.00  0.00    -0.392 OA
ATOM      9  H   UNL     1      53.021  11.473 154.167  1.00  0.00     0.211 HD
ENDBRANCH   1   8
TORSDOF 2
ENDMDL
MODEL 7
REMARK VINA RESULT:    -4.220     14.000     14.759
REMARK INTER + INTRA:          -4.604
REMARK INTER:                  -4.589
REMARK INTRA:                  -0.015
REMARK UNBOUND:                -0.013
REMARK SMILES OCc1ccccc1
REMARK SMILES IDX 2 1 3 2 6 3 5 4 7 5 4 6 8 7 1 8
REMARK H PARENT 1 9
REMARK Flexibility Score: inf
ROOT
ATOM      1  C   UNL     1      52.657  -0.719 143.842  1.00  0.00     0.191 C 
ENDROOT
BRANCH   1   2
ATOM      2  C   UNL     1      53.627  -0.317 144.917  1.00  0.00    -0.023 A 
ATOM      3  C   UNL     1      55.483   0.368 146.908  1.00  0.00     0.000 A 
ATOM      4  C   UNL     1      55.639   0.858 145.609  1.00  0.00     0.000 A 
ATOM      5  C   UNL     1      54.407  -0.471 147.214  1.00  0.00     0.000 A 
ATOM      6  C   UNL     1      54.719   0.513 144.614  1.00  0.00     0.006 A 
ATOM      7  C   UNL     1      53.484  -0.818 146.222  1.00  0.00     0.006 A 
ENDBRANCH   1   2
BRANCH   1   8
ATOM      8  O   UNL     1      53.350  -1.098 142.685  1.00  0.00    -0.392 OA
ATOM      9  H   UNL     1      54.302  -0.857 142.832  1.00  0.00     0.211 HD
ENDBRANCH   1   8
TORSDOF 2
ENDMDL
MODEL 8
REMARK VINA RESULT:    -4.190      2.472      3.895
REMARK INTER + INTRA:          -4.570
REMARK INTER:                  -4.555
REMARK INTRA:                  -0.015
REMARK UNBOUND:                -0.013
REMARK SMILES OCc1ccccc1
REMARK SMILES IDX 2 1 3 2 6 3 5 4 7 5 4 6 8 7 1 8
REMARK H PARENT 1 9
REMARK Flexibility Score: inf
ROOT
ATOM      1  C   UNL     1      51.317  12.739 152.814  1.00  0.00     0.191 C 
ENDROOT
BRANCH   1   2
ATOM      2  C   UNL     1      52.574  12.384 152.069  1.00  0.00    -0.023 A 
ATOM      3  C   UNL     1      54.885  11.652 150.655  1.00  0.00     0.000 A 
ATOM      4  C   UNL     1      53.886  12.396 150.023  1.00  0.00     0.000 A 
ATOM      5  C   UNL     1      54.729  11.263 151.989  1.00  0.00     0.000 A 
ATOM      6  C   UNL     1      52.730  12.756 150.724  1.00  0.00     0.006 A 
ATOM      7  C   UNL     1      53.575  11.623 152.694  1.00  0.00     0.006 A 
ENDBRANCH   1   2
BRANCH   1   8
ATOM      8  O   UNL     1      51.626  13.114 154.128  1.00  0.00    -0.392 OA
ATOM      9  H   UNL     1      51.115  13.944 154.315  1.00  0.00     0.211 HD
ENDBRANCH   1   8
TORSDOF 2
ENDMDL
MODEL 9
REMARK VINA RESULT:    -4.174      2.175      3.120
REMARK INTER + INTRA:          -4.553
REMARK INTER:                  -4.540
REMARK INTRA:                  -0.013
REMARK UNBOUND:                -0.013
REMARK SMILES OCc1ccccc1
REMARK SMILES IDX 2 1 3 2 6 3 5 4 7 5 4 6 8 7 1 8
REMARK H PARENT 1 9
REMARK Flexibility Score: inf
ROOT
ATOM      1  C   UNL     1      50.806  13.107 152.960  1.00  0.00     0.191 C 
ENDROOT
BRANCH   1   2
ATOM      2  C   UNL     1      51.611  13.495 151.751  1.00  0.00    -0.023 A 
ATOM      3  C   UNL     1      53.158  14.269 149.541  1.00  0.00     0.000 A 
ATOM      4  C   UNL     1      53.518  13.143 150.286  1.00  0.00     0.000 A 
ATOM      5  C   UNL     1      52.033  15.016 149.901  1.00  0.00     0.000 A 
ATOM      6  C   UNL     1      52.753  12.760 151.392  1.00  0.00     0.006 A 
ATOM      7  C   UNL     1      51.263  14.634 151.006  1.00  0.00     0.006 A 
ENDBRANCH   1   2
BRANCH   1   8
ATOM      8  O   UNL     1      51.617  13.118 154.102  1.00  0.00    -0.392 OA
ATOM      9  H   UNL     1      52.518  13.414 153.808  1.00  0.00     0.211 HD
ENDBRANCH   1   8
TORSDOF 2
ENDMDL
