MODEL 1
REMARK VINA RESULT:    -4.565      0.000      0.000
REMARK INTER + INTRA:          -5.384
REMARK INTER:                  -5.233
REMARK INTRA:                  -0.152
REMARK UNBOUND:                -0.152
REMARK SMILES CC=Cc1ccc(O)c(OC)c1
REMARK SMILES IDX 4 1 12 2 9 3 7 4 6 5 5 6 3 7 1 8 2 9 10 10 11 11 8 12
REMARK H PARENT 8 13
REMARK Flexibility Score: inf
ROOT
ATOM      1  C   UNL     1      18.868  -3.730 -19.707  1.00  0.00    -0.022 A 
ATOM      2  C   UNL     1      19.159  -3.674 -21.081  1.00  0.00     0.058 A 
ATOM      3  C   UNL     1      19.583  -2.473 -21.681  1.00  0.00     0.161 A 
ATOM      4  C   UNL     1      19.705  -1.319 -20.896  1.00  0.00     0.157 A 
ATOM      5  C   UNL     1      19.401  -1.363 -19.530  1.00  0.00     0.051 A 
ATOM      6  C   UNL     1      18.983  -2.555 -18.939  1.00  0.00     0.012 A 
ENDROOT
BRANCH   1   7
ATOM      7  C   UNL     1      18.416  -5.020 -19.128  1.00  0.00     0.003 C 
ATOM      8  C   UNL     1      16.760  -6.665 -18.340  1.00  0.00     0.035 C 
ATOM      9  C   UNL     1      17.133  -5.349 -18.943  1.00  0.00    -0.030 C 
ENDBRANCH   1   7
BRANCH   3  10
ATOM     10  O   UNL     1      19.891  -2.387 -23.048  1.00  0.00    -0.493 OA
ATOM     11  C   UNL     1      19.935  -3.499 -23.936  1.00  0.00     0.278 C 
ENDBRANCH   3  10
BRANCH   4  12
ATOM     12  O   UNL     1      20.125  -0.126 -21.484  1.00  0.00    -0.504 OA
ATOM     13  H   UNL     1      21.082   0.005 -21.791  1.00  0.00     0.293 HD
ENDBRANCH   4  12
TORSDOF 3
ENDMDL
MODEL 2
REMARK VINA RESULT:    -4.005     20.928     21.877
REMARK INTER + INTRA:          -4.742
REMARK INTER:                  -4.563
REMARK INTRA:                  -0.179
REMARK UNBOUND:                -0.152
REMARK SMILES CC=Cc1ccc(O)c(OC)c1
REMARK SMILES IDX 4 1 12 2 9 3 7 4 6 5 5 6 3 7 1 8 2 9 10 10 11 11 8 12
REMARK H PARENT 8 13
REMARK Flexibility Score: inf
ROOT
ATOM      1  C   UNL     1       1.694   6.472 -11.046  1.00  0.00    -0.022 A 
ATOM      2  C   UNL     1       0.796   6.421 -12.125  1.00  0.00     0.058 A 
ATOM      3  C   UNL     1       0.855   5.374 -13.066  1.00  0.00     0.161 A 
ATOM      4  C   UNL     1       1.829   4.377 -12.923  1.00  0.00     0.157 A 
ATOM      5  C   UNL     1       2.736   4.429 -11.858  1.00  0.00     0.051 A 
ATOM      6  C   UNL     1       2.674   5.468 -10.929  1.00  0.00     0.012 A 
ENDROOT
BRANCH   1   7
ATOM      7  C   UNL     1       1.594   7.603 -10.090  1.00  0.00     0.003 C 
ATOM      8  C   UNL     1       1.904   8.745  -7.929  1.00  0.00     0.035 C 
ATOM      9  C   UNL     1       2.056   7.565  -8.835  1.00  0.00    -0.030 C 
ENDBRANCH   1   7
BRANCH   3  10
ATOM     10  O   UNL     1      -0.033   5.290 -14.149  1.00  0.00    -0.493 OA
ATOM     11  C   UNL     1       0.090   6.041 -15.353  1.00  0.00     0.278 C 
ENDBRANCH   3  10
BRANCH   4  12
ATOM     12  O   UNL     1       1.891   3.336 -13.849  1.00  0.00    -0.504 OA
ATOM     13  H   UNL     1       1.413   3.391 -14.740  1.00  0.00     0.293 HD
ENDBRANCH   4  12
TORSDOF 3
ENDMDL
MODEL 3
REMARK VINA RESULT:    -3.950     20.348     21.059
REMARK INTER + INTRA:          -4.679
REMARK INTER:                  -4.518
REMARK INTRA:                  -0.161
REMARK UNBOUND:                -0.152
REMARK SMILES CC=Cc1ccc(O)c(OC)c1
REMARK SMILES IDX 4 1 12 2 9 3 7 4 6 5 5 6 3 7 1 8 2 9 10 10 11 11 8 12
REMARK H PARENT 8 13
REMARK Flexibility Score: inf
ROOT
ATOM      1  C   UNL     1       1.900   9.117 -19.767  1.00  0.00    -0.022 A 
ATOM      2  C   UNL     1       1.325   9.011 -21.044  1.00  0.00     0.058 A 
ATOM      3  C   UNL     1       1.782   8.049 -21.966  1.00  0.00     0.161 A 
ATOM      4  C   UNL     1       2.833   7.195 -21.602  1.00  0.00     0.157 A 
ATOM      5  C   UNL     1       3.422   7.305 -20.337  1.00  0.00     0.051 A 
ATOM      6  C   UNL     1       2.964   8.259 -19.427  1.00  0.00     0.012 A 
ENDROOT
BRANCH   1   7
ATOM      7  C   UNL     1       1.385  10.154 -18.839  1.00  0.00     0.003 C 
ATOM      8  C   UNL     1       0.831  11.118 -16.640  1.00  0.00     0.035 C 
ATOM      9  C   UNL     1       1.381  10.030 -17.507  1.00  0.00    -0.030 C 
ENDBRANCH   1   7
BRANCH   3  10
ATOM     10  O   UNL     1       1.222   7.911 -23.245  1.00  0.00    -0.493 OA
ATOM     11  C   UNL     1       0.162   8.715 -23.752  1.00  0.00     0.278 C 
ENDBRANCH   3  10
BRANCH   4  12
ATOM     12  O   UNL     1       3.290   6.240 -22.509  1.00  0.00    -0.504 OA
ATOM     13  H   UNL     1       4.271   6.164 -22.749  1.00  0.00     0.293 HD
ENDBRANCH   4  12
TORSDOF 3
ENDMDL
MODEL 4
REMARK VINA RESULT:    -3.884     20.786     21.914
REMARK INTER + INTRA:          -4.603
REMARK INTER:                  -4.452
REMARK INTRA:                  -0.152
REMARK UNBOUND:                -0.152
REMARK SMILES CC=Cc1ccc(O)c(OC)c1
REMARK SMILES IDX 4 1 12 2 9 3 7 4 6 5 5 6 3 7 1 8 2 9 10 10 11 11 8 12
REMARK H PARENT 8 13
REMARK Flexibility Score: inf
ROOT
ATOM      1  C   UNL     1       1.237   6.658 -12.663  1.00  0.00    -0.022 A 
ATOM      2  C   UNL     1       1.877   6.867 -11.431  1.00  0.00     0.058 A 
ATOM      3  C   UNL     1       2.649   5.850 -10.835  1.00  0.00     0.161 A 
ATOM      4  C   UNL     1       2.768   4.612 -11.480  1.00  0.00     0.157 A 
ATOM      5  C   UNL     1       2.120   4.391 -12.702  1.00  0.00     0.051 A 
ATOM      6  C   UNL     1       1.357   5.402 -13.288  1.00  0.00     0.012 A 
ENDROOT
BRANCH   1   7
ATOM      7  C   UNL     1       0.428   7.761 -13.241  1.00  0.00     0.003 C 
ATOM      8  C   UNL     1      -0.079   9.571 -14.833  1.00  0.00     0.035 C 
ATOM      9  C   UNL     1       0.786   8.464 -14.321  1.00  0.00    -0.030 C 
ENDBRANCH   1   7
BRANCH   3  10
ATOM     10  O   UNL     1       3.309   6.031  -9.610  1.00  0.00    -0.493 OA
ATOM     11  C   UNL     1       2.898   6.947  -8.600  1.00  0.00     0.278 C 
ENDBRANCH   3  10
BRANCH   4  12
ATOM     12  O   UNL     1       3.531   3.602 -10.897  1.00  0.00    -0.504 OA
ATOM     13  H   UNL     1       3.172   3.039 -10.135  1.00  0.00     0.293 HD
ENDBRANCH   4  12
TORSDOF 3
ENDMDL
MODEL 5
REMARK VINA RESULT:    -3.645     20.528     21.191
REMARK INTER + INTRA:          -4.330
REMARK INTER:                  -4.170
REMARK INTRA:                  -0.160
REMARK UNBOUND:                -0.152
REMARK SMILES CC=Cc1ccc(O)c(OC)c1
REMARK SMILES IDX 4 1 12 2 9 3 7 4 6 5 5 6 3 7 1 8 2 9 10 10 11 11 8 12
REMARK H PARENT 8 13
REMARK Flexibility Score: inf
ROOT
ATOM      1  C   UNL     1       1.402   9.388 -19.224  1.00  0.00    -0.022 A 
ATOM      2  C   UNL     1       1.771   8.313 -20.051  1.00  0.00     0.058 A 
ATOM      3  C   UNL     1       2.245   8.536 -21.358  1.00  0.00     0.161 A 
ATOM      4  C   UNL     1       2.340   9.849 -21.839  1.00  0.00     0.157 A 
ATOM      5  C   UNL     1       1.959  10.924 -21.027  1.00  0.00     0.051 A 
ATOM      6  C   UNL     1       1.490  10.698 -19.732  1.00  0.00     0.012 A 
ENDROOT
BRANCH   1   7
ATOM      7  C   UNL     1       0.899   9.095 -17.859  1.00  0.00     0.003 C 
ATOM      8  C   UNL     1       0.873   9.248 -15.400  1.00  0.00     0.035 C 
ATOM      9  C   UNL     1       1.430   9.603 -16.741  1.00  0.00    -0.030 C 
ENDBRANCH   1   7
BRANCH   3  10
ATOM     10  O   UNL     1       2.631   7.485 -22.204  1.00  0.00    -0.493 OA
ATOM     11  C   UNL     1       3.379   6.347 -21.788  1.00  0.00     0.278 C 
ENDBRANCH   3  10
BRANCH   4  12
ATOM     12  O   UNL     1       2.811  10.077 -23.132  1.00  0.00    -0.504 OA
ATOM     13  H   UNL     1       3.562   9.524 -23.527  1.00  0.00     0.293 HD
ENDBRANCH   4  12
TORSDOF 3
ENDMDL
MODEL 6
REMARK VINA RESULT:    -3.636     20.777     21.724
REMARK INTER + INTRA:          -4.320
REMARK INTER:                  -4.145
REMARK INTRA:                  -0.175
REMARK UNBOUND:                -0.152
REMARK SMILES CC=Cc1ccc(O)c(OC)c1
REMARK SMILES IDX 4 1 12 2 9 3 7 4 6 5 5 6 3 7 1 8 2 9 10 10 11 11 8 12
REMARK H PARENT 8 13
REMARK Flexibility Score: inf
ROOT
ATOM      1  C   UNL     1       2.082   5.766 -11.436  1.00  0.00    -0.022 A 
ATOM      2  C   UNL     1       1.426   6.747 -12.199  1.00  0.00     0.058 A 
ATOM      3  C   UNL     1       0.861   6.430 -13.450  1.00  0.00     0.161 A 
ATOM      4  C   UNL     1       0.966   5.121 -13.940  1.00  0.00     0.157 A 
ATOM      5  C   UNL     1       1.632   4.143 -13.191  1.00  0.00     0.051 A 
ATOM      6  C   UNL     1       2.189   4.461 -11.952  1.00  0.00     0.012 A 
ENDROOT
BRANCH   1   7
ATOM      7  C   UNL     1       2.667   6.157 -10.128  1.00  0.00     0.003 C 
ATOM      8  C   UNL     1       3.036   7.631  -8.189  1.00  0.00     0.035 C 
ATOM      9  C   UNL     1       2.393   7.305  -9.500  1.00  0.00    -0.030 C 
ENDBRANCH   1   7
BRANCH   3  10
ATOM     10  O   UNL     1       0.191   7.384 -14.232  1.00  0.00    -0.493 OA
ATOM     11  C   UNL     1       0.837   8.392 -15.003  1.00  0.00     0.278 C 
ENDBRANCH   3  10
BRANCH   4  12
ATOM     12  O   UNL     1       0.409   4.801 -15.177  1.00  0.00    -0.504 OA
ATOM     13  H   UNL     1       0.650   3.944 -15.661  1.00  0.00     0.293 HD
ENDBRANCH   4  12
TORSDOF 3
ENDMDL
MODEL 7
REMARK VINA RESULT:    -3.564      3.102      5.253
REMARK INTER + INTRA:          -4.237
REMARK INTER:                  -4.082
REMARK INTRA:                  -0.154
REMARK UNBOUND:                -0.152
REMARK SMILES CC=Cc1ccc(O)c(OC)c1
REMARK SMILES IDX 4 1 12 2 9 3 7 4 6 5 5 6 3 7 1 8 2 9 10 10 11 11 8 12
REMARK H PARENT 8 13
REMARK Flexibility Score: inf
ROOT
ATOM      1  C   UNL     1      19.463  -3.457 -19.871  1.00  0.00    -0.022 A 
ATOM      2  C   UNL     1      18.195  -3.523 -19.269  1.00  0.00     0.058 A 
ATOM      3  C   UNL     1      17.599  -4.765 -18.976  1.00  0.00     0.161 A 
ATOM      4  C   UNL     1      18.279  -5.947 -19.298  1.00  0.00     0.157 A 
ATOM      5  C   UNL     1      19.536  -5.889 -19.912  1.00  0.00     0.051 A 
ATOM      6  C   UNL     1      20.124  -4.657 -20.200  1.00  0.00     0.012 A 
ENDROOT
BRANCH   1   7
ATOM      7  C   UNL     1      20.042  -2.122 -20.166  1.00  0.00     0.003 C 
ATOM      8  C   UNL     1      20.124   0.340 -20.140  1.00  0.00     0.035 C 
ATOM      9  C   UNL     1      19.484  -0.966 -19.790  1.00  0.00    -0.030 C 
ENDBRANCH   1   7
BRANCH   3  10
ATOM     10  O   UNL     1      16.338  -4.865 -18.367  1.00  0.00    -0.493 OA
ATOM     11  C   UNL     1      15.376  -3.815 -18.328  1.00  0.00     0.278 C 
ENDBRANCH   3  10
BRANCH   4  12
ATOM     12  O   UNL     1      17.694  -7.179 -19.009  1.00  0.00    -0.504 OA
ATOM     13  H   UNL     1      17.124  -7.314 -18.182  1.00  0.00     0.293 HD
ENDBRANCH   4  12
TORSDOF 3
ENDMDL
MODEL 8
REMARK VINA RESULT:    -3.062     21.415     22.281
REMARK INTER + INTRA:          -3.661
REMARK INTER:                  -3.510
REMARK INTRA:                  -0.151
REMARK UNBOUND:                -0.152
REMARK SMILES CC=Cc1ccc(O)c(OC)c1
REMARK SMILES IDX 4 1 12 2 9 3 7 4 6 5 5 6 3 7 1 8 2 9 10 10 11 11 8 12
REMARK H PARENT 8 13
REMARK Flexibility Score: inf
ROOT
ATOM      1  C   UNL     1       1.039   7.493 -11.582  1.00  0.00    -0.022 A 
ATOM      2  C   UNL     1       1.269   6.231 -12.155  1.00  0.00     0.058 A 
ATOM      3  C   UNL     1       0.885   5.959 -13.482  1.00  0.00     0.161 A 
ATOM      4  C   UNL     1       0.258   6.961 -14.235  1.00  0.00     0.157 A 
ATOM      5  C   UNL     1       0.012   8.216 -13.666  1.00  0.00     0.051 A 
ATOM      6  C   UNL     1       0.394   8.481 -12.351  1.00  0.00     0.012 A 
ENDROOT
BRANCH   1   7
ATOM      7  C   UNL     1       1.454   7.722 -10.176  1.00  0.00     0.003 C 
ATOM      8  C   UNL     1       2.867   7.423  -8.180  1.00  0.00     0.035 C 
ATOM      9  C   UNL     1       2.522   7.150  -9.609  1.00  0.00    -0.030 C 
ENDBRANCH   1   7
BRANCH   3  10
ATOM     10  O   UNL     1       1.110   4.712 -14.086  1.00  0.00    -0.493 OA
ATOM     11  C   UNL     1       1.499   3.535 -13.386  1.00  0.00     0.278 C 
ENDBRANCH   3  10
BRANCH   4  12
ATOM     12  O   UNL     1      -0.123   6.698 -15.550  1.00  0.00    -0.504 OA
ATOM     13  H   UNL     1      -0.333   5.758 -15.864  1.00  0.00     0.293 HD
ENDBRANCH   4  12
TORSDOF 3
ENDMDL
