MODEL 1
REMARK VINA RESULT:    -4.080      0.000      0.000
REMARK INTER + INTRA:          -4.812
REMARK INTER:                  -4.796
REMARK INTRA:                  -0.017
REMARK UNBOUND:                -0.017
REMARK SMILES CCCCC(=O)[O-]
REMARK SMILES IDX 4 1 5 2 6 3 7 4 3 5 2 6 1 7
REMARK H PARENT
REMARK Flexibility Score: inf
ROOT
ATOM      1  C   UNL     1       3.390  19.094  51.290  1.00  0.00     0.053 C 
ENDROOT
BRANCH   1   2
ATOM      2  C   UNL     1       2.970  20.450  50.817  1.00  0.00     0.041 C 
ATOM      3  O   UNL     1       3.683  21.083  49.996  1.00  0.00    -0.550 OA
ATOM      4  O   UNL     1       1.814  21.034  51.321  1.00  0.00    -0.550 OA
ENDBRANCH   1   2
BRANCH   1   5
ATOM      5  C   UNL     1       3.663  19.115  52.799  1.00  0.00     0.006 C 
BRANCH   5   6
ATOM      6  C   UNL     1       4.782  18.144  53.209  1.00  0.00    -0.003 C 
ATOM      7  C   UNL     1       4.925  18.012  54.725  1.00  0.00     0.004 C 
ENDBRANCH   5   6
ENDBRANCH   1   5
TORSDOF 3
ENDMDL
MODEL 2
REMARK VINA RESULT:    -4.024      1.130      1.318
REMARK INTER + INTRA:          -4.746
REMARK INTER:                  -4.726
REMARK INTRA:                  -0.019
REMARK UNBOUND:                -0.017
REMARK SMILES CCCCC(=O)[O-]
REMARK SMILES IDX 4 1 5 2 6 3 7 4 3 5 2 6 1 7
REMARK H PARENT
REMARK Flexibility Score: inf
ROOT
ATOM      1  C   UNL     1       2.992  20.209  50.806  1.00  0.00     0.053 C 
ENDROOT
BRANCH   1   2
ATOM      2  C   UNL     1       1.869  21.197  50.784  1.00  0.00     0.041 C 
ATOM      3  O   UNL     1       1.852  22.117  49.925  1.00  0.00    -0.550 OA
ATOM      4  O   UNL     1       0.868  21.132  51.745  1.00  0.00    -0.550 OA
ENDBRANCH   1   2
BRANCH   1   5
ATOM      5  C   UNL     1       3.051  19.496  52.163  1.00  0.00     0.006 C 
BRANCH   5   6
ATOM      6  C   UNL     1       4.316  18.638  52.323  1.00  0.00    -0.003 C 
ATOM      7  C   UNL     1       4.605  18.276  53.780  1.00  0.00     0.004 C 
ENDBRANCH   5   6
ENDBRANCH   1   5
TORSDOF 3
ENDMDL
MODEL 3
REMARK VINA RESULT:    -3.916     12.207     13.159
REMARK INTER + INTRA:          -4.619
REMARK INTER:                  -4.579
REMARK INTRA:                  -0.040
REMARK UNBOUND:                -0.017
REMARK SMILES CCCCC(=O)[O-]
REMARK SMILES IDX 4 1 5 2 6 3 7 4 3 5 2 6 1 7
REMARK H PARENT
REMARK Flexibility Score: inf
ROOT
ATOM      1  C   UNL     1      -5.255  16.136  61.403  1.00  0.00     0.053 C 
ENDROOT
BRANCH   1   2
ATOM      2  C   UNL     1      -4.191  16.442  60.398  1.00  0.00     0.041 C 
ATOM      3  O   UNL     1      -4.201  15.876  59.273  1.00  0.00    -0.550 OA
ATOM      4  O   UNL     1      -3.160  17.315  60.721  1.00  0.00    -0.550 OA
ENDBRANCH   1   2
BRANCH   1   5
ATOM      5  C   UNL     1      -4.780  16.506  62.814  1.00  0.00     0.006 C 
BRANCH   5   6
ATOM      6  C   UNL     1      -4.779  15.303  63.769  1.00  0.00    -0.003 C 
ATOM      7  C   UNL     1      -3.479  15.179  64.565  1.00  0.00     0.004 C 
ENDBRANCH   5   6
ENDBRANCH   1   5
TORSDOF 3
ENDMDL
MODEL 4
REMARK VINA RESULT:    -3.908     13.061     14.208
REMARK INTER + INTRA:          -4.610
REMARK INTER:                  -4.574
REMARK INTRA:                  -0.036
REMARK UNBOUND:                -0.017
REMARK SMILES CCCCC(=O)[O-]
REMARK SMILES IDX 4 1 5 2 6 3 7 4 3 5 2 6 1 7
REMARK H PARENT
REMARK Flexibility Score: inf
ROOT
ATOM      1  C   UNL     1      -3.888  16.263  62.806  1.00  0.00     0.053 C 
ENDROOT
BRANCH   1   2
ATOM      2  C   UNL     1      -4.131  15.399  64.002  1.00  0.00     0.041 C 
ATOM      3  O   UNL     1      -5.293  14.988  64.262  1.00  0.00    -0.550 OA
ATOM      4  O   UNL     1      -3.083  15.086  64.858  1.00  0.00    -0.550 OA
ENDBRANCH   1   2
BRANCH   1   5
ATOM      5  C   UNL     1      -5.023  16.099  61.787  1.00  0.00     0.006 C 
BRANCH   5   6
ATOM      6  C   UNL     1      -4.587  16.454  60.357  1.00  0.00    -0.003 C 
ATOM      7  C   UNL     1      -3.262  17.215  60.314  1.00  0.00     0.004 C 
ENDBRANCH   5   6
ENDBRANCH   1   5
TORSDOF 3
ENDMDL
MODEL 5
REMARK VINA RESULT:    -3.908     16.663     17.517
REMARK INTER + INTRA:          -4.609
REMARK INTER:                  -4.588
REMARK INTRA:                  -0.022
REMARK UNBOUND:                -0.017
REMARK SMILES CCCCC(=O)[O-]
REMARK SMILES IDX 4 1 5 2 6 3 7 4 3 5 2 6 1 7
REMARK H PARENT
REMARK Flexibility Score: inf
ROOT
ATOM      1  C   UNL     1      13.342  11.133  64.361  1.00  0.00     0.053 C 
ENDROOT
BRANCH   1   2
ATOM      2  C   UNL     1      12.436  10.016  63.951  1.00  0.00     0.041 C 
ATOM      3  O   UNL     1      12.691   9.337  62.922  1.00  0.00    -0.550 OA
ATOM      4  O   UNL     1      11.281   9.756  64.679  1.00  0.00    -0.550 OA
ENDBRANCH   1   2
BRANCH   1   5
ATOM      5  C   UNL     1      12.569  12.177  65.177  1.00  0.00     0.006 C 
BRANCH   5   6
ATOM      6  C   UNL     1      12.944  13.617  64.796  1.00  0.00    -0.003 C 
ATOM      7  C   UNL     1      11.745  14.566  64.817  1.00  0.00     0.004 C 
ENDBRANCH   5   6
ENDBRANCH   1   5
TORSDOF 3
ENDMDL
MODEL 6
REMARK VINA RESULT:    -3.646     16.569     17.224
REMARK INTER + INTRA:          -4.302
REMARK INTER:                  -4.257
REMARK INTRA:                  -0.044
REMARK UNBOUND:                -0.017
REMARK SMILES CCCCC(=O)[O-]
REMARK SMILES IDX 4 1 5 2 6 3 7 4 3 5 2 6 1 7
REMARK H PARENT
REMARK Flexibility Score: inf
ROOT
ATOM      1  C   UNL     1      12.259  12.261  65.252  1.00  0.00     0.053 C 
ENDROOT
BRANCH   1   2
ATOM      2  C   UNL     1      12.345  13.719  64.932  1.00  0.00     0.041 C 
ATOM      3  O   UNL     1      13.428  14.217  64.526  1.00  0.00    -0.550 OA
ATOM      4  O   UNL     1      11.241  14.540  65.129  1.00  0.00    -0.550 OA
ENDBRANCH   1   2
BRANCH   1   5
ATOM      5  C   UNL     1      13.376  11.490  64.536  1.00  0.00     0.006 C 
BRANCH   5   6
ATOM      6  C   UNL     1      12.947  10.071  64.132  1.00  0.00    -0.003 C 
ATOM      7  C   UNL     1      11.505   9.753  64.529  1.00  0.00     0.004 C 
ENDBRANCH   5   6
ENDBRANCH   1   5
TORSDOF 3
ENDMDL
MODEL 7
REMARK VINA RESULT:    -3.017     16.185     17.102
REMARK INTER + INTRA:          -3.562
REMARK INTER:                  -3.545
REMARK INTRA:                  -0.017
REMARK UNBOUND:                -0.017
REMARK SMILES CCCCC(=O)[O-]
REMARK SMILES IDX 4 1 5 2 6 3 7 4 3 5 2 6 1 7
REMARK H PARENT
REMARK Flexibility Score: inf
ROOT
ATOM      1  C   UNL     1       9.663   3.394  52.148  1.00  0.00     0.053 C 
ENDROOT
BRANCH   1   2
ATOM      2  C   UNL     1      11.125   3.387  51.830  1.00  0.00     0.041 C 
ATOM      3  O   UNL     1      11.630   4.318  51.150  1.00  0.00    -0.550 OA
ATOM      4  O   UNL     1      11.920   2.325  52.242  1.00  0.00    -0.550 OA
ENDBRANCH   1   2
BRANCH   1   5
ATOM      5  C   UNL     1       9.247   4.757  52.715  1.00  0.00     0.006 C 
BRANCH   5   6
ATOM      6  C   UNL     1       8.105   4.646  53.737  1.00  0.00    -0.003 C 
ATOM      7  C   UNL     1       8.422   5.346  55.058  1.00  0.00     0.004 C 
ENDBRANCH   5   6
ENDBRANCH   1   5
TORSDOF 3
ENDMDL
MODEL 8
REMARK VINA RESULT:    -3.002     16.659     17.573
REMARK INTER + INTRA:          -3.545
REMARK INTER:                  -3.515
REMARK INTRA:                  -0.030
REMARK UNBOUND:                -0.017
REMARK SMILES CCCCC(=O)[O-]
REMARK SMILES IDX 4 1 5 2 6 3 7 4 3 5 2 6 1 7
REMARK H PARENT
REMARK Flexibility Score: inf
ROOT
ATOM      1  C   UNL     1      10.000   3.072  51.822  1.00  0.00     0.053 C 
ENDROOT
BRANCH   1   2
ATOM      2  C   UNL     1      11.486   3.023  51.986  1.00  0.00     0.041 C 
ATOM      3  O   UNL     1      12.044   1.975  52.405  1.00  0.00    -0.550 OA
ATOM      4  O   UNL     1      12.251   4.153  51.721  1.00  0.00    -0.550 OA
ENDBRANCH   1   2
BRANCH   1   5
ATOM      5  C   UNL     1       9.478   4.488  52.095  1.00  0.00     0.006 C 
BRANCH   5   6
ATOM      6  C   UNL     1       8.508   4.539  53.285  1.00  0.00    -0.003 C 
ATOM      7  C   UNL     1       7.089   4.113  52.911  1.00  0.00     0.004 C 
ENDBRANCH   5   6
ENDBRANCH   1   5
TORSDOF 3
ENDMDL
MODEL 9
REMARK VINA RESULT:    -2.971     14.981     15.320
REMARK INTER + INTRA:          -3.509
REMARK INTER:                  -3.442
REMARK INTRA:                  -0.067
REMARK UNBOUND:                -0.017
REMARK SMILES CCCCC(=O)[O-]
REMARK SMILES IDX 4 1 5 2 6 3 7 4 3 5 2 6 1 7
REMARK H PARENT
REMARK Flexibility Score: inf
ROOT
ATOM      1  C   UNL     1       8.687   4.563  52.913  1.00  0.00     0.053 C 
ENDROOT
BRANCH   1   2
ATOM      2  C   UNL     1       8.651   5.356  51.645  1.00  0.00     0.041 C 
ATOM      3  O   UNL     1       9.713   5.836  51.167  1.00  0.00    -0.550 OA
ATOM      4  O   UNL     1       7.437   5.608  51.018  1.00  0.00    -0.550 OA
ENDBRANCH   1   2
BRANCH   1   5
ATOM      5  C   UNL     1       7.267   4.176  53.342  1.00  0.00     0.006 C 
BRANCH   5   6
ATOM      6  C   UNL     1       6.954   4.591  54.787  1.00  0.00    -0.003 C 
ATOM      7  C   UNL     1       8.135   5.277  55.475  1.00  0.00     0.004 C 
ENDBRANCH   5   6
ENDBRANCH   1   5
TORSDOF 3
ENDMDL
