MODEL 1
REMARK VINA RESULT:    -5.040      0.000      0.000
REMARK INTER + INTRA:         -11.615
REMARK INTER:                  -9.459
REMARK INTRA:                  -2.156
REMARK UNBOUND:                -2.156
REMARK SMILES O=C([O-])CCCCCCCCCCCCCCC(=O)[O-]
REMARK SMILES IDX 10 1 9 2 8 3 7 4 6 5 5 6 4 7 2 8 1 9 3 10 11 11 12 12 13 13
REMARK SMILES IDX 14 14 15 15 16 16 17 17 18 18 19 19 20 20
REMARK H PARENT
REMARK Flexibility Score: inf
ROOT
ATOM      1  C   UNL     1     121.346 176.276 129.922  1.00  0.00     0.000 C 
ENDROOT
BRANCH   1   2
ATOM      2  C   UNL     1     122.003 177.573 130.423  1.00  0.00     0.000 C 
BRANCH   2   3
ATOM      3  C   UNL     1     121.853 178.733 129.423  1.00  0.00     0.000 C 
BRANCH   3   4
ATOM      4  C   UNL     1     123.110 178.937 128.562  1.00  0.00     0.000 C 
BRANCH   4   5
ATOM      5  C   UNL     1     122.805 178.943 127.057  1.00  0.00     0.000 C 
BRANCH   5   6
ATOM      6  C   UNL     1     122.945 177.536 126.463  1.00  0.00     0.006 C 
BRANCH   6   7
ATOM      7  C   UNL     1     122.036 177.359 125.243  1.00  0.00     0.053 C 
BRANCH   7   8
ATOM      8  C   UNL     1     122.804 177.585 123.979  1.00  0.00     0.041 C 
ATOM      9  O   UNL     1     122.199 177.874 122.913  1.00  0.00    -0.550 OA
ATOM     10  O   UNL     1     124.184 177.425 123.966  1.00  0.00    -0.550 OA
ENDBRANCH   7   8
ENDBRANCH   6   7
ENDBRANCH   5   6
ENDBRANCH   4   5
ENDBRANCH   3   4
ENDBRANCH   2   3
ENDBRANCH   1   2
BRANCH   1  11
ATOM     11  C   UNL     1     119.881 176.142 130.374  1.00  0.00     0.000 C 
BRANCH  11  12
ATOM     12  C   UNL     1     118.884 176.398 129.234  1.00  0.00     0.000 C 
BRANCH  12  13
ATOM     13  C   UNL     1     119.508 176.202 127.841  1.00  0.00     0.000 C 
BRANCH  13  14
ATOM     14  C   UNL     1     118.832 177.083 126.769  1.00  0.00     0.000 C 
BRANCH  14  15
ATOM     15  C   UNL     1     118.984 178.595 127.024  1.00  0.00     0.000 C 
BRANCH  15  16
ATOM     16  C   UNL     1     118.729 179.488 125.795  1.00  0.00     0.006 C 
BRANCH  16  17
ATOM     17  C   UNL     1     117.442 179.148 125.025  1.00  0.00     0.053 C 
BRANCH  17  18
ATOM     18  C   UNL     1     117.705 178.926 123.568  1.00  0.00     0.041 C 
ATOM     19  O   UNL     1     116.752 178.684 122.780  1.00  0.00    -0.550 OA
ATOM     20  O   UNL     1     119.008 178.955 123.083  1.00  0.00    -0.550 OA
ENDBRANCH  17  18
ENDBRANCH  16  17
ENDBRANCH  15  16
ENDBRANCH  14  15
ENDBRANCH  13  14
ENDBRANCH  12  13
ENDBRANCH  11  12
ENDBRANCH   1  11
TORSDOF 15
ENDMDL
MODEL 2
REMARK VINA RESULT:    -5.011      1.741      4.908
REMARK INTER + INTRA:         -11.561
REMARK INTER:                  -9.666
REMARK INTRA:                  -1.895
REMARK UNBOUND:                -2.156
REMARK SMILES O=C([O-])CCCCCCCCCCCCCCC(=O)[O-]
REMARK SMILES IDX 10 1 9 2 8 3 7 4 6 5 5 6 4 7 2 8 1 9 3 10 11 11 12 12 13 13
REMARK SMILES IDX 14 14 15 15 16 16 17 17 18 18 19 19 20 20
REMARK H PARENT
REMARK Flexibility Score: inf
ROOT
ATOM      1  C   UNL     1     120.968 176.899 130.171  1.00  0.00     0.000 C 
ENDROOT
BRANCH   1   2
ATOM      2  C   UNL     1     120.451 176.504 128.778  1.00  0.00     0.000 C 
BRANCH   2   3
ATOM      3  C   UNL     1     119.435 177.515 128.218  1.00  0.00     0.000 C 
BRANCH   3   4
ATOM      4  C   UNL     1     119.841 178.059 126.838  1.00  0.00     0.000 C 
BRANCH   4   5
ATOM      5  C   UNL     1     119.749 179.590 126.752  1.00  0.00     0.000 C 
BRANCH   5   6
ATOM      6  C   UNL     1     120.321 180.100 125.424  1.00  0.00     0.006 C 
BRANCH   6   7
ATOM      7  C   UNL     1     119.759 179.306 124.241  1.00  0.00     0.053 C 
BRANCH   7   8
ATOM      8  C   UNL     1     120.796 179.146 123.176  1.00  0.00     0.041 C 
ATOM      9  O   UNL     1     121.690 178.266 123.288  1.00  0.00    -0.550 OA
ATOM     10  O   UNL     1     120.807 180.003 122.082  1.00  0.00    -0.550 OA
ENDBRANCH   7   8
ENDBRANCH   6   7
ENDBRANCH   5   6
ENDBRANCH   4   5
ENDBRANCH   3   4
ENDBRANCH   2   3
ENDBRANCH   1   2
BRANCH   1  11
ATOM     11  C   UNL     1     122.414 177.423 130.138  1.00  0.00     0.000 C 
BRANCH  11  12
ATOM     12  C   UNL     1     122.520 178.834 129.538  1.00  0.00     0.000 C 
BRANCH  12  13
ATOM     13  C   UNL     1     123.764 179.012 128.650  1.00  0.00     0.000 C 
BRANCH  13  14
ATOM     14  C   UNL     1     123.397 179.204 127.162  1.00  0.00     0.000 C 
BRANCH  14  15
ATOM     15  C   UNL     1     123.468 177.908 126.334  1.00  0.00     0.000 C 
BRANCH  15  16
ATOM     16  C   UNL     1     124.580 177.882 125.266  1.00  0.00     0.006 C 
BRANCH  16  17
ATOM     17  C   UNL     1     124.583 176.618 124.390  1.00  0.00     0.053 C 
BRANCH  17  18
ATOM     18  C   UNL     1     125.307 176.837 123.098  1.00  0.00     0.041 C 
ATOM     19  O   UNL     1     124.762 177.488 122.167  1.00  0.00    -0.550 OA
ATOM     20  O   UNL     1     126.572 176.293 122.909  1.00  0.00    -0.550 OA
ENDBRANCH  17  18
ENDBRANCH  16  17
ENDBRANCH  15  16
ENDBRANCH  14  15
ENDBRANCH  13  14
ENDBRANCH  12  13
ENDBRANCH  11  12
ENDBRANCH   1  11
TORSDOF 15
ENDMDL
MODEL 3
REMARK VINA RESULT:    -4.979      2.640      4.108
REMARK INTER + INTRA:         -11.501
REMARK INTER:                  -9.324
REMARK INTRA:                  -2.177
REMARK UNBOUND:                -2.156
REMARK SMILES O=C([O-])CCCCCCCCCCCCCCC(=O)[O-]
REMARK SMILES IDX 10 1 9 2 8 3 7 4 6 5 5 6 4 7 2 8 1 9 3 10 11 11 12 12 13 13
REMARK SMILES IDX 14 14 15 15 16 16 17 17 18 18 19 19 20 20
REMARK H PARENT
REMARK Flexibility Score: inf
ROOT
ATOM      1  C   UNL     1     122.701 176.765 130.338  1.00  0.00     0.000 C 
ENDROOT
BRANCH   1   2
ATOM      2  C   UNL     1     121.288 176.682 130.937  1.00  0.00     0.000 C 
BRANCH   2   3
ATOM      3  C   UNL     1     120.214 176.390 129.873  1.00  0.00     0.000 C 
BRANCH   3   4
ATOM      4  C   UNL     1     120.529 177.048 128.519  1.00  0.00     0.000 C 
BRANCH   4   5
ATOM      5  C   UNL     1     120.387 176.075 127.339  1.00  0.00     0.000 C 
BRANCH   5   6
ATOM      6  C   UNL     1     121.693 175.309 127.099  1.00  0.00     0.006 C 
BRANCH   6   7
ATOM      7  C   UNL     1     121.580 174.398 125.874  1.00  0.00     0.053 C 
BRANCH   7   8
ATOM      8  C   UNL     1     120.821 173.154 126.212  1.00  0.00     0.041 C 
ATOM      9  O   UNL     1     121.073 172.527 127.275  1.00  0.00    -0.550 OA
ATOM     10  O   UNL     1     119.870 172.658 125.329  1.00  0.00    -0.550 OA
ENDBRANCH   7   8
ENDBRANCH   6   7
ENDBRANCH   5   6
ENDBRANCH   4   5
ENDBRANCH   3   4
ENDBRANCH   2   3
ENDBRANCH   1   2
BRANCH   1  11
ATOM     11  C   UNL     1     123.420 178.077 130.698  1.00  0.00     0.000 C 
BRANCH  11  12
ATOM     12  C   UNL     1     123.331 179.127 129.580  1.00  0.00     0.000 C 
BRANCH  12  13
ATOM     13  C   UNL     1     124.046 178.685 128.290  1.00  0.00     0.000 C 
BRANCH  13  14
ATOM     14  C   UNL     1     123.287 179.130 127.021  1.00  0.00     0.000 C 
BRANCH  14  15
ATOM     15  C   UNL     1     123.491 178.190 125.817  1.00  0.00     0.000 C 
BRANCH  15  16
ATOM     16  C   UNL     1     122.317 178.152 124.819  1.00  0.00     0.006 C 
BRANCH  16  17
ATOM     17  C   UNL     1     121.174 179.125 125.153  1.00  0.00     0.053 C 
BRANCH  17  18
ATOM     18  C   UNL     1     120.251 179.323 123.991  1.00  0.00     0.041 C 
ATOM     19  O   UNL     1     119.010 179.158 124.131  1.00  0.00    -0.550 OA
ATOM     20  O   UNL     1     120.765 179.658 122.744  1.00  0.00    -0.550 OA
ENDBRANCH  17  18
ENDBRANCH  16  17
ENDBRANCH  15  16
ENDBRANCH  14  15
ENDBRANCH  13  14
ENDBRANCH  12  13
ENDBRANCH  11  12
ENDBRANCH   1  11
TORSDOF 15
ENDMDL
MODEL 4
REMARK VINA RESULT:    -4.950      2.883      5.624
REMARK INTER + INTRA:         -11.448
REMARK INTER:                  -9.723
REMARK INTRA:                  -1.724
REMARK UNBOUND:                -2.156
REMARK SMILES O=C([O-])CCCCCCCCCCCCCCC(=O)[O-]
REMARK SMILES IDX 10 1 9 2 8 3 7 4 6 5 5 6 4 7 2 8 1 9 3 10 11 11 12 12 13 13
REMARK SMILES IDX 14 14 15 15 16 16 17 17 18 18 19 19 20 20
REMARK H PARENT
REMARK Flexibility Score: inf
ROOT
ATOM      1  C   UNL     1     123.543 178.587 126.252  1.00  0.00     0.000 C 
ENDROOT
BRANCH   1   2
ATOM      2  C   UNL     1     122.164 177.940 126.044  1.00  0.00     0.000 C 
BRANCH   2   3
ATOM      3  C   UNL     1     121.146 178.911 125.419  1.00  0.00     0.000 C 
BRANCH   3   4
ATOM      4  C   UNL     1     120.388 179.732 126.475  1.00  0.00     0.000 C 
BRANCH   4   5
ATOM      5  C   UNL     1     118.921 179.300 126.622  1.00  0.00     0.000 C 
BRANCH   5   6
ATOM      6  C   UNL     1     118.517 178.338 125.499  1.00  0.00     0.006 C 
BRANCH   6   7
ATOM      7  C   UNL     1     117.358 178.907 124.676  1.00  0.00     0.053 C 
BRANCH   7   8
ATOM      8  C   UNL     1     117.696 178.902 123.219  1.00  0.00     0.041 C 
ATOM      9  O   UNL     1     118.900 178.905 122.847  1.00  0.00    -0.550 OA
ATOM     10  O   UNL     1     116.682 178.945 122.270  1.00  0.00    -0.550 OA
ENDBRANCH   7   8
ENDBRANCH   6   7
ENDBRANCH   5   6
ENDBRANCH   4   5
ENDBRANCH   3   4
ENDBRANCH   2   3
ENDBRANCH   1   2
BRANCH   1  11
ATOM     11  C   UNL     1     123.681 179.256 127.631  1.00  0.00     0.000 C 
BRANCH  11  12
ATOM     12  C   UNL     1     123.441 178.278 128.791  1.00  0.00     0.000 C 
BRANCH  12  13
ATOM     13  C   UNL     1     122.209 178.648 129.637  1.00  0.00     0.000 C 
BRANCH  13  14
ATOM     14  C   UNL     1     121.436 177.401 130.118  1.00  0.00     0.000 C 
BRANCH  14  15
ATOM     15  C   UNL     1     120.291 176.981 129.176  1.00  0.00     0.000 C 
BRANCH  15  16
ATOM     16  C   UNL     1     119.023 176.469 129.886  1.00  0.00     0.006 C 
BRANCH  16  17
ATOM     17  C   UNL     1     118.534 175.097 129.391  1.00  0.00     0.053 C 
BRANCH  17  18
ATOM     18  C   UNL     1     119.444 173.990 129.823  1.00  0.00     0.041 C 
ATOM     19  O   UNL     1     119.713 173.830 131.044  1.00  0.00    -0.550 OA
ATOM     20  O   UNL     1     120.022 173.154 128.876  1.00  0.00    -0.550 OA
ENDBRANCH  17  18
ENDBRANCH  16  17
ENDBRANCH  15  16
ENDBRANCH  14  15
ENDBRANCH  13  14
ENDBRANCH  12  13
ENDBRANCH  11  12
ENDBRANCH   1  11
TORSDOF 15
ENDMDL
MODEL 5
REMARK VINA RESULT:    -4.921      2.764      4.313
REMARK INTER + INTRA:         -11.393
REMARK INTER:                  -9.181
REMARK INTRA:                  -2.212
REMARK UNBOUND:                -2.156
REMARK SMILES O=C([O-])CCCCCCCCCCCCCCC(=O)[O-]
REMARK SMILES IDX 10 1 9 2 8 3 7 4 6 5 5 6 4 7 2 8 1 9 3 10 11 11 12 12 13 13
REMARK SMILES IDX 14 14 15 15 16 16 17 17 18 18 19 19 20 20
REMARK H PARENT
REMARK Flexibility Score: inf
ROOT
ATOM      1  C   UNL     1     120.904 175.953 130.604  1.00  0.00     0.000 C 
ENDROOT
BRANCH   1   2
ATOM      2  C   UNL     1     121.608 177.246 131.047  1.00  0.00     0.000 C 
BRANCH   2   3
ATOM      3  C   UNL     1     122.757 177.644 130.103  1.00  0.00     0.000 C 
BRANCH   3   4
ATOM      4  C   UNL     1     122.332 178.696 129.065  1.00  0.00     0.000 C 
BRANCH   4   5
ATOM      5  C   UNL     1     123.445 179.020 128.057  1.00  0.00     0.000 C 
BRANCH   5   6
ATOM      6  C   UNL     1     122.878 179.158 126.640  1.00  0.00     0.006 C 
BRANCH   6   7
ATOM      7  C   UNL     1     121.375 179.448 126.674  1.00  0.00     0.053 C 
BRANCH   7   8
ATOM      8  C   UNL     1     120.752 179.149 125.347  1.00  0.00     0.041 C 
ATOM      9  O   UNL     1     119.518 179.331 125.170  1.00  0.00    -0.550 OA
ATOM     10  O   UNL     1     121.525 178.622 124.319  1.00  0.00    -0.550 OA
ENDBRANCH   7   8
ENDBRANCH   6   7
ENDBRANCH   5   6
ENDBRANCH   4   5
ENDBRANCH   3   4
ENDBRANCH   2   3
ENDBRANCH   1   2
BRANCH   1  11
ATOM     11  C   UNL     1     119.376 176.027 130.763  1.00  0.00     0.000 C 
BRANCH  11  12
ATOM     12  C   UNL     1     118.635 175.908 129.422  1.00  0.00     0.000 C 
BRANCH  12  13
ATOM     13  C   UNL     1     119.200 176.851 128.344  1.00  0.00     0.000 C 
BRANCH  13  14
ATOM     14  C   UNL     1     119.622 176.091 127.068  1.00  0.00     0.000 C 
BRANCH  14  15
ATOM     15  C   UNL     1     121.138 175.833 126.974  1.00  0.00     0.000 C 
BRANCH  15  16
ATOM     16  C   UNL     1     121.549 174.753 125.955  1.00  0.00     0.006 C 
BRANCH  16  17
ATOM     17  C   UNL     1     121.141 173.324 126.352  1.00  0.00     0.053 C 
BRANCH  17  18
ATOM     18  C   UNL     1     121.575 172.986 127.745  1.00  0.00     0.041 C 
ATOM     19  O   UNL     1     120.730 172.942 128.679  1.00  0.00    -0.550 OA
ATOM     20  O   UNL     1     122.917 172.751 128.018  1.00  0.00    -0.550 OA
ENDBRANCH  17  18
ENDBRANCH  16  17
ENDBRANCH  15  16
ENDBRANCH  14  15
ENDBRANCH  13  14
ENDBRANCH  12  13
ENDBRANCH  11  12
ENDBRANCH   1  11
TORSDOF 15
ENDMDL
MODEL 6
REMARK VINA RESULT:    -4.910      1.302      4.978
REMARK INTER + INTRA:         -11.372
REMARK INTER:                  -9.286
REMARK INTRA:                  -2.086
REMARK UNBOUND:                -2.156
REMARK SMILES O=C([O-])CCCCCCCCCCCCCCC(=O)[O-]
REMARK SMILES IDX 10 1 9 2 8 3 7 4 6 5 5 6 4 7 2 8 1 9 3 10 11 11 12 12 13 13
REMARK SMILES IDX 14 14 15 15 16 16 17 17 18 18 19 19 20 20
REMARK H PARENT
REMARK Flexibility Score: inf
ROOT
ATOM      1  C   UNL     1     121.361 175.838 129.009  1.00  0.00     0.000 C 
ENDROOT
BRANCH   1   2
ATOM      2  C   UNL     1     120.139 176.582 129.572  1.00  0.00     0.000 C 
BRANCH   2   3
ATOM      3  C   UNL     1     119.232 177.148 128.464  1.00  0.00     0.000 C 
BRANCH   3   4
ATOM      4  C   UNL     1     120.030 177.800 127.323  1.00  0.00     0.000 C 
BRANCH   4   5
ATOM      5  C   UNL     1     119.918 179.332 127.320  1.00  0.00     0.000 C 
BRANCH   5   6
ATOM      6  C   UNL     1     119.553 179.853 125.925  1.00  0.00     0.006 C 
BRANCH   6   7
ATOM      7  C   UNL     1     118.034 179.968 125.761  1.00  0.00     0.053 C 
BRANCH   7   8
ATOM      8  C   UNL     1     117.536 178.964 124.771  1.00  0.00     0.041 C 
ATOM      9  O   UNL     1     117.165 179.333 123.625  1.00  0.00    -0.550 OA
ATOM     10  O   UNL     1     117.432 177.625 125.130  1.00  0.00    -0.550 OA
ENDBRANCH   7   8
ENDBRANCH   6   7
ENDBRANCH   5   6
ENDBRANCH   4   5
ENDBRANCH   3   4
ENDBRANCH   2   3
ENDBRANCH   1   2
BRANCH   1  11
ATOM     11  C   UNL     1     122.692 176.480 129.435  1.00  0.00     0.000 C 
BRANCH  11  12
ATOM     12  C   UNL     1     122.497 177.806 130.186  1.00  0.00     0.000 C 
BRANCH  12  13
ATOM     13  C   UNL     1     123.050 179.016 129.413  1.00  0.00     0.000 C 
BRANCH  13  14
ATOM     14  C   UNL     1     123.998 178.594 128.269  1.00  0.00     0.000 C 
BRANCH  14  15
ATOM     15  C   UNL     1     123.544 179.078 126.879  1.00  0.00     0.000 C 
BRANCH  15  16
ATOM     16  C   UNL     1     123.323 177.958 125.844  1.00  0.00     0.006 C 
BRANCH  16  17
ATOM     17  C   UNL     1     124.600 177.514 125.112  1.00  0.00     0.053 C 
BRANCH  17  18
ATOM     18  C   UNL     1     124.386 177.397 123.635  1.00  0.00     0.041 C 
ATOM     19  O   UNL     1     123.232 177.183 123.176  1.00  0.00    -0.550 OA
ATOM     20  O   UNL     1     125.466 177.491 122.766  1.00  0.00    -0.550 OA
ENDBRANCH  17  18
ENDBRANCH  16  17
ENDBRANCH  15  16
ENDBRANCH  14  15
ENDBRANCH  13  14
ENDBRANCH  12  13
ENDBRANCH  11  12
ENDBRANCH   1  11
TORSDOF 15
ENDMDL
MODEL 7
REMARK VINA RESULT:    -4.909      1.423      4.503
REMARK INTER + INTRA:         -11.370
REMARK INTER:                  -9.252
REMARK INTRA:                  -2.119
REMARK UNBOUND:                -2.156
REMARK SMILES O=C([O-])CCCCCCCCCCCCCCC(=O)[O-]
REMARK SMILES IDX 10 1 9 2 8 3 7 4 6 5 5 6 4 7 2 8 1 9 3 10 11 11 12 12 13 13
REMARK SMILES IDX 14 14 15 15 16 16 17 17 18 18 19 19 20 20
REMARK H PARENT
REMARK Flexibility Score: inf
ROOT
ATOM      1  C   UNL     1     120.499 176.111 129.219  1.00  0.00     0.000 C 
ENDROOT
BRANCH   1   2
ATOM      2  C   UNL     1     119.492 177.050 128.533  1.00  0.00     0.000 C 
BRANCH   2   3
ATOM      3  C   UNL     1     120.058 177.683 127.249  1.00  0.00     0.000 C 
BRANCH   3   4
ATOM      4  C   UNL     1     120.022 179.220 127.282  1.00  0.00     0.000 C 
BRANCH   4   5
ATOM      5  C   UNL     1     120.141 179.847 125.885  1.00  0.00     0.000 C 
BRANCH   5   6
ATOM      6  C   UNL     1     120.346 178.768 124.815  1.00  0.00     0.006 C 
BRANCH   6   7
ATOM      7  C   UNL     1     120.402 179.385 123.414  1.00  0.00     0.053 C 
BRANCH   7   8
ATOM      8  C   UNL     1     119.168 179.044 122.641  1.00  0.00     0.041 C 
ATOM      9  O   UNL     1     119.189 179.039 121.382  1.00  0.00    -0.550 OA
ATOM     10  O   UNL     1     117.978 178.780 123.310  1.00  0.00    -0.550 OA
ENDBRANCH   7   8
ENDBRANCH   6   7
ENDBRANCH   5   6
ENDBRANCH   4   5
ENDBRANCH   3   4
ENDBRANCH   2   3
ENDBRANCH   1   2
BRANCH   1  11
ATOM     11  C   UNL     1     120.647 176.400 130.723  1.00  0.00     0.000 C 
BRANCH  11  12
ATOM     12  C   UNL     1     121.898 177.230 131.046  1.00  0.00     0.000 C 
BRANCH  12  13
ATOM     13  C   UNL     1     122.821 177.416 129.827  1.00  0.00     0.000 C 
BRANCH  13  14
ATOM     14  C   UNL     1     123.030 178.905 129.476  1.00  0.00     0.000 C 
BRANCH  14  15
ATOM     15  C   UNL     1     123.686 179.130 128.100  1.00  0.00     0.000 C 
BRANCH  15  16
ATOM     16  C   UNL     1     123.579 177.938 127.129  1.00  0.00     0.006 C 
BRANCH  16  17
ATOM     17  C   UNL     1     123.884 178.289 125.663  1.00  0.00     0.053 C 
BRANCH  17  18
ATOM     18  C   UNL     1     123.597 177.144 124.743  1.00  0.00     0.041 C 
ATOM     19  O   UNL     1     123.353 177.354 123.525  1.00  0.00    -0.550 OA
ATOM     20  O   UNL     1     123.568 175.845 125.236  1.00  0.00    -0.550 OA
ENDBRANCH  17  18
ENDBRANCH  16  17
ENDBRANCH  15  16
ENDBRANCH  14  15
ENDBRANCH  13  14
ENDBRANCH  12  13
ENDBRANCH  11  12
ENDBRANCH   1  11
TORSDOF 15
ENDMDL
MODEL 8
REMARK VINA RESULT:    -4.893      2.286      4.430
REMARK INTER + INTRA:         -11.340
REMARK INTER:                  -9.207
REMARK INTRA:                  -2.133
REMARK UNBOUND:                -2.156
REMARK SMILES O=C([O-])CCCCCCCCCCCCCCC(=O)[O-]
REMARK SMILES IDX 10 1 9 2 8 3 7 4 6 5 5 6 4 7 2 8 1 9 3 10 11 11 12 12 13 13
REMARK SMILES IDX 14 14 15 15 16 16 17 17 18 18 19 19 20 20
REMARK H PARENT
REMARK Flexibility Score: inf
ROOT
ATOM      1  C   UNL     1     122.551 178.179 129.685  1.00  0.00     0.000 C 
ENDROOT
BRANCH   1   2
ATOM      2  C   UNL     1     123.710 178.189 128.675  1.00  0.00     0.000 C 
BRANCH   2   3
ATOM      3  C   UNL     1     123.596 179.340 127.659  1.00  0.00     0.000 C 
BRANCH   3   4
ATOM      4  C   UNL     1     122.847 178.928 126.381  1.00  0.00     0.000 C 
BRANCH   4   5
ATOM      5  C   UNL     1     121.513 179.669 126.209  1.00  0.00     0.000 C 
BRANCH   5   6
ATOM      6  C   UNL     1     120.638 178.985 125.153  1.00  0.00     0.006 C 
BRANCH   6   7
ATOM      7  C   UNL     1     119.285 179.690 125.017  1.00  0.00     0.053 C 
BRANCH   7   8
ATOM      8  C   UNL     1     118.307 178.817 124.297  1.00  0.00     0.041 C 
ATOM      9  O   UNL     1     118.208 178.877 123.043  1.00  0.00    -0.550 OA
ATOM     10  O   UNL     1     117.469 177.973 125.015  1.00  0.00    -0.550 OA
ENDBRANCH   7   8
ENDBRANCH   6   7
ENDBRANCH   5   6
ENDBRANCH   4   5
ENDBRANCH   3   4
ENDBRANCH   2   3
ENDBRANCH   1   2
BRANCH   1  11
ATOM     11  C   UNL     1     122.343 176.798 130.332  1.00  0.00     0.000 C 
BRANCH  11  12
ATOM     12  C   UNL     1     121.018 176.700 131.104  1.00  0.00     0.000 C 
BRANCH  12  13
ATOM     13  C   UNL     1     120.032 175.702 130.469  1.00  0.00     0.000 C 
BRANCH  13  14
ATOM     14  C   UNL     1     118.878 176.412 129.729  1.00  0.00     0.000 C 
BRANCH  14  15
ATOM     15  C   UNL     1     119.302 177.059 128.397  1.00  0.00     0.000 C 
BRANCH  15  16
ATOM     16  C   UNL     1     119.573 176.065 127.252  1.00  0.00     0.006 C 
BRANCH  16  17
ATOM     17  C   UNL     1     121.062 175.749 127.030  1.00  0.00     0.053 C 
BRANCH  17  18
ATOM     18  C   UNL     1     121.391 174.332 127.382  1.00  0.00     0.041 C 
ATOM     19  O   UNL     1     122.592 173.972 127.506  1.00  0.00    -0.550 OA
ATOM     20  O   UNL     1     120.373 173.400 127.543  1.00  0.00    -0.550 OA
ENDBRANCH  17  18
ENDBRANCH  16  17
ENDBRANCH  15  16
ENDBRANCH  14  15
ENDBRANCH  13  14
ENDBRANCH  12  13
ENDBRANCH  11  12
ENDBRANCH   1  11
TORSDOF 15
ENDMDL
MODEL 9
REMARK VINA RESULT:    -4.885      2.378      5.298
REMARK INTER + INTRA:         -11.326
REMARK INTER:                  -9.061
REMARK INTRA:                  -2.265
REMARK UNBOUND:                -2.156
REMARK SMILES O=C([O-])CCCCCCCCCCCCCCC(=O)[O-]
REMARK SMILES IDX 10 1 9 2 8 3 7 4 6 5 5 6 4 7 2 8 1 9 3 10 11 11 12 12 13 13
REMARK SMILES IDX 14 14 15 15 16 16 17 17 18 18 19 19 20 20
REMARK H PARENT
REMARK Flexibility Score: inf
ROOT
ATOM      1  C   UNL     1     120.751 175.443 126.620  1.00  0.00     0.000 C 
ENDROOT
BRANCH   1   2
ATOM      2  C   UNL     1     121.846 176.325 127.242  1.00  0.00     0.000 C 
BRANCH   2   3
ATOM      3  C   UNL     1     122.658 177.091 126.183  1.00  0.00     0.000 C 
BRANCH   3   4
ATOM      4  C   UNL     1     122.857 178.571 126.547  1.00  0.00     0.000 C 
BRANCH   4   5
ATOM      5  C   UNL     1     121.532 179.302 126.810  1.00  0.00     0.000 C 
BRANCH   5   6
ATOM      6  C   UNL     1     120.780 179.562 125.500  1.00  0.00     0.006 C 
BRANCH   6   7
ATOM      7  C   UNL     1     119.359 180.065 125.771  1.00  0.00     0.053 C 
BRANCH   7   8
ATOM      8  C   UNL     1     118.373 179.344 124.907  1.00  0.00     0.041 C 
ATOM      9  O   UNL     1     117.252 179.006 125.371  1.00  0.00    -0.550 OA
ATOM     10  O   UNL     1     118.712 178.999 123.604  1.00  0.00    -0.550 OA
ENDBRANCH   7   8
ENDBRANCH   6   7
ENDBRANCH   5   6
ENDBRANCH   4   5
ENDBRANCH   3   4
ENDBRANCH   2   3
ENDBRANCH   1   2
BRANCH   1  11
ATOM     11  C   UNL     1     119.375 176.131 126.608  1.00  0.00     0.000 C 
BRANCH  11  12
ATOM     12  C   UNL     1     119.047 176.824 127.939  1.00  0.00     0.000 C 
BRANCH  12  13
ATOM     13  C   UNL     1     118.516 175.847 129.004  1.00  0.00     0.000 C 
BRANCH  13  14
ATOM     14  C   UNL     1     118.797 176.341 130.440  1.00  0.00     0.000 C 
BRANCH  14  15
ATOM     15  C   UNL     1     119.972 175.618 131.125  1.00  0.00     0.000 C 
BRANCH  15  16
ATOM     16  C   UNL     1     121.370 176.084 130.675  1.00  0.00     0.006 C 
BRANCH  16  17
ATOM     17  C   UNL     1     121.533 177.612 130.602  1.00  0.00     0.053 C 
BRANCH  17  18
ATOM     18  C   UNL     1     122.958 178.012 130.381  1.00  0.00     0.041 C 
ATOM     19  O   UNL     1     123.252 179.218 130.164  1.00  0.00    -0.550 OA
ATOM     20  O   UNL     1     123.960 177.048 130.383  1.00  0.00    -0.550 OA
ENDBRANCH  17  18
ENDBRANCH  16  17
ENDBRANCH  15  16
ENDBRANCH  14  15
ENDBRANCH  13  14
ENDBRANCH  12  13
ENDBRANCH  11  12
ENDBRANCH   1  11
TORSDOF 15
ENDMDL
