MODEL 1
REMARK VINA RESULT:    -4.230      0.000      0.000
REMARK INTER + INTRA:          -6.934
REMARK INTER:                  -6.455
REMARK INTRA:                  -0.478
REMARK UNBOUND:                -0.478
REMARK SMILES O=C([O-])CCCCCCCCC(=O)[O-]
REMARK SMILES IDX 7 1 6 2 5 3 4 4 2 5 1 6 3 7 8 8 9 9 10 10 11 11 12 12 13 13
REMARK SMILES IDX 14 14
REMARK H PARENT
REMARK Flexibility Score: inf
ROOT
ATOM      1  C   UNL     1      31.762  78.713  13.597  1.00  0.00     0.000 C 
ENDROOT
BRANCH   1   2
ATOM      2  C   UNL     1      32.989  78.612  14.522  1.00  0.00     0.000 C 
BRANCH   2   3
ATOM      3  C   UNL     1      32.851  79.463  15.792  1.00  0.00     0.006 C 
BRANCH   3   4
ATOM      4  C   UNL     1      32.183  80.806  15.482  1.00  0.00     0.053 C 
BRANCH   4   5
ATOM      5  C   UNL     1      32.548  81.825  16.515  1.00  0.00     0.041 C 
ATOM      6  O   UNL     1      32.897  82.982  16.166  1.00  0.00    -0.550 OA
ATOM      7  O   UNL     1      32.457  81.510  17.865  1.00  0.00    -0.550 OA
ENDBRANCH   4   5
ENDBRANCH   3   4
ENDBRANCH   2   3
ENDBRANCH   1   2
BRANCH   1   8
ATOM      8  C   UNL     1      31.962  78.137  12.181  1.00  0.00     0.000 C 
BRANCH   8   9
ATOM      9  C   UNL     1      32.746  79.040  11.212  1.00  0.00     0.000 C 
BRANCH   9  10
ATOM     10  C   UNL     1      33.895  78.304  10.508  1.00  0.00     0.006 C 
BRANCH  10  11
ATOM     11  C   UNL     1      34.532  77.267  11.438  1.00  0.00     0.053 C 
BRANCH  11  12
ATOM     12  C   UNL     1      35.979  77.083  11.105  1.00  0.00     0.041 C 
ATOM     13  O   UNL     1      36.842  77.873  11.573  1.00  0.00    -0.550 OA
ATOM     14  O   UNL     1      36.370  76.071  10.238  1.00  0.00    -0.550 OA
ENDBRANCH  11  12
ENDBRANCH  10  11
ENDBRANCH   9  10
ENDBRANCH   8   9
ENDBRANCH   1   8
TORSDOF 9
ENDMDL
MODEL 2
REMARK VINA RESULT:    -4.195      0.957      6.900
REMARK INTER + INTRA:          -6.881
REMARK INTER:                  -6.434
REMARK INTRA:                  -0.447
REMARK UNBOUND:                -0.478
REMARK SMILES O=C([O-])CCCCCCCCC(=O)[O-]
REMARK SMILES IDX 7 1 6 2 5 3 4 4 2 5 1 6 3 7 8 8 9 9 10 10 11 11 12 12 13 13
REMARK SMILES IDX 14 14
REMARK H PARENT
REMARK Flexibility Score: inf
ROOT
ATOM      1  C   UNL     1      33.026  77.889  12.774  1.00  0.00     0.000 C 
ENDROOT
BRANCH   1   2
ATOM      2  C   UNL     1      32.993  78.684  11.457  1.00  0.00     0.000 C 
BRANCH   2   3
ATOM      3  C   UNL     1      34.000  78.164  10.420  1.00  0.00     0.006 C 
BRANCH   3   4
ATOM      4  C   UNL     1      35.281  77.671  11.098  1.00  0.00     0.053 C 
BRANCH   4   5
ATOM      5  C   UNL     1      35.586  76.266  10.686  1.00  0.00     0.041 C 
ATOM      6  O   UNL     1      36.633  76.011  10.034  1.00  0.00    -0.550 OA
ATOM      7  O   UNL     1      34.740  75.231  11.063  1.00  0.00    -0.550 OA
ENDBRANCH   4   5
ENDBRANCH   3   4
ENDBRANCH   2   3
ENDBRANCH   1   2
BRANCH   1   8
ATOM      8  C   UNL     1      32.630  78.689  14.031  1.00  0.00     0.000 C 
BRANCH   8   9
ATOM      9  C   UNL     1      31.392  79.590  13.869  1.00  0.00     0.000 C 
BRANCH   9  10
ATOM     10  C   UNL     1      31.318  80.699  14.927  1.00  0.00     0.006 C 
BRANCH  10  11
ATOM     11  C   UNL     1      32.426  80.533  15.972  1.00  0.00     0.053 C 
BRANCH  11  12
ATOM     12  C   UNL     1      32.573  81.783  16.783  1.00  0.00     0.041 C 
ATOM     13  O   UNL     1      32.208  81.803  17.988  1.00  0.00    -0.550 OA
ATOM     14  O   UNL     1      33.068  82.939  16.193  1.00  0.00    -0.550 OA
ENDBRANCH  11  12
ENDBRANCH  10  11
ENDBRANCH   9  10
ENDBRANCH   8   9
ENDBRANCH   1   8
TORSDOF 9
ENDMDL
MODEL 3
REMARK VINA RESULT:    -4.093      2.168      6.564
REMARK INTER + INTRA:          -6.725
REMARK INTER:                  -5.944
REMARK INTRA:                  -0.780
REMARK UNBOUND:                -0.478
REMARK SMILES O=C([O-])CCCCCCCCC(=O)[O-]
REMARK SMILES IDX 7 1 6 2 5 3 4 4 2 5 1 6 3 7 8 8 9 9 10 10 11 11 12 12 13 13
REMARK SMILES IDX 14 14
REMARK H PARENT
REMARK Flexibility Score: inf
ROOT
ATOM      1  C   UNL     1      32.362  77.735   8.900  1.00  0.00     0.000 C 
ENDROOT
BRANCH   1   2
ATOM      2  C   UNL     1      33.845  77.582   8.519  1.00  0.00     0.000 C 
BRANCH   2   3
ATOM      3  C   UNL     1      34.239  76.128   8.222  1.00  0.00     0.006 C 
BRANCH   3   4
ATOM      4  C   UNL     1      35.625  75.808   8.790  1.00  0.00     0.053 C 
BRANCH   4   5
ATOM      5  C   UNL     1      35.623  75.936  10.281  1.00  0.00     0.041 C 
ATOM      6  O   UNL     1      34.866  75.211  10.977  1.00  0.00    -0.550 OA
ATOM      7  O   UNL     1      36.494  76.821  10.903  1.00  0.00    -0.550 OA
ENDBRANCH   4   5
ENDBRANCH   3   4
ENDBRANCH   2   3
ENDBRANCH   1   2
BRANCH   1   8
ATOM      8  C   UNL     1      32.091  77.938  10.404  1.00  0.00     0.000 C 
BRANCH   8   9
ATOM      9  C   UNL     1      33.180  78.715  11.166  1.00  0.00     0.000 C 
BRANCH   9  10
ATOM     10  C   UNL     1      33.488  78.114  12.544  1.00  0.00     0.006 C 
BRANCH  10  11
ATOM     11  C   UNL     1      32.258  78.178  13.456  1.00  0.00     0.053 C 
BRANCH  11  12
ATOM     12  C   UNL     1      32.543  79.018  14.662  1.00  0.00     0.041 C 
ATOM     13  O   UNL     1      31.830  80.026  14.914  1.00  0.00    -0.550 OA
ATOM     14  O   UNL     1      33.625  78.717  15.478  1.00  0.00    -0.550 OA
ENDBRANCH  11  12
ENDBRANCH  10  11
ENDBRANCH   9  10
ENDBRANCH   8   9
ENDBRANCH   1   8
TORSDOF 9
ENDMDL
MODEL 4
REMARK VINA RESULT:    -4.073      2.097      2.984
REMARK INTER + INTRA:          -6.694
REMARK INTER:                  -5.959
REMARK INTRA:                  -0.735
REMARK UNBOUND:                -0.478
REMARK SMILES O=C([O-])CCCCCCCCC(=O)[O-]
REMARK SMILES IDX 7 1 6 2 5 3 4 4 2 5 1 6 3 7 8 8 9 9 10 10 11 11 12 12 13 13
REMARK SMILES IDX 14 14
REMARK H PARENT
REMARK Flexibility Score: inf
ROOT
ATOM      1  C   UNL     1      32.034  77.982  10.375  1.00  0.00     0.000 C 
ENDROOT
BRANCH   1   2
ATOM      2  C   UNL     1      33.148  78.626  11.220  1.00  0.00     0.000 C 
BRANCH   2   3
ATOM      3  C   UNL     1      33.136  78.156  12.682  1.00  0.00     0.006 C 
BRANCH   3   4
ATOM      4  C   UNL     1      31.985  78.804  13.457  1.00  0.00     0.053 C 
BRANCH   4   5
ATOM      5  C   UNL     1      32.464  79.312  14.780  1.00  0.00     0.041 C 
ATOM      6  O   UNL     1      31.795  80.176  15.406  1.00  0.00    -0.550 OA
ATOM      7  O   UNL     1      33.622  78.795  15.345  1.00  0.00    -0.550 OA
ENDBRANCH   4   5
ENDBRANCH   3   4
ENDBRANCH   2   3
ENDBRANCH   1   2
BRANCH   1   8
ATOM      8  C   UNL     1      32.400  77.721   8.901  1.00  0.00     0.000 C 
BRANCH   8   9
ATOM      9  C   UNL     1      33.908  77.593   8.614  1.00  0.00     0.000 C 
BRANCH   9  10
ATOM     10  C   UNL     1      34.329  76.159   8.263  1.00  0.00     0.006 C 
BRANCH  10  11
ATOM     11  C   UNL     1      35.661  75.801   8.929  1.00  0.00     0.053 C 
BRANCH  11  12
ATOM     12  C   UNL     1      35.565  75.963  10.414  1.00  0.00     0.041 C 
ATOM     13  O   UNL     1      36.328  76.765  11.014  1.00  0.00    -0.550 OA
ATOM     14  O   UNL     1      34.667  75.191  11.140  1.00  0.00    -0.550 OA
ENDBRANCH  11  12
ENDBRANCH  10  11
ENDBRANCH   9  10
ENDBRANCH   8   9
ENDBRANCH   1   8
TORSDOF 9
ENDMDL
MODEL 5
REMARK VINA RESULT:    -4.051     11.689     14.176
REMARK INTER + INTRA:          -6.660
REMARK INTER:                  -6.178
REMARK INTRA:                  -0.483
REMARK UNBOUND:                -0.478
REMARK SMILES O=C([O-])CCCCCCCCC(=O)[O-]
REMARK SMILES IDX 7 1 6 2 5 3 4 4 2 5 1 6 3 7 8 8 9 9 10 10 11 11 12 12 13 13
REMARK SMILES IDX 14 14
REMARK H PARENT
REMARK Flexibility Score: inf
ROOT
ATOM      1  C   UNL     1      46.514  71.894  11.217  1.00  0.00     0.000 C 
ENDROOT
BRANCH   1   2
ATOM      2  C   UNL     1      45.349  72.782  10.743  1.00  0.00     0.000 C 
BRANCH   2   3
ATOM      3  C   UNL     1      44.802  72.365   9.370  1.00  0.00     0.006 C 
BRANCH   3   4
ATOM      4  C   UNL     1      43.626  73.255   8.956  1.00  0.00     0.053 C 
BRANCH   4   5
ATOM      5  C   UNL     1      43.088  72.828   7.626  1.00  0.00     0.041 C 
ATOM      6  O   UNL     1      41.896  73.083   7.315  1.00  0.00    -0.550 OA
ATOM      7  O   UNL     1      43.918  72.192   6.712  1.00  0.00    -0.550 OA
ENDBRANCH   4   5
ENDBRANCH   3   4
ENDBRANCH   2   3
ENDBRANCH   1   2
BRANCH   1   8
ATOM      8  C   UNL     1      46.691  71.810  12.746  1.00  0.00     0.000 C 
BRANCH   8   9
ATOM      9  C   UNL     1      46.757  73.165  13.472  1.00  0.00     0.000 C 
BRANCH   9  10
ATOM     10  C   UNL     1      45.615  73.358  14.480  1.00  0.00     0.006 C 
BRANCH  10  11
ATOM     11  C   UNL     1      45.218  74.835  14.582  1.00  0.00     0.053 C 
BRANCH  11  12
ATOM     12  C   UNL     1      44.310  75.212  13.455  1.00  0.00     0.041 C 
ATOM     13  O   UNL     1      43.097  74.870  13.477  1.00  0.00    -0.550 OA
ATOM     14  O   UNL     1      44.812  75.899  12.358  1.00  0.00    -0.550 OA
ENDBRANCH  11  12
ENDBRANCH  10  11
ENDBRANCH   9  10
ENDBRANCH   8   9
ENDBRANCH   1   8
TORSDOF 9
ENDMDL
MODEL 6
REMARK VINA RESULT:    -4.015      4.803      7.733
REMARK INTER + INTRA:          -6.605
REMARK INTER:                  -5.789
REMARK INTRA:                  -0.817
REMARK UNBOUND:                -0.478
REMARK SMILES O=C([O-])CCCCCCCCC(=O)[O-]
REMARK SMILES IDX 7 1 6 2 5 3 4 4 2 5 1 6 3 7 8 8 9 9 10 10 11 11 12 12 13 13
REMARK SMILES IDX 14 14
REMARK H PARENT
REMARK Flexibility Score: inf
ROOT
ATOM      1  C   UNL     1      35.579  77.386  11.115  1.00  0.00     0.000 C 
ENDROOT
BRANCH   1   2
ATOM      2  C   UNL     1      36.412  76.316  10.387  1.00  0.00     0.000 C 
BRANCH   2   3
ATOM      3  C   UNL     1      35.684  75.714   9.176  1.00  0.00     0.006 C 
BRANCH   3   4
ATOM      4  C   UNL     1      36.682  75.210   8.131  1.00  0.00     0.053 C 
BRANCH   4   5
ATOM      5  C   UNL     1      35.965  74.724   6.911  1.00  0.00     0.041 C 
ATOM      6  O   UNL     1      34.932  75.318   6.506  1.00  0.00    -0.550 OA
ATOM      7  O   UNL     1      36.465  73.646   6.194  1.00  0.00    -0.550 OA
ENDBRANCH   4   5
ENDBRANCH   3   4
ENDBRANCH   2   3
ENDBRANCH   1   2
BRANCH   1   8
ATOM      8  C   UNL     1      34.374  77.930  10.320  1.00  0.00     0.000 C 
BRANCH   8   9
ATOM      9  C   UNL     1      33.042  77.957  11.091  1.00  0.00     0.000 C 
BRANCH   9  10
ATOM     10  C   UNL     1      33.081  77.127  12.381  1.00  0.00     0.006 C 
BRANCH  10  11
ATOM     11  C   UNL     1      32.180  75.893  12.266  1.00  0.00     0.053 C 
BRANCH  11  12
ATOM     12  C   UNL     1      32.886  74.795  11.534  1.00  0.00     0.041 C 
ATOM     13  O   UNL     1      32.558  74.511  10.351  1.00  0.00    -0.550 OA
ATOM     14  O   UNL     1      33.870  74.053  12.174  1.00  0.00    -0.550 OA
ENDBRANCH  11  12
ENDBRANCH  10  11
ENDBRANCH   9  10
ENDBRANCH   8   9
ENDBRANCH   1   8
TORSDOF 9
ENDMDL
MODEL 7
REMARK VINA RESULT:    -3.999     11.236     14.295
REMARK INTER + INTRA:          -6.581
REMARK INTER:                  -5.784
REMARK INTRA:                  -0.798
REMARK UNBOUND:                -0.478
REMARK SMILES O=C([O-])CCCCCCCCC(=O)[O-]
REMARK SMILES IDX 7 1 6 2 5 3 4 4 2 5 1 6 3 7 8 8 9 9 10 10 11 11 12 12 13 13
REMARK SMILES IDX 14 14
REMARK H PARENT
REMARK Flexibility Score: inf
ROOT
ATOM      1  C   UNL     1      47.456  71.924  13.142  1.00  0.00     0.000 C 
ENDROOT
BRANCH   1   2
ATOM      2  C   UNL     1      46.143  71.782  12.353  1.00  0.00     0.000 C 
BRANCH   2   3
ATOM      3  C   UNL     1      46.326  72.006  10.845  1.00  0.00     0.006 C 
BRANCH   3   4
ATOM      4  C   UNL     1      45.464  73.173  10.356  1.00  0.00     0.053 C 
BRANCH   4   5
ATOM      5  C   UNL     1      44.505  72.713   9.304  1.00  0.00     0.041 C 
ATOM      6  O   UNL     1      44.805  71.748   8.553  1.00  0.00    -0.550 OA
ATOM      7  O   UNL     1      43.261  73.318   9.185  1.00  0.00    -0.550 OA
ENDBRANCH   4   5
ENDBRANCH   3   4
ENDBRANCH   2   3
ENDBRANCH   1   2
BRANCH   1   8
ATOM      8  C   UNL     1      47.407  72.916  14.321  1.00  0.00     0.000 C 
BRANCH   8   9
ATOM      9  C   UNL     1      45.994  73.260  14.827  1.00  0.00     0.000 C 
BRANCH   9  10
ATOM     10  C   UNL     1      45.716  74.770  14.839  1.00  0.00     0.006 C 
BRANCH  10  11
ATOM     11  C   UNL     1      45.209  75.244  13.474  1.00  0.00     0.053 C 
BRANCH  11  12
ATOM     12  C   UNL     1      43.719  75.133  13.400  1.00  0.00     0.041 C 
ATOM     13  O   UNL     1      43.017  75.340  14.426  1.00  0.00    -0.550 OA
ATOM     14  O   UNL     1      43.108  74.751  12.213  1.00  0.00    -0.550 OA
ENDBRANCH  11  12
ENDBRANCH  10  11
ENDBRANCH   9  10
ENDBRANCH   8   9
ENDBRANCH   1   8
TORSDOF 9
ENDMDL
MODEL 8
REMARK VINA RESULT:    -3.913      4.014      5.270
REMARK INTER + INTRA:          -6.450
REMARK INTER:                  -5.496
REMARK INTRA:                  -0.955
REMARK UNBOUND:                -0.478
REMARK SMILES O=C([O-])CCCCCCCCC(=O)[O-]
REMARK SMILES IDX 7 1 6 2 5 3 4 4 2 5 1 6 3 7 8 8 9 9 10 10 11 11 12 12 13 13
REMARK SMILES IDX 14 14
REMARK H PARENT
REMARK Flexibility Score: inf
ROOT
ATOM      1  C   UNL     1      31.637  77.936   9.321  1.00  0.00     0.000 C 
ENDROOT
BRANCH   1   2
ATOM      2  C   UNL     1      31.445  78.224  10.820  1.00  0.00     0.000 C 
BRANCH   2   3
ATOM      3  C   UNL     1      32.739  78.680  11.511  1.00  0.00     0.006 C 
BRANCH   3   4
ATOM      4  C   UNL     1      33.954  78.446  10.609  1.00  0.00     0.053 C 
BRANCH   4   5
ATOM      5  C   UNL     1      34.900  77.475  11.242  1.00  0.00     0.041 C 
ATOM      6  O   UNL     1      34.486  76.352  11.631  1.00  0.00    -0.550 OA
ATOM      7  O   UNL     1      36.247  77.792  11.358  1.00  0.00    -0.550 OA
ENDBRANCH   4   5
ENDBRANCH   3   4
ENDBRANCH   2   3
ENDBRANCH   1   2
BRANCH   1   8
ATOM      8  C   UNL     1      31.260  76.510   8.875  1.00  0.00     0.000 C 
BRANCH   8   9
ATOM      9  C   UNL     1      32.169  75.901   7.792  1.00  0.00     0.000 C 
BRANCH   9  10
ATOM     10  C   UNL     1      33.510  75.403   8.349  1.00  0.00     0.006 C 
BRANCH  10  11
ATOM     11  C   UNL     1      34.679  76.191   7.749  1.00  0.00     0.053 C 
BRANCH  11  12
ATOM     12  C   UNL     1      35.942  75.392   7.822  1.00  0.00     0.041 C 
ATOM     13  O   UNL     1      36.340  74.745   6.817  1.00  0.00    -0.550 OA
ATOM     14  O   UNL     1      36.652  75.321   9.013  1.00  0.00    -0.550 OA
ENDBRANCH  11  12
ENDBRANCH  10  11
ENDBRANCH   9  10
ENDBRANCH   8   9
ENDBRANCH   1   8
TORSDOF 9
ENDMDL
MODEL 9
REMARK VINA RESULT:    -3.899      2.227      3.580
REMARK INTER + INTRA:          -6.428
REMARK INTER:                  -5.977
REMARK INTRA:                  -0.452
REMARK UNBOUND:                -0.478
REMARK SMILES O=C([O-])CCCCCCCCC(=O)[O-]
REMARK SMILES IDX 7 1 6 2 5 3 4 4 2 5 1 6 3 7 8 8 9 9 10 10 11 11 12 12 13 13
REMARK SMILES IDX 14 14
REMARK H PARENT
REMARK Flexibility Score: inf
ROOT
ATOM      1  C   UNL     1      33.531  77.688  11.241  1.00  0.00     0.000 C 
ENDROOT
BRANCH   1   2
ATOM      2  C   UNL     1      32.603  78.886  11.505  1.00  0.00     0.000 C 
BRANCH   2   3
ATOM      3  C   UNL     1      32.000  78.875  12.917  1.00  0.00     0.006 C 
BRANCH   3   4
ATOM      4  C   UNL     1      33.057  78.506  13.962  1.00  0.00     0.053 C 
BRANCH   4   5
ATOM      5  C   UNL     1      32.683  79.054  15.303  1.00  0.00     0.041 C 
ATOM      6  O   UNL     1      32.749  78.323  16.326  1.00  0.00    -0.550 OA
ATOM      7  O   UNL     1      32.308  80.385  15.430  1.00  0.00    -0.550 OA
ENDBRANCH   4   5
ENDBRANCH   3   4
ENDBRANCH   2   3
ENDBRANCH   1   2
BRANCH   1   8
ATOM      8  C   UNL     1      34.968  78.054  10.818  1.00  0.00     0.000 C 
BRANCH   8   9
ATOM      9  C   UNL     1      36.019  76.954  11.052  1.00  0.00     0.000 C 
BRANCH   9  10
ATOM     10  C   UNL     1      35.697  75.653  10.303  1.00  0.00     0.006 C 
BRANCH  10  11
ATOM     11  C   UNL     1      36.594  75.494   9.071  1.00  0.00     0.053 C 
BRANCH  11  12
ATOM     12  C   UNL     1      35.769  75.471   7.822  1.00  0.00     0.041 C 
ATOM     13  O   UNL     1      36.151  74.804   6.824  1.00  0.00    -0.550 OA
ATOM     14  O   UNL     1      34.606  76.225   7.744  1.00  0.00    -0.550 OA
ENDBRANCH  11  12
ENDBRANCH  10  11
ENDBRANCH   9  10
ENDBRANCH   8   9
ENDBRANCH   1   8
TORSDOF 9
ENDMDL
