MODEL 1
REMARK VINA RESULT:    -4.842      0.000      0.000
REMARK INTER + INTRA:          -5.536
REMARK INTER:                  -5.408
REMARK INTRA:                  -0.129
REMARK UNBOUND:                -0.129
REMARK SMILES O=C([O-])C=Cc1ccccc1
REMARK SMILES IDX 4 1 5 2 2 3 1 4 3 5 6 6 7 7 11 8 8 9 10 10 9 11
REMARK H PARENT
REMARK Flexibility Score: inf
ROOT
ATOM      1  C   UNL     1     140.410 147.312 157.651  1.00  0.00     0.025 C 
ATOM      2  C   UNL     1     140.307 146.379 156.692  1.00  0.00     0.010 C 
ENDROOT
BRANCH   1   3
ATOM      3  C   UNL     1     139.261 147.692 158.489  1.00  0.00     0.064 C 
ATOM      4  O   UNL     1     139.412 148.549 159.399  1.00  0.00    -0.545 OA
ATOM      5  O   UNL     1     138.008 147.120 158.293  1.00  0.00    -0.545 OA
ENDBRANCH   1   3
BRANCH   2   6
ATOM      6  C   UNL     1     141.422 145.944 155.808  1.00  0.00    -0.026 A 
ATOM      7  C   UNL     1     142.603 145.335 156.288  1.00  0.00     0.008 A 
ATOM      8  C   UNL     1     141.289 146.153 154.422  1.00  0.00     0.008 A 
ATOM      9  C   UNL     1     143.612 144.950 155.400  1.00  0.00     0.001 A 
ATOM     10  C   UNL     1     142.303 145.765 153.541  1.00  0.00     0.001 A 
ATOM     11  C   UNL     1     143.463 145.164 154.029  1.00  0.00     0.000 A 
ENDBRANCH   2   6
TORSDOF 2
ENDMDL
MODEL 2
REMARK VINA RESULT:    -4.829      0.202      1.465
REMARK INTER + INTRA:          -5.522
REMARK INTER:                  -5.382
REMARK INTRA:                  -0.140
REMARK UNBOUND:                -0.129
REMARK SMILES O=C([O-])C=Cc1ccccc1
REMARK SMILES IDX 4 1 5 2 2 3 1 4 3 5 6 6 7 7 11 8 8 9 10 10 9 11
REMARK H PARENT
REMARK Flexibility Score: inf
ROOT
ATOM      1  C   UNL     1     140.432 147.098 157.693  1.00  0.00     0.025 C 
ATOM      2  C   UNL     1     140.297 146.542 156.479  1.00  0.00     0.010 C 
ENDROOT
BRANCH   1   3
ATOM      3  C   UNL     1     139.273 147.581 158.460  1.00  0.00     0.064 C 
ATOM      4  O   UNL     1     139.427 148.497 159.309  1.00  0.00    -0.545 OA
ATOM      5  O   UNL     1     138.006 147.041 158.262  1.00  0.00    -0.545 OA
ENDBRANCH   1   3
BRANCH   2   6
ATOM      6  C   UNL     1     141.420 146.033 155.648  1.00  0.00    -0.026 A 
ATOM      7  C   UNL     1     141.478 146.181 154.244  1.00  0.00     0.008 A 
ATOM      8  C   UNL     1     142.479 145.370 156.297  1.00  0.00     0.008 A 
ATOM      9  C   UNL     1     142.566 145.678 153.523  1.00  0.00     0.001 A 
ATOM     10  C   UNL     1     143.562 144.870 155.570  1.00  0.00     0.001 A 
ATOM     11  C   UNL     1     143.606 145.024 154.184  1.00  0.00     0.000 A 
ENDBRANCH   2   6
TORSDOF 2
ENDMDL
MODEL 3
REMARK VINA RESULT:    -4.517      4.296      5.610
REMARK INTER + INTRA:          -5.174
REMARK INTER:                  -5.038
REMARK INTRA:                  -0.135
REMARK UNBOUND:                -0.129
REMARK SMILES O=C([O-])C=Cc1ccccc1
REMARK SMILES IDX 4 1 5 2 2 3 1 4 3 5 6 6 7 7 11 8 8 9 10 10 9 11
REMARK H PARENT
REMARK Flexibility Score: inf
ROOT
ATOM      1  C   UNL     1     145.283 143.698 156.177  1.00  0.00     0.025 C 
ATOM      2  C   UNL     1     144.504 144.764 156.419  1.00  0.00     0.010 C 
ENDROOT
BRANCH   1   3
ATOM      3  C   UNL     1     146.433 143.367 157.033  1.00  0.00     0.064 C 
ATOM      4  O   UNL     1     146.266 142.635 158.043  1.00  0.00    -0.545 OA
ATOM      5  O   UNL     1     147.705 143.851 156.745  1.00  0.00    -0.545 OA
ENDBRANCH   1   3
BRANCH   2   6
ATOM      6  C   UNL     1     143.328 145.160 155.599  1.00  0.00    -0.026 A 
ATOM      7  C   UNL     1     142.054 145.431 156.146  1.00  0.00     0.008 A 
ATOM      8  C   UNL     1     143.497 145.269 154.206  1.00  0.00     0.008 A 
ATOM      9  C   UNL     1     140.990 145.800 155.317  1.00  0.00     0.001 A 
ATOM     10  C   UNL     1     142.429 145.638 153.383  1.00  0.00     0.001 A 
ATOM     11  C   UNL     1     141.177 145.903 153.937  1.00  0.00     0.000 A 
ENDBRANCH   2   6
TORSDOF 2
ENDMDL
MODEL 4
REMARK VINA RESULT:    -4.349      3.015      5.454
REMARK INTER + INTRA:          -4.987
REMARK INTER:                  -4.860
REMARK INTRA:                  -0.126
REMARK UNBOUND:                -0.129
REMARK SMILES O=C([O-])C=Cc1ccccc1
REMARK SMILES IDX 4 1 5 2 2 3 1 4 3 5 6 6 7 7 11 8 8 9 10 10 9 11
REMARK H PARENT
REMARK Flexibility Score: inf
ROOT
ATOM      1  C   UNL     1     140.862 146.853 155.427  1.00  0.00     0.025 C 
ATOM      2  C   UNL     1     140.561 146.266 156.595  1.00  0.00     0.010 C 
ENDROOT
BRANCH   1   3
ATOM      3  C   UNL     1     141.550 146.125 154.348  1.00  0.00     0.064 C 
ATOM      4  O   UNL     1     140.873 145.520 153.476  1.00  0.00    -0.545 OA
ATOM      5  O   UNL     1     142.939 146.094 154.274  1.00  0.00    -0.545 OA
ENDBRANCH   1   3
BRANCH   2   6
ATOM      6  C   UNL     1     139.869 146.937 157.729  1.00  0.00    -0.026 A 
ATOM      7  C   UNL     1     140.482 147.914 158.545  1.00  0.00     0.008 A 
ATOM      8  C   UNL     1     138.535 146.577 157.998  1.00  0.00     0.008 A 
ATOM      9  C   UNL     1     139.772 148.506 159.594  1.00  0.00     0.001 A 
ATOM     10  C   UNL     1     137.833 147.173 159.050  1.00  0.00     0.001 A 
ATOM     11  C   UNL     1     138.450 148.136 159.847  1.00  0.00     0.000 A 
ENDBRANCH   2   6
TORSDOF 2
ENDMDL
MODEL 5
REMARK VINA RESULT:    -4.333      4.333      6.948
REMARK INTER + INTRA:          -4.968
REMARK INTER:                  -4.831
REMARK INTRA:                  -0.137
REMARK UNBOUND:                -0.129
REMARK SMILES O=C([O-])C=Cc1ccccc1
REMARK SMILES IDX 4 1 5 2 2 3 1 4 3 5 6 6 7 7 11 8 8 9 10 10 9 11
REMARK H PARENT
REMARK Flexibility Score: inf
ROOT
ATOM      1  C   UNL     1     137.792 147.255 158.955  1.00  0.00     0.025 C 
ATOM      2  C   UNL     1     136.986 146.873 157.952  1.00  0.00     0.010 C 
ENDROOT
BRANCH   1   3
ATOM      3  C   UNL     1     139.157 147.747 158.710  1.00  0.00     0.064 C 
ATOM      4  O   UNL     1     139.649 148.620 159.472  1.00  0.00    -0.545 OA
ATOM      5  O   UNL     1     139.914 147.265 157.648  1.00  0.00    -0.545 OA
ENDBRANCH   1   3
BRANCH   2   6
ATOM      6  C   UNL     1     135.598 146.366 158.124  1.00  0.00    -0.026 A 
ATOM      7  C   UNL     1     135.119 145.189 157.507  1.00  0.00     0.008 A 
ATOM      8  C   UNL     1     134.721 147.099 158.944  1.00  0.00     0.008 A 
ATOM      9  C   UNL     1     133.801 144.768 157.712  1.00  0.00     0.001 A 
ATOM     10  C   UNL     1     133.405 146.672 159.144  1.00  0.00     0.001 A 
ATOM     11  C   UNL     1     132.945 145.508 158.529  1.00  0.00     0.000 A 
ENDBRANCH   2   6
TORSDOF 2
ENDMDL
MODEL 6
REMARK VINA RESULT:    -4.258      4.544      8.083
REMARK INTER + INTRA:          -4.885
REMARK INTER:                  -4.753
REMARK INTRA:                  -0.132
REMARK UNBOUND:                -0.129
REMARK SMILES O=C([O-])C=Cc1ccccc1
REMARK SMILES IDX 4 1 5 2 2 3 1 4 3 5 6 6 7 7 11 8 8 9 10 10 9 11
REMARK H PARENT
REMARK Flexibility Score: inf
ROOT
ATOM      1  C   UNL     1     139.037 147.793 160.452  1.00  0.00     0.025 C 
ATOM      2  C   UNL     1     138.966 148.907 161.197  1.00  0.00     0.010 C 
ENDROOT
BRANCH   1   3
ATOM      3  C   UNL     1     139.031 147.843 158.981  1.00  0.00     0.064 C 
ATOM      4  O   UNL     1     139.946 148.460 158.376  1.00  0.00    -0.545 OA
ATOM      5  O   UNL     1     138.029 147.218 158.245  1.00  0.00    -0.545 OA
ENDBRANCH   1   3
BRANCH   2   6
ATOM      6  C   UNL     1     138.967 148.934 162.684  1.00  0.00    -0.026 A 
ATOM      7  C   UNL     1     138.707 147.798 163.483  1.00  0.00     0.008 A 
ATOM      8  C   UNL     1     139.241 150.157 163.325  1.00  0.00     0.008 A 
ATOM      9  C   UNL     1     138.725 147.894 164.878  1.00  0.00     0.001 A 
ATOM     10  C   UNL     1     139.256 150.245 164.720  1.00  0.00     0.001 A 
ATOM     11  C   UNL     1     138.998 149.116 165.496  1.00  0.00     0.000 A 
ENDBRANCH   2   6
TORSDOF 2
ENDMDL
MODEL 7
REMARK VINA RESULT:    -4.178      5.430      8.904
REMARK INTER + INTRA:          -4.795
REMARK INTER:                  -4.650
REMARK INTRA:                  -0.146
REMARK UNBOUND:                -0.129
REMARK SMILES O=C([O-])C=Cc1ccccc1
REMARK SMILES IDX 4 1 5 2 2 3 1 4 3 5 6 6 7 7 11 8 8 9 10 10 9 11
REMARK H PARENT
REMARK Flexibility Score: inf
ROOT
ATOM      1  C   UNL     1     138.638 148.279 161.421  1.00  0.00     0.025 C 
ATOM      2  C   UNL     1     138.991 149.459 161.953  1.00  0.00     0.010 C 
ENDROOT
BRANCH   1   3
ATOM      3  C   UNL     1     138.560 148.076 159.965  1.00  0.00     0.064 C 
ATOM      4  O   UNL     1     137.573 147.470 159.473  1.00  0.00    -0.545 OA
ATOM      5  O   UNL     1     139.562 148.544 159.121  1.00  0.00    -0.545 OA
ENDBRANCH   1   3
BRANCH   2   6
ATOM      6  C   UNL     1     139.090 149.737 163.411  1.00  0.00    -0.026 A 
ATOM      7  C   UNL     1     139.321 151.025 163.943  1.00  0.00     0.008 A 
ATOM      8  C   UNL     1     138.946 148.658 164.303  1.00  0.00     0.008 A 
ATOM      9  C   UNL     1     139.402 151.217 165.326  1.00  0.00     0.001 A 
ATOM     10  C   UNL     1     139.030 148.857 165.684  1.00  0.00     0.001 A 
ATOM     11  C   UNL     1     139.257 150.134 166.195  1.00  0.00     0.000 A 
ENDBRANCH   2   6
TORSDOF 2
ENDMDL
MODEL 8
REMARK VINA RESULT:    -4.152      4.747      6.134
REMARK INTER + INTRA:          -4.766
REMARK INTER:                  -4.638
REMARK INTRA:                  -0.127
REMARK UNBOUND:                -0.129
REMARK SMILES O=C([O-])C=Cc1ccccc1
REMARK SMILES IDX 4 1 5 2 2 3 1 4 3 5 6 6 7 7 11 8 8 9 10 10 9 11
REMARK H PARENT
REMARK Flexibility Score: inf
ROOT
ATOM      1  C   UNL     1     146.556 143.510 157.052  1.00  0.00     0.025 C 
ATOM      2  C   UNL     1     145.236 143.666 156.865  1.00  0.00     0.010 C 
ENDROOT
BRANCH   1   3
ATOM      3  C   UNL     1     147.114 143.108 158.353  1.00  0.00     0.064 C 
ATOM      4  O   UNL     1     147.915 142.139 158.414  1.00  0.00    -0.545 OA
ATOM      5  O   UNL     1     146.770 143.782 159.521  1.00  0.00    -0.545 OA
ENDBRANCH   1   3
BRANCH   2   6
ATOM      6  C   UNL     1     144.602 144.069 155.582  1.00  0.00    -0.026 A 
ATOM      7  C   UNL     1     144.790 143.371 154.368  1.00  0.00     0.008 A 
ATOM      8  C   UNL     1     143.772 145.206 155.581  1.00  0.00     0.008 A 
ATOM      9  C   UNL     1     144.162 143.805 153.196  1.00  0.00     0.001 A 
ATOM     10  C   UNL     1     143.148 145.634 154.405  1.00  0.00     0.001 A 
ATOM     11  C   UNL     1     143.343 144.935 153.215  1.00  0.00     0.000 A 
ENDBRANCH   2   6
TORSDOF 2
ENDMDL
MODEL 9
REMARK VINA RESULT:    -4.103      4.018      5.502
REMARK INTER + INTRA:          -4.712
REMARK INTER:                  -4.578
REMARK INTRA:                  -0.134
REMARK UNBOUND:                -0.129
REMARK SMILES O=C([O-])C=Cc1ccccc1
REMARK SMILES IDX 4 1 5 2 2 3 1 4 3 5 6 6 7 7 11 8 8 9 10 10 9 11
REMARK H PARENT
REMARK Flexibility Score: inf
ROOT
ATOM      1  C   UNL     1     135.526 146.991 158.310  1.00  0.00     0.025 C 
ATOM      2  C   UNL     1     136.483 146.824 159.235  1.00  0.00     0.010 C 
ENDROOT
BRANCH   1   3
ATOM      3  C   UNL     1     134.146 146.530 158.529  1.00  0.00     0.064 C 
ATOM      4  O   UNL     1     133.657 145.649 157.774  1.00  0.00    -0.545 OA
ATOM      5  O   UNL     1     133.369 147.051 159.558  1.00  0.00    -0.545 OA
ENDBRANCH   1   3
BRANCH   2   6
ATOM      6  C   UNL     1     137.897 147.263 159.083  1.00  0.00    -0.026 A 
ATOM      7  C   UNL     1     138.544 148.127 159.994  1.00  0.00     0.008 A 
ATOM      8  C   UNL     1     138.623 146.790 157.974  1.00  0.00     0.008 A 
ATOM      9  C   UNL     1     139.877 148.500 159.792  1.00  0.00     0.001 A 
ATOM     10  C   UNL     1     139.954 147.168 157.778  1.00  0.00     0.001 A 
ATOM     11  C   UNL     1     140.581 148.021 158.685  1.00  0.00     0.000 A 
ENDBRANCH   2   6
TORSDOF 2
ENDMDL
