MODEL 1
REMARK VINA RESULT:    -7.172      0.000      0.000
REMARK INTER + INTRA:         -11.995
REMARK INTER:                 -10.736
REMARK INTRA:                  -1.259
REMARK UNBOUND:                -1.259
REMARK SMILES COC(=O)C1=CO[C@@H](O[C@H]2O[C@H](CO)[C@H](O)[C@H](O)[C@@H]2O)[C@@H]2C(CO)=CC[C@@H]12
REMARK SMILES IDX 9 1 8 2 5 3 6 4 27 5 7 6 21 7 26 8 22 9 25 10 3 11 4 12 2 13
REMARK SMILES IDX 1 14 23 15 24 16 10 18 19 19 11 20 17 21 12 22 15 23 20 24
REMARK SMILES IDX 18 26 13 28 14 29 16 31
REMARK H PARENT 24 17 20 25 18 27 14 30 16 32
REMARK Flexibility Score: inf
ROOT
ATOM      1  O   UNL     1      27.928  -0.344  21.551  1.00  0.00    -0.310 OA
ENDROOT
BRANCH   1   2
ATOM      2  C   UNL     1      28.546  -0.076  20.306  1.00  0.00     0.316 C 
ATOM      3  C   UNL     1      31.048  -0.326  18.800  1.00  0.00     0.076 C 
ATOM      4  C   UNL     1      30.264  -1.406  19.018  1.00  0.00     0.202 C 
ATOM      5  C   UNL     1      30.477   1.008  19.214  1.00  0.00     0.047 C 
ATOM      6  O   UNL     1      29.046  -1.300  19.732  1.00  0.00    -0.471 OA
ATOM      7  C   UNL     1      29.740   0.851  20.536  1.00  0.00     0.094 C 
ATOM      8  C   UNL     1      31.379   2.212  19.479  1.00  0.00     0.037 C 
ATOM      9  C   UNL     1      29.534   2.273  20.942  1.00  0.00    -0.039 C 
ATOM     10  C   UNL     1      30.527   3.010  20.425  1.00  0.00    -0.024 C 
BRANCH   3  11
ATOM     11  C   UNL     1      32.291  -0.446  18.005  1.00  0.00     0.337 C 
ATOM     12  O   UNL     1      33.364  -0.807  18.561  1.00  0.00    -0.246 OA
BRANCH  11  13
ATOM     13  O   UNL     1      32.277  -0.150  16.638  1.00  0.00    -0.466 OA
ATOM     14  C   UNL     1      32.932   0.989  16.093  1.00  0.00     0.282 C 
ENDBRANCH  11  13
ENDBRANCH   3  11
BRANCH   9  15
ATOM     15  C   UNL     1      28.640   2.721  22.070  1.00  0.00     0.187 C 
BRANCH  15  16
ATOM     16  O   UNL     1      28.724   1.841  23.158  1.00  0.00    -0.392 OA
ATOM     17  H   UNL     1      28.704   2.395  23.980  1.00  0.00     0.211 HD
ENDBRANCH  15  16
ENDBRANCH   9  15
ENDBRANCH   1   2
BRANCH   1  18
ATOM     18  C   UNL     1      26.653  -0.946  21.375  1.00  0.00     0.286 C 
ATOM     19  C   UNL     1      25.674   0.082  20.767  1.00  0.00     0.202 C 
ATOM     20  O   UNL     1      26.146  -1.475  22.595  1.00  0.00    -0.341 OA
ATOM     21  C   UNL     1      25.340   1.181  21.795  1.00  0.00     0.179 C 
ATOM     22  C   UNL     1      25.992  -0.463  23.578  1.00  0.00     0.178 C 
ATOM     23  C   UNL     1      24.921   0.564  23.139  1.00  0.00     0.177 C 
BRANCH  19  24
ATOM     24  O   UNL     1      24.496  -0.560  20.354  1.00  0.00    -0.385 OA
ATOM     25  H   UNL     1      23.738   0.021  20.627  1.00  0.00     0.211 HD
ENDBRANCH  19  24
BRANCH  21  26
ATOM     26  O   UNL     1      24.311   2.011  21.318  1.00  0.00    -0.387 OA
ATOM     27  H   UNL     1      24.584   2.945  21.505  1.00  0.00     0.211 HD
ENDBRANCH  21  26
BRANCH  22  28
ATOM     28  C   UNL     1      25.636  -1.129  24.913  1.00  0.00     0.191 C 
BRANCH  28  29
ATOM     29  O   UNL     1      26.757  -1.159  25.752  1.00  0.00    -0.394 OA
ATOM     30  H   UNL     1      27.328  -0.394  25.474  1.00  0.00     0.210 HD
ENDBRANCH  28  29
ENDBRANCH  22  28
BRANCH  23  31
ATOM     31  O   UNL     1      23.666  -0.057  23.005  1.00  0.00    -0.387 OA
ATOM     32  H   UNL     1      23.556  -0.665  23.784  1.00  0.00     0.211 HD
ENDBRANCH  23  31
ENDBRANCH   1  18
TORSDOF 11
ENDMDL
MODEL 2
REMARK VINA RESULT:    -6.982      1.517      2.565
REMARK INTER + INTRA:         -11.711
REMARK INTER:                 -10.301
REMARK INTRA:                  -1.410
REMARK UNBOUND:                -1.259
REMARK SMILES COC(=O)C1=CO[C@@H](O[C@H]2O[C@H](CO)[C@H](O)[C@H](O)[C@@H]2O)[C@@H]2C(CO)=CC[C@@H]12
REMARK SMILES IDX 9 1 8 2 5 3 6 4 27 5 7 6 21 7 26 8 22 9 25 10 3 11 4 12 2 13
REMARK SMILES IDX 1 14 23 15 24 16 10 18 19 19 11 20 17 21 12 22 15 23 20 24
REMARK SMILES IDX 18 26 13 28 14 29 16 31
REMARK H PARENT 24 17 20 25 18 27 14 30 16 32
REMARK Flexibility Score: inf
ROOT
ATOM      1  O   UNL     1      27.202   1.003  20.874  1.00  0.00    -0.310 OA
ENDROOT
BRANCH   1   2
ATOM      2  C   UNL     1      27.833   1.388  19.666  1.00  0.00     0.316 C 
ATOM      3  C   UNL     1      30.088   0.815  17.884  1.00  0.00     0.076 C 
ATOM      4  C   UNL     1      29.017  -0.009  17.928  1.00  0.00     0.202 C 
ATOM      5  C   UNL     1      29.968   2.106  18.655  1.00  0.00     0.047 C 
ATOM      6  O   UNL     1      27.914   0.260  18.773  1.00  0.00    -0.471 OA
ATOM      7  C   UNL     1      29.261   1.839  19.976  1.00  0.00     0.094 C 
ATOM      8  C   UNL     1      31.204   2.889  19.095  1.00  0.00     0.037 C 
ATOM      9  C   UNL     1      29.515   3.107  20.722  1.00  0.00    -0.039 C 
ATOM     10  C   UNL     1      30.669   3.631  20.286  1.00  0.00    -0.024 C 
BRANCH   3  11
ATOM     11  C   UNL     1      31.208   0.546  16.954  1.00  0.00     0.337 C 
ATOM     12  O   UNL     1      31.290   1.177  15.864  1.00  0.00    -0.246 OA
BRANCH  11  13
ATOM     13  O   UNL     1      32.169  -0.417  17.278  1.00  0.00    -0.466 OA
ATOM     14  C   UNL     1      32.698  -0.560  18.590  1.00  0.00     0.282 C 
ENDBRANCH  11  13
ENDBRANCH   3  11
BRANCH   9  15
ATOM     15  C   UNL     1      28.838   3.493  22.012  1.00  0.00     0.187 C 
BRANCH  15  16
ATOM     16  O   UNL     1      28.784   2.406  22.896  1.00  0.00    -0.392 OA
ATOM     17  H   UNL     1      27.829   2.267  23.124  1.00  0.00     0.211 HD
ENDBRANCH  15  16
ENDBRANCH   9  15
ENDBRANCH   1   2
BRANCH   1  18
ATOM     18  C   UNL     1      25.792   1.150  20.789  1.00  0.00     0.286 C 
ATOM     19  C   UNL     1      25.222   1.481  22.186  1.00  0.00     0.202 C 
ATOM     20  O   UNL     1      25.171  -0.009  20.246  1.00  0.00    -0.341 OA
ATOM     21  C   UNL     1      25.333   0.258  23.118  1.00  0.00     0.179 C 
ATOM     22  C   UNL     1      25.419  -1.157  21.044  1.00  0.00     0.178 C 
ATOM     23  C   UNL     1      24.768  -1.000  22.439  1.00  0.00     0.177 C 
BRANCH  19  24
ATOM     24  O   UNL     1      23.879   1.878  22.077  1.00  0.00    -0.385 OA
ATOM     25  H   UNL     1      23.419   1.193  21.525  1.00  0.00     0.211 HD
ENDBRANCH  19  24
BRANCH  21  26
ATOM     26  O   UNL     1      24.650   0.489  24.324  1.00  0.00    -0.387 OA
ATOM     27  H   UNL     1      25.329   0.474  25.046  1.00  0.00     0.211 HD
ENDBRANCH  21  26
BRANCH  22  28
ATOM     28  C   UNL     1      24.895  -2.391  20.301  1.00  0.00     0.191 C 
BRANCH  28  29
ATOM     29  O   UNL     1      23.818  -2.040  19.478  1.00  0.00    -0.394 OA
ATOM     30  H   UNL     1      24.217  -1.667  18.647  1.00  0.00     0.210 HD
ENDBRANCH  28  29
ENDBRANCH  22  28
BRANCH  23  31
ATOM     31  O   UNL     1      23.370  -0.889  22.323  1.00  0.00    -0.387 OA
ATOM     32  H   UNL     1      23.112  -1.328  21.470  1.00  0.00     0.211 HD
ENDBRANCH  23  31
ENDBRANCH   1  18
TORSDOF 11
ENDMDL
MODEL 3
REMARK VINA RESULT:    -6.871      3.463      5.497
REMARK INTER + INTRA:         -11.544
REMARK INTER:                 -10.172
REMARK INTRA:                  -1.372
REMARK UNBOUND:                -1.259
REMARK SMILES COC(=O)C1=CO[C@@H](O[C@H]2O[C@H](CO)[C@H](O)[C@H](O)[C@@H]2O)[C@@H]2C(CO)=CC[C@@H]12
REMARK SMILES IDX 9 1 8 2 5 3 6 4 27 5 7 6 21 7 26 8 22 9 25 10 3 11 4 12 2 13
REMARK SMILES IDX 1 14 23 15 24 16 10 18 19 19 11 20 17 21 12 22 15 23 20 24
REMARK SMILES IDX 18 26 13 28 14 29 16 31
REMARK H PARENT 24 17 20 25 18 27 14 30 16 32
REMARK Flexibility Score: inf
ROOT
ATOM      1  O   UNL     1      28.650   3.024  19.763  1.00  0.00    -0.310 OA
ENDROOT
BRANCH   1   2
ATOM      2  C   UNL     1      29.891   3.669  19.984  1.00  0.00     0.316 C 
ATOM      3  C   UNL     1      31.376   6.159  19.559  1.00  0.00     0.076 C 
ATOM      4  C   UNL     1      30.403   6.088  20.496  1.00  0.00     0.202 C 
ATOM      5  C   UNL     1      31.758   4.860  18.894  1.00  0.00     0.047 C 
ATOM      6  O   UNL     1      29.685   4.889  20.723  1.00  0.00    -0.471 OA
ATOM      7  C   UNL     1      30.503   4.040  18.633  1.00  0.00     0.094 C 
ATOM      8  C   UNL     1      32.456   4.837  17.535  1.00  0.00     0.037 C 
ATOM      9  C   UNL     1      31.013   2.983  17.711  1.00  0.00    -0.039 C 
ATOM     10  C   UNL     1      32.049   3.485  17.023  1.00  0.00    -0.024 C 
BRANCH   3  11
ATOM     11  C   UNL     1      32.152   7.406  19.374  1.00  0.00     0.337 C 
ATOM     12  O   UNL     1      33.354   7.464  19.752  1.00  0.00    -0.246 OA
BRANCH  11  13
ATOM     13  O   UNL     1      31.548   8.524  18.789  1.00  0.00    -0.466 OA
ATOM     14  C   UNL     1      30.704   8.431  17.648  1.00  0.00     0.282 C 
ENDBRANCH  11  13
ENDBRANCH   3  11
BRANCH   9  15
ATOM     15  C   UNL     1      30.245   1.748  17.314  1.00  0.00     0.187 C 
BRANCH  15  16
ATOM     16  O   UNL     1      28.934   2.072  16.936  1.00  0.00    -0.392 OA
ATOM     17  H   UNL     1      28.613   2.761  17.572  1.00  0.00     0.211 HD
ENDBRANCH  15  16
ENDBRANCH   9  15
ENDBRANCH   1   2
BRANCH   1  18
ATOM     18  C   UNL     1      28.021   2.680  20.989  1.00  0.00     0.286 C 
ATOM     19  C   UNL     1      28.909   1.681  21.764  1.00  0.00     0.202 C 
ATOM     20  O   UNL     1      26.716   2.150  20.784  1.00  0.00    -0.341 OA
ATOM     21  C   UNL     1      28.930   0.314  21.052  1.00  0.00     0.179 C 
ATOM     22  C   UNL     1      26.750   0.972  19.993  1.00  0.00     0.178 C 
ATOM     23  C   UNL     1      27.503  -0.159  20.733  1.00  0.00     0.177 C 
BRANCH  19  24
ATOM     24  O   UNL     1      28.432   1.529  23.076  1.00  0.00    -0.385 OA
ATOM     25  H   UNL     1      27.493   1.215  23.008  1.00  0.00     0.211 HD
ENDBRANCH  19  24
BRANCH  21  26
ATOM     26  O   UNL     1      29.579  -0.648  21.844  1.00  0.00    -0.387 OA
ATOM     27  H   UNL     1      30.476  -0.285  22.061  1.00  0.00     0.211 HD
ENDBRANCH  21  26
BRANCH  22  28
ATOM     28  C   UNL     1      25.310   0.574  19.648  1.00  0.00     0.191 C 
BRANCH  28  29
ATOM     29  O   UNL     1      25.171  -0.819  19.689  1.00  0.00    -0.394 OA
ATOM     30  H   UNL     1      24.768  -1.029  20.573  1.00  0.00     0.210 HD
ENDBRANCH  28  29
ENDBRANCH  22  28
BRANCH  23  31
ATOM     31  O   UNL     1      26.838  -0.498  21.926  1.00  0.00    -0.387 OA
ATOM     32  H   UNL     1      27.536  -0.724  22.596  1.00  0.00     0.211 HD
ENDBRANCH  23  31
ENDBRANCH   1  18
TORSDOF 11
ENDMDL
MODEL 4
REMARK VINA RESULT:    -6.847      5.816      8.583
REMARK INTER + INTRA:         -11.507
REMARK INTER:                 -10.603
REMARK INTRA:                  -0.904
REMARK UNBOUND:                -1.259
REMARK SMILES COC(=O)C1=CO[C@@H](O[C@H]2O[C@H](CO)[C@H](O)[C@H](O)[C@@H]2O)[C@@H]2C(CO)=CC[C@@H]12
REMARK SMILES IDX 9 1 8 2 5 3 6 4 27 5 7 6 21 7 26 8 22 9 25 10 3 11 4 12 2 13
REMARK SMILES IDX 1 14 23 15 24 16 10 18 19 19 11 20 17 21 12 22 15 23 20 24
REMARK SMILES IDX 18 26 13 28 14 29 16 31
REMARK H PARENT 24 17 20 25 18 27 14 30 16 32
REMARK Flexibility Score: inf
ROOT
ATOM      1  O   UNL     1      30.168   5.827  19.963  1.00  0.00    -0.310 OA
ENDROOT
BRANCH   1   2
ATOM      2  C   UNL     1      30.663   7.152  19.996  1.00  0.00     0.316 C 
ATOM      3  C   UNL     1      29.957   9.957  19.522  1.00  0.00     0.076 C 
ATOM      4  C   UNL     1      29.506   9.309  20.620  1.00  0.00     0.202 C 
ATOM      5  C   UNL     1      30.964   9.217  18.677  1.00  0.00     0.047 C 
ATOM      6  O   UNL     1      29.849   7.959  20.871  1.00  0.00    -0.471 OA
ATOM      7  C   UNL     1      30.569   7.750  18.592  1.00  0.00     0.094 C 
ATOM      8  C   UNL     1      31.195   9.583  17.211  1.00  0.00     0.037 C 
ATOM      9  C   UNL     1      31.451   7.258  17.493  1.00  0.00    -0.039 C 
ATOM     10  C   UNL     1      31.708   8.281  16.665  1.00  0.00    -0.024 C 
BRANCH   3  11
ATOM     11  C   UNL     1      29.632  11.385  19.305  1.00  0.00     0.337 C 
ATOM     12  O   UNL     1      28.477  11.720  18.924  1.00  0.00    -0.246 OA
BRANCH  11  13
ATOM     13  O   UNL     1      30.611  12.363  19.513  1.00  0.00    -0.466 OA
ATOM     14  C   UNL     1      30.830  13.434  18.604  1.00  0.00     0.282 C 
ENDBRANCH  11  13
ENDBRANCH   3  11
BRANCH   9  15
ATOM     15  C   UNL     1      31.653   5.806  17.141  1.00  0.00     0.187 C 
BRANCH  15  16
ATOM     16  O   UNL     1      32.771   5.641  16.312  1.00  0.00    -0.392 OA
ATOM     17  H   UNL     1      32.516   4.986  15.612  1.00  0.00     0.211 HD
ENDBRANCH  15  16
ENDBRANCH   9  15
ENDBRANCH   1   2
BRANCH   1  18
ATOM     18  C   UNL     1      30.908   4.977  20.829  1.00  0.00     0.286 C 
ATOM     19  C   UNL     1      31.831   4.064  19.992  1.00  0.00     0.202 C 
ATOM     20  O   UNL     1      30.056   4.209  21.671  1.00  0.00    -0.341 OA
ATOM     21  C   UNL     1      31.000   3.030  19.208  1.00  0.00     0.179 C 
ATOM     22  C   UNL     1      29.191   3.374  20.916  1.00  0.00     0.178 C 
ATOM     23  C   UNL     1      30.002   2.315  20.133  1.00  0.00     0.177 C 
BRANCH  19  24
ATOM     24  O   UNL     1      32.746   3.406  20.830  1.00  0.00    -0.385 OA
ATOM     25  H   UNL     1      33.544   3.196  20.278  1.00  0.00     0.211 HD
ENDBRANCH  19  24
BRANCH  21  26
ATOM     26  O   UNL     1      31.837   2.082  18.595  1.00  0.00    -0.387 OA
ATOM     27  H   UNL     1      31.277   1.574  17.955  1.00  0.00     0.211 HD
ENDBRANCH  21  26
BRANCH  22  28
ATOM     28  C   UNL     1      28.177   2.732  21.870  1.00  0.00     0.191 C 
BRANCH  28  29
ATOM     29  O   UNL     1      28.787   2.432  23.094  1.00  0.00    -0.394 OA
ATOM     30  H   UNL     1      29.007   1.463  23.060  1.00  0.00     0.210 HD
ENDBRANCH  28  29
ENDBRANCH  22  28
BRANCH  23  31
ATOM     31  O   UNL     1      30.698   1.471  21.019  1.00  0.00    -0.387 OA
ATOM     32  H   UNL     1      31.260   2.053  21.596  1.00  0.00     0.211 HD
ENDBRANCH  23  31
ENDBRANCH   1  18
TORSDOF 11
ENDMDL
MODEL 5
REMARK VINA RESULT:    -6.784      2.048      2.510
REMARK INTER + INTRA:         -11.413
REMARK INTER:                 -10.049
REMARK INTRA:                  -1.364
REMARK UNBOUND:                -1.259
REMARK SMILES COC(=O)C1=CO[C@@H](O[C@H]2O[C@H](CO)[C@H](O)[C@H](O)[C@@H]2O)[C@@H]2C(CO)=CC[C@@H]12
REMARK SMILES IDX 9 1 8 2 5 3 6 4 27 5 7 6 21 7 26 8 22 9 25 10 3 11 4 12 2 13
REMARK SMILES IDX 1 14 23 15 24 16 10 18 19 19 11 20 17 21 12 22 15 23 20 24
REMARK SMILES IDX 18 26 13 28 14 29 16 31
REMARK H PARENT 24 17 20 25 18 27 14 30 16 32
REMARK Flexibility Score: inf
ROOT
ATOM      1  O   UNL     1      28.142   0.166  20.018  1.00  0.00    -0.310 OA
ENDROOT
BRANCH   1   2
ATOM      2  C   UNL     1      28.479   1.294  19.232  1.00  0.00     0.316 C 
ATOM      3  C   UNL     1      30.694   2.680  17.904  1.00  0.00     0.076 C 
ATOM      4  C   UNL     1      30.181   1.542  17.383  1.00  0.00     0.202 C 
ATOM      5  C   UNL     1      29.953   3.268  19.079  1.00  0.00     0.047 C 
ATOM      6  O   UNL     1      29.102   0.868  18.004  1.00  0.00    -0.471 OA
ATOM      7  C   UNL     1      29.493   2.145  19.997  1.00  0.00     0.094 C 
ATOM      8  C   UNL     1      30.638   4.229  20.051  1.00  0.00     0.037 C 
ATOM      9  C   UNL     1      29.088   2.897  21.222  1.00  0.00    -0.039 C 
ATOM     10  C   UNL     1      29.819   4.018  21.292  1.00  0.00    -0.024 C 
BRANCH   3  11
ATOM     11  C   UNL     1      31.785   3.400  17.210  1.00  0.00     0.337 C 
ATOM     12  O   UNL     1      32.892   2.828  17.010  1.00  0.00    -0.246 OA
BRANCH  11  13
ATOM     13  O   UNL     1      31.593   4.719  16.786  1.00  0.00    -0.466 OA
ATOM     14  C   UNL     1      32.636   5.685  16.787  1.00  0.00     0.282 C 
ENDBRANCH  11  13
ENDBRANCH   3  11
BRANCH   9  15
ATOM     15  C   UNL     1      28.326   2.302  22.379  1.00  0.00     0.187 C 
BRANCH  15  16
ATOM     16  O   UNL     1      28.827   1.036  22.714  1.00  0.00    -0.392 OA
ATOM     17  H   UNL     1      28.079   0.394  22.612  1.00  0.00     0.211 HD
ENDBRANCH  15  16
ENDBRANCH   9  15
ENDBRANCH   1   2
BRANCH   1  18
ATOM     18  C   UNL     1      26.926  -0.424  19.580  1.00  0.00     0.286 C 
ATOM     19  C   UNL     1      25.781   0.608  19.689  1.00  0.00     0.202 C 
ATOM     20  O   UNL     1      26.619  -1.606  20.310  1.00  0.00    -0.341 OA
ATOM     21  C   UNL     1      25.452   0.893  21.168  1.00  0.00     0.179 C 
ATOM     22  C   UNL     1      26.472  -1.340  21.696  1.00  0.00     0.178 C 
ATOM     23  C   UNL     1      25.256  -0.417  21.947  1.00  0.00     0.177 C 
BRANCH  19  24
ATOM     24  O   UNL     1      24.638   0.131  19.028  1.00  0.00    -0.385 OA
ATOM     25  H   UNL     1      24.908  -0.076  18.095  1.00  0.00     0.211 HD
ENDBRANCH  19  24
BRANCH  21  26
ATOM     26  O   UNL     1      24.294   1.683  21.275  1.00  0.00    -0.387 OA
ATOM     27  H   UNL     1      24.023   1.923  20.352  1.00  0.00     0.211 HD
ENDBRANCH  21  26
BRANCH  22  28
ATOM     28  C   UNL     1      26.342  -2.676  22.439  1.00  0.00     0.191 C 
BRANCH  28  29
ATOM     29  O   UNL     1      25.584  -2.509  23.604  1.00  0.00    -0.394 OA
ATOM     30  H   UNL     1      24.664  -2.282  23.303  1.00  0.00     0.210 HD
ENDBRANCH  28  29
ENDBRANCH  22  28
BRANCH  23  31
ATOM     31  O   UNL     1      24.066  -1.042  21.532  1.00  0.00    -0.387 OA
ATOM     32  H   UNL     1      24.227  -2.022  21.556  1.00  0.00     0.211 HD
ENDBRANCH  23  31
ENDBRANCH   1  18
TORSDOF 11
ENDMDL
MODEL 6
REMARK VINA RESULT:    -6.766      4.471      7.117
REMARK INTER + INTRA:         -11.387
REMARK INTER:                 -10.464
REMARK INTRA:                  -0.923
REMARK UNBOUND:                -1.259
REMARK SMILES COC(=O)C1=CO[C@@H](O[C@H]2O[C@H](CO)[C@H](O)[C@H](O)[C@@H]2O)[C@@H]2C(CO)=CC[C@@H]12
REMARK SMILES IDX 9 1 8 2 5 3 6 4 27 5 7 6 21 7 26 8 22 9 25 10 3 11 4 12 2 13
REMARK SMILES IDX 1 14 23 15 24 16 10 18 19 19 11 20 17 21 12 22 15 23 20 24
REMARK SMILES IDX 18 26 13 28 14 29 16 31
REMARK H PARENT 24 17 20 25 18 27 14 30 16 32
REMARK Flexibility Score: inf
ROOT
ATOM      1  O   UNL     1      30.904   3.806  20.189  1.00  0.00    -0.310 OA
ENDROOT
BRANCH   1   2
ATOM      2  C   UNL     1      31.351   5.147  20.268  1.00  0.00     0.316 C 
ATOM      3  C   UNL     1      30.501   7.943  20.051  1.00  0.00     0.076 C 
ATOM      4  C   UNL     1      30.178   7.207  21.138  1.00  0.00     0.202 C 
ATOM      5  C   UNL     1      31.453   7.304  19.071  1.00  0.00     0.047 C 
ATOM      6  O   UNL     1      30.592   5.859  21.265  1.00  0.00    -0.471 OA
ATOM      7  C   UNL     1      31.106   5.829  18.922  1.00  0.00     0.094 C 
ATOM      8  C   UNL     1      31.535   7.773  17.619  1.00  0.00     0.037 C 
ATOM      9  C   UNL     1      31.902   5.448  17.717  1.00  0.00    -0.039 C 
ATOM     10  C   UNL     1      32.044   6.533  16.942  1.00  0.00    -0.024 C 
BRANCH   3  11
ATOM     11  C   UNL     1      30.106   9.367  19.962  1.00  0.00     0.337 C 
ATOM     12  O   UNL     1      29.396   9.884  20.868  1.00  0.00    -0.246 OA
BRANCH  11  13
ATOM     13  O   UNL     1      30.510  10.137  18.866  1.00  0.00    -0.466 OA
ATOM     14  C   UNL     1      30.122  11.495  18.698  1.00  0.00     0.282 C 
ENDBRANCH  11  13
ENDBRANCH   3  11
BRANCH   9  15
ATOM     15  C   UNL     1      32.124   4.032  17.251  1.00  0.00     0.187 C 
BRANCH  15  16
ATOM     16  O   UNL     1      30.906   3.400  16.965  1.00  0.00    -0.392 OA
ATOM     17  H   UNL     1      30.610   2.955  17.800  1.00  0.00     0.211 HD
ENDBRANCH  15  16
ENDBRANCH   9  15
ENDBRANCH   1   2
BRANCH   1  18
ATOM     18  C   UNL     1      29.487   3.736  20.127  1.00  0.00     0.286 C 
ATOM     19  C   UNL     1      28.925   3.380  21.521  1.00  0.00     0.202 C 
ATOM     20  O   UNL     1      29.046   2.805  19.145  1.00  0.00    -0.341 OA
ATOM     21  C   UNL     1      29.274   1.924  21.887  1.00  0.00     0.179 C 
ATOM     22  C   UNL     1      29.511   1.493  19.424  1.00  0.00     0.178 C 
ATOM     23  C   UNL     1      28.899   0.968  20.744  1.00  0.00     0.177 C 
BRANCH  19  24
ATOM     24  O   UNL     1      27.532   3.557  21.539  1.00  0.00    -0.385 OA
ATOM     25  H   UNL     1      27.365   4.531  21.634  1.00  0.00     0.211 HD
ENDBRANCH  19  24
BRANCH  21  26
ATOM     26  O   UNL     1      28.610   1.536  23.064  1.00  0.00    -0.387 OA
ATOM     27  H   UNL     1      29.198   0.884  23.524  1.00  0.00     0.211 HD
ENDBRANCH  21  26
BRANCH  22  28
ATOM     28  C   UNL     1      29.170   0.590  18.233  1.00  0.00     0.191 C 
BRANCH  28  29
ATOM     29  O   UNL     1      28.999   1.361  17.076  1.00  0.00    -0.394 OA
ATOM     30  H   UNL     1      29.880   1.787  16.898  1.00  0.00     0.210 HD
ENDBRANCH  28  29
ENDBRANCH  22  28
BRANCH  23  31
ATOM     31  O   UNL     1      27.498   0.880  20.639  1.00  0.00    -0.387 OA
ATOM     32  H   UNL     1      27.184   0.307  21.387  1.00  0.00     0.211 HD
ENDBRANCH  23  31
ENDBRANCH   1  18
TORSDOF 11
ENDMDL
MODEL 7
REMARK VINA RESULT:    -6.763      3.393      5.611
REMARK INTER + INTRA:         -11.382
REMARK INTER:                 -10.066
REMARK INTRA:                  -1.317
REMARK UNBOUND:                -1.259
REMARK SMILES COC(=O)C1=CO[C@@H](O[C@H]2O[C@H](CO)[C@H](O)[C@H](O)[C@@H]2O)[C@@H]2C(CO)=CC[C@@H]12
REMARK SMILES IDX 9 1 8 2 5 3 6 4 27 5 7 6 21 7 26 8 22 9 25 10 3 11 4 12 2 13
REMARK SMILES IDX 1 14 23 15 24 16 10 18 19 19 11 20 17 21 12 22 15 23 20 24
REMARK SMILES IDX 18 26 13 28 14 29 16 31
REMARK H PARENT 24 17 20 25 18 27 14 30 16 32
REMARK Flexibility Score: inf
ROOT
ATOM      1  O   UNL     1      28.992   2.656  20.251  1.00  0.00    -0.310 OA
ENDROOT
BRANCH   1   2
ATOM      2  C   UNL     1      30.067   3.567  20.387  1.00  0.00     0.316 C 
ATOM      3  C   UNL     1      30.828   6.387  20.152  1.00  0.00     0.076 C 
ATOM      4  C   UNL     1      30.087   5.958  21.199  1.00  0.00     0.202 C 
ATOM      5  C   UNL     1      31.373   5.319  19.238  1.00  0.00     0.047 C 
ATOM      6  O   UNL     1      29.723   4.596  21.334  1.00  0.00    -0.471 OA
ATOM      7  C   UNL     1      30.317   4.241  19.037  1.00  0.00     0.094 C 
ATOM      8  C   UNL     1      31.796   5.638  17.805  1.00  0.00     0.037 C 
ATOM      9  C   UNL     1      30.882   3.469  17.891  1.00  0.00    -0.039 C 
ATOM     10  C   UNL     1      31.628   4.298  17.148  1.00  0.00    -0.024 C 
BRANCH   3  11
ATOM     11  C   UNL     1      31.245   7.805  20.057  1.00  0.00     0.337 C 
ATOM     12  O   UNL     1      32.451   8.122  20.247  1.00  0.00    -0.246 OA
BRANCH  11  13
ATOM     13  O   UNL     1      30.298   8.793  19.768  1.00  0.00    -0.466 OA
ATOM     14  C   UNL     1      29.678   9.580  20.777  1.00  0.00     0.282 C 
ENDBRANCH  11  13
ENDBRANCH   3  11
BRANCH   9  15
ATOM     15  C   UNL     1      30.363   2.134  17.420  1.00  0.00     0.187 C 
BRANCH  15  16
ATOM     16  O   UNL     1      28.990   2.199  17.141  1.00  0.00    -0.392 OA
ATOM     17  H   UNL     1      28.624   2.953  17.670  1.00  0.00     0.211 HD
ENDBRANCH  15  16
ENDBRANCH   9  15
ENDBRANCH   1   2
BRANCH   1  18
ATOM     18  C   UNL     1      29.020   1.668  21.270  1.00  0.00     0.286 C 
ATOM     19  C   UNL     1      29.338   0.291  20.647  1.00  0.00     0.202 C 
ATOM     20  O   UNL     1      27.800   1.628  22.002  1.00  0.00    -0.341 OA
ATOM     21  C   UNL     1      28.151  -0.202  19.795  1.00  0.00     0.179 C 
ATOM     22  C   UNL     1      26.698   1.322  21.163  1.00  0.00     0.178 C 
ATOM     23  C   UNL     1      26.835  -0.105  20.582  1.00  0.00     0.177 C 
BRANCH  19  24
ATOM     24  O   UNL     1      29.620  -0.643  21.658  1.00  0.00    -0.385 OA
ATOM     25  H   UNL     1      29.639  -0.143  22.516  1.00  0.00     0.211 HD
ENDBRANCH  19  24
BRANCH  21  26
ATOM     26  O   UNL     1      28.356  -1.529  19.380  1.00  0.00    -0.387 OA
ATOM     27  H   UNL     1      27.491  -1.856  19.023  1.00  0.00     0.211 HD
ENDBRANCH  21  26
BRANCH  22  28
ATOM     28  C   UNL     1      25.406   1.492  21.971  1.00  0.00     0.191 C 
BRANCH  28  29
ATOM     29  O   UNL     1      24.502   0.469  21.659  1.00  0.00    -0.394 OA
ATOM     30  H   UNL     1      24.037   0.244  22.509  1.00  0.00     0.210 HD
ENDBRANCH  28  29
ENDBRANCH  22  28
BRANCH  23  31
ATOM     31  O   UNL     1      26.828  -1.062  21.614  1.00  0.00    -0.387 OA
ATOM     32  H   UNL     1      26.247  -0.707  22.338  1.00  0.00     0.211 HD
ENDBRANCH  23  31
ENDBRANCH   1  18
TORSDOF 11
ENDMDL
MODEL 8
REMARK VINA RESULT:    -6.604      2.395      7.128
REMARK INTER + INTRA:         -11.144
REMARK INTER:                  -9.690
REMARK INTRA:                  -1.454
REMARK UNBOUND:                -1.259
REMARK SMILES COC(=O)C1=CO[C@@H](O[C@H]2O[C@H](CO)[C@H](O)[C@H](O)[C@@H]2O)[C@@H]2C(CO)=CC[C@@H]12
REMARK SMILES IDX 9 1 8 2 5 3 6 4 27 5 7 6 21 7 26 8 22 9 25 10 3 11 4 12 2 13
REMARK SMILES IDX 1 14 23 15 24 16 10 18 19 19 11 20 17 21 12 22 15 23 20 24
REMARK SMILES IDX 18 26 13 28 14 29 16 31
REMARK H PARENT 24 17 20 25 18 27 14 30 16 32
REMARK Flexibility Score: inf
ROOT
ATOM      1  O   UNL     1      28.991   1.227  20.181  1.00  0.00    -0.310 OA
ENDROOT
BRANCH   1   2
ATOM      2  C   UNL     1      27.762   0.527  20.243  1.00  0.00     0.316 C 
ATOM      3  C   UNL     1      25.860  -0.765  22.061  1.00  0.00     0.076 C 
ATOM      4  C   UNL     1      25.940   0.583  21.990  1.00  0.00     0.202 C 
ATOM      5  C   UNL     1      26.662  -1.534  21.041  1.00  0.00     0.047 C 
ATOM      6  O   UNL     1      26.843   1.223  21.108  1.00  0.00    -0.471 OA
ATOM      7  C   UNL     1      28.011  -0.856  20.845  1.00  0.00     0.094 C 
ATOM      8  C   UNL     1      27.057  -2.992  21.274  1.00  0.00     0.037 C 
ATOM      9  C   UNL     1      28.769  -1.894  20.086  1.00  0.00    -0.039 C 
ATOM     10  C   UNL     1      28.288  -3.100  20.420  1.00  0.00    -0.024 C 
BRANCH   3  11
ATOM     11  C   UNL     1      24.871  -1.415  22.949  1.00  0.00     0.337 C 
ATOM     12  O   UNL     1      23.650  -1.430  22.632  1.00  0.00    -0.246 OA
BRANCH  11  13
ATOM     13  O   UNL     1      25.289  -2.004  24.147  1.00  0.00    -0.466 OA
ATOM     14  C   UNL     1      26.234  -1.390  25.015  1.00  0.00     0.282 C 
ENDBRANCH  11  13
ENDBRANCH   3  11
BRANCH   9  15
ATOM     15  C   UNL     1      30.099  -1.663  19.414  1.00  0.00     0.187 C 
BRANCH  15  16
ATOM     16  O   UNL     1      30.975  -0.969  20.260  1.00  0.00    -0.392 OA
ATOM     17  H   UNL     1      30.415  -0.479  20.915  1.00  0.00     0.211 HD
ENDBRANCH  15  16
ENDBRANCH   9  15
ENDBRANCH   1   2
BRANCH   1  18
ATOM     18  C   UNL     1      28.875   2.406  19.396  1.00  0.00     0.286 C 
ATOM     19  C   UNL     1      28.915   2.035  17.897  1.00  0.00     0.202 C 
ATOM     20  O   UNL     1      29.885   3.355  19.715  1.00  0.00    -0.341 OA
ATOM     21  C   UNL     1      30.325   1.555  17.498  1.00  0.00     0.179 C 
ATOM     22  C   UNL     1      31.184   2.832  19.483  1.00  0.00     0.178 C 
ATOM     23  C   UNL     1      31.396   2.548  17.977  1.00  0.00     0.177 C 
BRANCH  19  24
ATOM     24  O   UNL     1      28.548   3.143  17.116  1.00  0.00    -0.385 OA
ATOM     25  H   UNL     1      29.389   3.554  16.784  1.00  0.00     0.211 HD
ENDBRANCH  19  24
BRANCH  21  26
ATOM     26  O   UNL     1      30.418   1.396  16.105  1.00  0.00    -0.387 OA
ATOM     27  H   UNL     1      30.097   0.481  15.897  1.00  0.00     0.211 HD
ENDBRANCH  21  26
BRANCH  22  28
ATOM     28  C   UNL     1      32.216   3.825  20.031  1.00  0.00     0.191 C 
BRANCH  28  29
ATOM     29  O   UNL     1      31.789   5.139  19.807  1.00  0.00    -0.394 OA
ATOM     30  H   UNL     1      32.223   5.428  18.960  1.00  0.00     0.210 HD
ENDBRANCH  28  29
ENDBRANCH  22  28
BRANCH  23  31
ATOM     31  O   UNL     1      31.306   3.738  17.232  1.00  0.00    -0.387 OA
ATOM     32  H   UNL     1      30.811   4.395  17.789  1.00  0.00     0.211 HD
ENDBRANCH  23  31
ENDBRANCH   1  18
TORSDOF 11
ENDMDL
MODEL 9
REMARK VINA RESULT:    -6.533      2.433      4.142
REMARK INTER + INTRA:         -11.037
REMARK INTER:                  -9.725
REMARK INTRA:                  -1.313
REMARK UNBOUND:                -1.259
REMARK SMILES COC(=O)C1=CO[C@@H](O[C@H]2O[C@H](CO)[C@H](O)[C@H](O)[C@@H]2O)[C@@H]2C(CO)=CC[C@@H]12
REMARK SMILES IDX 9 1 8 2 5 3 6 4 27 5 7 6 21 7 26 8 22 9 25 10 3 11 4 12 2 13
REMARK SMILES IDX 1 14 23 15 24 16 10 18 19 19 11 20 17 21 12 22 15 23 20 24
REMARK SMILES IDX 18 26 13 28 14 29 16 31
REMARK H PARENT 24 17 20 25 18 27 14 30 16 32
REMARK Flexibility Score: inf
ROOT
ATOM      1  O   UNL     1      28.619   1.749  20.265  1.00  0.00    -0.310 OA
ENDROOT
BRANCH   1   2
ATOM      2  C   UNL     1      29.982   1.998  19.975  1.00  0.00     0.316 C 
ATOM      3  C   UNL     1      31.798   3.573  18.299  1.00  0.00     0.076 C 
ATOM      4  C   UNL     1      31.147   4.145  19.337  1.00  0.00     0.202 C 
ATOM      5  C   UNL     1      31.672   2.075  18.177  1.00  0.00     0.047 C 
ATOM      6  O   UNL     1      30.277   3.396  20.164  1.00  0.00    -0.471 OA
ATOM      7  C   UNL     1      30.244   1.662  18.506  1.00  0.00     0.094 C 
ATOM      8  C   UNL     1      31.924   1.361  16.849  1.00  0.00     0.037 C 
ATOM      9  C   UNL     1      30.217   0.247  18.031  1.00  0.00    -0.039 C 
ATOM     10  C   UNL     1      31.095   0.121  17.025  1.00  0.00    -0.024 C 
BRANCH   3  11
ATOM     11  C   UNL     1      32.746   4.361  17.479  1.00  0.00     0.337 C 
ATOM     12  O   UNL     1      33.989   4.217  17.636  1.00  0.00    -0.246 OA
BRANCH  11  13
ATOM     13  O   UNL     1      32.262   5.274  16.536  1.00  0.00    -0.466 OA
ATOM     14  C   UNL     1      32.902   6.516  16.272  1.00  0.00     0.282 C 
ENDBRANCH  11  13
ENDBRANCH   3  11
BRANCH   9  15
ATOM     15  C   UNL     1      29.112  -0.735  18.325  1.00  0.00     0.187 C 
BRANCH  15  16
ATOM     16  O   UNL     1      27.857  -0.114  18.254  1.00  0.00    -0.392 OA
ATOM     17  H   UNL     1      27.180  -0.806  18.468  1.00  0.00     0.211 HD
ENDBRANCH  15  16
ENDBRANCH   9  15
ENDBRANCH   1   2
BRANCH   1  18
ATOM     18  C   UNL     1      28.386   1.718  21.665  1.00  0.00     0.286 C 
ATOM     19  C   UNL     1      28.298   0.252  22.144  1.00  0.00     0.202 C 
ATOM     20  O   UNL     1      27.215   2.444  22.023  1.00  0.00    -0.341 OA
ATOM     21  C   UNL     1      27.008  -0.410  21.618  1.00  0.00     0.179 C 
ATOM     22  C   UNL     1      26.058   1.905  21.401  1.00  0.00     0.178 C 
ATOM     23  C   UNL     1      25.783   0.471  21.912  1.00  0.00     0.177 C 
BRANCH  19  24
ATOM     24  O   UNL     1      28.324   0.200  23.547  1.00  0.00    -0.385 OA
ATOM     25  H   UNL     1      27.388   0.317  23.858  1.00  0.00     0.211 HD
ENDBRANCH  19  24
BRANCH  21  26
ATOM     26  O   UNL     1      26.828  -1.676  22.200  1.00  0.00    -0.387 OA
ATOM     27  H   UNL     1      25.923  -1.986  21.939  1.00  0.00     0.211 HD
ENDBRANCH  21  26
BRANCH  22  28
ATOM     28  C   UNL     1      24.878   2.847  21.668  1.00  0.00     0.191 C 
BRANCH  28  29
ATOM     29  O   UNL     1      23.751   2.111  22.056  1.00  0.00    -0.394 OA
ATOM     30  H   UNL     1      23.026   2.367  21.425  1.00  0.00     0.210 HD
ENDBRANCH  28  29
ENDBRANCH  22  28
BRANCH  23  31
ATOM     31  O   UNL     1      25.525   0.480  23.295  1.00  0.00    -0.387 OA
ATOM     32  H   UNL     1      24.977   1.286  23.486  1.00  0.00     0.211 HD
ENDBRANCH  23  31
ENDBRANCH   1  18
TORSDOF 11
ENDMDL
