MODEL 1
REMARK VINA RESULT:    -3.691      0.000      0.000
REMARK INTER + INTRA:          -6.812
REMARK INTER:                  -5.633
REMARK INTRA:                  -1.179
REMARK UNBOUND:                -1.179
REMARK SMILES CCCCCCCCCC=CC(=O)[O-]
REMARK SMILES IDX 7 1 8 2 9 3 10 4 11 5 12 6 13 7 14 8 6 9 5 10 4 11 3 12 2 13
REMARK SMILES IDX 1 14
REMARK H PARENT
REMARK Flexibility Score: inf
ROOT
ATOM      1  C   UNL     1      16.880   7.350   2.531  1.00  0.00     0.000 C 
ENDROOT
BRANCH   1   2
ATOM      2  C   UNL     1      16.488   8.736   1.991  1.00  0.00     0.004 C 
BRANCH   2   3
ATOM      3  C   UNL     1      17.700   9.666   1.856  1.00  0.00     0.027 C 
BRANCH   3   4
ATOM      4  C   UNL     1      17.509  10.940   2.630  1.00  0.00    -0.025 C 
ATOM      5  C   UNL     1      18.091  11.135   3.817  1.00  0.00     0.020 C 
BRANCH   5   6
ATOM      6  C   UNL     1      17.931  12.388   4.568  1.00  0.00     0.064 C 
ATOM      7  O   UNL     1      18.902  13.183   4.667  1.00  0.00    -0.545 OA
ATOM      8  O   UNL     1      16.720  12.713   5.172  1.00  0.00    -0.545 OA
ENDBRANCH   5   6
ENDBRANCH   3   4
ENDBRANCH   2   3
ENDBRANCH   1   2
BRANCH   1   9
ATOM      9  C   UNL     1      18.401   7.111   2.527  1.00  0.00     0.000 C 
BRANCH   9  10
ATOM     10  C   UNL     1      18.897   6.037   1.539  1.00  0.00     0.000 C 
BRANCH  10  11
ATOM     11  C   UNL     1      17.752   5.349   0.776  1.00  0.00    -0.000 C 
BRANCH  11  12
ATOM     12  C   UNL     1      17.823   5.579  -0.744  1.00  0.00    -0.000 C 
BRANCH  12  13
ATOM     13  C   UNL     1      17.078   6.827  -1.251  1.00  0.00    -0.003 C 
ATOM     14  C   UNL     1      18.004   8.016  -1.504  1.00  0.00     0.004 C 
ENDBRANCH  12  13
ENDBRANCH  11  12
ENDBRANCH  10  11
ENDBRANCH   9  10
ENDBRANCH   1   9
TORSDOF 9
ENDMDL
MODEL 2
REMARK VINA RESULT:    -3.686      3.566      6.418
REMARK INTER + INTRA:          -6.804
REMARK INTER:                  -5.773
REMARK INTRA:                  -1.031
REMARK UNBOUND:                -1.179
REMARK SMILES CCCCCCCCCC=CC(=O)[O-]
REMARK SMILES IDX 7 1 8 2 9 3 10 4 11 5 12 6 13 7 14 8 6 9 5 10 4 11 3 12 2 13
REMARK SMILES IDX 1 14
REMARK H PARENT
REMARK Flexibility Score: inf
ROOT
ATOM      1  C   UNL     1      16.451  11.393   4.164  1.00  0.00     0.000 C 
ENDROOT
BRANCH   1   2
ATOM      2  C   UNL     1      16.338  10.360   3.029  1.00  0.00     0.004 C 
BRANCH   2   3
ATOM      3  C   UNL     1      17.713   9.917   2.513  1.00  0.00     0.027 C 
BRANCH   3   4
ATOM      4  C   UNL     1      17.633   8.607   1.780  1.00  0.00    -0.025 C 
ATOM      5  C   UNL     1      18.094   7.473   2.315  1.00  0.00     0.020 C 
BRANCH   5   6
ATOM      6  C   UNL     1      17.996   6.184   1.617  1.00  0.00     0.064 C 
ATOM      7  O   UNL     1      16.863   5.684   1.392  1.00  0.00    -0.545 OA
ATOM      8  O   UNL     1      19.136   5.507   1.197  1.00  0.00    -0.545 OA
ENDBRANCH   5   6
ENDBRANCH   3   4
ENDBRANCH   2   3
ENDBRANCH   1   2
BRANCH   1   9
ATOM      9  C   UNL     1      17.894  11.576   4.669  1.00  0.00     0.000 C 
BRANCH   9  10
ATOM     10  C   UNL     1      18.493  12.981   4.459  1.00  0.00     0.000 C 
BRANCH  10  11
ATOM     11  C   UNL     1      18.908  13.244   3.002  1.00  0.00    -0.000 C 
BRANCH  11  12
ATOM     12  C   UNL     1      18.215  14.478   2.396  1.00  0.00    -0.000 C 
BRANCH  12  13
ATOM     13  C   UNL     1      16.762  14.254   1.943  1.00  0.00    -0.003 C 
ATOM     14  C   UNL     1      16.638  13.248   0.799  1.00  0.00     0.004 C 
ENDBRANCH  12  13
ENDBRANCH  11  12
ENDBRANCH  10  11
ENDBRANCH   9  10
ENDBRANCH   1   9
TORSDOF 9
ENDMDL
MODEL 3
REMARK VINA RESULT:    -3.636      3.720      6.612
REMARK INTER + INTRA:          -6.727
REMARK INTER:                  -5.962
REMARK INTRA:                  -0.765
REMARK UNBOUND:                -1.179
REMARK SMILES CCCCCCCCCC=CC(=O)[O-]
REMARK SMILES IDX 7 1 8 2 9 3 10 4 11 5 12 6 13 7 14 8 6 9 5 10 4 11 3 12 2 13
REMARK SMILES IDX 1 14
REMARK H PARENT
REMARK Flexibility Score: inf
ROOT
ATOM      1  C   UNL     1      17.643  10.898   0.679  1.00  0.00     0.000 C 
ENDROOT
BRANCH   1   2
ATOM      2  C   UNL     1      16.769  10.064  -0.274  1.00  0.00     0.004 C 
BRANCH   2   3
ATOM      3  C   UNL     1      17.541   9.613  -1.519  1.00  0.00     0.027 C 
BRANCH   3   4
ATOM      4  C   UNL     1      17.866   8.145  -1.467  1.00  0.00    -0.025 C 
ATOM      5  C   UNL     1      17.852   7.464  -0.318  1.00  0.00     0.020 C 
BRANCH   5   6
ATOM      6  C   UNL     1      18.143   6.024  -0.262  1.00  0.00     0.064 C 
ATOM      7  O   UNL     1      17.607   5.248  -1.096  1.00  0.00    -0.545 OA
ATOM      8  O   UNL     1      19.002   5.503   0.700  1.00  0.00    -0.545 OA
ENDBRANCH   5   6
ENDBRANCH   3   4
ENDBRANCH   2   3
ENDBRANCH   1   2
BRANCH   1   9
ATOM      9  C   UNL     1      17.764  10.277   2.083  1.00  0.00     0.000 C 
BRANCH   9  10
ATOM     10  C   UNL     1      16.536  10.463   2.994  1.00  0.00     0.000 C 
BRANCH  10  11
ATOM     11  C   UNL     1      16.779  11.472   4.130  1.00  0.00    -0.000 C 
BRANCH  11  12
ATOM     12  C   UNL     1      18.268  11.624   4.487  1.00  0.00    -0.000 C 
BRANCH  12  13
ATOM     13  C   UNL     1      18.810  13.064   4.431  1.00  0.00    -0.003 C 
ATOM     14  C   UNL     1      18.259  13.866   3.253  1.00  0.00     0.004 C 
ENDBRANCH  12  13
ENDBRANCH  11  12
ENDBRANCH  10  11
ENDBRANCH   9  10
ENDBRANCH   1   9
TORSDOF 9
ENDMDL
MODEL 4
REMARK VINA RESULT:    -3.635      3.882      6.673
REMARK INTER + INTRA:          -6.727
REMARK INTER:                  -5.858
REMARK INTRA:                  -0.869
REMARK UNBOUND:                -1.179
REMARK SMILES CCCCCCCCCC=CC(=O)[O-]
REMARK SMILES IDX 7 1 8 2 9 3 10 4 11 5 12 6 13 7 14 8 6 9 5 10 4 11 3 12 2 13
REMARK SMILES IDX 1 14
REMARK H PARENT
REMARK Flexibility Score: inf
ROOT
ATOM      1  C   UNL     1      16.345  10.493   3.025  1.00  0.00     0.000 C 
ENDROOT
BRANCH   1   2
ATOM      2  C   UNL     1      17.645  10.025   2.348  1.00  0.00     0.004 C 
BRANCH   2   3
ATOM      3  C   UNL     1      17.373   9.203   1.082  1.00  0.00     0.027 C 
BRANCH   3   4
ATOM      4  C   UNL     1      17.753   7.760   1.267  1.00  0.00    -0.025 C 
ATOM      5  C   UNL     1      17.904   6.935   0.227  1.00  0.00     0.020 C 
BRANCH   5   6
ATOM      6  C   UNL     1      18.302   5.530   0.398  1.00  0.00     0.064 C 
ATOM      7  O   UNL     1      18.903   5.177   1.446  1.00  0.00    -0.545 OA
ATOM      8  O   UNL     1      18.022   4.582  -0.581  1.00  0.00    -0.545 OA
ENDBRANCH   5   6
ENDBRANCH   3   4
ENDBRANCH   2   3
ENDBRANCH   1   2
BRANCH   1   9
ATOM      9  C   UNL     1      16.592  11.438   4.215  1.00  0.00     0.000 C 
BRANCH   9  10
ATOM     10  C   UNL     1      18.072  11.665   4.580  1.00  0.00     0.000 C 
BRANCH  10  11
ATOM     11  C   UNL     1      18.509  13.132   4.428  1.00  0.00    -0.000 C 
BRANCH  11  12
ATOM     12  C   UNL     1      18.863  13.504   2.977  1.00  0.00    -0.000 C 
BRANCH  12  13
ATOM     13  C   UNL     1      17.800  14.337   2.239  1.00  0.00    -0.003 C 
ATOM     14  C   UNL     1      17.030  13.534   1.191  1.00  0.00     0.004 C 
ENDBRANCH  12  13
ENDBRANCH  11  12
ENDBRANCH  10  11
ENDBRANCH   9  10
ENDBRANCH   1   9
TORSDOF 9
ENDMDL
MODEL 5
REMARK VINA RESULT:    -3.617      3.354      6.139
REMARK INTER + INTRA:          -6.699
REMARK INTER:                  -5.813
REMARK INTRA:                  -0.886
REMARK UNBOUND:                -1.179
REMARK SMILES CCCCCCCCCC=CC(=O)[O-]
REMARK SMILES IDX 7 1 8 2 9 3 10 4 11 5 12 6 13 7 14 8 6 9 5 10 4 11 3 12 2 13
REMARK SMILES IDX 1 14
REMARK H PARENT
REMARK Flexibility Score: inf
ROOT
ATOM      1  C   UNL     1      16.667  10.332  -1.222  1.00  0.00     0.000 C 
ENDROOT
BRANCH   1   2
ATOM      2  C   UNL     1      17.778   9.340  -1.608  1.00  0.00     0.004 C 
BRANCH   2   3
ATOM      3  C   UNL     1      17.282   7.889  -1.609  1.00  0.00     0.027 C 
BRANCH   3   4
ATOM      4  C   UNL     1      18.110   7.021  -0.703  1.00  0.00    -0.025 C 
ATOM      5  C   UNL     1      17.815   6.873   0.591  1.00  0.00     0.020 C 
BRANCH   5   6
ATOM      6  C   UNL     1      18.604   6.005   1.477  1.00  0.00     0.064 C 
ATOM      7  O   UNL     1      19.278   6.516   2.409  1.00  0.00    -0.545 OA
ATOM      8  O   UNL     1      18.616   4.625   1.304  1.00  0.00    -0.545 OA
ENDBRANCH   5   6
ENDBRANCH   3   4
ENDBRANCH   2   3
ENDBRANCH   1   2
BRANCH   1   9
ATOM      9  C   UNL     1      16.445  10.424   0.300  1.00  0.00     0.000 C 
BRANCH   9  10
ATOM     10  C   UNL     1      17.692  10.794   1.126  1.00  0.00     0.000 C 
BRANCH  10  11
ATOM     11  C   UNL     1      17.769  10.040   2.465  1.00  0.00    -0.000 C 
BRANCH  11  12
ATOM     12  C   UNL     1      18.241  10.932   3.627  1.00  0.00    -0.000 C 
BRANCH  12  13
ATOM     13  C   UNL     1      18.507  12.401   3.257  1.00  0.00    -0.003 C 
ATOM     14  C   UNL     1      18.588  13.322   4.474  1.00  0.00     0.004 C 
ENDBRANCH  12  13
ENDBRANCH  11  12
ENDBRANCH  10  11
ENDBRANCH   9  10
ENDBRANCH   1   9
TORSDOF 9
ENDMDL
MODEL 6
REMARK VINA RESULT:    -3.590      3.767      6.865
REMARK INTER + INTRA:          -6.658
REMARK INTER:                  -5.696
REMARK INTRA:                  -0.963
REMARK UNBOUND:                -1.179
REMARK SMILES CCCCCCCCCC=CC(=O)[O-]
REMARK SMILES IDX 7 1 8 2 9 3 10 4 11 5 12 6 13 7 14 8 6 9 5 10 4 11 3 12 2 13
REMARK SMILES IDX 1 14
REMARK H PARENT
REMARK Flexibility Score: inf
ROOT
ATOM      1  C   UNL     1      17.799  11.337   1.126  1.00  0.00     0.000 C 
ENDROOT
BRANCH   1   2
ATOM      2  C   UNL     1      16.961  10.091   1.457  1.00  0.00     0.004 C 
BRANCH   2   3
ATOM      3  C   UNL     1      17.730   9.093   2.332  1.00  0.00     0.027 C 
BRANCH   3   4
ATOM      4  C   UNL     1      17.503   7.676   1.885  1.00  0.00    -0.025 C 
ATOM      5  C   UNL     1      18.161   7.153   0.846  1.00  0.00     0.020 C 
BRANCH   5   6
ATOM      6  C   UNL     1      17.965   5.759   0.420  1.00  0.00     0.064 C 
ATOM      7  O   UNL     1      17.943   4.843   1.282  1.00  0.00    -0.545 OA
ATOM      8  O   UNL     1      17.801   5.437  -0.923  1.00  0.00    -0.545 OA
ENDBRANCH   5   6
ENDBRANCH   3   4
ENDBRANCH   2   3
ENDBRANCH   1   2
BRANCH   1   9
ATOM      9  C   UNL     1      16.998  12.648   1.237  1.00  0.00     0.000 C 
BRANCH   9  10
ATOM     10  C   UNL     1      17.605  13.714   2.169  1.00  0.00     0.000 C 
BRANCH  10  11
ATOM     11  C   UNL     1      18.792  13.186   2.992  1.00  0.00    -0.000 C 
BRANCH  11  12
ATOM     12  C   UNL     1      18.441  12.967   4.475  1.00  0.00    -0.000 C 
BRANCH  12  13
ATOM     13  C   UNL     1      17.645  11.685   4.776  1.00  0.00    -0.003 C 
ATOM     14  C   UNL     1      16.183  11.957   5.129  1.00  0.00     0.004 C 
ENDBRANCH  12  13
ENDBRANCH  11  12
ENDBRANCH  10  11
ENDBRANCH   9  10
ENDBRANCH   1   9
TORSDOF 9
ENDMDL
MODEL 7
REMARK VINA RESULT:    -3.484      3.866      6.353
REMARK INTER + INTRA:          -6.496
REMARK INTER:                  -5.239
REMARK INTRA:                  -1.258
REMARK UNBOUND:                -1.179
REMARK SMILES CCCCCCCCCC=CC(=O)[O-]
REMARK SMILES IDX 7 1 8 2 9 3 10 4 11 5 12 6 13 7 14 8 6 9 5 10 4 11 3 12 2 13
REMARK SMILES IDX 1 14
REMARK H PARENT
REMARK Flexibility Score: inf
ROOT
ATOM      1  C   UNL     1      16.358  11.278   4.162  1.00  0.00     0.000 C 
ENDROOT
BRANCH   1   2
ATOM      2  C   UNL     1      16.194  10.544   2.820  1.00  0.00     0.004 C 
BRANCH   2   3
ATOM      3  C   UNL     1      17.527   9.996   2.296  1.00  0.00     0.027 C 
BRANCH   3   4
ATOM      4  C   UNL     1      17.381   9.412   0.918  1.00  0.00    -0.025 C 
ATOM      5  C   UNL     1      17.315  10.185  -0.170  1.00  0.00     0.020 C 
BRANCH   5   6
ATOM      6  C   UNL     1      17.199   9.621  -1.522  1.00  0.00     0.064 C 
ATOM      7  O   UNL     1      17.883   8.611  -1.835  1.00  0.00    -0.545 OA
ATOM      8  O   UNL     1      16.344  10.185  -2.463  1.00  0.00    -0.545 OA
ENDBRANCH   5   6
ENDBRANCH   3   4
ENDBRANCH   2   3
ENDBRANCH   1   2
BRANCH   1   9
ATOM      9  C   UNL     1      17.831  11.532   4.533  1.00  0.00     0.000 C 
BRANCH   9  10
ATOM     10  C   UNL     1      18.289  13.001   4.444  1.00  0.00     0.000 C 
BRANCH  10  11
ATOM     11  C   UNL     1      18.984  13.334   3.114  1.00  0.00    -0.000 C 
BRANCH  11  12
ATOM     12  C   UNL     1      18.276  14.456   2.332  1.00  0.00    -0.000 C 
BRANCH  12  13
ATOM     13  C   UNL     1      16.775  14.230   2.082  1.00  0.00    -0.003 C 
ATOM     14  C   UNL     1      16.479  13.646   0.701  1.00  0.00     0.004 C 
ENDBRANCH  12  13
ENDBRANCH  11  12
ENDBRANCH  10  11
ENDBRANCH   9  10
ENDBRANCH   1   9
TORSDOF 9
ENDMDL
MODEL 8
REMARK VINA RESULT:    -3.471      1.397      2.678
REMARK INTER + INTRA:          -6.477
REMARK INTER:                  -5.511
REMARK INTRA:                  -0.966
REMARK UNBOUND:                -1.179
REMARK SMILES CCCCCCCCCC=CC(=O)[O-]
REMARK SMILES IDX 7 1 8 2 9 3 10 4 11 5 12 6 13 7 14 8 6 9 5 10 4 11 3 12 2 13
REMARK SMILES IDX 1 14
REMARK H PARENT
REMARK Flexibility Score: inf
ROOT
ATOM      1  C   UNL     1      16.060   9.028  -0.644  1.00  0.00     0.000 C 
ENDROOT
BRANCH   1   2
ATOM      2  C   UNL     1      16.025  10.284   0.243  1.00  0.00     0.004 C 
BRANCH   2   3
ATOM      3  C   UNL     1      17.413  10.916   0.405  1.00  0.00     0.027 C 
BRANCH   3   4
ATOM      4  C   UNL     1      17.812  11.011   1.851  1.00  0.00    -0.025 C 
ATOM      5  C   UNL     1      18.130  12.178   2.417  1.00  0.00     0.020 C 
BRANCH   5   6
ATOM      6  C   UNL     1      18.496  12.283   3.837  1.00  0.00     0.064 C 
ATOM      7  O   UNL     1      18.805  13.405   4.318  1.00  0.00    -0.545 OA
ATOM      8  O   UNL     1      18.505  11.162   4.660  1.00  0.00    -0.545 OA
ENDBRANCH   5   6
ENDBRANCH   3   4
ENDBRANCH   2   3
ENDBRANCH   1   2
BRANCH   1   9
ATOM      9  C   UNL     1      17.350   8.918  -1.479  1.00  0.00     0.000 C 
BRANCH   9  10
ATOM     10  C   UNL     1      18.105   7.580  -1.353  1.00  0.00     0.000 C 
BRANCH  10  11
ATOM     11  C   UNL     1      17.567   6.693  -0.217  1.00  0.00    -0.000 C 
BRANCH  11  12
ATOM     12  C   UNL     1      18.676   5.899   0.497  1.00  0.00    -0.000 C 
BRANCH  12  13
ATOM     13  C   UNL     1      18.853   6.224   1.991  1.00  0.00    -0.003 C 
ATOM     14  C   UNL     1      18.092   7.475   2.427  1.00  0.00     0.004 C 
ENDBRANCH  12  13
ENDBRANCH  11  12
ENDBRANCH  10  11
ENDBRANCH   9  10
ENDBRANCH   1   9
TORSDOF 9
ENDMDL
MODEL 9
REMARK VINA RESULT:    -3.425      1.100      2.364
REMARK INTER + INTRA:          -6.406
REMARK INTER:                  -5.320
REMARK INTRA:                  -1.086
REMARK UNBOUND:                -1.179
REMARK SMILES CCCCCCCCCC=CC(=O)[O-]
REMARK SMILES IDX 7 1 8 2 9 3 10 4 11 5 12 6 13 7 14 8 6 9 5 10 4 11 3 12 2 13
REMARK SMILES IDX 1 14
REMARK H PARENT
REMARK Flexibility Score: inf
ROOT
ATOM      1  C   UNL     1      16.157   8.787   0.640  1.00  0.00     0.000 C 
ENDROOT
BRANCH   1   2
ATOM      2  C   UNL     1      16.330   9.219   2.107  1.00  0.00     0.004 C 
BRANCH   2   3
ATOM      3  C   UNL     1      17.784   9.585   2.432  1.00  0.00     0.027 C 
BRANCH   3   4
ATOM      4  C   UNL     1      17.874  10.897   3.159  1.00  0.00    -0.025 C 
ATOM      5  C   UNL     1      18.482  11.958   2.621  1.00  0.00     0.020 C 
BRANCH   5   6
ATOM      6  C   UNL     1      18.551  13.253   3.315  1.00  0.00     0.064 C 
ATOM      7  O   UNL     1      18.630  14.315   2.643  1.00  0.00    -0.545 OA
ATOM      8  O   UNL     1      18.528  13.324   4.703  1.00  0.00    -0.545 OA
ENDBRANCH   5   6
ENDBRANCH   3   4
ENDBRANCH   2   3
ENDBRANCH   1   2
BRANCH   1   9
ATOM      9  C   UNL     1      17.382   9.116  -0.233  1.00  0.00     0.000 C 
BRANCH   9  10
ATOM     10  C   UNL     1      17.600   8.184  -1.441  1.00  0.00     0.000 C 
BRANCH  10  11
ATOM     11  C   UNL     1      17.044   6.768  -1.214  1.00  0.00    -0.000 C 
BRANCH  11  12
ATOM     12  C   UNL     1      18.080   5.810  -0.599  1.00  0.00    -0.000 C 
BRANCH  12  13
ATOM     13  C   UNL     1      17.847   5.459   0.882  1.00  0.00    -0.003 C 
ATOM     14  C   UNL     1      18.842   6.137   1.822  1.00  0.00     0.004 C 
ENDBRANCH  12  13
ENDBRANCH  11  12
ENDBRANCH  10  11
ENDBRANCH   9  10
ENDBRANCH   1   9
TORSDOF 9
ENDMDL
