MODEL 1
REMARK VINA RESULT:    -5.219      0.000      0.000
REMARK INTER + INTRA:         -10.510
REMARK INTER:                  -8.880
REMARK INTRA:                  -1.631
REMARK UNBOUND:                -1.631
REMARK SMILES CCCCCCCCCCCCCC(=O)[O-]
REMARK SMILES IDX 8 1 9 2 10 3 11 4 12 5 13 6 14 7 15 8 16 9 7 10 6 11 5 12
REMARK SMILES IDX 4 13 3 14 2 15 1 16
REMARK H PARENT
REMARK Flexibility Score: inf
ROOT
ATOM      1  C   UNL     1      86.955 326.502 194.243  1.00  0.00     0.000 C 
ENDROOT
BRANCH   1   2
ATOM      2  C   UNL     1      85.984 325.543 193.539  1.00  0.00     0.000 C 
BRANCH   2   3
ATOM      3  C   UNL     1      86.748 324.511 192.697  1.00  0.00     0.000 C 
BRANCH   3   4
ATOM      4  C   UNL     1      88.122 325.020 192.226  1.00  0.00     0.000 C 
BRANCH   4   5
ATOM      5  C   UNL     1      88.689 324.320 190.976  1.00  0.00     0.006 C 
BRANCH   5   6
ATOM      6  C   UNL     1      87.708 323.340 190.306  1.00  0.00     0.053 C 
BRANCH   6   7
ATOM      7  C   UNL     1      88.141 322.951 188.925  1.00  0.00     0.041 C 
ATOM      8  O   UNL     1      87.315 322.446 188.120  1.00  0.00    -0.550 OA
ATOM      9  O   UNL     1      89.446 323.184 188.511  1.00  0.00    -0.550 OA
ENDBRANCH   6   7
ENDBRANCH   5   6
ENDBRANCH   4   5
ENDBRANCH   3   4
ENDBRANCH   2   3
ENDBRANCH   1   2
BRANCH   1  10
ATOM     10  C   UNL     1      86.653 326.657 195.742  1.00  0.00     0.000 C 
BRANCH  10  11
ATOM     11  C   UNL     1      87.908 326.507 196.616  1.00  0.00    -0.000 C 
BRANCH  11  12
ATOM     12  C   UNL     1      88.823 325.400 196.075  1.00  0.00    -0.000 C 
BRANCH  12  13
ATOM     13  C   UNL     1      88.511 324.053 196.745  1.00  0.00    -0.000 C 
BRANCH  13  14
ATOM     14  C   UNL     1      88.177 322.949 195.728  1.00  0.00    -0.000 C 
BRANCH  14  15
ATOM     15  C   UNL     1      89.433 322.296 195.132  1.00  0.00    -0.003 C 
ATOM     16  C   UNL     1      89.170 321.791 193.716  1.00  0.00     0.004 C 
ENDBRANCH  14  15
ENDBRANCH  13  14
ENDBRANCH  12  13
ENDBRANCH  11  12
ENDBRANCH  10  11
ENDBRANCH   1  10
TORSDOF 12
ENDMDL
MODEL 2
REMARK VINA RESULT:    -5.217     18.920     21.442
REMARK INTER + INTRA:         -10.508
REMARK INTER:                  -9.885
REMARK INTRA:                  -0.623
REMARK UNBOUND:                -1.631
REMARK SMILES CCCCCCCCCCCCCC(=O)[O-]
REMARK SMILES IDX 8 1 9 2 10 3 11 4 12 5 13 6 14 7 15 8 16 9 7 10 6 11 5 12
REMARK SMILES IDX 4 13 3 14 2 15 1 16
REMARK H PARENT
REMARK Flexibility Score: inf
ROOT
ATOM      1  C   UNL     1     105.999 311.919 193.550  1.00  0.00     0.000 C 
ENDROOT
BRANCH   1   2
ATOM      2  C   UNL     1     105.970 311.756 195.077  1.00  0.00     0.000 C 
BRANCH   2   3
ATOM      3  C   UNL     1     104.644 312.271 195.656  1.00  0.00     0.000 C 
BRANCH   3   4
ATOM      4  C   UNL     1     104.191 311.491 196.902  1.00  0.00     0.000 C 
BRANCH   4   5
ATOM      5  C   UNL     1     103.937 312.348 198.157  1.00  0.00     0.006 C 
BRANCH   5   6
ATOM      6  C   UNL     1     103.402 311.552 199.363  1.00  0.00     0.053 C 
BRANCH   6   7
ATOM      7  C   UNL     1     104.130 311.879 200.632  1.00  0.00     0.041 C 
ATOM      8  O   UNL     1     103.833 311.287 201.704  1.00  0.00    -0.550 OA
ATOM      9  O   UNL     1     105.164 312.806 200.625  1.00  0.00    -0.550 OA
ENDBRANCH   6   7
ENDBRANCH   5   6
ENDBRANCH   4   5
ENDBRANCH   3   4
ENDBRANCH   2   3
ENDBRANCH   1   2
BRANCH   1  10
ATOM     10  C   UNL     1     104.637 311.634 192.896  1.00  0.00     0.000 C 
BRANCH  10  11
ATOM     11  C   UNL     1     104.141 312.801 192.030  1.00  0.00    -0.000 C 
BRANCH  11  12
ATOM     12  C   UNL     1     105.283 313.779 191.721  1.00  0.00    -0.000 C 
BRANCH  12  13
ATOM     13  C   UNL     1     105.076 314.451 190.355  1.00  0.00    -0.000 C 
BRANCH  13  14
ATOM     14  C   UNL     1     103.646 314.276 189.819  1.00  0.00    -0.000 C 
BRANCH  14  15
ATOM     15  C   UNL     1     103.446 314.932 188.445  1.00  0.00    -0.003 C 
ATOM     16  C   UNL     1     101.998 314.802 187.981  1.00  0.00     0.004 C 
ENDBRANCH  14  15
ENDBRANCH  13  14
ENDBRANCH  12  13
ENDBRANCH  11  12
ENDBRANCH  10  11
ENDBRANCH   1  10
TORSDOF 12
ENDMDL
MODEL 3
REMARK VINA RESULT:    -5.137      1.367      2.656
REMARK INTER + INTRA:         -10.372
REMARK INTER:                  -9.328
REMARK INTRA:                  -1.043
REMARK UNBOUND:                -1.631
REMARK SMILES CCCCCCCCCCCCCC(=O)[O-]
REMARK SMILES IDX 8 1 9 2 10 3 11 4 12 5 13 6 14 7 15 8 16 9 7 10 6 11 5 12
REMARK SMILES IDX 4 13 3 14 2 15 1 16
REMARK H PARENT
REMARK Flexibility Score: inf
ROOT
ATOM      1  C   UNL     1      86.733 324.457 193.186  1.00  0.00     0.000 C 
ENDROOT
BRANCH   1   2
ATOM      2  C   UNL     1      88.215 324.722 192.881  1.00  0.00     0.000 C 
BRANCH   2   3
ATOM      3  C   UNL     1      88.473 324.705 191.367  1.00  0.00     0.000 C 
BRANCH   3   4
ATOM      4  C   UNL     1      88.158 323.346 190.719  1.00  0.00     0.000 C 
BRANCH   4   5
ATOM      5  C   UNL     1      88.464 323.250 189.212  1.00  0.00     0.006 C 
BRANCH   5   6
ATOM      6  C   UNL     1      89.739 323.999 188.782  1.00  0.00     0.053 C 
BRANCH   6   7
ATOM      7  C   UNL     1      90.783 323.079 188.225  1.00  0.00     0.041 C 
ATOM      8  O   UNL     1      92.006 323.346 188.367  1.00  0.00    -0.550 OA
ATOM      9  O   UNL     1      90.409 321.904 187.585  1.00  0.00    -0.550 OA
ENDBRANCH   6   7
ENDBRANCH   5   6
ENDBRANCH   4   5
ENDBRANCH   3   4
ENDBRANCH   2   3
ENDBRANCH   1   2
BRANCH   1  10
ATOM     10  C   UNL     1      85.985 325.722 193.636  1.00  0.00     0.000 C 
BRANCH  10  11
ATOM     11  C   UNL     1      86.905 326.738 194.330  1.00  0.00    -0.000 C 
BRANCH  11  12
ATOM     12  C   UNL     1      86.978 326.470 195.839  1.00  0.00    -0.000 C 
BRANCH  12  13
ATOM     13  C   UNL     1      88.434 326.459 196.326  1.00  0.00    -0.000 C 
BRANCH  13  14
ATOM     14  C   UNL     1      88.695 325.384 197.394  1.00  0.00    -0.000 C 
BRANCH  14  15
ATOM     15  C   UNL     1      89.482 324.185 196.845  1.00  0.00    -0.003 C 
ATOM     16  C   UNL     1      88.546 323.154 196.219  1.00  0.00     0.004 C 
ENDBRANCH  14  15
ENDBRANCH  13  14
ENDBRANCH  12  13
ENDBRANCH  11  12
ENDBRANCH  10  11
ENDBRANCH   1  10
TORSDOF 12
ENDMDL
MODEL 4
REMARK VINA RESULT:    -5.101      2.733      5.546
REMARK INTER + INTRA:         -10.311
REMARK INTER:                  -9.127
REMARK INTRA:                  -1.183
REMARK UNBOUND:                -1.631
REMARK SMILES CCCCCCCCCCCCCC(=O)[O-]
REMARK SMILES IDX 8 1 9 2 10 3 11 4 12 5 13 6 14 7 15 8 16 9 7 10 6 11 5 12
REMARK SMILES IDX 4 13 3 14 2 15 1 16
REMARK H PARENT
REMARK Flexibility Score: inf
ROOT
ATOM      1  C   UNL     1      85.934 325.700 193.557  1.00  0.00     0.000 C 
ENDROOT
BRANCH   1   2
ATOM      2  C   UNL     1      86.925 326.635 194.266  1.00  0.00     0.000 C 
BRANCH   2   3
ATOM      3  C   UNL     1      86.710 326.610 195.786  1.00  0.00     0.000 C 
BRANCH   3   4
ATOM      4  C   UNL     1      88.025 326.489 196.576  1.00  0.00     0.000 C 
BRANCH   4   5
ATOM      5  C   UNL     1      88.902 325.276 196.213  1.00  0.00     0.006 C 
BRANCH   5   6
ATOM      6  C   UNL     1      88.477 323.966 196.902  1.00  0.00     0.053 C 
BRANCH   6   7
ATOM      7  C   UNL     1      88.628 322.773 196.007  1.00  0.00     0.041 C 
ATOM      8  O   UNL     1      89.772 322.308 195.757  1.00  0.00    -0.550 OA
ATOM      9  O   UNL     1      87.505 322.147 195.482  1.00  0.00    -0.550 OA
ENDBRANCH   6   7
ENDBRANCH   5   6
ENDBRANCH   4   5
ENDBRANCH   3   4
ENDBRANCH   2   3
ENDBRANCH   1   2
BRANCH   1  10
ATOM     10  C   UNL     1      86.619 324.472 192.935  1.00  0.00     0.000 C 
BRANCH  10  11
ATOM     11  C   UNL     1      88.134 324.662 192.767  1.00  0.00    -0.000 C 
BRANCH  11  12
ATOM     12  C   UNL     1      88.527 324.647 191.284  1.00  0.00    -0.000 C 
BRANCH  12  13
ATOM     13  C   UNL     1      87.752 323.564 190.520  1.00  0.00    -0.000 C 
BRANCH  13  14
ATOM     14  C   UNL     1      88.514 323.045 189.290  1.00  0.00    -0.000 C 
BRANCH  14  15
ATOM     15  C   UNL     1      89.643 323.991 188.852  1.00  0.00    -0.003 C 
ATOM     16  C   UNL     1      90.867 323.207 188.390  1.00  0.00     0.004 C 
ENDBRANCH  14  15
ENDBRANCH  13  14
ENDBRANCH  12  13
ENDBRANCH  11  12
ENDBRANCH  10  11
ENDBRANCH   1  10
TORSDOF 12
ENDMDL
MODEL 5
REMARK VINA RESULT:    -5.094      1.445      3.153
REMARK INTER + INTRA:         -10.298
REMARK INTER:                  -8.826
REMARK INTRA:                  -1.472
REMARK UNBOUND:                -1.631
REMARK SMILES CCCCCCCCCCCCCC(=O)[O-]
REMARK SMILES IDX 8 1 9 2 10 3 11 4 12 5 13 6 14 7 15 8 16 9 7 10 6 11 5 12
REMARK SMILES IDX 4 13 3 14 2 15 1 16
REMARK H PARENT
REMARK Flexibility Score: inf
ROOT
ATOM      1  C   UNL     1      88.650 323.576 193.766  1.00  0.00     0.000 C 
ENDROOT
BRANCH   1   2
ATOM      2  C   UNL     1      87.262 323.386 193.136  1.00  0.00     0.000 C 
BRANCH   2   3
ATOM      3  C   UNL     1      87.139 324.188 191.833  1.00  0.00     0.000 C 
BRANCH   3   4
ATOM      4  C   UNL     1      88.465 324.284 191.059  1.00  0.00     0.000 C 
BRANCH   4   5
ATOM      5  C   UNL     1      88.504 323.513 189.725  1.00  0.00     0.006 C 
BRANCH   5   6
ATOM      6  C   UNL     1      89.738 323.823 188.858  1.00  0.00     0.053 C 
BRANCH   6   7
ATOM      7  C   UNL     1      90.622 322.627 188.672  1.00  0.00     0.041 C 
ATOM      8  O   UNL     1      91.026 321.975 189.671  1.00  0.00    -0.550 OA
ATOM      9  O   UNL     1      90.968 322.206 187.394  1.00  0.00    -0.550 OA
ENDBRANCH   6   7
ENDBRANCH   5   6
ENDBRANCH   4   5
ENDBRANCH   3   4
ENDBRANCH   2   3
ENDBRANCH   1   2
BRANCH   1  10
ATOM     10  C   UNL     1      88.748 322.978 195.179  1.00  0.00     0.000 C 
BRANCH  10  11
ATOM     11  C   UNL     1      88.206 323.925 196.260  1.00  0.00    -0.000 C 
BRANCH  11  12
ATOM     12  C   UNL     1      89.198 325.061 196.542  1.00  0.00    -0.000 C 
BRANCH  12  13
ATOM     13  C   UNL     1      88.554 326.430 196.280  1.00  0.00    -0.000 C 
BRANCH  13  14
ATOM     14  C   UNL     1      87.077 326.321 195.868  1.00  0.00    -0.000 C 
BRANCH  14  15
ATOM     15  C   UNL     1      86.822 326.828 194.440  1.00  0.00    -0.003 C 
ATOM     16  C   UNL     1      88.133 327.174 193.739  1.00  0.00     0.004 C 
ENDBRANCH  14  15
ENDBRANCH  13  14
ENDBRANCH  12  13
ENDBRANCH  11  12
ENDBRANCH  10  11
ENDBRANCH   1  10
TORSDOF 12
ENDMDL
MODEL 6
REMARK VINA RESULT:    -4.985     19.753     21.940
REMARK INTER + INTRA:         -10.113
REMARK INTER:                  -9.582
REMARK INTRA:                  -0.531
REMARK UNBOUND:                -1.631
REMARK SMILES CCCCCCCCCCCCCC(=O)[O-]
REMARK SMILES IDX 8 1 9 2 10 3 11 4 12 5 13 6 14 7 15 8 16 9 7 10 6 11 5 12
REMARK SMILES IDX 4 13 3 14 2 15 1 16
REMARK H PARENT
REMARK Flexibility Score: inf
ROOT
ATOM      1  C   UNL     1     104.182 313.293 195.951  1.00  0.00     0.000 C 
ENDROOT
BRANCH   1   2
ATOM      2  C   UNL     1     103.778 313.618 197.397  1.00  0.00     0.000 C 
BRANCH   2   3
ATOM      3  C   UNL     1     103.867 312.367 198.283  1.00  0.00     0.000 C 
BRANCH   3   4
ATOM      4  C   UNL     1     104.325 312.679 199.718  1.00  0.00     0.000 C 
BRANCH   4   5
ATOM      5  C   UNL     1     103.988 311.601 200.765  1.00  0.00     0.006 C 
BRANCH   5   6
ATOM      6  C   UNL     1     104.290 312.019 202.216  1.00  0.00     0.053 C 
BRANCH   6   7
ATOM      7  C   UNL     1     103.803 311.013 203.215  1.00  0.00     0.041 C 
ATOM      8  O   UNL     1     102.752 310.356 202.994  1.00  0.00    -0.550 OA
ATOM      9  O   UNL     1     104.532 310.770 204.372  1.00  0.00    -0.550 OA
ENDBRANCH   6   7
ENDBRANCH   5   6
ENDBRANCH   4   5
ENDBRANCH   3   4
ENDBRANCH   2   3
ENDBRANCH   1   2
BRANCH   1  10
ATOM     10  C   UNL     1     104.788 311.888 195.805  1.00  0.00     0.000 C 
BRANCH  10  11
ATOM     11  C   UNL     1     105.852 311.815 194.700  1.00  0.00    -0.000 C 
BRANCH  11  12
ATOM     12  C   UNL     1     105.207 311.556 193.332  1.00  0.00    -0.000 C 
BRANCH  12  13
ATOM     13  C   UNL     1     105.489 312.714 192.364  1.00  0.00    -0.000 C 
BRANCH  13  14
ATOM     14  C   UNL     1     104.204 313.343 191.801  1.00  0.00    -0.000 C 
BRANCH  14  15
ATOM     15  C   UNL     1     104.480 314.326 190.654  1.00  0.00    -0.003 C 
ATOM     16  C   UNL     1     103.400 314.232 189.579  1.00  0.00     0.004 C 
ENDBRANCH  14  15
ENDBRANCH  13  14
ENDBRANCH  12  13
ENDBRANCH  11  12
ENDBRANCH  10  11
ENDBRANCH   1  10
TORSDOF 12
ENDMDL
MODEL 7
REMARK VINA RESULT:    -4.980      6.208      8.620
REMARK INTER + INTRA:         -10.104
REMARK INTER:                  -9.224
REMARK INTRA:                  -0.880
REMARK UNBOUND:                -1.631
REMARK SMILES CCCCCCCCCCCCCC(=O)[O-]
REMARK SMILES IDX 8 1 9 2 10 3 11 4 12 5 13 6 14 7 15 8 16 9 7 10 6 11 5 12
REMARK SMILES IDX 4 13 3 14 2 15 1 16
REMARK H PARENT
REMARK Flexibility Score: inf
ROOT
ATOM      1  C   UNL     1      88.529 326.408 195.952  1.00  0.00     0.000 C 
ENDROOT
BRANCH   1   2
ATOM      2  C   UNL     1      88.758 325.544 197.201  1.00  0.00     0.000 C 
BRANCH   2   3
ATOM      3  C   UNL     1      88.854 326.418 198.460  1.00  0.00     0.000 C 
BRANCH   3   4
ATOM      4  C   UNL     1      89.620 325.736 199.607  1.00  0.00     0.000 C 
BRANCH   4   5
ATOM      5  C   UNL     1      89.717 326.552 200.910  1.00  0.00     0.006 C 
BRANCH   5   6
ATOM      6  C   UNL     1      91.151 326.975 201.280  1.00  0.00     0.053 C 
BRANCH   6   7
ATOM      7  C   UNL     1      91.297 327.289 202.739  1.00  0.00     0.041 C 
ATOM      8  O   UNL     1      92.411 327.149 203.309  1.00  0.00    -0.550 OA
ATOM      9  O   UNL     1      90.214 327.775 203.460  1.00  0.00    -0.550 OA
ENDBRANCH   6   7
ENDBRANCH   5   6
ENDBRANCH   4   5
ENDBRANCH   3   4
ENDBRANCH   2   3
ENDBRANCH   1   2
BRANCH   1  10
ATOM     10  C   UNL     1      87.041 326.559 195.599  1.00  0.00     0.000 C 
BRANCH  10  11
ATOM     11  C   UNL     1      86.795 326.607 194.083  1.00  0.00    -0.000 C 
BRANCH  11  12
ATOM     12  C   UNL     1      85.877 325.461 193.639  1.00  0.00    -0.000 C 
BRANCH  12  13
ATOM     13  C   UNL     1      86.507 324.667 192.485  1.00  0.00    -0.000 C 
BRANCH  13  14
ATOM     14  C   UNL     1      88.028 324.869 192.389  1.00  0.00    -0.000 C 
BRANCH  14  15
ATOM     15  C   UNL     1      88.815 323.582 192.680  1.00  0.00    -0.003 C 
ATOM     16  C   UNL     1      88.580 323.108 194.111  1.00  0.00     0.004 C 
ENDBRANCH  14  15
ENDBRANCH  13  14
ENDBRANCH  12  13
ENDBRANCH  11  12
ENDBRANCH  10  11
ENDBRANCH   1  10
TORSDOF 12
ENDMDL
MODEL 8
REMARK VINA RESULT:    -4.959      4.886      7.499
REMARK INTER + INTRA:         -10.068
REMARK INTER:                  -9.386
REMARK INTRA:                  -0.682
REMARK UNBOUND:                -1.631
REMARK SMILES CCCCCCCCCCCCCC(=O)[O-]
REMARK SMILES IDX 8 1 9 2 10 3 11 4 12 5 13 6 14 7 15 8 16 9 7 10 6 11 5 12
REMARK SMILES IDX 4 13 3 14 2 15 1 16
REMARK H PARENT
REMARK Flexibility Score: inf
ROOT
ATOM      1  C   UNL     1      87.015 326.468 194.215  1.00  0.00     0.000 C 
ENDROOT
BRANCH   1   2
ATOM      2  C   UNL     1      88.450 326.627 194.738  1.00  0.00     0.000 C 
BRANCH   2   3
ATOM      3  C   UNL     1      88.480 326.583 196.273  1.00  0.00     0.000 C 
BRANCH   3   4
ATOM      4  C   UNL     1      88.540 325.150 196.831  1.00  0.00     0.000 C 
BRANCH   4   5
ATOM      5  C   UNL     1      89.128 325.022 198.249  1.00  0.00     0.006 C 
BRANCH   5   6
ATOM      6  C   UNL     1      89.153 326.342 199.040  1.00  0.00     0.053 C 
BRANCH   6   7
ATOM      7  C   UNL     1      89.581 326.149 200.464  1.00  0.00     0.041 C 
ATOM      8  O   UNL     1      90.749 325.759 200.728  1.00  0.00    -0.550 OA
ATOM      9  O   UNL     1      88.705 326.440 201.502  1.00  0.00    -0.550 OA
ENDBRANCH   6   7
ENDBRANCH   5   6
ENDBRANCH   4   5
ENDBRANCH   3   4
ENDBRANCH   2   3
ENDBRANCH   1   2
BRANCH   1  10
ATOM     10  C   UNL     1      86.872 325.304 193.221  1.00  0.00     0.000 C 
BRANCH  10  11
ATOM     11  C   UNL     1      88.219 324.651 192.877  1.00  0.00    -0.000 C 
BRANCH  11  12
ATOM     12  C   UNL     1      88.464 324.664 191.362  1.00  0.00    -0.000 C 
BRANCH  12  13
ATOM     13  C   UNL     1      87.754 323.486 190.680  1.00  0.00    -0.000 C 
BRANCH  13  14
ATOM     14  C   UNL     1      88.279 323.218 189.260  1.00  0.00    -0.000 C 
BRANCH  14  15
ATOM     15  C   UNL     1      89.529 324.046 188.927  1.00  0.00    -0.003 C 
ATOM     16  C   UNL     1      90.678 323.149 188.477  1.00  0.00     0.004 C 
ENDBRANCH  14  15
ENDBRANCH  13  14
ENDBRANCH  12  13
ENDBRANCH  11  12
ENDBRANCH  10  11
ENDBRANCH   1  10
TORSDOF 12
ENDMDL
MODEL 9
REMARK VINA RESULT:    -4.907     19.901     22.019
REMARK INTER + INTRA:          -9.980
REMARK INTER:                  -9.214
REMARK INTRA:                  -0.766
REMARK UNBOUND:                -1.631
REMARK SMILES CCCCCCCCCCCCCC(=O)[O-]
REMARK SMILES IDX 8 1 9 2 10 3 11 4 12 5 13 6 14 7 15 8 16 9 7 10 6 11 5 12
REMARK SMILES IDX 4 13 3 14 2 15 1 16
REMARK H PARENT
REMARK Flexibility Score: inf
ROOT
ATOM      1  C   UNL     1     103.877 313.306 197.721  1.00  0.00     0.000 C 
ENDROOT
BRANCH   1   2
ATOM      2  C   UNL     1     103.878 311.875 198.279  1.00  0.00     0.000 C 
BRANCH   2   3
ATOM      3  C   UNL     1     103.777 311.886 199.811  1.00  0.00     0.000 C 
BRANCH   3   4
ATOM      4  C   UNL     1     102.356 311.591 200.322  1.00  0.00     0.000 C 
BRANCH   4   5
ATOM      5  C   UNL     1     102.267 311.132 201.789  1.00  0.00     0.006 C 
BRANCH   5   6
ATOM      6  C   UNL     1     103.629 311.038 202.501  1.00  0.00     0.053 C 
BRANCH   6   7
ATOM      7  C   UNL     1     103.491 310.739 203.964  1.00  0.00     0.041 C 
ATOM      8  O   UNL     1     102.390 310.343 204.430  1.00  0.00    -0.550 OA
ATOM      9  O   UNL     1     104.589 310.857 204.806  1.00  0.00    -0.550 OA
ENDBRANCH   6   7
ENDBRANCH   5   6
ENDBRANCH   4   5
ENDBRANCH   3   4
ENDBRANCH   2   3
ENDBRANCH   1   2
BRANCH   1  10
ATOM     10  C   UNL     1     104.269 313.364 196.236  1.00  0.00     0.000 C 
BRANCH  10  11
ATOM     11  C   UNL     1     104.446 311.969 195.616  1.00  0.00    -0.000 C 
BRANCH  11  12
ATOM     12  C   UNL     1     105.819 311.837 194.945  1.00  0.00    -0.000 C 
BRANCH  12  13
ATOM     13  C   UNL     1     105.874 312.649 193.642  1.00  0.00    -0.000 C 
BRANCH  13  14
ATOM     14  C   UNL     1     104.885 312.136 192.582  1.00  0.00    -0.000 C 
BRANCH  14  15
ATOM     15  C   UNL     1     104.280 313.270 191.742  1.00  0.00    -0.003 C 
ATOM     16  C   UNL     1     103.926 314.472 192.614  1.00  0.00     0.004 C 
ENDBRANCH  14  15
ENDBRANCH  13  14
ENDBRANCH  12  13
ENDBRANCH  11  12
ENDBRANCH  10  11
ENDBRANCH   1  10
TORSDOF 12
ENDMDL
