MODEL 1
REMARK VINA RESULT:    -5.958      0.000      0.000
REMARK INTER + INTRA:          -5.958
REMARK INTER:                  -5.958
REMARK INTRA:                   0.000
REMARK UNBOUND:                 0.000
REMARK SMILES C=C1CCC[C@@]2(C)CC(=O)C(=C(C)C)C[C@@H]12
REMARK SMILES IDX 13 1 12 2 11 3 15 4 16 5 2 6 1 7 3 8 4 9 5 10 6 11 8 12 9 13
REMARK SMILES IDX 10 14 7 15 14 16
REMARK H PARENT
REMARK Flexibility Score: inf
ROOT
ATOM      1  C   UNL     1      11.349  32.707 -11.808  1.00  0.00     0.039 C 
ATOM      2  C   UNL     1      10.376  33.861 -11.762  1.00  0.00    -0.070 C 
ATOM      3  C   UNL     1      10.212  34.693 -12.832  1.00  0.00    -0.006 C 
ATOM      4  C   UNL     1      11.008  34.567 -14.116  1.00  0.00     0.047 C 
ATOM      5  C   UNL     1      11.801  35.868 -14.462  1.00  0.00     0.025 C 
ATOM      6  C   UNL     1      12.282  35.888 -15.929  1.00  0.00    -0.073 C 
ATOM      7  C   UNL     1      12.485  34.760 -16.639  1.00  0.00     0.008 C 
ATOM      8  C   UNL     1      12.725  37.178 -16.587  1.00  0.00     0.031 C 
ATOM      9  C   UNL     1      12.575  38.388 -15.675  1.00  0.00     0.005 C 
ATOM     10  C   UNL     1      11.198  38.367 -15.024  1.00  0.00     0.008 C 
ATOM     11  C   UNL     1      11.052  37.202 -14.001  1.00  0.00    -0.018 C 
ATOM     12  C   UNL     1       9.526  36.957 -13.804  1.00  0.00     0.088 C 
ATOM     13  C   UNL     1       9.268  35.836 -12.843  1.00  0.00     0.159 C 
ATOM     14  O   UNL     1       8.224  35.852 -12.137  1.00  0.00    -0.295 OA
ATOM     15  C   UNL     1      11.648  37.680 -12.645  1.00  0.00     0.012 C 
ATOM     16  C   UNL     1       9.627  34.084 -10.469  1.00  0.00     0.039 C 
ENDROOT
TORSDOF 0
ENDMDL
MODEL 2
REMARK VINA RESULT:    -5.805      1.749      3.379
REMARK INTER + INTRA:          -5.805
REMARK INTER:                  -5.805
REMARK INTRA:                   0.000
REMARK UNBOUND:                 0.000
REMARK SMILES C=C1CCC[C@@]2(C)CC(=O)C(=C(C)C)C[C@@H]12
REMARK SMILES IDX 13 1 12 2 11 3 15 4 16 5 2 6 1 7 3 8 4 9 5 10 6 11 8 12 9 13
REMARK SMILES IDX 10 14 7 15 14 16
REMARK H PARENT
REMARK Flexibility Score: inf
ROOT
ATOM      1  C   UNL     1       8.257  34.739 -10.392  1.00  0.00     0.039 C 
ATOM      2  C   UNL     1       9.367  33.760 -10.692  1.00  0.00    -0.070 C 
ATOM      3  C   UNL     1      10.493  34.147 -11.361  1.00  0.00    -0.006 C 
ATOM      4  C   UNL     1      10.705  35.551 -11.894  1.00  0.00     0.047 C 
ATOM      5  C   UNL     1      10.954  35.577 -13.436  1.00  0.00     0.025 C 
ATOM      6  C   UNL     1      11.549  36.920 -13.910  1.00  0.00    -0.073 C 
ATOM      7  C   UNL     1      11.368  38.071 -13.232  1.00  0.00     0.008 C 
ATOM      8  C   UNL     1      12.218  37.043 -15.263  1.00  0.00     0.031 C 
ATOM      9  C   UNL     1      12.276  35.720 -16.016  1.00  0.00     0.005 C 
ATOM     10  C   UNL     1      12.774  34.624 -15.081  1.00  0.00     0.008 C 
ATOM     11  C   UNL     1      11.739  34.289 -13.967  1.00  0.00    -0.018 C 
ATOM     12  C   UNL     1      12.518  33.585 -12.816  1.00  0.00     0.088 C 
ATOM     13  C   UNL     1      11.614  33.231 -11.675  1.00  0.00     0.159 C 
ATOM     14  O   UNL     1      11.874  32.221 -10.968  1.00  0.00    -0.295 OA
ATOM     15  C   UNL     1      10.716  33.275 -14.556  1.00  0.00     0.012 C 
ATOM     16  C   UNL     1       9.160  32.326 -10.262  1.00  0.00     0.039 C 
ENDROOT
TORSDOF 0
ENDMDL
MODEL 3
REMARK VINA RESULT:    -5.578      3.586      6.183
REMARK INTER + INTRA:          -5.578
REMARK INTER:                  -5.578
REMARK INTRA:                   0.000
REMARK UNBOUND:                 0.000
REMARK SMILES C=C1CCC[C@@]2(C)CC(=O)C(=C(C)C)C[C@@H]12
REMARK SMILES IDX 13 1 12 2 11 3 15 4 16 5 2 6 1 7 3 8 4 9 5 10 6 11 8 12 9 13
REMARK SMILES IDX 10 14 7 15 14 16
REMARK H PARENT
REMARK Flexibility Score: inf
ROOT
ATOM      1  C   UNL     1       6.491  30.140  -9.044  1.00  0.00     0.039 C 
ATOM      2  C   UNL     1       7.961  29.805  -9.138  1.00  0.00    -0.070 C 
ATOM      3  C   UNL     1       8.894  30.770  -9.383  1.00  0.00    -0.006 C 
ATOM      4  C   UNL     1       8.546  32.225  -9.627  1.00  0.00     0.047 C 
ATOM      5  C   UNL     1       9.062  32.744 -11.007  1.00  0.00     0.025 C 
ATOM      6  C   UNL     1       9.060  34.285 -11.091  1.00  0.00    -0.073 C 
ATOM      7  C   UNL     1       8.241  35.050 -10.341  1.00  0.00     0.008 C 
ATOM      8  C   UNL     1       9.858  35.010 -12.155  1.00  0.00     0.031 C 
ATOM      9  C   UNL     1      10.664  34.064 -13.035  1.00  0.00     0.005 C 
ATOM     10  C   UNL     1      11.406  33.062 -12.160  1.00  0.00     0.008 C 
ATOM     11  C   UNL     1      10.437  32.065 -11.459  1.00  0.00    -0.018 C 
ATOM     12  C   UNL     1      11.201  31.465 -10.241  1.00  0.00     0.088 C 
ATOM     13  C   UNL     1      10.348  30.497  -9.479  1.00  0.00     0.159 C 
ATOM     14  O   UNL     1      10.891  29.533  -8.876  1.00  0.00    -0.295 OA
ATOM     15  C   UNL     1      10.132  30.913 -12.460  1.00  0.00     0.012 C 
ATOM     16  C   UNL     1       8.348  28.351  -8.994  1.00  0.00     0.039 C 
ENDROOT
TORSDOF 0
ENDMDL
MODEL 4
REMARK VINA RESULT:    -5.568      1.794      5.303
REMARK INTER + INTRA:          -5.568
REMARK INTER:                  -5.568
REMARK INTRA:                   0.000
REMARK UNBOUND:                 0.000
REMARK SMILES C=C1CCC[C@@]2(C)CC(=O)C(=C(C)C)C[C@@H]12
REMARK SMILES IDX 13 1 12 2 11 3 15 4 16 5 2 6 1 7 3 8 4 9 5 10 6 11 8 12 9 13
REMARK SMILES IDX 10 14 7 15 14 16
REMARK H PARENT
REMARK Flexibility Score: inf
ROOT
ATOM      1  C   UNL     1      10.632  39.098 -13.784  1.00  0.00     0.039 C 
ATOM      2  C   UNL     1      11.277  37.942 -14.512  1.00  0.00    -0.070 C 
ATOM      3  C   UNL     1      10.944  36.649 -14.226  1.00  0.00    -0.006 C 
ATOM      4  C   UNL     1       9.956  36.263 -13.142  1.00  0.00     0.047 C 
ATOM      5  C   UNL     1      10.582  35.318 -12.067  1.00  0.00     0.025 C 
ATOM      6  C   UNL     1       9.508  34.619 -11.205  1.00  0.00    -0.073 C 
ATOM      7  C   UNL     1       8.279  35.141 -11.018  1.00  0.00     0.008 C 
ATOM      8  C   UNL     1       9.846  33.397 -10.377  1.00  0.00     0.031 C 
ATOM      9  C   UNL     1      11.288  32.943 -10.556  1.00  0.00     0.005 C 
ATOM     10  C   UNL     1      11.630  32.904 -12.040  1.00  0.00     0.008 C 
ATOM     11  C   UNL     1      11.686  34.328 -12.666  1.00  0.00    -0.018 C 
ATOM     12  C   UNL     1      11.518  34.157 -14.206  1.00  0.00     0.088 C 
ATOM     13  C   UNL     1      11.541  35.479 -14.912  1.00  0.00     0.159 C 
ATOM     14  O   UNL     1      11.984  35.545 -16.090  1.00  0.00    -0.295 OA
ATOM     15  C   UNL     1      13.100  34.916 -12.391  1.00  0.00     0.012 C 
ATOM     16  C   UNL     1      12.337  38.274 -15.536  1.00  0.00     0.039 C 
ENDROOT
TORSDOF 0
ENDMDL
MODEL 5
REMARK VINA RESULT:    -5.474      2.021      5.758
REMARK INTER + INTRA:          -5.474
REMARK INTER:                  -5.474
REMARK INTRA:                   0.000
REMARK UNBOUND:                 0.000
REMARK SMILES C=C1CCC[C@@]2(C)CC(=O)C(=C(C)C)C[C@@H]12
REMARK SMILES IDX 13 1 12 2 11 3 15 4 16 5 2 6 1 7 3 8 4 9 5 10 6 11 8 12 9 13
REMARK SMILES IDX 10 14 7 15 14 16
REMARK H PARENT
REMARK Flexibility Score: inf
ROOT
ATOM      1  C   UNL     1      12.288  37.274 -12.546  1.00  0.00     0.039 C 
ATOM      2  C   UNL     1      12.117  36.156 -13.548  1.00  0.00    -0.070 C 
ATOM      3  C   UNL     1      11.121  35.232 -13.417  1.00  0.00    -0.006 C 
ATOM      4  C   UNL     1      10.148  35.214 -12.255  1.00  0.00     0.047 C 
ATOM      5  C   UNL     1      10.176  33.865 -11.467  1.00  0.00     0.025 C 
ATOM      6  C   UNL     1       8.943  33.693 -10.555  1.00  0.00    -0.073 C 
ATOM      7  C   UNL     1       8.244  34.743 -10.078  1.00  0.00     0.008 C 
ATOM      8  C   UNL     1       8.564  32.335 -10.002  1.00  0.00     0.031 C 
ATOM      9  C   UNL     1       9.477  31.221 -10.496  1.00  0.00     0.005 C 
ATOM     10  C   UNL     1       9.657  31.341 -12.004  1.00  0.00     0.008 C 
ATOM     11  C   UNL     1      10.484  32.601 -12.397  1.00  0.00    -0.018 C 
ATOM     12  C   UNL     1      10.169  32.907 -13.892  1.00  0.00     0.088 C 
ATOM     13  C   UNL     1      10.906  34.120 -14.373  1.00  0.00     0.159 C 
ATOM     14  O   UNL     1      11.245  34.200 -15.583  1.00  0.00    -0.295 OA
ATOM     15  C   UNL     1      11.993  32.237 -12.280  1.00  0.00     0.012 C 
ATOM     16  C   UNL     1      13.122  36.078 -14.674  1.00  0.00     0.039 C 
ENDROOT
TORSDOF 0
ENDMDL
MODEL 6
REMARK VINA RESULT:    -5.465     16.277     18.183
REMARK INTER + INTRA:          -5.465
REMARK INTER:                  -5.465
REMARK INTRA:                   0.000
REMARK UNBOUND:                 0.000
REMARK SMILES C=C1CCC[C@@]2(C)CC(=O)C(=C(C)C)C[C@@H]12
REMARK SMILES IDX 13 1 12 2 11 3 15 4 16 5 2 6 1 7 3 8 4 9 5 10 6 11 8 12 9 13
REMARK SMILES IDX 10 14 7 15 14 16
REMARK H PARENT
REMARK Flexibility Score: inf
ROOT
ATOM      1  C   UNL     1      -3.684  21.583 -10.180  1.00  0.00     0.039 C 
ATOM      2  C   UNL     1      -4.349  22.130 -11.422  1.00  0.00    -0.070 C 
ATOM      3  C   UNL     1      -3.617  22.680 -12.435  1.00  0.00    -0.006 C 
ATOM      4  C   UNL     1      -2.110  22.834 -12.386  1.00  0.00     0.047 C 
ATOM      5  C   UNL     1      -1.651  24.318 -12.554  1.00  0.00     0.025 C 
ATOM      6  C   UNL     1      -0.150  24.432 -12.895  1.00  0.00    -0.073 C 
ATOM      7  C   UNL     1       0.743  23.479 -12.559  1.00  0.00     0.008 C 
ATOM      8  C   UNL     1       0.425  25.710 -13.469  1.00  0.00     0.031 C 
ATOM      9  C   UNL     1      -0.633  26.778 -13.709  1.00  0.00     0.005 C 
ATOM     10  C   UNL     1      -1.828  26.160 -14.425  1.00  0.00     0.008 C 
ATOM     11  C   UNL     1      -2.607  25.166 -13.514  1.00  0.00    -0.018 C 
ATOM     12  C   UNL     1      -3.435  24.239 -14.453  1.00  0.00     0.088 C 
ATOM     13  C   UNL     1      -4.217  23.224 -13.675  1.00  0.00     0.159 C 
ATOM     14  O   UNL     1      -5.313  22.803 -14.132  1.00  0.00    -0.295 OA
ATOM     15  C   UNL     1      -3.599  25.993 -12.645  1.00  0.00     0.012 C 
ATOM     16  C   UNL     1      -5.858  22.083 -11.475  1.00  0.00     0.039 C 
ENDROOT
TORSDOF 0
ENDMDL
MODEL 7
REMARK VINA RESULT:    -5.465      4.102      6.689
REMARK INTER + INTRA:          -5.465
REMARK INTER:                  -5.465
REMARK INTRA:                   0.000
REMARK UNBOUND:                 0.000
REMARK SMILES C=C1CCC[C@@]2(C)CC(=O)C(=C(C)C)C[C@@H]12
REMARK SMILES IDX 13 1 12 2 11 3 15 4 16 5 2 6 1 7 3 8 4 9 5 10 6 11 8 12 9 13
REMARK SMILES IDX 10 14 7 15 14 16
REMARK H PARENT
REMARK Flexibility Score: inf
ROOT
ATOM      1  C   UNL     1       5.469  30.244 -10.023  1.00  0.00     0.039 C 
ATOM      2  C   UNL     1       6.822  29.607  -9.807  1.00  0.00    -0.070 C 
ATOM      3  C   UNL     1       7.949  30.365  -9.664  1.00  0.00    -0.006 C 
ATOM      4  C   UNL     1       7.952  31.878  -9.757  1.00  0.00     0.047 C 
ATOM      5  C   UNL     1       8.909  32.410 -10.872  1.00  0.00     0.025 C 
ATOM      6  C   UNL     1       9.213  33.915 -10.713  1.00  0.00    -0.073 C 
ATOM      7  C   UNL     1       8.377  34.759 -10.076  1.00  0.00     0.008 C 
ATOM      8  C   UNL     1      10.388  34.553 -11.426  1.00  0.00     0.031 C 
ATOM      9  C   UNL     1      11.213  33.549 -12.219  1.00  0.00     0.005 C 
ATOM     10  C   UNL     1      11.494  32.325 -11.356  1.00  0.00     0.008 C 
ATOM     11  C   UNL     1      10.205  31.497 -11.076  1.00  0.00    -0.018 C 
ATOM     12  C   UNL     1      10.488  30.624  -9.817  1.00  0.00     0.088 C 
ATOM     13  C   UNL     1       9.298  29.792  -9.445  1.00  0.00     0.159 C 
ATOM     14  O   UNL     1       9.471  28.677  -8.886  1.00  0.00    -0.295 OA
ATOM     15  C   UNL     1       9.975  30.548 -12.287  1.00  0.00     0.012 C 
ATOM     16  C   UNL     1       6.882  28.097  -9.801  1.00  0.00     0.039 C 
ENDROOT
TORSDOF 0
ENDMDL
MODEL 8
REMARK VINA RESULT:    -5.351      3.935      7.523
REMARK INTER + INTRA:          -5.351
REMARK INTER:                  -5.351
REMARK INTRA:                   0.000
REMARK UNBOUND:                 0.000
REMARK SMILES C=C1CCC[C@@]2(C)CC(=O)C(=C(C)C)C[C@@H]12
REMARK SMILES IDX 13 1 12 2 11 3 15 4 16 5 2 6 1 7 3 8 4 9 5 10 6 11 8 12 9 13
REMARK SMILES IDX 10 14 7 15 14 16
REMARK H PARENT
REMARK Flexibility Score: inf
ROOT
ATOM      1  C   UNL     1      10.005  33.454 -13.722  1.00  0.00     0.039 C 
ATOM      2  C   UNL     1      10.360  33.349 -12.258  1.00  0.00    -0.070 C 
ATOM      3  C   UNL     1      10.170  32.189 -11.563  1.00  0.00    -0.006 C 
ATOM      4  C   UNL     1       9.554  30.945 -12.171  1.00  0.00     0.047 C 
ATOM      5  C   UNL     1       8.276  30.471 -11.408  1.00  0.00     0.025 C 
ATOM      6  C   UNL     1       7.883  29.022 -11.766  1.00  0.00    -0.073 C 
ATOM      7  C   UNL     1       8.227  28.447 -12.937  1.00  0.00     0.008 C 
ATOM      8  C   UNL     1       6.933  28.232 -10.891  1.00  0.00     0.031 C 
ATOM      9  C   UNL     1       6.498  28.998  -9.649  1.00  0.00     0.005 C 
ATOM     10  C   UNL     1       7.719  29.620  -8.981  1.00  0.00     0.008 C 
ATOM     11  C   UNL     1       8.337  30.764  -9.838  1.00  0.00    -0.018 C 
ATOM     12  C   UNL     1       9.805  30.955  -9.353  1.00  0.00     0.088 C 
ATOM     13  C   UNL     1      10.505  32.030 -10.128  1.00  0.00     0.159 C 
ATOM     14  O   UNL     1      11.409  32.708  -9.571  1.00  0.00    -0.295 OA
ATOM     15  C   UNL     1       7.547  32.070  -9.531  1.00  0.00     0.012 C 
ATOM     16  C   UNL     1      10.890  34.594 -11.584  1.00  0.00     0.039 C 
ENDROOT
TORSDOF 0
ENDMDL
MODEL 9
REMARK VINA RESULT:    -5.301      1.741      5.136
REMARK INTER + INTRA:          -5.301
REMARK INTER:                  -5.301
REMARK INTRA:                   0.000
REMARK UNBOUND:                 0.000
REMARK SMILES C=C1CCC[C@@]2(C)CC(=O)C(=C(C)C)C[C@@H]12
REMARK SMILES IDX 13 1 12 2 11 3 15 4 16 5 2 6 1 7 3 8 4 9 5 10 6 11 8 12 9 13
REMARK SMILES IDX 10 14 7 15 14 16
REMARK H PARENT
REMARK Flexibility Score: inf
ROOT
ATOM      1  C   UNL     1      12.318  34.124 -16.205  1.00  0.00     0.039 C 
ATOM      2  C   UNL     1      12.257  35.224 -15.171  1.00  0.00    -0.070 C 
ATOM      3  C   UNL     1      12.091  34.943 -13.845  1.00  0.00    -0.006 C 
ATOM      4  C   UNL     1      11.908  33.538 -13.307  1.00  0.00     0.047 C 
ATOM      5  C   UNL     1      10.573  33.367 -12.514  1.00  0.00     0.025 C 
ATOM      6  C   UNL     1      10.566  32.088 -11.649  1.00  0.00    -0.073 C 
ATOM      7  C   UNL     1      11.325  31.013 -11.941  1.00  0.00     0.008 C 
ATOM      8  C   UNL     1       9.566  31.912 -10.525  1.00  0.00     0.031 C 
ATOM      9  C   UNL     1       8.667  33.127 -10.338  1.00  0.00     0.005 C 
ATOM     10  C   UNL     1       9.516  34.392 -10.333  1.00  0.00     0.008 C 
ATOM     11  C   UNL     1      10.134  34.690 -11.731  1.00  0.00    -0.018 C 
ATOM     12  C   UNL     1      11.346  35.642 -11.501  1.00  0.00     0.088 C 
ATOM     13  C   UNL     1      12.031  35.982 -12.791  1.00  0.00     0.159 C 
ATOM     14  O   UNL     1      12.602  37.098 -12.913  1.00  0.00    -0.295 OA
ATOM     15  C   UNL     1       9.068  35.450 -12.572  1.00  0.00     0.012 C 
ATOM     16  C   UNL     1      12.342  36.648 -15.671  1.00  0.00     0.039 C 
ENDROOT
TORSDOF 0
ENDMDL
