MODEL 1
REMARK VINA RESULT:    -3.581      0.000      0.000
REMARK INTER + INTRA:          -3.581
REMARK INTER:                  -3.581
REMARK INTRA:                   0.000
REMARK UNBOUND:                 0.000
REMARK SMILES CC(=O)[O-]
REMARK SMILES IDX 1 1 2 2 3 3 4 4
REMARK H PARENT
REMARK Flexibility Score: inf
ROOT
ATOM      1  C   UNL     1       6.646   6.795  -7.915  1.00  0.00     0.063 C 
ATOM      2  C   UNL     1       7.681   6.156  -7.052  1.00  0.00     0.038 C 
ATOM      3  O   UNL     1       8.169   5.041  -7.371  1.00  0.00    -0.550 OA
ATOM      4  O   UNL     1       8.146   6.815  -5.921  1.00  0.00    -0.550 OA
ENDROOT
TORSDOF 0
ENDMDL
MODEL 2
REMARK VINA RESULT:    -3.570      0.098      1.622
REMARK INTER + INTRA:          -3.570
REMARK INTER:                  -3.570
REMARK INTRA:                   0.000
REMARK UNBOUND:                 0.000
REMARK SMILES CC(=O)[O-]
REMARK SMILES IDX 1 1 2 2 3 3 4 4
REMARK H PARENT
REMARK Flexibility Score: inf
ROOT
ATOM      1  C   UNL     1       6.600   6.797  -7.864  1.00  0.00     0.063 C 
ATOM      2  C   UNL     1       7.700   6.181  -7.068  1.00  0.00     0.038 C 
ATOM      3  O   UNL     1       8.141   6.765  -6.044  1.00  0.00    -0.550 OA
ATOM      4  O   UNL     1       8.204   4.937  -7.425  1.00  0.00    -0.550 OA
ENDROOT
TORSDOF 0
ENDMDL
MODEL 3
REMARK VINA RESULT:    -3.130      1.651      1.762
REMARK INTER + INTRA:          -3.130
REMARK INTER:                  -3.130
REMARK INTRA:                   0.000
REMARK UNBOUND:                 0.000
REMARK SMILES CC(=O)[O-]
REMARK SMILES IDX 1 1 2 2 3 3 4 4
REMARK H PARENT
REMARK Flexibility Score: inf
ROOT
ATOM      1  C   UNL     1       6.007   7.107  -6.776  1.00  0.00     0.063 C 
ATOM      2  C   UNL     1       7.157   6.764  -7.660  1.00  0.00     0.038 C 
ATOM      3  O   UNL     1       7.152   7.117  -8.868  1.00  0.00    -0.550 OA
ATOM      4  O   UNL     1       8.261   6.100  -7.141  1.00  0.00    -0.550 OA
ENDROOT
TORSDOF 0
ENDMDL
MODEL 4
REMARK VINA RESULT:    -2.973     15.849     16.341
REMARK INTER + INTRA:          -2.973
REMARK INTER:                  -2.973
REMARK INTRA:                   0.000
REMARK UNBOUND:                 0.000
REMARK SMILES CC(=O)[O-]
REMARK SMILES IDX 1 1 2 2 3 3 4 4
REMARK H PARENT
REMARK Flexibility Score: inf
ROOT
ATOM      1  C   UNL     1       6.995   2.174   8.845  1.00  0.00     0.063 C 
ATOM      2  C   UNL     1       5.683   2.859   8.659  1.00  0.00     0.038 C 
ATOM      3  O   UNL     1       5.328   3.769   9.451  1.00  0.00    -0.550 OA
ATOM      4  O   UNL     1       4.874   2.529   7.579  1.00  0.00    -0.550 OA
ENDROOT
TORSDOF 0
ENDMDL
MODEL 5
REMARK VINA RESULT:    -2.940     15.909     16.318
REMARK INTER + INTRA:          -2.940
REMARK INTER:                  -2.940
REMARK INTRA:                   0.000
REMARK UNBOUND:                 0.000
REMARK SMILES CC(=O)[O-]
REMARK SMILES IDX 1 1 2 2 3 3 4 4
REMARK H PARENT
REMARK Flexibility Score: inf
ROOT
ATOM      1  C   UNL     1       7.234   2.284   9.006  1.00  0.00     0.063 C 
ATOM      2  C   UNL     1       5.860   2.741   8.651  1.00  0.00     0.038 C 
ATOM      3  O   UNL     1       5.238   2.194   7.703  1.00  0.00    -0.550 OA
ATOM      4  O   UNL     1       5.243   3.735   9.398  1.00  0.00    -0.550 OA
ENDROOT
TORSDOF 0
ENDMDL
MODEL 6
REMARK VINA RESULT:    -2.486     16.043     16.254
REMARK INTER + INTRA:          -2.486
REMARK INTER:                  -2.486
REMARK INTRA:                   0.000
REMARK UNBOUND:                 0.000
REMARK SMILES CC(=O)[O-]
REMARK SMILES IDX 1 1 2 2 3 3 4 4
REMARK H PARENT
REMARK Flexibility Score: inf
ROOT
ATOM      1  C   UNL     1       5.773   3.028   8.969  1.00  0.00     0.063 C 
ATOM      2  C   UNL     1       6.963   2.191   8.642  1.00  0.00     0.038 C 
ATOM      3  O   UNL     1       6.849   1.209   7.863  1.00  0.00    -0.550 OA
ATOM      4  O   UNL     1       8.210   2.524   9.153  1.00  0.00    -0.550 OA
ENDROOT
TORSDOF 0
ENDMDL
MODEL 7
REMARK VINA RESULT:    -2.398      2.910      3.108
REMARK INTER + INTRA:          -2.398
REMARK INTER:                  -2.398
REMARK INTRA:                   0.000
REMARK UNBOUND:                 0.000
REMARK SMILES CC(=O)[O-]
REMARK SMILES IDX 1 1 2 2 3 3 4 4
REMARK H PARENT
REMARK Flexibility Score: inf
ROOT
ATOM      1  C   UNL     1       6.453   7.027  -7.038  1.00  0.00     0.063 C 
ATOM      2  C   UNL     1       5.919   7.750  -8.228  1.00  0.00     0.038 C 
ATOM      3  O   UNL     1       5.657   7.120  -9.285  1.00  0.00    -0.550 OA
ATOM      4  O   UNL     1       5.660   9.113  -8.155  1.00  0.00    -0.550 OA
ENDROOT
TORSDOF 0
ENDMDL
MODEL 8
REMARK VINA RESULT:    -2.182     19.073     19.442
REMARK INTER + INTRA:          -2.182
REMARK INTER:                  -2.182
REMARK INTRA:                   0.000
REMARK UNBOUND:                 0.000
REMARK SMILES CC(=O)[O-]
REMARK SMILES IDX 1 1 2 2 3 3 4 4
REMARK H PARENT
REMARK Flexibility Score: inf
ROOT
ATOM      1  C   UNL     1       4.225  -8.675   6.404  1.00  0.00     0.063 C 
ATOM      2  C   UNL     1       5.366  -8.196   5.571  1.00  0.00     0.038 C 
ATOM      3  O   UNL     1       5.626  -6.966   5.504  1.00  0.00    -0.550 OA
ATOM      4  O   UNL     1       6.175  -9.110   4.908  1.00  0.00    -0.550 OA
ENDROOT
TORSDOF 0
ENDMDL
MODEL 9
REMARK VINA RESULT:    -2.151     15.030     15.376
REMARK INTER + INTRA:          -2.151
REMARK INTER:                  -2.151
REMARK INTRA:                   0.000
REMARK UNBOUND:                 0.000
REMARK SMILES CC(=O)[O-]
REMARK SMILES IDX 1 1 2 2 3 3 4 4
REMARK H PARENT
REMARK Flexibility Score: inf
ROOT
ATOM      1  C   UNL     1      -7.873   8.196  -9.837  1.00  0.00     0.063 C 
ATOM      2  C   UNL     1      -7.424   6.795  -9.593  1.00  0.00     0.038 C 
ATOM      3  O   UNL     1      -8.155   6.002  -8.944  1.00  0.00    -0.550 OA
ATOM      4  O   UNL     1      -6.223   6.347 -10.125  1.00  0.00    -0.550 OA
ENDROOT
TORSDOF 0
ENDMDL
