MODEL 1
REMARK VINA RESULT:    -4.648      0.000      0.000
REMARK INTER + INTRA:          -6.036
REMARK INTER:                  -5.735
REMARK INTRA:                  -0.301
REMARK UNBOUND:                -0.301
REMARK SMILES CCCCC=CC(C)=O
REMARK SMILES IDX 4 1 3 2 2 3 1 4 5 5 6 6 7 7 9 8 8 9
REMARK H PARENT
REMARK Flexibility Score: inf
ROOT
ATOM      1  C   UNL     1      -9.188  32.830  21.218  1.00  0.00     0.027 C 
ENDROOT
BRANCH   1   2
ATOM      2  C   UNL     1      -7.840  33.518  20.966  1.00  0.00     0.004 C 
BRANCH   2   3
ATOM      3  C   UNL     1      -7.754  34.851  21.717  1.00  0.00    -0.003 C 
ATOM      4  C   UNL     1      -7.463  34.630  23.199  1.00  0.00     0.004 C 
ENDBRANCH   2   3
ENDBRANCH   1   2
BRANCH   1   5
ATOM      5  C   UNL     1      -8.999  31.429  21.720  1.00  0.00    -0.023 C 
ATOM      6  C   UNL     1      -7.809  30.992  22.146  1.00  0.00     0.042 C 
BRANCH   6   7
ATOM      7  C   UNL     1      -7.605  29.624  22.656  1.00  0.00     0.152 C 
ATOM      8  O   UNL     1      -6.578  29.331  23.327  1.00  0.00    -0.295 OA
ATOM      9  C   UNL     1      -8.630  28.572  22.380  1.00  0.00     0.093 C 
ENDBRANCH   6   7
ENDBRANCH   1   5
TORSDOF 4
ENDMDL
MODEL 2
REMARK VINA RESULT:    -4.575      1.267      1.775
REMARK INTER + INTRA:          -5.945
REMARK INTER:                  -5.684
REMARK INTRA:                  -0.261
REMARK UNBOUND:                -0.301
REMARK SMILES CCCCC=CC(C)=O
REMARK SMILES IDX 4 1 3 2 2 3 1 4 5 5 6 6 7 7 9 8 8 9
REMARK H PARENT
REMARK Flexibility Score: inf
ROOT
ATOM      1  C   UNL     1      -8.309  33.823  21.252  1.00  0.00     0.027 C 
ENDROOT
BRANCH   1   2
ATOM      2  C   UNL     1      -7.625  34.936  22.057  1.00  0.00     0.004 C 
BRANCH   2   3
ATOM      3  C   UNL     1      -7.530  34.562  23.540  1.00  0.00    -0.003 C 
ATOM      4  C   UNL     1      -8.555  35.331  24.368  1.00  0.00     0.004 C 
ENDBRANCH   2   3
ENDBRANCH   1   2
BRANCH   1   5
ATOM      5  C   UNL     1      -7.833  32.468  21.684  1.00  0.00    -0.023 C 
ATOM      6  C   UNL     1      -8.662  31.419  21.738  1.00  0.00     0.042 C 
BRANCH   6   7
ATOM      7  C   UNL     1      -8.211  30.076  22.147  1.00  0.00     0.152 C 
ATOM      8  O   UNL     1      -8.834  29.044  21.773  1.00  0.00    -0.295 OA
ATOM      9  C   UNL     1      -7.000  29.933  23.010  1.00  0.00     0.093 C 
ENDBRANCH   6   7
ENDBRANCH   1   5
TORSDOF 4
ENDMDL
MODEL 3
REMARK VINA RESULT:    -4.398      2.246      4.980
REMARK INTER + INTRA:          -5.728
REMARK INTER:                  -5.560
REMARK INTRA:                  -0.168
REMARK UNBOUND:                -0.301
REMARK SMILES CCCCC=CC(C)=O
REMARK SMILES IDX 4 1 3 2 2 3 1 4 5 5 6 6 7 7 9 8 8 9
REMARK H PARENT
REMARK Flexibility Score: inf
ROOT
ATOM      1  C   UNL     1      -7.520  30.269  22.707  1.00  0.00     0.027 C 
ENDROOT
BRANCH   1   2
ATOM      2  C   UNL     1      -8.611  29.506  21.946  1.00  0.00     0.004 C 
BRANCH   2   3
ATOM      3  C   UNL     1      -8.689  28.048  22.415  1.00  0.00    -0.003 C 
ATOM      4  C   UNL     1      -9.299  27.950  23.810  1.00  0.00     0.004 C 
ENDBRANCH   2   3
ENDBRANCH   1   2
BRANCH   1   5
ATOM      5  C   UNL     1      -7.608  31.745  22.451  1.00  0.00    -0.023 C 
ATOM      6  C   UNL     1      -7.883  32.611  23.433  1.00  0.00     0.042 C 
BRANCH   6   7
ATOM      7  C   UNL     1      -7.961  34.066  23.205  1.00  0.00     0.152 C 
ATOM      8  O   UNL     1      -8.118  34.863  24.170  1.00  0.00    -0.295 OA
ATOM      9  C   UNL     1      -7.850  34.603  21.815  1.00  0.00     0.093 C 
ENDBRANCH   6   7
ENDBRANCH   1   5
TORSDOF 4
ENDMDL
MODEL 4
REMARK VINA RESULT:    -4.398      2.392      4.737
REMARK INTER + INTRA:          -5.728
REMARK INTER:                  -5.495
REMARK INTRA:                  -0.233
REMARK UNBOUND:                -0.301
REMARK SMILES CCCCC=CC(C)=O
REMARK SMILES IDX 4 1 3 2 2 3 1 4 5 5 6 6 7 7 9 8 8 9
REMARK H PARENT
REMARK Flexibility Score: inf
ROOT
ATOM      1  C   UNL     1      -8.518  31.342  24.335  1.00  0.00     0.027 C 
ENDROOT
BRANCH   1   2
ATOM      2  C   UNL     1      -7.876  29.954  24.457  1.00  0.00     0.004 C 
BRANCH   2   3
ATOM      3  C   UNL     1      -7.416  29.438  23.089  1.00  0.00    -0.003 C 
ATOM      4  C   UNL     1      -8.229  28.221  22.658  1.00  0.00     0.004 C 
ENDBRANCH   2   3
ENDBRANCH   1   2
BRANCH   1   5
ATOM      5  C   UNL     1      -7.836  32.166  23.283  1.00  0.00    -0.023 C 
ATOM      6  C   UNL     1      -8.528  32.954  22.453  1.00  0.00     0.042 C 
BRANCH   6   7
ATOM      7  C   UNL     1      -7.875  33.782  21.422  1.00  0.00     0.152 C 
ATOM      8  O   UNL     1      -7.635  35.003  21.631  1.00  0.00    -0.295 OA
ATOM      9  C   UNL     1      -7.491  33.169  20.115  1.00  0.00     0.093 C 
ENDBRANCH   6   7
ENDBRANCH   1   5
TORSDOF 4
ENDMDL
MODEL 5
REMARK VINA RESULT:    -4.396      2.176      4.808
REMARK INTER + INTRA:          -5.725
REMARK INTER:                  -5.442
REMARK INTRA:                  -0.283
REMARK UNBOUND:                -0.301
REMARK SMILES CCCCC=CC(C)=O
REMARK SMILES IDX 4 1 3 2 2 3 1 4 5 5 6 6 7 7 9 8 8 9
REMARK H PARENT
REMARK Flexibility Score: inf
ROOT
ATOM      1  C   UNL     1      -7.325  29.190  23.107  1.00  0.00     0.027 C 
ENDROOT
BRANCH   1   2
ATOM      2  C   UNL     1      -8.569  28.434  22.623  1.00  0.00     0.004 C 
BRANCH   2   3
ATOM      3  C   UNL     1      -9.366  27.875  23.807  1.00  0.00    -0.003 C 
ATOM      4  C   UNL     1      -9.535  28.924  24.903  1.00  0.00     0.004 C 
ENDBRANCH   2   3
ENDBRANCH   1   2
BRANCH   1   5
ATOM      5  C   UNL     1      -7.253  30.562  22.503  1.00  0.00    -0.023 C 
ATOM      6  C   UNL     1      -8.330  31.152  21.974  1.00  0.00     0.042 C 
BRANCH   6   7
ATOM      7  C   UNL     1      -8.283  32.504  21.388  1.00  0.00     0.152 C 
ATOM      8  O   UNL     1      -8.899  33.464  21.929  1.00  0.00    -0.295 OA
ATOM      9  C   UNL     1      -7.494  32.743  20.142  1.00  0.00     0.093 C 
ENDBRANCH   6   7
ENDBRANCH   1   5
TORSDOF 4
ENDMDL
MODEL 6
REMARK VINA RESULT:    -4.299      2.351      4.497
REMARK INTER + INTRA:          -5.606
REMARK INTER:                  -5.326
REMARK INTRA:                  -0.280
REMARK UNBOUND:                -0.301
REMARK SMILES CCCCC=CC(C)=O
REMARK SMILES IDX 4 1 3 2 2 3 1 4 5 5 6 6 7 7 9 8 8 9
REMARK H PARENT
REMARK Flexibility Score: inf
ROOT
ATOM      1  C   UNL     1      -7.893  34.293  21.580  1.00  0.00     0.027 C 
ENDROOT
BRANCH   1   2
ATOM      2  C   UNL     1      -8.758  33.042  21.380  1.00  0.00     0.004 C 
BRANCH   2   3
ATOM      3  C   UNL     1      -7.895  31.829  21.018  1.00  0.00    -0.003 C 
ATOM      4  C   UNL     1      -7.637  30.952  22.240  1.00  0.00     0.004 C 
ENDBRANCH   2   3
ENDBRANCH   1   2
BRANCH   1   5
ATOM      5  C   UNL     1      -7.803  34.668  23.030  1.00  0.00    -0.023 C 
ATOM      6  C   UNL     1      -8.588  34.096  23.951  1.00  0.00     0.042 C 
BRANCH   6   7
ATOM      7  C   UNL     1      -8.506  34.440  25.382  1.00  0.00     0.152 C 
ATOM      8  O   UNL     1      -8.276  33.552  26.247  1.00  0.00    -0.295 OA
ATOM      9  C   UNL     1      -8.694  35.858  25.813  1.00  0.00     0.093 C 
ENDBRANCH   6   7
ENDBRANCH   1   5
TORSDOF 4
ENDMDL
MODEL 7
REMARK VINA RESULT:    -4.230      1.562      2.192
REMARK INTER + INTRA:          -5.520
REMARK INTER:                  -5.299
REMARK INTRA:                  -0.221
REMARK UNBOUND:                -0.301
REMARK SMILES CCCCC=CC(C)=O
REMARK SMILES IDX 4 1 3 2 2 3 1 4 5 5 6 6 7 7 9 8 8 9
REMARK H PARENT
REMARK Flexibility Score: inf
ROOT
ATOM      1  C   UNL     1      -7.837  32.793  23.380  1.00  0.00     0.027 C 
ENDROOT
BRANCH   1   2
ATOM      2  C   UNL     1      -8.420  33.686  22.278  1.00  0.00     0.004 C 
BRANCH   2   3
ATOM      3  C   UNL     1      -8.649  32.889  20.989  1.00  0.00    -0.003 C 
ATOM      4  C   UNL     1      -7.410  32.913  20.099  1.00  0.00     0.004 C 
ENDBRANCH   2   3
ENDBRANCH   1   2
BRANCH   1   5
ATOM      5  C   UNL     1      -8.569  31.486  23.466  1.00  0.00    -0.023 C 
ATOM      6  C   UNL     1      -7.921  30.316  23.418  1.00  0.00     0.042 C 
BRANCH   6   7
ATOM      7  C   UNL     1      -8.620  29.021  23.514  1.00  0.00     0.152 C 
ATOM      8  O   UNL     1      -9.284  28.721  24.544  1.00  0.00    -0.295 OA
ATOM      9  C   UNL     1      -8.546  28.055  22.377  1.00  0.00     0.093 C 
ENDBRANCH   6   7
ENDBRANCH   1   5
TORSDOF 4
ENDMDL
MODEL 8
REMARK VINA RESULT:    -4.205      2.504      5.057
REMARK INTER + INTRA:          -5.490
REMARK INTER:                  -5.344
REMARK INTRA:                  -0.146
REMARK UNBOUND:                -0.301
REMARK SMILES CCCCC=CC(C)=O
REMARK SMILES IDX 4 1 3 2 2 3 1 4 5 5 6 6 7 7 9 8 8 9
REMARK H PARENT
REMARK Flexibility Score: inf
ROOT
ATOM      1  C   UNL     1      -8.317  31.406  22.673  1.00  0.00     0.027 C 
ENDROOT
BRANCH   1   2
ATOM      2  C   UNL     1      -7.118  30.449  22.692  1.00  0.00     0.004 C 
BRANCH   2   3
ATOM      3  C   UNL     1      -7.537  29.052  23.165  1.00  0.00    -0.003 C 
ATOM      4  C   UNL     1      -8.648  28.485  22.286  1.00  0.00     0.004 C 
ENDBRANCH   2   3
ENDBRANCH   1   2
BRANCH   1   5
ATOM      5  C   UNL     1      -8.387  32.216  23.934  1.00  0.00    -0.023 C 
ATOM      6  C   UNL     1      -8.393  33.554  23.908  1.00  0.00     0.042 C 
BRANCH   6   7
ATOM      7  C   UNL     1      -8.475  34.368  25.134  1.00  0.00     0.152 C 
ATOM      8  O   UNL     1      -8.205  33.867  26.260  1.00  0.00    -0.295 OA
ATOM      9  C   UNL     1      -8.877  35.804  25.043  1.00  0.00     0.093 C 
ENDBRANCH   6   7
ENDBRANCH   1   5
TORSDOF 4
ENDMDL
MODEL 9
REMARK VINA RESULT:    -4.139      2.765      4.247
REMARK INTER + INTRA:          -5.408
REMARK INTER:                  -5.186
REMARK INTRA:                  -0.222
REMARK UNBOUND:                -0.301
REMARK SMILES CCCCC=CC(C)=O
REMARK SMILES IDX 4 1 3 2 2 3 1 4 5 5 6 6 7 7 9 8 8 9
REMARK H PARENT
REMARK Flexibility Score: inf
ROOT
ATOM      1  C   UNL     1      -8.308  35.251  24.124  1.00  0.00     0.027 C 
ENDROOT
BRANCH   1   2
ATOM      2  C   UNL     1      -8.316  34.625  25.524  1.00  0.00     0.004 C 
BRANCH   2   3
ATOM      3  C   UNL     1      -8.673  33.136  25.458  1.00  0.00    -0.003 C 
ATOM      4  C   UNL     1      -8.467  32.459  26.810  1.00  0.00     0.004 C 
ENDBRANCH   2   3
ENDBRANCH   1   2
BRANCH   1   5
ATOM      5  C   UNL     1      -8.268  34.197  23.056  1.00  0.00    -0.023 C 
ATOM      6  C   UNL     1      -7.959  34.495  21.789  1.00  0.00     0.042 C 
BRANCH   6   7
ATOM      7  C   UNL     1      -7.901  33.472  20.729  1.00  0.00     0.152 C 
ATOM      8  O   UNL     1      -7.122  33.606  19.745  1.00  0.00    -0.295 OA
ATOM      9  C   UNL     1      -8.772  32.262  20.820  1.00  0.00     0.093 C 
ENDBRANCH   6   7
ENDBRANCH   1   5
TORSDOF 4
ENDMDL
