MODEL 1
REMARK VINA RESULT:    -5.389      0.000      0.000
REMARK INTER + INTRA:         -11.911
REMARK INTER:                  -9.800
REMARK INTRA:                  -2.111
REMARK UNBOUND:                -2.111
REMARK SMILES CCCCCCCCCCCCCC[C@H](C)C(=O)[O-]
REMARK SMILES IDX 9 1 10 2 11 3 12 4 13 5 14 6 15 7 16 8 17 9 18 10 19 11 8 12
REMARK SMILES IDX 7 13 6 14 5 15 4 16 3 17 2 18 1 19
REMARK H PARENT
REMARK Flexibility Score: inf
ROOT
ATOM      1  C   UNL     1      -6.426  11.349  -9.351  1.00  0.00     0.000 C 
ENDROOT
BRANCH   1   2
ATOM      2  C   UNL     1      -7.846  11.345  -9.947  1.00  0.00     0.000 C 
BRANCH   2   3
ATOM      3  C   UNL     1      -8.201  10.112 -10.804  1.00  0.00     0.000 C 
BRANCH   3   4
ATOM      4  C   UNL     1      -7.002   9.374 -11.427  1.00  0.00     0.000 C 
BRANCH   4   5
ATOM      5  C   UNL     1      -6.761   7.990 -10.799  1.00  0.00     0.001 C 
BRANCH   5   6
ATOM      6  C   UNL     1      -7.815   7.626  -9.735  1.00  0.00     0.009 C 
BRANCH   6   7
ATOM      7  C   UNL     1      -7.234   6.959  -8.467  1.00  0.00     0.032 C 
ATOM      8  C   UNL     1      -6.350   5.765  -8.849  1.00  0.00     0.014 C 
BRANCH   7   9
ATOM      9  C   UNL     1      -8.322   6.510  -7.528  1.00  0.00     0.044 C 
ATOM     10  O   UNL     1      -9.245   5.754  -7.932  1.00  0.00    -0.550 OA
ATOM     11  O   UNL     1      -8.313   6.934  -6.206  1.00  0.00    -0.550 OA
ENDBRANCH   7   9
ENDBRANCH   6   7
ENDBRANCH   5   6
ENDBRANCH   4   5
ENDBRANCH   3   4
ENDBRANCH   2   3
ENDBRANCH   1   2
BRANCH   1  12
ATOM     12  C   UNL     1      -6.346  10.629  -7.994  1.00  0.00     0.000 C 
BRANCH  12  13
ATOM     13  C   UNL     1      -4.958  10.023  -7.716  1.00  0.00    -0.000 C 
BRANCH  13  14
ATOM     14  C   UNL     1      -4.345   9.217  -8.876  1.00  0.00    -0.000 C 
BRANCH  14  15
ATOM     15  C   UNL     1      -3.543   7.994  -8.400  1.00  0.00    -0.000 C 
BRANCH  15  16
ATOM     16  C   UNL     1      -3.775   7.678  -6.914  1.00  0.00    -0.000 C 
BRANCH  16  17
ATOM     17  C   UNL     1      -2.503   7.174  -6.208  1.00  0.00    -0.000 C 
BRANCH  17  18
ATOM     18  C   UNL     1      -1.463   8.286  -6.008  1.00  0.00    -0.003 C 
ATOM     19  C   UNL     1      -0.383   7.910  -4.993  1.00  0.00     0.004 C 
ENDBRANCH  17  18
ENDBRANCH  16  17
ENDBRANCH  15  16
ENDBRANCH  14  15
ENDBRANCH  13  14
ENDBRANCH  12  13
ENDBRANCH   1  12
TORSDOF 14
ENDMDL
MODEL 2
REMARK VINA RESULT:    -5.126      2.351      5.973
REMARK INTER + INTRA:         -11.433
REMARK INTER:                  -9.412
REMARK INTRA:                  -2.021
REMARK UNBOUND:                -2.111
REMARK SMILES CCCCCCCCCCCCCC[C@H](C)C(=O)[O-]
REMARK SMILES IDX 9 1 10 2 11 3 12 4 13 5 14 6 15 7 16 8 17 9 18 10 19 11 8 12
REMARK SMILES IDX 7 13 6 14 5 15 4 16 3 17 2 18 1 19
REMARK H PARENT
REMARK Flexibility Score: inf
ROOT
ATOM      1  C   UNL     1      -3.722   6.870  -7.015  1.00  0.00     0.000 C 
ENDROOT
BRANCH   1   2
ATOM      2  C   UNL     1      -3.525   8.313  -7.517  1.00  0.00     0.000 C 
BRANCH   2   3
ATOM      3  C   UNL     1      -4.431   9.373  -6.859  1.00  0.00     0.000 C 
BRANCH   3   4
ATOM      4  C   UNL     1      -5.356  10.140  -7.822  1.00  0.00     0.000 C 
BRANCH   4   5
ATOM      5  C   UNL     1      -4.676  10.475  -9.161  1.00  0.00     0.001 C 
BRANCH   5   6
ATOM      6  C   UNL     1      -5.685  10.846 -10.265  1.00  0.00     0.009 C 
BRANCH   6   7
ATOM      7  C   UNL     1      -6.714   9.739 -10.585  1.00  0.00     0.032 C 
ATOM      8  C   UNL     1      -6.525   9.230 -12.019  1.00  0.00     0.014 C 
BRANCH   7   9
ATOM      9  C   UNL     1      -8.127  10.223 -10.397  1.00  0.00     0.044 C 
ATOM     10  O   UNL     1      -8.357  11.326  -9.834  1.00  0.00    -0.550 OA
ATOM     11  O   UNL     1      -9.189   9.448 -10.843  1.00  0.00    -0.550 OA
ENDBRANCH   7   9
ENDBRANCH   6   7
ENDBRANCH   5   6
ENDBRANCH   4   5
ENDBRANCH   3   4
ENDBRANCH   2   3
ENDBRANCH   1   2
BRANCH   1  12
ATOM     12  C   UNL     1      -5.128   6.321  -7.314  1.00  0.00     0.000 C 
BRANCH  12  13
ATOM     13  C   UNL     1      -5.455   6.293  -8.819  1.00  0.00    -0.000 C 
BRANCH  13  14
ATOM     14  C   UNL     1      -6.891   6.703  -9.190  1.00  0.00    -0.000 C 
BRANCH  14  15
ATOM     15  C   UNL     1      -7.703   7.205  -7.984  1.00  0.00    -0.000 C 
BRANCH  15  16
ATOM     16  C   UNL     1      -9.070   6.510  -7.862  1.00  0.00    -0.000 C 
BRANCH  16  17
ATOM     17  C   UNL     1      -9.693   6.184  -9.231  1.00  0.00    -0.000 C 
BRANCH  17  18
ATOM     18  C   UNL     1     -10.157   4.723  -9.331  1.00  0.00    -0.003 C 
ATOM     19  C   UNL     1     -11.125   4.487 -10.490  1.00  0.00     0.004 C 
ENDBRANCH  17  18
ENDBRANCH  16  17
ENDBRANCH  15  16
ENDBRANCH  14  15
ENDBRANCH  13  14
ENDBRANCH  12  13
ENDBRANCH   1  12
TORSDOF 14
ENDMDL
MODEL 3
REMARK VINA RESULT:    -5.124      2.986      6.513
REMARK INTER + INTRA:         -11.429
REMARK INTER:                  -9.848
REMARK INTRA:                  -1.580
REMARK UNBOUND:                -2.111
REMARK SMILES CCCCCCCCCCCCCC[C@H](C)C(=O)[O-]
REMARK SMILES IDX 9 1 10 2 11 3 12 4 13 5 14 6 15 7 16 8 17 9 18 10 19 11 8 12
REMARK SMILES IDX 7 13 6 14 5 15 4 16 3 17 2 18 1 19
REMARK H PARENT
REMARK Flexibility Score: inf
ROOT
ATOM      1  C   UNL     1      -5.522   5.950  -8.871  1.00  0.00     0.000 C 
ENDROOT
BRANCH   1   2
ATOM      2  C   UNL     1      -5.166   6.519  -7.485  1.00  0.00     0.000 C 
BRANCH   2   3
ATOM      3  C   UNL     1      -3.835   7.295  -7.410  1.00  0.00     0.000 C 
BRANCH   3   4
ATOM      4  C   UNL     1      -3.862   8.711  -8.015  1.00  0.00     0.000 C 
BRANCH   4   5
ATOM      5  C   UNL     1      -4.690   9.702  -7.178  1.00  0.00     0.001 C 
BRANCH   5   6
ATOM      6  C   UNL     1      -5.933  10.221  -7.925  1.00  0.00     0.009 C 
BRANCH   6   7
ATOM      7  C   UNL     1      -5.679  10.586  -9.406  1.00  0.00     0.032 C 
ATOM      8  C   UNL     1      -5.162  12.025  -9.521  1.00  0.00     0.014 C 
BRANCH   7   9
ATOM      9  C   UNL     1      -6.922  10.421 -10.239  1.00  0.00     0.044 C 
ATOM     10  O   UNL     1      -6.892   9.757 -11.310  1.00  0.00    -0.550 OA
ATOM     11  O   UNL     1      -8.112  11.006  -9.830  1.00  0.00    -0.550 OA
ENDBRANCH   7   9
ENDBRANCH   6   7
ENDBRANCH   5   6
ENDBRANCH   4   5
ENDBRANCH   3   4
ENDBRANCH   2   3
ENDBRANCH   1   2
BRANCH   1  12
ATOM     12  C   UNL     1      -6.608   6.768  -9.591  1.00  0.00     0.000 C 
BRANCH  12  13
ATOM     13  C   UNL     1      -7.798   7.120  -8.680  1.00  0.00    -0.000 C 
BRANCH  13  14
ATOM     14  C   UNL     1      -9.143   6.483  -9.075  1.00  0.00    -0.000 C 
BRANCH  14  15
ATOM     15  C   UNL     1      -9.079   4.949  -9.161  1.00  0.00    -0.000 C 
BRANCH  15  16
ATOM     16  C   UNL     1     -10.382   4.334  -9.698  1.00  0.00    -0.000 C 
BRANCH  16  17
ATOM     17  C   UNL     1     -10.449   2.810  -9.487  1.00  0.00    -0.000 C 
BRANCH  17  18
ATOM     18  C   UNL     1      -9.211   2.262  -8.763  1.00  0.00    -0.003 C 
ATOM     19  C   UNL     1      -9.566   1.314  -7.618  1.00  0.00     0.004 C 
ENDBRANCH  17  18
ENDBRANCH  16  17
ENDBRANCH  15  16
ENDBRANCH  14  15
ENDBRANCH  13  14
ENDBRANCH  12  13
ENDBRANCH   1  12
TORSDOF 14
ENDMDL
MODEL 4
REMARK VINA RESULT:    -5.073     12.128     13.322
REMARK INTER + INTRA:         -11.336
REMARK INTER:                  -8.896
REMARK INTRA:                  -2.440
REMARK UNBOUND:                -2.111
REMARK SMILES CCCCCCCCCCCCCC[C@H](C)C(=O)[O-]
REMARK SMILES IDX 9 1 10 2 11 3 12 4 13 5 14 6 15 7 16 8 17 9 18 10 19 11 8 12
REMARK SMILES IDX 7 13 6 14 5 15 4 16 3 17 2 18 1 19
REMARK H PARENT
REMARK Flexibility Score: inf
ROOT
ATOM      1  C   UNL     1       6.458  13.722 -17.480  1.00  0.00     0.000 C 
ENDROOT
BRANCH   1   2
ATOM      2  C   UNL     1       5.826  14.705 -16.476  1.00  0.00     0.000 C 
BRANCH   2   3
ATOM      3  C   UNL     1       4.312  14.943 -16.646  1.00  0.00     0.000 C 
BRANCH   3   4
ATOM      4  C   UNL     1       3.729  14.538 -18.012  1.00  0.00     0.000 C 
BRANCH   4   5
ATOM      5  C   UNL     1       2.665  13.432 -17.903  1.00  0.00     0.001 C 
BRANCH   5   6
ATOM      6  C   UNL     1       2.247  13.148 -16.448  1.00  0.00     0.009 C 
BRANCH   6   7
ATOM      7  C   UNL     1       2.089  11.647 -16.113  1.00  0.00     0.032 C 
ATOM      8  C   UNL     1       1.570  10.878 -17.334  1.00  0.00     0.014 C 
BRANCH   7   9
ATOM      9  C   UNL     1       1.166  11.433 -14.943  1.00  0.00     0.044 C 
ATOM     10  O   UNL     1       0.336  12.321 -14.612  1.00  0.00    -0.550 OA
ATOM     11  O   UNL     1       1.229  10.251 -14.219  1.00  0.00    -0.550 OA
ENDBRANCH   7   9
ENDBRANCH   6   7
ENDBRANCH   5   6
ENDBRANCH   4   5
ENDBRANCH   3   4
ENDBRANCH   2   3
ENDBRANCH   1   2
BRANCH   1  12
ATOM     12  C   UNL     1       6.875  12.391 -16.832  1.00  0.00     0.000 C 
BRANCH  12  13
ATOM     13  C   UNL     1       5.675  11.546 -16.367  1.00  0.00    -0.000 C 
BRANCH  13  14
ATOM     14  C   UNL     1       6.014  10.388 -15.411  1.00  0.00    -0.000 C 
BRANCH  14  15
ATOM     15  C   UNL     1       5.580  10.660 -13.961  1.00  0.00    -0.000 C 
BRANCH  15  16
ATOM     16  C   UNL     1       4.836  11.997 -13.808  1.00  0.00    -0.000 C 
BRANCH  16  17
ATOM     17  C   UNL     1       5.527  12.952 -12.817  1.00  0.00    -0.000 C 
BRANCH  17  18
ATOM     18  C   UNL     1       6.871  13.474 -13.346  1.00  0.00    -0.003 C 
ATOM     19  C   UNL     1       7.911  13.657 -12.241  1.00  0.00     0.004 C 
ENDBRANCH  17  18
ENDBRANCH  16  17
ENDBRANCH  15  16
ENDBRANCH  14  15
ENDBRANCH  13  14
ENDBRANCH  12  13
ENDBRANCH   1  12
TORSDOF 14
ENDMDL
MODEL 5
REMARK VINA RESULT:    -5.070      1.838      2.827
REMARK INTER + INTRA:         -11.330
REMARK INTER:                  -9.675
REMARK INTRA:                  -1.655
REMARK UNBOUND:                -2.111
REMARK SMILES CCCCCCCCCCCCCC[C@H](C)C(=O)[O-]
REMARK SMILES IDX 9 1 10 2 11 3 12 4 13 5 14 6 15 7 16 8 17 9 18 10 19 11 8 12
REMARK SMILES IDX 7 13 6 14 5 15 4 16 3 17 2 18 1 19
REMARK H PARENT
REMARK Flexibility Score: inf
ROOT
ATOM      1  C   UNL     1      -5.234  10.297 -10.434  1.00  0.00     0.000 C 
ENDROOT
BRANCH   1   2
ATOM      2  C   UNL     1      -6.557   9.811 -11.055  1.00  0.00     0.000 C 
BRANCH   2   3
ATOM      3  C   UNL     1      -6.625   8.304 -11.373  1.00  0.00     0.000 C 
BRANCH   3   4
ATOM      4  C   UNL     1      -6.636   7.371 -10.148  1.00  0.00     0.000 C 
BRANCH   4   5
ATOM      5  C   UNL     1      -7.795   7.669  -9.181  1.00  0.00     0.001 C 
BRANCH   5   6
ATOM      6  C   UNL     1      -8.424   6.392  -8.592  1.00  0.00     0.009 C 
BRANCH   6   7
ATOM      7  C   UNL     1      -9.251   5.565  -9.602  1.00  0.00     0.032 C 
ATOM      8  C   UNL     1     -10.689   6.093  -9.676  1.00  0.00     0.014 C 
BRANCH   7   9
ATOM      9  C   UNL     1      -9.262   4.102  -9.247  1.00  0.00     0.044 C 
ATOM     10  O   UNL     1      -8.196   3.430  -9.267  1.00  0.00    -0.550 OA
ATOM     11  O   UNL     1     -10.455   3.484  -8.896  1.00  0.00    -0.550 OA
ENDBRANCH   7   9
ENDBRANCH   6   7
ENDBRANCH   5   6
ENDBRANCH   4   5
ENDBRANCH   3   4
ENDBRANCH   2   3
ENDBRANCH   1   2
BRANCH   1  12
ATOM     12  C   UNL     1      -5.433  11.435  -9.419  1.00  0.00     0.000 C 
BRANCH  12  13
ATOM     13  C   UNL     1      -6.245  11.004  -8.184  1.00  0.00    -0.000 C 
BRANCH  13  14
ATOM     14  C   UNL     1      -5.688   9.789  -7.419  1.00  0.00    -0.000 C 
BRANCH  14  15
ATOM     15  C   UNL     1      -4.151   9.775  -7.351  1.00  0.00    -0.000 C 
BRANCH  15  16
ATOM     16  C   UNL     1      -3.553   8.431  -7.799  1.00  0.00    -0.000 C 
BRANCH  16  17
ATOM     17  C   UNL     1      -2.978   7.617  -6.625  1.00  0.00    -0.000 C 
BRANCH  17  18
ATOM     18  C   UNL     1      -3.636   6.236  -6.491  1.00  0.00    -0.003 C 
ATOM     19  C   UNL     1      -5.013   6.170  -7.152  1.00  0.00     0.004 C 
ENDBRANCH  17  18
ENDBRANCH  16  17
ENDBRANCH  15  16
ENDBRANCH  14  15
ENDBRANCH  13  14
ENDBRANCH  12  13
ENDBRANCH   1  12
TORSDOF 14
ENDMDL
MODEL 6
REMARK VINA RESULT:    -5.040      1.928      3.622
REMARK INTER + INTRA:         -11.276
REMARK INTER:                  -9.234
REMARK INTRA:                  -2.042
REMARK UNBOUND:                -2.111
REMARK SMILES CCCCCCCCCCCCCC[C@H](C)C(=O)[O-]
REMARK SMILES IDX 9 1 10 2 11 3 12 4 13 5 14 6 15 7 16 8 17 9 18 10 19 11 8 12
REMARK SMILES IDX 7 13 6 14 5 15 4 16 3 17 2 18 1 19
REMARK H PARENT
REMARK Flexibility Score: inf
ROOT
ATOM      1  C   UNL     1      -7.630   8.598 -10.510  1.00  0.00     0.000 C 
ENDROOT
BRANCH   1   2
ATOM      2  C   UNL     1      -6.537   7.552 -10.222  1.00  0.00     0.000 C 
BRANCH   2   3
ATOM      3  C   UNL     1      -6.852   6.561  -9.083  1.00  0.00     0.000 C 
BRANCH   3   4
ATOM      4  C   UNL     1      -7.508   7.177  -7.834  1.00  0.00     0.000 C 
BRANCH   4   5
ATOM      5  C   UNL     1      -8.810   6.464  -7.430  1.00  0.00     0.001 C 
BRANCH   5   6
ATOM      6  C   UNL     1      -9.693   6.103  -8.641  1.00  0.00     0.009 C 
BRANCH   6   7
ATOM      7  C   UNL     1     -10.474   4.779  -8.485  1.00  0.00     0.032 C 
ATOM      8  C   UNL     1     -10.513   4.349  -7.014  1.00  0.00     0.014 C 
BRANCH   7   9
ATOM      9  C   UNL     1      -9.876   3.680  -9.323  1.00  0.00     0.044 C 
ATOM     10  O   UNL     1      -8.646   3.419  -9.254  1.00  0.00    -0.550 OA
ATOM     11  O   UNL     1     -10.684   2.948 -10.183  1.00  0.00    -0.550 OA
ENDBRANCH   7   9
ENDBRANCH   6   7
ENDBRANCH   5   6
ENDBRANCH   4   5
ENDBRANCH   3   4
ENDBRANCH   2   3
ENDBRANCH   1   2
BRANCH   1  12
ATOM     12  C   UNL     1      -7.056   9.985 -10.847  1.00  0.00     0.000 C 
BRANCH  12  13
ATOM     13  C   UNL     1      -5.545  10.093 -10.572  1.00  0.00    -0.000 C 
BRANCH  13  14
ATOM     14  C   UNL     1      -5.156  10.947  -9.352  1.00  0.00    -0.000 C 
BRANCH  14  15
ATOM     15  C   UNL     1      -5.753  10.421  -8.035  1.00  0.00    -0.000 C 
BRANCH  15  16
ATOM     16  C   UNL     1      -4.697   9.769  -7.128  1.00  0.00    -0.000 C 
BRANCH  16  17
ATOM     17  C   UNL     1      -3.862   8.703  -7.860  1.00  0.00    -0.000 C 
BRANCH  17  18
ATOM     18  C   UNL     1      -3.156   7.743  -6.890  1.00  0.00    -0.003 C 
ATOM     19  C   UNL     1      -3.968   6.477  -6.616  1.00  0.00     0.004 C 
ENDBRANCH  17  18
ENDBRANCH  16  17
ENDBRANCH  15  16
ENDBRANCH  14  15
ENDBRANCH  13  14
ENDBRANCH  12  13
ENDBRANCH   1  12
TORSDOF 14
ENDMDL
MODEL 7
REMARK VINA RESULT:    -4.993     11.982     13.453
REMARK INTER + INTRA:         -11.190
REMARK INTER:                  -8.934
REMARK INTRA:                  -2.256
REMARK UNBOUND:                -2.111
REMARK SMILES CCCCCCCCCCCCCC[C@H](C)C(=O)[O-]
REMARK SMILES IDX 9 1 10 2 11 3 12 4 13 5 14 6 15 7 16 8 17 9 18 10 19 11 8 12
REMARK SMILES IDX 7 13 6 14 5 15 4 16 3 17 2 18 1 19
REMARK H PARENT
REMARK Flexibility Score: inf
ROOT
ATOM      1  C   UNL     1       5.647  11.094 -16.138  1.00  0.00     0.000 C 
ENDROOT
BRANCH   1   2
ATOM      2  C   UNL     1       6.666  12.180 -16.529  1.00  0.00     0.000 C 
BRANCH   2   3
ATOM      3  C   UNL     1       6.078  13.587 -16.764  1.00  0.00     0.000 C 
BRANCH   3   4
ATOM      4  C   UNL     1       4.629  13.618 -17.283  1.00  0.00     0.000 C 
BRANCH   4   5
ATOM      5  C   UNL     1       3.627  14.113 -16.225  1.00  0.00     0.001 C 
BRANCH   5   6
ATOM      6  C   UNL     1       2.555  13.061 -15.880  1.00  0.00     0.009 C 
BRANCH   6   7
ATOM      7  C   UNL     1       2.300  12.024 -16.997  1.00  0.00     0.032 C 
ATOM      8  C   UNL     1       1.213  12.525 -17.955  1.00  0.00     0.014 C 
BRANCH   7   9
ATOM      9  C   UNL     1       1.904  10.686 -16.431  1.00  0.00     0.044 C 
ATOM     10  O   UNL     1       1.504   9.762 -17.190  1.00  0.00    -0.550 OA
ATOM     11  O   UNL     1       1.976  10.465 -15.063  1.00  0.00    -0.550 OA
ENDBRANCH   7   9
ENDBRANCH   6   7
ENDBRANCH   5   6
ENDBRANCH   4   5
ENDBRANCH   3   4
ENDBRANCH   2   3
ENDBRANCH   1   2
BRANCH   1  12
ATOM     12  C   UNL     1       6.207  10.089 -15.117  1.00  0.00     0.000 C 
BRANCH  12  13
ATOM     13  C   UNL     1       6.013  10.542 -13.658  1.00  0.00    -0.000 C 
BRANCH  13  14
ATOM     14  C   UNL     1       4.900  11.582 -13.433  1.00  0.00    -0.000 C 
BRANCH  14  15
ATOM     15  C   UNL     1       5.440  12.956 -13.001  1.00  0.00    -0.000 C 
BRANCH  15  16
ATOM     16  C   UNL     1       6.976  12.999 -12.958  1.00  0.00    -0.000 C 
BRANCH  16  17
ATOM     17  C   UNL     1       7.524  13.211 -11.535  1.00  0.00    -0.000 C 
BRANCH  17  18
ATOM     18  C   UNL     1       8.718  12.296 -11.224  1.00  0.00    -0.003 C 
ATOM     19  C   UNL     1       8.290  10.910 -10.741  1.00  0.00     0.004 C 
ENDBRANCH  17  18
ENDBRANCH  16  17
ENDBRANCH  15  16
ENDBRANCH  14  15
ENDBRANCH  13  14
ENDBRANCH  12  13
ENDBRANCH   1  12
TORSDOF 14
ENDMDL
MODEL 8
REMARK VINA RESULT:    -4.924      2.628      6.165
REMARK INTER + INTRA:         -11.064
REMARK INTER:                  -9.408
REMARK INTRA:                  -1.657
REMARK UNBOUND:                -2.111
REMARK SMILES CCCCCCCCCCCCCC[C@H](C)C(=O)[O-]
REMARK SMILES IDX 9 1 10 2 11 3 12 4 13 5 14 6 15 7 16 8 17 9 18 10 19 11 8 12
REMARK SMILES IDX 7 13 6 14 5 15 4 16 3 17 2 18 1 19
REMARK H PARENT
REMARK Flexibility Score: inf
ROOT
ATOM      1  C   UNL     1      -6.080   6.184  -9.036  1.00  0.00     0.000 C 
ENDROOT
BRANCH   1   2
ATOM      2  C   UNL     1      -5.452   6.951  -7.858  1.00  0.00     0.000 C 
BRANCH   2   3
ATOM      3  C   UNL     1      -4.008   7.445  -8.083  1.00  0.00     0.000 C 
BRANCH   3   4
ATOM      4  C   UNL     1      -3.602   8.690  -7.273  1.00  0.00     0.000 C 
BRANCH   4   5
ATOM      5  C   UNL     1      -4.740   9.719  -7.150  1.00  0.00     0.001 C 
BRANCH   5   6
ATOM      6  C   UNL     1      -4.891  10.595  -8.408  1.00  0.00     0.009 C 
BRANCH   6   7
ATOM      7  C   UNL     1      -6.135  10.268  -9.265  1.00  0.00     0.032 C 
ATOM      8  C   UNL     1      -5.726   9.973 -10.713  1.00  0.00     0.014 C 
BRANCH   7   9
ATOM      9  C   UNL     1      -7.139  11.389  -9.236  1.00  0.00     0.044 C 
ATOM     10  O   UNL     1      -6.961  12.390  -8.492  1.00  0.00    -0.550 OA
ATOM     11  O   UNL     1      -8.275  11.322 -10.032  1.00  0.00    -0.550 OA
ENDBRANCH   7   9
ENDBRANCH   6   7
ENDBRANCH   5   6
ENDBRANCH   4   5
ENDBRANCH   3   4
ENDBRANCH   2   3
ENDBRANCH   1   2
BRANCH   1  12
ATOM     12  C   UNL     1      -7.261   6.934  -9.676  1.00  0.00     0.000 C 
BRANCH  12  13
ATOM     13  C   UNL     1      -8.611   6.605  -9.012  1.00  0.00    -0.000 C 
BRANCH  13  14
ATOM     14  C   UNL     1      -9.207   5.232  -9.372  1.00  0.00    -0.000 C 
BRANCH  14  15
ATOM     15  C   UNL     1     -10.125   4.668  -8.275  1.00  0.00    -0.000 C 
BRANCH  15  16
ATOM     16  C   UNL     1     -10.597   5.748  -7.288  1.00  0.00    -0.000 C 
BRANCH  16  17
ATOM     17  C   UNL     1     -10.988   5.169  -5.916  1.00  0.00    -0.000 C 
BRANCH  17  18
ATOM     18  C   UNL     1      -9.837   5.234  -4.901  1.00  0.00    -0.003 C 
ATOM     19  C   UNL     1      -8.809   6.314  -5.241  1.00  0.00     0.004 C 
ENDBRANCH  17  18
ENDBRANCH  16  17
ENDBRANCH  15  16
ENDBRANCH  14  15
ENDBRANCH  13  14
ENDBRANCH  12  13
ENDBRANCH   1  12
TORSDOF 14
ENDMDL
MODEL 9
REMARK VINA RESULT:    -4.886      2.141      4.912
REMARK INTER + INTRA:         -10.996
REMARK INTER:                  -9.098
REMARK INTRA:                  -1.898
REMARK UNBOUND:                -2.111
REMARK SMILES CCCCCCCCCCCCCC[C@H](C)C(=O)[O-]
REMARK SMILES IDX 9 1 10 2 11 3 12 4 13 5 14 6 15 7 16 8 17 9 18 10 19 11 8 12
REMARK SMILES IDX 7 13 6 14 5 15 4 16 3 17 2 18 1 19
REMARK H PARENT
REMARK Flexibility Score: inf
ROOT
ATOM      1  C   UNL     1      -4.777   7.234  -8.360  1.00  0.00     0.000 C 
ENDROOT
BRANCH   1   2
ATOM      2  C   UNL     1      -5.846   6.361  -7.677  1.00  0.00     0.000 C 
BRANCH   2   3
ATOM      3  C   UNL     1      -7.308   6.752  -7.975  1.00  0.00     0.000 C 
BRANCH   3   4
ATOM      4  C   UNL     1      -7.959   6.018  -9.162  1.00  0.00     0.000 C 
BRANCH   4   5
ATOM      5  C   UNL     1      -9.449   6.363  -9.332  1.00  0.00     0.001 C 
BRANCH   5   6
ATOM      6  C   UNL     1     -10.311   5.132  -9.675  1.00  0.00     0.009 C 
BRANCH   6   7
ATOM      7  C   UNL     1     -11.021   4.495  -8.459  1.00  0.00     0.032 C 
ATOM      8  C   UNL     1     -11.103   5.497  -7.301  1.00  0.00     0.014 C 
BRANCH   7   9
ATOM      9  C   UNL     1     -10.323   3.242  -8.002  1.00  0.00     0.044 C 
ATOM     10  O   UNL     1      -9.519   2.642  -8.765  1.00  0.00    -0.550 OA
ATOM     11  O   UNL     1     -10.567   2.737  -6.732  1.00  0.00    -0.550 OA
ENDBRANCH   7   9
ENDBRANCH   6   7
ENDBRANCH   5   6
ENDBRANCH   4   5
ENDBRANCH   3   4
ENDBRANCH   2   3
ENDBRANCH   1   2
BRANCH   1  12
ATOM     12  C   UNL     1      -3.757   7.815  -7.367  1.00  0.00     0.000 C 
BRANCH  12  13
ATOM     13  C   UNL     1      -3.807   9.352  -7.283  1.00  0.00    -0.000 C 
BRANCH  13  14
ATOM     14  C   UNL     1      -5.173   9.986  -7.603  1.00  0.00    -0.000 C 
BRANCH  14  15
ATOM     15  C   UNL     1      -5.126  10.938  -8.810  1.00  0.00    -0.000 C 
BRANCH  15  16
ATOM     16  C   UNL     1      -6.527  11.335  -9.303  1.00  0.00    -0.000 C 
BRANCH  16  17
ATOM     17  C   UNL     1      -7.454  10.122  -9.499  1.00  0.00    -0.000 C 
BRANCH  17  18
ATOM     18  C   UNL     1      -7.631   9.752 -10.980  1.00  0.00    -0.003 C 
ATOM     19  C   UNL     1      -6.620   8.708 -11.453  1.00  0.00     0.004 C 
ENDBRANCH  17  18
ENDBRANCH  16  17
ENDBRANCH  15  16
ENDBRANCH  14  15
ENDBRANCH  13  14
ENDBRANCH  12  13
ENDBRANCH   1  12
TORSDOF 14
ENDMDL
