MODEL 1
REMARK VINA RESULT:    -4.359      0.000      0.000
REMARK INTER + INTRA:          -5.047
REMARK INTER:                  -4.742
REMARK INTRA:                  -0.305
REMARK UNBOUND:                -0.305
REMARK SMILES CC(=O)c1cc(C)ccc1O
REMARK SMILES IDX 7 1 6 2 5 3 4 4 10 5 9 6 8 7 2 8 3 9 1 10 11 11
REMARK H PARENT 11 12
REMARK Flexibility Score: inf
ROOT
ATOM      1  C   UNL     1      80.862  19.125   1.838  1.00  0.00     0.044 C 
ATOM      2  C   UNL     1      79.864  18.010   1.934  1.00  0.00    -0.050 A 
ATOM      3  C   UNL     1      79.923  17.099   3.000  1.00  0.00     0.019 A 
ATOM      4  C   UNL     1      78.977  16.062   3.121  1.00  0.00     0.059 A 
ATOM      5  C   UNL     1      77.937  15.974   2.166  1.00  0.00     0.126 A 
ATOM      6  C   UNL     1      77.877  16.896   1.110  1.00  0.00     0.047 A 
ATOM      7  C   UNL     1      78.829  17.908   0.997  1.00  0.00     0.007 A 
ENDROOT
BRANCH   4   8
ATOM      8  C   UNL     1      79.099  15.111   4.257  1.00  0.00     0.163 C 
ATOM      9  O   UNL     1      78.956  13.875   4.047  1.00  0.00    -0.294 OA
ATOM     10  C   UNL     1      79.390  15.562   5.657  1.00  0.00     0.093 C 
ENDBRANCH   4   8
BRANCH   5  11
ATOM     11  O   UNL     1      76.948  14.997   2.272  1.00  0.00    -0.507 OA
ATOM     12  H   UNL     1      75.971  15.237   2.397  1.00  0.00     0.293 HD
ENDBRANCH   5  11
TORSDOF 2
ENDMDL
MODEL 2
REMARK VINA RESULT:    -4.250      1.812      3.861
REMARK INTER + INTRA:          -4.928
REMARK INTER:                  -4.623
REMARK INTRA:                  -0.305
REMARK UNBOUND:                -0.305
REMARK SMILES CC(=O)c1cc(C)ccc1O
REMARK SMILES IDX 7 1 6 2 5 3 4 4 10 5 9 6 8 7 2 8 3 9 1 10 11 11
REMARK H PARENT 11 12
REMARK Flexibility Score: inf
ROOT
ATOM      1  C   UNL     1      79.396  14.896   5.767  1.00  0.00     0.044 C 
ATOM      2  C   UNL     1      79.250  15.016   4.279  1.00  0.00    -0.050 A 
ATOM      3  C   UNL     1      79.398  16.263   3.654  1.00  0.00     0.019 A 
ATOM      4  C   UNL     1      79.292  16.390   2.255  1.00  0.00     0.059 A 
ATOM      5  C   UNL     1      79.070  15.227   1.480  1.00  0.00     0.126 A 
ATOM      6  C   UNL     1      78.936  13.982   2.111  1.00  0.00     0.047 A 
ATOM      7  C   UNL     1      79.031  13.875   3.498  1.00  0.00     0.007 A 
ENDROOT
BRANCH   4   8
ATOM      8  C   UNL     1      79.434  17.740   1.646  1.00  0.00     0.163 C 
ATOM      9  O   UNL     1      78.627  18.099   0.746  1.00  0.00    -0.294 OA
ATOM     10  C   UNL     1      80.506  18.701   2.061  1.00  0.00     0.093 C 
ENDBRANCH   4   8
BRANCH   5  11
ATOM     11  O   UNL     1      79.009  15.295   0.089  1.00  0.00    -0.507 OA
ATOM     12  H   UNL     1      78.149  15.518  -0.397  1.00  0.00     0.293 HD
ENDBRANCH   5  11
TORSDOF 2
ENDMDL
MODEL 3
REMARK VINA RESULT:    -4.163      1.505      2.941
REMARK INTER + INTRA:          -4.833
REMARK INTER:                  -4.529
REMARK INTRA:                  -0.304
REMARK UNBOUND:                -0.305
REMARK SMILES CC(=O)c1cc(C)ccc1O
REMARK SMILES IDX 7 1 6 2 5 3 4 4 10 5 9 6 8 7 2 8 3 9 1 10 11 11
REMARK H PARENT 11 12
REMARK Flexibility Score: inf
ROOT
ATOM      1  C   UNL     1      80.500  18.774   2.124  1.00  0.00     0.044 C 
ATOM      2  C   UNL     1      79.863  17.503   2.602  1.00  0.00    -0.050 A 
ATOM      3  C   UNL     1      79.434  16.538   1.679  1.00  0.00     0.019 A 
ATOM      4  C   UNL     1      78.859  15.327   2.111  1.00  0.00     0.059 A 
ATOM      5  C   UNL     1      78.752  15.080   3.501  1.00  0.00     0.126 A 
ATOM      6  C   UNL     1      79.195  16.044   4.417  1.00  0.00     0.047 A 
ATOM      7  C   UNL     1      79.750  17.244   3.973  1.00  0.00     0.007 A 
ENDROOT
BRANCH   4   8
ATOM      8  C   UNL     1      78.400  14.347   1.090  1.00  0.00     0.163 C 
ATOM      9  O   UNL     1      77.229  13.883   1.161  1.00  0.00    -0.294 OA
ATOM     10  C   UNL     1      79.279  13.884  -0.032  1.00  0.00     0.093 C 
ENDBRANCH   4   8
BRANCH   5  11
ATOM     11  O   UNL     1      78.237  13.875   3.977  1.00  0.00    -0.507 OA
ATOM     12  H   UNL     1      77.687  13.828   4.827  1.00  0.00     0.293 HD
ENDBRANCH   5  11
TORSDOF 2
ENDMDL
MODEL 4
REMARK VINA RESULT:    -3.684      2.060      4.011
REMARK INTER + INTRA:          -4.312
REMARK INTER:                  -4.011
REMARK INTRA:                  -0.301
REMARK UNBOUND:                -0.305
REMARK SMILES CC(=O)c1cc(C)ccc1O
REMARK SMILES IDX 7 1 6 2 5 3 4 4 10 5 9 6 8 7 2 8 3 9 1 10 11 11
REMARK H PARENT 11 12
REMARK Flexibility Score: inf
ROOT
ATOM      1  C   UNL     1      79.763  13.891   5.661  1.00  0.00     0.044 C 
ATOM      2  C   UNL     1      79.674  14.889   4.545  1.00  0.00    -0.050 A 
ATOM      3  C   UNL     1      79.348  14.469   3.247  1.00  0.00     0.019 A 
ATOM      4  C   UNL     1      79.233  15.396   2.192  1.00  0.00     0.059 A 
ATOM      5  C   UNL     1      79.416  16.771   2.470  1.00  0.00     0.126 A 
ATOM      6  C   UNL     1      79.730  17.184   3.773  1.00  0.00     0.047 A 
ATOM      7  C   UNL     1      79.853  16.253   4.803  1.00  0.00     0.007 A 
ENDROOT
BRANCH   4   8
ATOM      8  C   UNL     1      78.907  14.894   0.830  1.00  0.00     0.163 C 
ATOM      9  O   UNL     1      77.885  15.335   0.237  1.00  0.00    -0.294 OA
ATOM     10  C   UNL     1      79.750  13.875   0.125  1.00  0.00     0.093 C 
ENDBRANCH   4   8
BRANCH   5  11
ATOM     11  O   UNL     1      79.262  17.730   1.471  1.00  0.00    -0.507 OA
ATOM     12  H   UNL     1      79.844  18.559   1.432  1.00  0.00     0.293 HD
ENDBRANCH   5  11
TORSDOF 2
ENDMDL
MODEL 5
REMARK VINA RESULT:    -3.620      1.785      2.164
REMARK INTER + INTRA:          -4.242
REMARK INTER:                  -3.977
REMARK INTRA:                  -0.265
REMARK UNBOUND:                -0.305
REMARK SMILES CC(=O)c1cc(C)ccc1O
REMARK SMILES IDX 7 1 6 2 5 3 4 4 10 5 9 6 8 7 2 8 3 9 1 10 11 11
REMARK H PARENT 11 12
REMARK Flexibility Score: inf
ROOT
ATOM      1  C   UNL     1      77.877  18.367   0.644  1.00  0.00     0.044 C 
ATOM      2  C   UNL     1      78.526  17.209   1.343  1.00  0.00    -0.050 A 
ATOM      3  C   UNL     1      78.643  17.206   2.741  1.00  0.00     0.019 A 
ATOM      4  C   UNL     1      79.225  16.115   3.417  1.00  0.00     0.059 A 
ATOM      5  C   UNL     1      79.659  14.999   2.663  1.00  0.00     0.126 A 
ATOM      6  C   UNL     1      79.526  15.005   1.267  1.00  0.00     0.047 A 
ATOM      7  C   UNL     1      78.960  16.098   0.612  1.00  0.00     0.007 A 
ENDROOT
BRANCH   4   8
ATOM      8  C   UNL     1      79.346  16.173   4.899  1.00  0.00     0.163 C 
ATOM      9  O   UNL     1      79.360  15.099   5.559  1.00  0.00    -0.294 OA
ATOM     10  C   UNL     1      79.453  17.466   5.647  1.00  0.00     0.093 C 
ENDBRANCH   4   8
BRANCH   5  11
ATOM     11  O   UNL     1      80.193  13.875   3.291  1.00  0.00    -0.507 OA
ATOM     12  H   UNL     1      81.173  13.821   3.545  1.00  0.00     0.293 HD
ENDBRANCH   5  11
TORSDOF 2
ENDMDL
MODEL 6
REMARK VINA RESULT:    -3.137     19.046     20.283
REMARK INTER + INTRA:          -3.717
REMARK INTER:                  -3.439
REMARK INTRA:                  -0.278
REMARK UNBOUND:                -0.305
REMARK SMILES CC(=O)c1cc(C)ccc1O
REMARK SMILES IDX 7 1 6 2 5 3 4 4 10 5 9 6 8 7 2 8 3 9 1 10 11 11
REMARK H PARENT 11 12
REMARK Flexibility Score: inf
ROOT
ATOM      1  C   UNL     1      92.117  27.391  13.361  1.00  0.00     0.044 C 
ATOM      2  C   UNL     1      90.961  27.081  14.264  1.00  0.00    -0.050 A 
ATOM      3  C   UNL     1      91.061  27.314  15.644  1.00  0.00     0.019 A 
ATOM      4  C   UNL     1      89.975  27.055  16.503  1.00  0.00     0.059 A 
ATOM      5  C   UNL     1      88.761  26.589  15.946  1.00  0.00     0.126 A 
ATOM      6  C   UNL     1      88.664  26.371  14.564  1.00  0.00     0.047 A 
ATOM      7  C   UNL     1      89.752  26.620  13.729  1.00  0.00     0.007 A 
ENDROOT
BRANCH   4   8
ATOM      8  C   UNL     1      90.143  27.297  17.962  1.00  0.00     0.163 C 
ATOM      9  O   UNL     1      89.150  27.670  18.644  1.00  0.00    -0.294 OA
ATOM     10  C   UNL     1      91.455  27.114  18.662  1.00  0.00     0.093 C 
ENDBRANCH   4   8
BRANCH   5  11
ATOM     11  O   UNL     1      87.643  26.367  16.749  1.00  0.00    -0.507 OA
ATOM     12  H   UNL     1      87.668  26.515  17.752  1.00  0.00     0.293 HD
ENDBRANCH   5  11
TORSDOF 2
ENDMDL
MODEL 7
REMARK VINA RESULT:    -3.065     19.727     21.019
REMARK INTER + INTRA:          -3.639
REMARK INTER:                  -3.506
REMARK INTRA:                  -0.133
REMARK UNBOUND:                -0.305
REMARK SMILES CC(=O)c1cc(C)ccc1O
REMARK SMILES IDX 7 1 6 2 5 3 4 4 10 5 9 6 8 7 2 8 3 9 1 10 11 11
REMARK H PARENT 11 12
REMARK Flexibility Score: inf
ROOT
ATOM      1  C   UNL     1      92.125  27.450  19.394  1.00  0.00     0.044 C 
ATOM      2  C   UNL     1      91.279  27.233  18.175  1.00  0.00    -0.050 A 
ATOM      3  C   UNL     1      91.874  26.862  16.960  1.00  0.00     0.019 A 
ATOM      4  C   UNL     1      91.092  26.628  15.812  1.00  0.00     0.059 A 
ATOM      5  C   UNL     1      89.685  26.736  15.911  1.00  0.00     0.126 A 
ATOM      6  C   UNL     1      89.096  27.095  17.133  1.00  0.00     0.047 A 
ATOM      7  C   UNL     1      89.885  27.337  18.257  1.00  0.00     0.007 A 
ENDROOT
BRANCH   4   8
ATOM      8  C   UNL     1      91.776  26.260  14.543  1.00  0.00     0.163 C 
ATOM      9  O   UNL     1      92.123  25.062  14.353  1.00  0.00    -0.294 OA
ATOM     10  C   UNL     1      92.073  27.262  13.469  1.00  0.00     0.093 C 
ENDBRANCH   4   8
BRANCH   5  11
ATOM     11  O   UNL     1      88.866  26.464  14.816  1.00  0.00    -0.507 OA
ATOM     12  H   UNL     1      88.735  25.521  14.469  1.00  0.00     0.293 HD
ENDBRANCH   5  11
TORSDOF 2
ENDMDL
MODEL 8
REMARK VINA RESULT:    -2.941     18.911     20.291
REMARK INTER + INTRA:          -3.504
REMARK INTER:                  -3.198
REMARK INTRA:                  -0.306
REMARK UNBOUND:                -0.305
REMARK SMILES CC(=O)c1cc(C)ccc1O
REMARK SMILES IDX 7 1 6 2 5 3 4 4 10 5 9 6 8 7 2 8 3 9 1 10 11 11
REMARK H PARENT 11 12
REMARK Flexibility Score: inf
ROOT
ATOM      1  C   UNL     1      89.936  26.944  12.298  1.00  0.00     0.044 C 
ATOM      2  C   UNL     1      90.365  27.004  13.734  1.00  0.00    -0.050 A 
ATOM      3  C   UNL     1      89.414  26.892  14.760  1.00  0.00     0.019 A 
ATOM      4  C   UNL     1      89.802  26.919  16.114  1.00  0.00     0.059 A 
ATOM      5  C   UNL     1      91.178  27.024  16.427  1.00  0.00     0.126 A 
ATOM      6  C   UNL     1      92.124  27.122  15.396  1.00  0.00     0.047 A 
ATOM      7  C   UNL     1      91.722  27.108  14.060  1.00  0.00     0.007 A 
ENDROOT
BRANCH   4   8
ATOM      8  C   UNL     1      88.751  26.820  17.162  1.00  0.00     0.163 C 
ATOM      9  O   UNL     1      88.756  27.639  18.121  1.00  0.00    -0.294 OA
ATOM     10  C   UNL     1      87.675  25.777  17.126  1.00  0.00     0.093 C 
ENDBRANCH   4   8
BRANCH   5  11
ATOM     11  O   UNL     1      91.615  27.003  17.750  1.00  0.00    -0.507 OA
ATOM     12  H   UNL     1      92.030  26.175  18.162  1.00  0.00     0.293 HD
ENDBRANCH   5  11
TORSDOF 2
ENDMDL
