MODEL 1
REMARK VINA RESULT:    -2.617      0.000      0.000
REMARK INTER + INTRA:          -4.042
REMARK INTER:                  -3.993
REMARK INTRA:                  -0.049
REMARK UNBOUND:                -0.049
REMARK SMILES CC1=CCC[C@H](C)C(=O)C[C@H](C(C)C)C(=O)C1
REMARK SMILES IDX 8 1 9 2 6 3 7 4 5 5 4 6 3 7 2 8 1 9 10 11 11 12 15 13 16 14
REMARK SMILES IDX 17 15 12 17 13 18 14 19
REMARK H PARENT
REMARK Flexibility Score: 70.00
ROOT
ATOM      1  C   UNL     1      26.643  36.299  19.368  1.00  0.00     0.136 C 
ATOM      2  O   UNL     1      26.132  35.392  18.728  1.00  0.00    -0.299 OA
ENDROOT
BRANCH   1   3
ATOM      3  C   UNL     1      28.145  36.263  19.610  1.00  0.00     0.053 C 
ATOM      4  C   UNL     1      28.731  34.863  19.372  1.00  0.00     0.016 C 
BRANCH   3   5
ATOM      5  C   UNL     1      28.882  37.449  18.915  1.00  0.00     0.015 C 
BRANCH   5   6
ATOM      6  C   UNL     1      29.117  38.763  19.693  1.00  0.00     0.028 C 
BRANCH   6   7
ATOM      7  C   UNL     1      28.362  39.988  19.237  1.00  0.00    -0.028 C 
ATOM      8  C   UNL     1      27.579  40.789  19.996  1.00  0.00    -0.070 CG0
ATOM      9  C   UNL     1      27.078  42.070  19.375  1.00  0.00     0.039 C 
ATOM     10  G   UNL     1      27.126  40.448  21.400  1.00  0.00     0.000 G0
ENDBRANCH   6   7
ENDBRANCH   5   6
ENDBRANCH   3   5
ENDBRANCH   1   3
BRANCH   1  11
ATOM     11  C   UNL     1      25.756  37.408  19.889  1.00  0.00     0.087 C 
BRANCH  11  12
ATOM     12  C   UNL     1      26.233  37.948  21.273  1.00  0.00     0.066 C 
BRANCH  12  13
ATOM     13  C   UNL     1      25.972  39.445  21.328  1.00  0.00     0.140 C 
ATOM     14  O   UNL     1      24.834  39.869  21.183  1.00  0.00    -0.299 OA
BRANCH  13  15
ATOM     15  C   UNL     1      27.113  40.432  21.404  1.00  0.00     0.106 CG0
ATOM     16  G   UNL     1      27.564  40.802  20.007  1.00  0.00     0.000 G0
ENDBRANCH  13  15
ENDBRANCH  12  13
BRANCH  12  17
ATOM     17  C   UNL     1      25.584  37.198  22.484  1.00  0.00    -0.006 C 
ATOM     18  C   UNL     1      24.202  36.617  22.136  1.00  0.00     0.008 C 
ATOM     19  C   UNL     1      26.486  36.051  22.980  1.00  0.00     0.008 C 
ENDBRANCH  12  17
ENDBRANCH  11  12
ENDBRANCH   1  11
TORSDOF 1
ENDMDL
MODEL 2
REMARK VINA RESULT:    -2.011      2.089      4.510
REMARK INTER + INTRA:          -3.117
REMARK INTER:                  -3.752
REMARK INTRA:                   0.635
REMARK UNBOUND:                -0.049
REMARK SMILES CC1=CCC[C@H](C)C(=O)C[C@H](C(C)C)C(=O)C1
REMARK SMILES IDX 8 1 9 2 6 3 7 4 5 5 4 6 3 7 2 8 1 9 10 11 11 12 15 13 16 14
REMARK SMILES IDX 17 15 12 17 13 18 14 19
REMARK H PARENT
REMARK Flexibility Score: 70.00
ROOT
ATOM      1  C   UNL     1      25.597  37.883  21.080  1.00  0.00     0.136 C 
ATOM      2  O   UNL     1      26.052  37.565  22.169  1.00  0.00    -0.299 OA
ENDROOT
BRANCH   1   3
ATOM      3  C   UNL     1      24.601  36.950  20.407  1.00  0.00     0.053 C 
ATOM      4  C   UNL     1      23.149  37.382  20.659  1.00  0.00     0.016 C 
BRANCH   3   5
ATOM      5  C   UNL     1      24.985  36.647  18.926  1.00  0.00     0.015 C 
BRANCH   5   6
ATOM      6  C   UNL     1      26.220  35.770  18.622  1.00  0.00     0.028 C 
BRANCH   6   7
ATOM      7  C   UNL     1      27.215  35.556  19.738  1.00  0.00    -0.028 C 
ATOM      8  C   UNL     1      28.322  36.292  19.991  1.00  0.00    -0.070 CG0
ATOM      9  C   UNL     1      29.067  36.017  21.274  1.00  0.00     0.039 C 
ATOM     10  G   UNL     1      28.890  37.325  19.040  1.00  0.00     0.000 G0
ENDBRANCH   6   7
ENDBRANCH   5   6
ENDBRANCH   3   5
ENDBRANCH   1   3
BRANCH   1  11
ATOM     11  C   UNL     1      26.050  39.184  20.456  1.00  0.00     0.087 C 
BRANCH  11  12
ATOM     12  C   UNL     1      27.602  39.270  20.324  1.00  0.00     0.066 C 
BRANCH  12  13
ATOM     13  C   UNL     1      28.020  38.582  19.033  1.00  0.00     0.140 C 
ATOM     14  O   UNL     1      27.538  38.944  17.969  1.00  0.00    -0.299 OA
BRANCH  13  15
ATOM     15  C   UNL     1      28.901  37.355  19.055  1.00  0.00     0.106 CG0
ATOM     16  G   UNL     1      28.308  36.315  19.981  1.00  0.00     0.000 G0
ENDBRANCH  13  15
ENDBRANCH  12  13
BRANCH  12  17
ATOM     17  C   UNL     1      28.148  40.734  20.407  1.00  0.00    -0.006 C 
ATOM     18  C   UNL     1      27.243  41.736  19.668  1.00  0.00     0.008 C 
ATOM     19  C   UNL     1      28.293  41.195  21.870  1.00  0.00     0.008 C 
ENDBRANCH  12  17
ENDBRANCH  11  12
ENDBRANCH   1  11
TORSDOF 1
ENDMDL
MODEL 3
REMARK VINA RESULT:    -1.898     11.057     13.397
REMARK INTER + INTRA:          -2.946
REMARK INTER:                  -2.956
REMARK INTRA:                   0.011
REMARK UNBOUND:                -0.049
REMARK SMILES CC1=CCC[C@H](C)C(=O)C[C@H](C(C)C)C(=O)C1
REMARK SMILES IDX 8 1 9 2 6 3 7 4 5 5 4 6 3 7 2 8 1 9 10 11 11 12 15 13 16 14
REMARK SMILES IDX 17 15 12 17 13 18 14 19
REMARK H PARENT
REMARK Flexibility Score: 70.00
ROOT
ATOM      1  C   UNL     1      26.740  29.162  26.153  1.00  0.00     0.136 C 
ATOM      2  O   UNL     1      25.801  29.339  25.392  1.00  0.00    -0.299 OA
ENDROOT
BRANCH   1   3
ATOM      3  C   UNL     1      28.089  29.772  25.800  1.00  0.00     0.053 C 
ATOM      4  C   UNL     1      28.649  30.628  26.946  1.00  0.00     0.016 C 
BRANCH   3   5
ATOM      5  C   UNL     1      29.064  28.726  25.178  1.00  0.00     0.015 C 
BRANCH   5   6
ATOM      6  C   UNL     1      28.522  27.352  24.724  1.00  0.00     0.028 C 
BRANCH   6   7
ATOM      7  C   UNL     1      28.894  26.147  25.554  1.00  0.00    -0.028 C 
ATOM      8  C   UNL     1      28.058  25.183  26.007  1.00  0.00    -0.070 CG0
ATOM      9  C   UNL     1      28.677  23.968  26.654  1.00  0.00     0.039 C 
ATOM     10  G   UNL     1      26.548  25.280  25.960  1.00  0.00     0.000 G0
ENDBRANCH   6   7
ENDBRANCH   5   6
ENDBRANCH   3   5
ENDBRANCH   1   3
BRANCH   1  11
ATOM     11  C   UNL     1      26.515  28.343  27.405  1.00  0.00     0.087 C 
BRANCH  11  12
ATOM     12  C   UNL     1      25.383  27.284  27.225  1.00  0.00     0.066 C 
BRANCH  12  13
ATOM     13  C   UNL     1      26.007  25.897  27.243  1.00  0.00     0.140 C 
ATOM     14  O   UNL     1      26.201  25.332  28.310  1.00  0.00    -0.299 OA
BRANCH  13  15
ATOM     15  C   UNL     1      26.536  25.265  25.977  1.00  0.00     0.106 CG0
ATOM     16  G   UNL     1      28.048  25.207  26.027  1.00  0.00     0.000 G0
ENDBRANCH  13  15
ENDBRANCH  12  13
BRANCH  12  17
ATOM     17  C   UNL     1      24.237  27.421  28.282  1.00  0.00    -0.006 C 
ATOM     18  C   UNL     1      23.853  28.889  28.538  1.00  0.00     0.008 C 
ATOM     19  C   UNL     1      22.975  26.656  27.840  1.00  0.00     0.008 C 
ENDBRANCH  12  17
ENDBRANCH  11  12
ENDBRANCH   1  11
TORSDOF 1
ENDMDL
MODEL 4
REMARK VINA RESULT:    -1.797      2.296      4.661
REMARK INTER + INTRA:          -2.791
REMARK INTER:                  -4.136
REMARK INTRA:                   1.345
REMARK UNBOUND:                -0.049
REMARK SMILES CC1=CCC[C@H](C)C(=O)C[C@H](C(C)C)C(=O)C1
REMARK SMILES IDX 8 1 9 2 6 3 7 4 5 5 4 6 3 7 2 8 1 9 10 11 11 12 15 13 16 14
REMARK SMILES IDX 17 15 12 17 13 18 14 19
REMARK H PARENT
REMARK Flexibility Score: 70.00
ROOT
ATOM      1  C   UNL     1      25.428  38.362  20.555  1.00  0.00     0.136 C 
ATOM      2  O   UNL     1      24.458  38.765  21.178  1.00  0.00    -0.299 OA
ENDROOT
BRANCH   1   3
ATOM      3  C   UNL     1      26.352  39.382  19.907  1.00  0.00     0.053 C 
ATOM      4  C   UNL     1      26.612  40.586  20.825  1.00  0.00     0.016 C 
BRANCH   3   5
ATOM      5  C   UNL     1      27.609  38.716  19.267  1.00  0.00     0.015 C 
BRANCH   5   6
ATOM      6  C   UNL     1      28.856  38.446  20.137  1.00  0.00     0.028 C 
BRANCH   6   7
ATOM      7  C   UNL     1      28.906  37.142  20.899  1.00  0.00    -0.028 C 
ATOM      8  C   UNL     1      28.776  35.896  20.386  1.00  0.00    -0.070 CG0
ATOM      9  C   UNL     1      29.053  34.730  21.302  1.00  0.00     0.039 C 
ATOM     10  G   UNL     1      28.312  35.605  18.974  1.00  0.00     0.000 G0
ENDBRANCH   6   7
ENDBRANCH   5   6
ENDBRANCH   3   5
ENDBRANCH   1   3
BRANCH   1  11
ATOM     11  C   UNL     1      25.659  36.870  20.457  1.00  0.00     0.087 C 
BRANCH  11  12
ATOM     12  C   UNL     1      25.801  36.388  18.980  1.00  0.00     0.066 C 
BRANCH  12  13
ATOM     13  C   UNL     1      26.845  35.283  18.926  1.00  0.00     0.140 C 
ATOM     14  O   UNL     1      26.495  34.113  18.984  1.00  0.00    -0.299 OA
BRANCH  13  15
ATOM     15  C   UNL     1      28.320  35.605  18.961  1.00  0.00     0.106 CG0
ATOM     16  G   UNL     1      28.750  35.890  20.385  1.00  0.00     0.000 G0
ENDBRANCH  13  15
ENDBRANCH  12  13
BRANCH  12  17
ATOM     17  C   UNL     1      24.443  35.938  18.344  1.00  0.00    -0.006 C 
ATOM     18  C   UNL     1      23.243  36.250  19.255  1.00  0.00     0.008 C 
ATOM     19  C   UNL     1      24.212  36.617  16.981  1.00  0.00     0.008 C 
ENDBRANCH  12  17
ENDBRANCH  11  12
ENDBRANCH   1  11
TORSDOF 1
ENDMDL
MODEL 5
REMARK VINA RESULT:    -1.703      1.562      2.860
REMARK INTER + INTRA:          -2.647
REMARK INTER:                  -4.475
REMARK INTRA:                   1.828
REMARK UNBOUND:                -0.049
REMARK SMILES CC1=CCC[C@H](C)C(=O)C[C@H](C(C)C)C(=O)C1
REMARK SMILES IDX 8 1 9 2 6 3 7 4 5 5 4 6 3 7 2 8 1 9 10 11 11 12 15 13 16 14
REMARK SMILES IDX 17 15 12 17 13 18 14 19
REMARK H PARENT
REMARK Flexibility Score: 70.00
ROOT
ATOM      1  C   UNL     1      28.024  38.962  18.849  1.00  0.00     0.136 C 
ATOM      2  O   UNL     1      26.958  38.921  18.253  1.00  0.00    -0.299 OA
ENDROOT
BRANCH   1   3
ATOM      3  C   UNL     1      29.098  39.919  18.354  1.00  0.00     0.053 C 
ATOM      4  C   UNL     1      29.125  40.009  16.820  1.00  0.00     0.016 C 
BRANCH   3   5
ATOM      5  C   UNL     1      29.080  41.274  19.126  1.00  0.00     0.015 C 
BRANCH   5   6
ATOM      6  C   UNL     1      27.848  42.200  19.015  1.00  0.00     0.028 C 
BRANCH   6   7
ATOM      7  C   UNL     1      27.219  42.679  20.302  1.00  0.00    -0.028 C 
ATOM      8  C   UNL     1      27.253  42.057  21.504  1.00  0.00    -0.070 CG0
ATOM      9  C   UNL     1      26.721  42.813  22.697  1.00  0.00     0.039 C 
ATOM     10  G   UNL     1      27.730  40.635  21.710  1.00  0.00     0.000 G0
ENDBRANCH   6   7
ENDBRANCH   5   6
ENDBRANCH   3   5
ENDBRANCH   1   3
BRANCH   1  11
ATOM     11  C   UNL     1      28.222  38.056  20.044  1.00  0.00     0.087 C 
BRANCH  11  12
ATOM     12  C   UNL     1      27.062  38.178  21.080  1.00  0.00     0.066 C 
BRANCH  12  13
ATOM     13  C   UNL     1      26.707  39.648  21.241  1.00  0.00     0.140 C 
ATOM     14  O   UNL     1      25.617  40.055  20.864  1.00  0.00    -0.299 OA
BRANCH  13  15
ATOM     15  C   UNL     1      27.734  40.650  21.716  1.00  0.00     0.106 CG0
ATOM     16  G   UNL     1      27.215  42.056  21.502  1.00  0.00     0.000 G0
ENDBRANCH  13  15
ENDBRANCH  12  13
BRANCH  12  17
ATOM     17  C   UNL     1      25.811  37.314  20.710  1.00  0.00    -0.006 C 
ATOM     18  C   UNL     1      26.195  36.021  19.969  1.00  0.00     0.008 C 
ATOM     19  C   UNL     1      25.003  36.935  21.966  1.00  0.00     0.008 C 
ENDBRANCH  12  17
ENDBRANCH  11  12
ENDBRANCH   1  11
TORSDOF 1
ENDMDL
MODEL 6
REMARK VINA RESULT:    -1.574      2.079      3.537
REMARK INTER + INTRA:          -2.451
REMARK INTER:                  -3.289
REMARK INTRA:                   0.838
REMARK UNBOUND:                -0.049
REMARK SMILES CC1=CCC[C@H](C)C(=O)C[C@H](C(C)C)C(=O)C1
REMARK SMILES IDX 8 1 9 2 6 3 7 4 5 5 4 6 3 7 2 8 1 9 10 11 11 12 15 13 16 14
REMARK SMILES IDX 17 15 12 17 13 18 14 19
REMARK H PARENT
REMARK Flexibility Score: 70.00
ROOT
ATOM      1  C   UNL     1      25.144  37.178  21.241  1.00  0.00     0.136 C 
ATOM      2  O   UNL     1      24.441  38.135  21.528  1.00  0.00    -0.299 OA
ENDROOT
BRANCH   1   3
ATOM      3  C   UNL     1      24.663  36.219  20.162  1.00  0.00     0.053 C 
ATOM      4  C   UNL     1      23.204  36.487  19.764  1.00  0.00     0.016 C 
BRANCH   3   5
ATOM      5  C   UNL     1      25.686  36.090  18.991  1.00  0.00     0.015 C 
BRANCH   5   6
ATOM      6  C   UNL     1      25.688  37.140  17.859  1.00  0.00     0.028 C 
BRANCH   6   7
ATOM      7  C   UNL     1      26.294  38.490  18.161  1.00  0.00    -0.028 C 
ATOM      8  C   UNL     1      27.565  38.741  18.555  1.00  0.00    -0.070 CG0
ATOM      9  C   UNL     1      28.008  40.182  18.613  1.00  0.00     0.039 C 
ATOM     10  G   UNL     1      28.541  37.672  18.998  1.00  0.00     0.000 G0
ENDBRANCH   6   7
ENDBRANCH   5   6
ENDBRANCH   3   5
ENDBRANCH   1   3
BRANCH   1  11
ATOM     11  C   UNL     1      26.453  36.994  21.976  1.00  0.00     0.087 C 
BRANCH  11  12
ATOM     12  C   UNL     1      27.555  36.359  21.073  1.00  0.00     0.066 C 
BRANCH  12  13
ATOM     13  C   UNL     1      28.418  37.473  20.501  1.00  0.00     0.140 C 
ATOM     14  O   UNL     1      28.915  38.303  21.250  1.00  0.00    -0.299 OA
BRANCH  13  15
ATOM     15  C   UNL     1      28.547  37.670  19.009  1.00  0.00     0.106 CG0
ATOM     16  G   UNL     1      27.575  38.734  18.546  1.00  0.00     0.000 G0
ENDBRANCH  13  15
ENDBRANCH  12  13
BRANCH  12  17
ATOM     17  C   UNL     1      28.414  35.280  21.813  1.00  0.00    -0.006 C 
ATOM     18  C   UNL     1      27.715  34.746  23.076  1.00  0.00     0.008 C 
ATOM     19  C   UNL     1      28.730  34.087  20.890  1.00  0.00     0.008 C 
ENDBRANCH  12  17
ENDBRANCH  11  12
ENDBRANCH   1  11
TORSDOF 1
ENDMDL
MODEL 7
REMARK VINA RESULT:    -1.467      2.003      3.982
REMARK INTER + INTRA:          -2.288
REMARK INTER:                  -3.568
REMARK INTRA:                   1.280
REMARK UNBOUND:                -0.049
REMARK SMILES CC1=CCC[C@H](C)C(=O)C[C@H](C(C)C)C(=O)C1
REMARK SMILES IDX 8 1 9 2 6 3 7 4 5 5 4 6 3 7 2 8 1 9 10 11 11 12 15 13 16 14
REMARK SMILES IDX 17 15 12 17 13 18 14 19
REMARK H PARENT
REMARK Flexibility Score: 70.00
ROOT
ATOM      1  C   UNL     1      26.327  36.241  22.839  1.00  0.00     0.136 C 
ATOM      2  O   UNL     1      26.599  35.885  23.975  1.00  0.00    -0.299 OA
ENDROOT
BRANCH   1   3
ATOM      3  C   UNL     1      24.872  36.203  22.393  1.00  0.00     0.053 C 
ATOM      4  C   UNL     1      23.905  36.279  23.584  1.00  0.00     0.016 C 
BRANCH   3   5
ATOM      5  C   UNL     1      24.593  37.183  21.212  1.00  0.00     0.015 C 
BRANCH   5   6
ATOM      6  C   UNL     1      24.399  38.688  21.498  1.00  0.00     0.028 C 
BRANCH   6   7
ATOM      7  C   UNL     1      25.481  39.632  21.028  1.00  0.00    -0.028 C 
ATOM      8  C   UNL     1      26.253  39.498  19.924  1.00  0.00    -0.070 CG0
ATOM      9  C   UNL     1      27.137  40.660  19.544  1.00  0.00     0.039 C 
ATOM     10  G   UNL     1      26.327  38.237  19.089  1.00  0.00     0.000 G0
ENDBRANCH   6   7
ENDBRANCH   5   6
ENDBRANCH   3   5
ENDBRANCH   1   3
BRANCH   1  11
ATOM     11  C   UNL     1      27.449  36.697  21.933  1.00  0.00     0.087 C 
BRANCH  11  12
ATOM     12  C   UNL     1      27.261  36.206  20.464  1.00  0.00     0.066 C 
BRANCH  12  13
ATOM     13  C   UNL     1      27.491  37.380  19.525  1.00  0.00     0.140 C 
ATOM     14  O   UNL     1      28.632  37.713  19.236  1.00  0.00    -0.299 OA
BRANCH  13  15
ATOM     15  C   UNL     1      26.341  38.244  19.064  1.00  0.00     0.106 CG0
ATOM     16  G   UNL     1      26.256  39.487  19.924  1.00  0.00     0.000 G0
ENDBRANCH  13  15
ENDBRANCH  12  13
BRANCH  12  17
ATOM     17  C   UNL     1      28.170  34.984  20.101  1.00  0.00    -0.006 C 
ATOM     18  C   UNL     1      28.485  34.109  21.327  1.00  0.00     0.008 C 
ATOM     19  C   UNL     1      27.512  34.098  19.025  1.00  0.00     0.008 C 
ENDBRANCH  12  17
ENDBRANCH  11  12
ENDBRANCH   1  11
TORSDOF 1
ENDMDL
MODEL 8
REMARK VINA RESULT:    -1.272      1.978      4.295
REMARK INTER + INTRA:          -1.990
REMARK INTER:                  -3.155
REMARK INTRA:                   1.165
REMARK UNBOUND:                -0.049
REMARK SMILES CC1=CCC[C@H](C)C(=O)C[C@H](C(C)C)C(=O)C1
REMARK SMILES IDX 8 1 9 2 6 3 7 4 5 5 4 6 3 7 2 8 1 9 10 11 11 12 15 13 16 14
REMARK SMILES IDX 17 15 12 17 13 18 14 19
REMARK H PARENT
REMARK Flexibility Score: 70.00
ROOT
ATOM      1  C   UNL     1      28.337  37.579  20.255  1.00  0.00     0.136 C 
ATOM      2  O   UNL     1      29.125  38.260  20.894  1.00  0.00    -0.299 OA
ENDROOT
BRANCH   1   3
ATOM      3  C   UNL     1      27.915  36.231  20.822  1.00  0.00     0.053 C 
ATOM      4  C   UNL     1      29.049  35.198  20.748  1.00  0.00     0.016 C 
BRANCH   3   5
ATOM      5  C   UNL     1      27.194  36.370  22.198  1.00  0.00     0.015 C 
BRANCH   5   6
ATOM      6  C   UNL     1      25.709  35.962  22.326  1.00  0.00     0.028 C 
BRANCH   6   7
ATOM      7  C   UNL     1      24.697  37.067  22.514  1.00  0.00    -0.028 C 
ATOM      8  C   UNL     1      24.280  37.954  21.580  1.00  0.00    -0.070 CG0
ATOM      9  C   UNL     1      23.118  38.849  21.935  1.00  0.00     0.039 C 
ATOM     10  G   UNL     1      24.946  38.145  20.234  1.00  0.00     0.000 G0
ENDBRANCH   6   7
ENDBRANCH   5   6
ENDBRANCH   3   5
ENDBRANCH   1   3
BRANCH   1  11
ATOM     11  C   UNL     1      27.825  38.108  18.935  1.00  0.00     0.087 C 
BRANCH  11  12
ATOM     12  C   UNL     1      26.980  39.409  19.104  1.00  0.00     0.066 C 
BRANCH  12  13
ATOM     13  C   UNL     1      26.008  39.212  20.257  1.00  0.00     0.140 C 
ATOM     14  O   UNL     1      26.167  39.832  21.299  1.00  0.00    -0.299 OA
BRANCH  13  15
ATOM     15  C   UNL     1      24.938  38.147  20.200  1.00  0.00     0.106 CG0
ATOM     16  G   UNL     1      24.315  37.972  21.569  1.00  0.00     0.000 G0
ENDBRANCH  13  15
ENDBRANCH  12  13
BRANCH  12  17
ATOM     17  C   UNL     1      27.855  40.693  19.294  1.00  0.00    -0.006 C 
ATOM     18  C   UNL     1      28.919  40.840  18.192  1.00  0.00     0.008 C 
ATOM     19  C   UNL     1      26.986  41.965  19.306  1.00  0.00     0.008 C 
ENDBRANCH  12  17
ENDBRANCH  11  12
ENDBRANCH   1  11
TORSDOF 1
ENDMDL
MODEL 9
REMARK VINA RESULT:    -0.541     10.084     12.704
REMARK INTER + INTRA:          -0.874
REMARK INTER:                  -4.187
REMARK INTRA:                   3.313
REMARK UNBOUND:                -0.049
REMARK SMILES CC1=CCC[C@H](C)C(=O)C[C@H](C(C)C)C(=O)C1
REMARK SMILES IDX 8 1 9 2 6 3 7 4 5 5 4 6 3 7 2 8 1 9 10 11 11 12 15 13 16 14
REMARK SMILES IDX 17 15 12 17 13 18 14 19
REMARK H PARENT
REMARK Flexibility Score: 70.00
ROOT
ATOM      1  C   UNL     1      27.932  26.804  25.412  1.00  0.00     0.136 C 
ATOM      2  O   UNL     1      29.055  27.178  25.712  1.00  0.00    -0.299 OA
ENDROOT
BRANCH   1   3
ATOM      3  C   UNL     1      27.435  25.476  25.964  1.00  0.00     0.053 C 
ATOM      4  C   UNL     1      28.496  24.371  25.842  1.00  0.00     0.016 C 
BRANCH   3   5
ATOM      5  C   UNL     1      26.759  25.634  27.360  1.00  0.00     0.015 C 
BRANCH   5   6
ATOM      6  C   UNL     1      25.243  25.381  27.507  1.00  0.00     0.028 C 
BRANCH   6   7
ATOM      7  C   UNL     1      24.392  26.520  28.018  1.00  0.00    -0.028 C 
ATOM      8  C   UNL     1      24.637  27.844  27.876  1.00  0.00    -0.070 CG0
ATOM      9  C   UNL     1      23.552  28.804  28.296  1.00  0.00     0.039 C 
ATOM     10  G   UNL     1      25.950  28.415  27.384  1.00  0.00     0.000 G0
ENDBRANCH   6   7
ENDBRANCH   5   6
ENDBRANCH   3   5
ENDBRANCH   1   3
BRANCH   1  11
ATOM     11  C   UNL     1      27.094  27.677  24.504  1.00  0.00     0.087 C 
BRANCH  11  12
ATOM     12  C   UNL     1      26.941  29.129  25.055  1.00  0.00     0.066 C 
BRANCH  12  13
ATOM     13  C   UNL     1      25.818  29.144  26.081  1.00  0.00     0.140 C 
ATOM     14  O   UNL     1      24.830  29.839  25.891  1.00  0.00    -0.299 OA
BRANCH  13  15
ATOM     15  C   UNL     1      25.967  28.438  27.408  1.00  0.00     0.106 CG0
ATOM     16  G   UNL     1      24.636  27.850  27.828  1.00  0.00     0.000 G0
ENDBRANCH  13  15
ENDBRANCH  12  13
BRANCH  12  17
ATOM     17  C   UNL     1      28.271  29.712  25.638  1.00  0.00    -0.006 C 
ATOM     18  C   UNL     1      28.645  31.061  25.000  1.00  0.00     0.008 C 
ATOM     19  C   UNL     1      28.175  29.903  27.165  1.00  0.00     0.008 C 
ENDBRANCH  12  17
ENDBRANCH  11  12
ENDBRANCH   1  11
TORSDOF 1
ENDMDL
