MODEL 1
REMARK VINA RESULT:    -4.524      0.000      0.000
REMARK INTER + INTRA:          -4.524
REMARK INTER:                  -4.524
REMARK INTRA:                   0.000
REMARK UNBOUND:                 0.000
REMARK SMILES CC1=CC(=O)[C@H]2C[C@@H]1C2(C)C
REMARK SMILES IDX 1 1 2 2 3 3 4 4 5 5 6 6 7 7 8 8 9 9 10 10 11 11
REMARK H PARENT
REMARK Flexibility Score: inf
ROOT
ATOM      1  C   UNL     1      10.920 -22.977  22.127  1.00  0.00     0.040 C 
ATOM      2  C   UNL     1       9.765 -22.251  21.514  1.00  0.00    -0.066 C 
ATOM      3  C   UNL     1       9.901 -21.553  20.353  1.00  0.00     0.047 C 
ATOM      4  C   UNL     1       8.677 -20.843  19.858  1.00  0.00     0.159 C 
ATOM      5  O   UNL     1       8.686 -20.134  18.819  1.00  0.00    -0.295 OA
ATOM      6  C   UNL     1       7.419 -21.042  20.704  1.00  0.00     0.067 C 
ATOM      7  C   UNL     1       7.389 -22.559  20.987  1.00  0.00     0.021 C 
ATOM      8  C   UNL     1       8.360 -22.273  22.155  1.00  0.00     0.022 C 
ATOM      9  C   UNL     1       7.788 -20.825  22.199  1.00  0.00    -0.019 C 
ATOM     10  C   UNL     1       8.757 -19.664  22.560  1.00  0.00     0.012 C 
ATOM     11  C   UNL     1       6.536 -20.713  23.105  1.00  0.00     0.012 C 
ENDROOT
TORSDOF 0
ENDMDL
MODEL 2
REMARK VINA RESULT:    -4.519      4.419      6.002
REMARK INTER + INTRA:          -4.519
REMARK INTER:                  -4.519
REMARK INTRA:                   0.000
REMARK UNBOUND:                 0.000
REMARK SMILES CC1=CC(=O)[C@H]2C[C@@H]1C2(C)C
REMARK SMILES IDX 1 1 2 2 3 3 4 4 5 5 6 6 7 7 8 8 9 9 10 10 11 11
REMARK H PARENT
REMARK Flexibility Score: inf
ROOT
ATOM      1  C   UNL     1       6.798 -19.391  24.202  1.00  0.00     0.040 C 
ATOM      2  C   UNL     1       7.509 -18.077  24.276  1.00  0.00    -0.066 C 
ATOM      3  C   UNL     1       7.082 -16.999  23.561  1.00  0.00     0.047 C 
ATOM      4  C   UNL     1       7.898 -15.748  23.696  1.00  0.00     0.159 C 
ATOM      5  O   UNL     1       7.628 -14.699  23.058  1.00  0.00    -0.295 OA
ATOM      6  C   UNL     1       9.079 -15.839  24.663  1.00  0.00     0.067 C 
ATOM      7  C   UNL     1       8.494 -16.536  25.911  1.00  0.00     0.021 C 
ATOM      8  C   UNL     1       8.747 -17.872  25.175  1.00  0.00     0.022 C 
ATOM      9  C   UNL     1       9.863 -17.149  24.365  1.00  0.00    -0.019 C 
ATOM     10  C   UNL     1      10.077 -17.561  22.881  1.00  0.00     0.012 C 
ATOM     11  C   UNL     1      11.235 -17.192  25.084  1.00  0.00     0.012 C 
ENDROOT
TORSDOF 0
ENDMDL
MODEL 3
REMARK VINA RESULT:    -4.518      0.885      3.151
REMARK INTER + INTRA:          -4.518
REMARK INTER:                  -4.518
REMARK INTRA:                   0.000
REMARK UNBOUND:                 0.000
REMARK SMILES CC1=CC(=O)[C@H]2C[C@@H]1C2(C)C
REMARK SMILES IDX 1 1 2 2 3 3 4 4 5 5 6 6 7 7 8 8 9 9 10 10 11 11
REMARK H PARENT
REMARK Flexibility Score: inf
ROOT
ATOM      1  C   UNL     1       6.647 -20.722  23.153  1.00  0.00     0.040 C 
ATOM      2  C   UNL     1       7.744 -20.817  22.141  1.00  0.00    -0.066 C 
ATOM      3  C   UNL     1       7.497 -20.656  20.811  1.00  0.00     0.047 C 
ATOM      4  C   UNL     1       8.674 -20.806  19.894  1.00  0.00     0.159 C 
ATOM      5  O   UNL     1       8.566 -20.719  18.644  1.00  0.00    -0.295 OA
ATOM      6  C   UNL     1      10.012 -21.072  20.586  1.00  0.00     0.067 C 
ATOM      7  C   UNL     1      10.044 -20.058  21.750  1.00  0.00     0.021 C 
ATOM      8  C   UNL     1       9.208 -21.083  22.551  1.00  0.00     0.022 C 
ATOM      9  C   UNL     1       9.808 -22.195  21.642  1.00  0.00    -0.019 C 
ATOM     10  C   UNL     1       8.904 -23.405  21.269  1.00  0.00     0.012 C 
ATOM     11  C   UNL     1      11.151 -22.742  22.187  1.00  0.00     0.012 C 
ENDROOT
TORSDOF 0
ENDMDL
MODEL 4
REMARK VINA RESULT:    -4.436      3.834      5.798
REMARK INTER + INTRA:          -4.436
REMARK INTER:                  -4.436
REMARK INTRA:                   0.000
REMARK UNBOUND:                 0.000
REMARK SMILES CC1=CC(=O)[C@H]2C[C@@H]1C2(C)C
REMARK SMILES IDX 1 1 2 2 3 3 4 4 5 5 6 6 7 7 8 8 9 9 10 10 11 11
REMARK H PARENT
REMARK Flexibility Score: inf
ROOT
ATOM      1  C   UNL     1       7.117 -15.510  22.872  1.00  0.00     0.040 C 
ATOM      2  C   UNL     1       7.594 -16.556  23.830  1.00  0.00    -0.066 C 
ATOM      3  C   UNL     1       8.686 -16.351  24.618  1.00  0.00     0.047 C 
ATOM      4  C   UNL     1       9.081 -17.487  25.512  1.00  0.00     0.159 C 
ATOM      5  O   UNL     1      10.093 -17.435  26.257  1.00  0.00    -0.295 OA
ATOM      6  C   UNL     1       8.168 -18.713  25.455  1.00  0.00     0.067 C 
ATOM      7  C   UNL     1       6.741 -18.125  25.512  1.00  0.00     0.021 C 
ATOM      8  C   UNL     1       6.864 -17.907  23.986  1.00  0.00     0.022 C 
ATOM      9  C   UNL     1       7.905 -19.064  23.964  1.00  0.00    -0.019 C 
ATOM     10  C   UNL     1       9.090 -18.967  22.961  1.00  0.00     0.012 C 
ATOM     11  C   UNL     1       7.239 -20.453  23.794  1.00  0.00     0.012 C 
ENDROOT
TORSDOF 0
ENDMDL
MODEL 5
REMARK VINA RESULT:    -4.424      2.241      3.607
REMARK INTER + INTRA:          -4.424
REMARK INTER:                  -4.424
REMARK INTRA:                   0.000
REMARK UNBOUND:                 0.000
REMARK SMILES CC1=CC(=O)[C@H]2C[C@@H]1C2(C)C
REMARK SMILES IDX 1 1 2 2 3 3 4 4 5 5 6 6 7 7 8 8 9 9 10 10 11 11
REMARK H PARENT
REMARK Flexibility Score: inf
ROOT
ATOM      1  C   UNL     1       8.124 -18.228  20.279  1.00  0.00     0.040 C 
ATOM      2  C   UNL     1       7.869 -19.374  21.206  1.00  0.00    -0.066 C 
ATOM      3  C   UNL     1       7.477 -19.170  22.494  1.00  0.00     0.047 C 
ATOM      4  C   UNL     1       7.283 -20.398  23.331  1.00  0.00     0.159 C 
ATOM      5  O   UNL     1       6.961 -20.340  24.545  1.00  0.00    -0.295 OA
ATOM      6  C   UNL     1       7.506 -21.726  22.605  1.00  0.00     0.067 C 
ATOM      7  C   UNL     1       6.752 -21.557  21.268  1.00  0.00     0.021 C 
ATOM      8  C   UNL     1       8.018 -20.839  20.745  1.00  0.00     0.022 C 
ATOM      9  C   UNL     1       8.836 -21.635  21.805  1.00  0.00    -0.019 C 
ATOM     10  C   UNL     1      10.053 -20.933  22.471  1.00  0.00     0.012 C 
ATOM     11  C   UNL     1       9.301 -23.015  21.275  1.00  0.00     0.012 C 
ENDROOT
TORSDOF 0
ENDMDL
MODEL 6
REMARK VINA RESULT:    -4.391      4.561      6.292
REMARK INTER + INTRA:          -4.391
REMARK INTER:                  -4.391
REMARK INTRA:                   0.000
REMARK UNBOUND:                 0.000
REMARK SMILES CC1=CC(=O)[C@H]2C[C@@H]1C2(C)C
REMARK SMILES IDX 1 1 2 2 3 3 4 4 5 5 6 6 7 7 8 8 9 9 10 10 11 11
REMARK H PARENT
REMARK Flexibility Score: inf
ROOT
ATOM      1  C   UNL     1      12.701 -18.118  25.146  1.00  0.00     0.040 C 
ATOM      2  C   UNL     1      11.415 -17.396  24.896  1.00  0.00    -0.066 C 
ATOM      3  C   UNL     1      10.523 -17.170  25.901  1.00  0.00     0.047 C 
ATOM      4  C   UNL     1       9.257 -16.464  25.518  1.00  0.00     0.159 C 
ATOM      5  O   UNL     1       8.340 -16.233  26.346  1.00  0.00    -0.295 OA
ATOM      6  C   UNL     1       9.160 -16.046  24.049  1.00  0.00     0.067 C 
ATOM      7  C   UNL     1      10.537 -15.417  23.744  1.00  0.00     0.021 C 
ATOM      8  C   UNL     1      11.043 -16.857  23.499  1.00  0.00     0.022 C 
ATOM      9  C   UNL     1       9.576 -17.254  23.163  1.00  0.00    -0.019 C 
ATOM     10  C   UNL     1       9.088 -18.673  23.570  1.00  0.00     0.012 C 
ATOM     11  C   UNL     1       9.233 -17.034  21.667  1.00  0.00     0.012 C 
ENDROOT
TORSDOF 0
ENDMDL
MODEL 7
REMARK VINA RESULT:    -4.337      4.172      5.962
REMARK INTER + INTRA:          -4.337
REMARK INTER:                  -4.337
REMARK INTRA:                   0.000
REMARK UNBOUND:                 0.000
REMARK SMILES CC1=CC(=O)[C@H]2C[C@@H]1C2(C)C
REMARK SMILES IDX 1 1 2 2 3 3 4 4 5 5 6 6 7 7 8 8 9 9 10 10 11 11
REMARK H PARENT
REMARK Flexibility Score: inf
ROOT
ATOM      1  C   UNL     1      11.674 -15.773  22.813  1.00  0.00     0.040 C 
ATOM      2  C   UNL     1      10.315 -16.110  23.341  1.00  0.00    -0.066 C 
ATOM      3  C   UNL     1      10.012 -15.963  24.661  1.00  0.00     0.047 C 
ATOM      4  C   UNL     1       8.627 -16.363  25.071  1.00  0.00     0.159 C 
ATOM      5  O   UNL     1       8.239 -16.311  26.267  1.00  0.00    -0.295 OA
ATOM      6  C   UNL     1       7.719 -16.839  23.936  1.00  0.00     0.067 C 
ATOM      7  C   UNL     1       7.939 -15.799  22.815  1.00  0.00     0.021 C 
ATOM      8  C   UNL     1       9.188 -16.620  22.418  1.00  0.00     0.022 C 
ATOM      9  C   UNL     1       8.508 -17.860  23.068  1.00  0.00    -0.019 C 
ATOM     10  C   UNL     1       9.412 -18.900  23.789  1.00  0.00     0.012 C 
ATOM     11  C   UNL     1       7.593 -18.619  22.074  1.00  0.00     0.012 C 
ENDROOT
TORSDOF 0
ENDMDL
MODEL 8
REMARK VINA RESULT:    -4.320      3.630      5.351
REMARK INTER + INTRA:          -4.320
REMARK INTER:                  -4.320
REMARK INTRA:                   0.000
REMARK UNBOUND:                 0.000
REMARK SMILES CC1=CC(=O)[C@H]2C[C@@H]1C2(C)C
REMARK SMILES IDX 1 1 2 2 3 3 4 4 5 5 6 6 7 7 8 8 9 9 10 10 11 11
REMARK H PARENT
REMARK Flexibility Score: inf
ROOT
ATOM      1  C   UNL     1      10.204 -17.070  25.882  1.00  0.00     0.040 C 
ATOM      2  C   UNL     1       9.346 -16.933  24.665  1.00  0.00    -0.066 C 
ATOM      3  C   UNL     1       8.685 -15.774  24.390  1.00  0.00     0.047 C 
ATOM      4  C   UNL     1       7.832 -15.772  23.158  1.00  0.00     0.159 C 
ATOM      5  O   UNL     1       7.142 -14.776  22.820  1.00  0.00    -0.295 OA
ATOM      6  C   UNL     1       7.858 -17.066  22.342  1.00  0.00     0.067 C 
ATOM      7  C   UNL     1       9.357 -17.432  22.263  1.00  0.00     0.021 C 
ATOM      8  C   UNL     1       9.181 -18.086  23.653  1.00  0.00     0.022 C 
ATOM      9  C   UNL     1       7.672 -18.267  23.313  1.00  0.00    -0.019 C 
ATOM     10  C   UNL     1       6.638 -18.131  24.467  1.00  0.00     0.012 C 
ATOM     11  C   UNL     1       7.391 -19.593  22.563  1.00  0.00     0.012 C 
ENDROOT
TORSDOF 0
ENDMDL
MODEL 9
REMARK VINA RESULT:    -4.274      3.113      4.880
REMARK INTER + INTRA:          -4.274
REMARK INTER:                  -4.274
REMARK INTRA:                   0.000
REMARK UNBOUND:                 0.000
REMARK SMILES CC1=CC(=O)[C@H]2C[C@@H]1C2(C)C
REMARK SMILES IDX 1 1 2 2 3 3 4 4 5 5 6 6 7 7 8 8 9 9 10 10 11 11
REMARK H PARENT
REMARK Flexibility Score: inf
ROOT
ATOM      1  C   UNL     1       7.520 -16.385  21.912  1.00  0.00     0.040 C 
ATOM      2  C   UNL     1       7.554 -17.611  22.768  1.00  0.00    -0.066 C 
ATOM      3  C   UNL     1       7.032 -17.612  24.027  1.00  0.00     0.047 C 
ATOM      4  C   UNL     1       7.155 -18.893  24.795  1.00  0.00     0.159 C 
ATOM      5  O   UNL     1       6.748 -19.006  25.980  1.00  0.00    -0.295 OA
ATOM      6  C   UNL     1       7.811 -20.049  24.039  1.00  0.00     0.067 C 
ATOM      7  C   UNL     1       7.133 -20.025  22.651  1.00  0.00     0.021 C 
ATOM      8  C   UNL     1       8.162 -18.938  22.265  1.00  0.00     0.022 C 
ATOM      9  C   UNL     1       9.105 -19.523  23.356  1.00  0.00    -0.019 C 
ATOM     10  C   UNL     1      10.011 -18.539  24.149  1.00  0.00     0.012 C 
ATOM     11  C   UNL     1       9.993 -20.671  22.813  1.00  0.00     0.012 C 
ENDROOT
TORSDOF 0
ENDMDL
