MODEL 1
REMARK VINA RESULT:    -5.737      0.000      0.000
REMARK INTER + INTRA:          -7.487
REMARK INTER:                  -6.911
REMARK INTRA:                  -0.576
REMARK UNBOUND:                -0.576
REMARK SMILES O=c1ccn([C@H]2O[C@@H](CO)[C@@H](O)[C@@H]2O)c(=O)[nH]1
REMARK SMILES IDX 6 1 13 2 11 3 8 4 7 5 5 6 3 7 4 8 2 9 17 10 1 11 15 12 16 14
REMARK SMILES IDX 14 15 12 17 9 19 10 20
REMARK H PARENT 17 13 14 16 12 18 10 21
REMARK Flexibility Score: inf
ROOT
ATOM      1  C   UNL     1     100.329 115.032 124.857  1.00  0.00     0.255 C 
ATOM      2  C   UNL     1     100.721 115.832 126.108  1.00  0.00     0.196 C 
ATOM      3  C   UNL     1     101.452 114.819 126.975  1.00  0.00     0.179 C 
ATOM      4  C   UNL     1     101.148 113.493 126.277  1.00  0.00     0.178 C 
ATOM      5  O   UNL     1     100.938 113.761 124.912  1.00  0.00    -0.347 OA
ENDROOT
BRANCH   1   6
ATOM      6  N   UNL     1     100.727 115.741 123.623  1.00  0.00    -0.271 N 
ATOM      7  C   UNL     1     102.171 115.881 121.712  1.00  0.00     0.090 A 
ATOM      8  C   UNL     1     101.774 115.254 122.890  1.00  0.00     0.099 A 
ATOM      9  C   UNL     1     101.474 117.007 121.289  1.00  0.00     0.253 A 
ATOM     10  N   UNL     1     100.426 117.468 122.021  1.00  0.00    -0.274 N 
ATOM     11  O   UNL     1     101.812 117.596 120.227  1.00  0.00    -0.269 OA
ATOM     12  C   UNL     1     100.044 116.847 123.172  1.00  0.00     0.330 A 
ATOM     13  H   UNL     1      99.901 118.311 121.693  1.00  0.00     0.175 HD
ATOM     14  O   UNL     1      99.055 117.297 123.811  1.00  0.00    -0.248 OA
ENDBRANCH   1   6
BRANCH   2  15
ATOM     15  O   UNL     1      99.568 116.302 126.758  1.00  0.00    -0.386 OA
ATOM     16  H   UNL     1      99.227 115.550 127.310  1.00  0.00     0.211 HD
ENDBRANCH   2  15
BRANCH   3  17
ATOM     17  O   UNL     1     102.831 115.094 126.978  1.00  0.00    -0.387 OA
ATOM     18  H   UNL     1     103.140 114.998 126.040  1.00  0.00     0.211 HD
ENDBRANCH   3  17
BRANCH   4  19
ATOM     19  C   UNL     1     102.229 112.413 126.460  1.00  0.00     0.191 C 
BRANCH  19  20
ATOM     20  O   UNL     1     102.769 112.439 127.755  1.00  0.00    -0.394 OA
ATOM     21  H   UNL     1     102.912 111.495 128.025  1.00  0.00     0.210 HD
ENDBRANCH  19  20
ENDBRANCH   4  19
TORSDOF 5
ENDMDL
MODEL 2
REMARK VINA RESULT:    -5.717      2.084      2.949
REMARK INTER + INTRA:          -7.462
REMARK INTER:                  -7.096
REMARK INTRA:                  -0.366
REMARK UNBOUND:                -0.576
REMARK SMILES O=c1ccn([C@H]2O[C@@H](CO)[C@@H](O)[C@@H]2O)c(=O)[nH]1
REMARK SMILES IDX 6 1 13 2 11 3 8 4 7 5 5 6 3 7 4 8 2 9 17 10 1 11 15 12 16 14
REMARK SMILES IDX 14 15 12 17 9 19 10 20
REMARK H PARENT 17 13 14 16 12 18 10 21
REMARK Flexibility Score: inf
ROOT
ATOM      1  C   UNL     1     100.407 113.734 125.156  1.00  0.00     0.255 C 
ATOM      2  C   UNL     1     100.421 113.254 126.615  1.00  0.00     0.196 C 
ATOM      3  C   UNL     1     101.610 112.309 126.677  1.00  0.00     0.179 C 
ATOM      4  C   UNL     1     101.968 112.116 125.203  1.00  0.00     0.178 C 
ATOM      5  O   UNL     1     101.571 113.272 124.507  1.00  0.00    -0.347 OA
ENDROOT
BRANCH   1   6
ATOM      6  N   UNL     1     100.324 115.208 125.078  1.00  0.00    -0.271 N 
ATOM      7  C   UNL     1     100.292 117.323 126.209  1.00  0.00     0.090 A 
ATOM      8  C   UNL     1     100.351 115.932 126.238  1.00  0.00     0.099 A 
ATOM      9  C   UNL     1     100.216 117.962 124.977  1.00  0.00     0.253 A 
ATOM     10  N   UNL     1     100.206 117.226 123.834  1.00  0.00    -0.274 N 
ATOM     11  O   UNL     1     100.160 119.219 124.921  1.00  0.00    -0.269 OA
ATOM     12  C   UNL     1     100.265 115.866 123.872  1.00  0.00     0.330 A 
ATOM     13  H   UNL     1     100.156 117.714 122.910  1.00  0.00     0.175 HD
ATOM     14  O   UNL     1     100.272 115.223 122.787  1.00  0.00    -0.248 OA
ENDBRANCH   1   6
BRANCH   2  15
ATOM     15  O   UNL     1      99.228 112.573 126.908  1.00  0.00    -0.386 OA
ATOM     16  H   UNL     1      98.486 113.200 126.704  1.00  0.00     0.211 HD
ENDBRANCH   2  15
BRANCH   3  17
ATOM     17  O   UNL     1     102.664 112.908 127.388  1.00  0.00    -0.387 OA
ATOM     18  H   UNL     1     103.143 113.493 126.744  1.00  0.00     0.211 HD
ENDBRANCH   3  17
BRANCH   4  19
ATOM     19  C   UNL     1     103.451 111.805 124.942  1.00  0.00     0.191 C 
BRANCH  19  20
ATOM     20  O   UNL     1     103.939 110.835 125.831  1.00  0.00    -0.394 OA
ATOM     21  H   UNL     1     104.040 111.280 126.713  1.00  0.00     0.210 HD
ENDBRANCH  19  20
ENDBRANCH   4  19
TORSDOF 5
ENDMDL
MODEL 3
REMARK VINA RESULT:    -5.702      3.354      5.702
REMARK INTER + INTRA:          -7.445
REMARK INTER:                  -6.871
REMARK INTRA:                  -0.574
REMARK UNBOUND:                -0.576
REMARK SMILES O=c1ccn([C@H]2O[C@@H](CO)[C@@H](O)[C@@H]2O)c(=O)[nH]1
REMARK SMILES IDX 6 1 13 2 11 3 8 4 7 5 5 6 3 7 4 8 2 9 17 10 1 11 15 12 16 14
REMARK SMILES IDX 14 15 12 17 9 19 10 20
REMARK H PARENT 17 13 14 16 12 18 10 21
REMARK Flexibility Score: inf
ROOT
ATOM      1  C   UNL     1     102.515 112.665 125.366  1.00  0.00     0.255 C 
ATOM      2  C   UNL     1     101.879 112.503 126.754  1.00  0.00     0.196 C 
ATOM      3  C   UNL     1     100.960 113.708 126.878  1.00  0.00     0.179 C 
ATOM      4  C   UNL     1     101.382 114.579 125.695  1.00  0.00     0.178 C 
ATOM      5  O   UNL     1     101.885 113.731 124.691  1.00  0.00    -0.347 OA
ENDROOT
BRANCH   1   6
ATOM      6  N   UNL     1     102.404 111.419 124.578  1.00  0.00    -0.271 N 
ATOM      7  C   UNL     1     101.430 110.241 122.729  1.00  0.00     0.090 A 
ATOM      8  C   UNL     1     101.553 111.388 123.508  1.00  0.00     0.099 A 
ATOM      9  C   UNL     1     102.200 109.130 123.053  1.00  0.00     0.253 A 
ATOM     10  N   UNL     1     103.053 109.183 124.110  1.00  0.00    -0.274 N 
ATOM     11  O   UNL     1     102.109 108.077 122.367  1.00  0.00    -0.269 OA
ATOM     12  C   UNL     1     103.167 110.311 124.866  1.00  0.00     0.330 A 
ATOM     13  H   UNL     1     103.635 108.346 124.343  1.00  0.00     0.175 HD
ATOM     14  O   UNL     1     103.983 110.325 125.827  1.00  0.00    -0.248 OA
ENDBRANCH   1   6
BRANCH   2  15
ATOM     15  O   UNL     1     102.874 112.533 127.745  1.00  0.00    -0.386 OA
ATOM     16  H   UNL     1     102.506 113.061 128.501  1.00  0.00     0.211 HD
ENDBRANCH   2  15
BRANCH   3  17
ATOM     17  O   UNL     1      99.619 113.304 126.767  1.00  0.00    -0.387 OA
ATOM     18  H   UNL     1      99.631 112.324 126.605  1.00  0.00     0.211 HD
ENDBRANCH   3  17
BRANCH   4  19
ATOM     19  C   UNL     1     100.268 115.481 125.137  1.00  0.00     0.191 C 
BRANCH  19  20
ATOM     20  O   UNL     1      99.495 116.041 126.167  1.00  0.00    -0.394 OA
ATOM     21  H   UNL     1      99.654 115.489 126.977  1.00  0.00     0.210 HD
ENDBRANCH  19  20
ENDBRANCH   4  19
TORSDOF 5
ENDMDL
MODEL 4
REMARK VINA RESULT:    -5.434      2.040      5.848
REMARK INTER + INTRA:          -7.122
REMARK INTER:                  -6.510
REMARK INTRA:                  -0.612
REMARK UNBOUND:                -0.576
REMARK SMILES O=c1ccn([C@H]2O[C@@H](CO)[C@@H](O)[C@@H]2O)c(=O)[nH]1
REMARK SMILES IDX 6 1 13 2 11 3 8 4 7 5 5 6 3 7 4 8 2 9 17 10 1 11 15 12 16 14
REMARK SMILES IDX 14 15 12 17 9 19 10 20
REMARK H PARENT 17 13 14 16 12 18 10 21
REMARK Flexibility Score: inf
ROOT
ATOM      1  C   UNL     1     100.134 117.878 122.593  1.00  0.00     0.255 C 
ATOM      2  C   UNL     1      98.733 117.678 121.997  1.00  0.00     0.196 C 
ATOM      3  C   UNL     1      98.999 117.400 120.526  1.00  0.00     0.179 C 
ATOM      4  C   UNL     1     100.478 117.759 120.374  1.00  0.00     0.178 C 
ATOM      5  O   UNL     1     101.102 117.556 121.619  1.00  0.00    -0.347 OA
ENDROOT
BRANCH   1   6
ATOM      6  N   UNL     1     100.324 117.049 123.802  1.00  0.00    -0.271 N 
ATOM      7  C   UNL     1     100.840 114.913 124.764  1.00  0.00     0.090 A 
ATOM      8  C   UNL     1     100.637 115.726 123.652  1.00  0.00     0.099 A 
ATOM      9  C   UNL     1     100.731 115.475 126.031  1.00  0.00     0.253 A 
ATOM     10  N   UNL     1     100.436 116.795 126.160  1.00  0.00    -0.274 N 
ATOM     11  O   UNL     1     100.909 114.763 127.055  1.00  0.00    -0.269 OA
ATOM     12  C   UNL     1     100.239 117.583 125.067  1.00  0.00     0.330 A 
ATOM     13  H   UNL     1     100.363 117.214 127.116  1.00  0.00     0.175 HD
ATOM     14  O   UNL     1      99.985 118.807 125.232  1.00  0.00    -0.248 OA
ENDBRANCH   1   6
BRANCH   2  15
ATOM     15  O   UNL     1      97.974 118.849 122.152  1.00  0.00    -0.386 OA
ATOM     16  H   UNL     1      98.509 119.461 122.724  1.00  0.00     0.211 HD
ENDBRANCH   2  15
BRANCH   3  17
ATOM     17  O   UNL     1      98.768 116.043 120.243  1.00  0.00    -0.387 OA
ATOM     18  H   UNL     1      99.239 115.847 119.392  1.00  0.00     0.211 HD
ENDBRANCH   3  17
BRANCH   4  19
ATOM     19  C   UNL     1     101.212 116.987 119.265  1.00  0.00     0.191 C 
BRANCH  19  20
ATOM     20  O   UNL     1     100.501 117.023 118.056  1.00  0.00    -0.394 OA
ATOM     21  H   UNL     1      99.545 117.161 118.289  1.00  0.00     0.210 HD
ENDBRANCH  19  20
ENDBRANCH   4  19
TORSDOF 5
ENDMDL
MODEL 5
REMARK VINA RESULT:    -5.383      1.922      3.319
REMARK INTER + INTRA:          -7.060
REMARK INTER:                  -6.796
REMARK INTRA:                  -0.264
REMARK UNBOUND:                -0.576
REMARK SMILES O=c1ccn([C@H]2O[C@@H](CO)[C@@H](O)[C@@H]2O)c(=O)[nH]1
REMARK SMILES IDX 6 1 13 2 11 3 8 4 7 5 5 6 3 7 4 8 2 9 17 10 1 11 15 12 16 14
REMARK SMILES IDX 14 15 12 17 9 19 10 20
REMARK H PARENT 17 13 14 16 12 18 10 21
REMARK Flexibility Score: inf
ROOT
ATOM      1  C   UNL     1     101.504 114.985 124.718  1.00  0.00     0.255 C 
ATOM      2  C   UNL     1     100.591 113.965 124.023  1.00  0.00     0.196 C 
ATOM      3  C   UNL     1     100.680 112.732 124.908  1.00  0.00     0.179 C 
ATOM      4  C   UNL     1     101.848 113.065 125.837  1.00  0.00     0.178 C 
ATOM      5  O   UNL     1     101.914 114.465 125.963  1.00  0.00    -0.347 OA
ENDROOT
BRANCH   1   6
ATOM      6  N   UNL     1     100.817 116.281 124.901  1.00  0.00    -0.271 N 
ATOM      7  C   UNL     1      99.986 117.969 126.388  1.00  0.00     0.090 A 
ATOM      8  C   UNL     1     100.614 116.746 126.171  1.00  0.00     0.099 A 
ATOM      9  C   UNL     1      99.580 118.715 125.288  1.00  0.00     0.253 A 
ATOM     10  N   UNL     1      99.805 118.245 124.033  1.00  0.00    -0.274 N 
ATOM     11  O   UNL     1      99.008 119.826 125.455  1.00  0.00    -0.269 OA
ATOM     12  C   UNL     1     100.422 117.048 123.830  1.00  0.00     0.330 A 
ATOM     13  H   UNL     1      99.505 118.816 123.209  1.00  0.00     0.175 HD
ATOM     14  O   UNL     1     100.628 116.657 122.649  1.00  0.00    -0.248 OA
ENDBRANCH   1   6
BRANCH   2  15
ATOM     15  O   UNL     1     101.074 113.688 122.734  1.00  0.00    -0.386 OA
ATOM     16  H   UNL     1     101.333 114.560 122.334  1.00  0.00     0.211 HD
ENDBRANCH   2  15
BRANCH   3  17
ATOM     17  O   UNL     1      99.483 112.567 125.625  1.00  0.00    -0.387 OA
ATOM     18  H   UNL     1      99.312 111.590 125.669  1.00  0.00     0.211 HD
ENDBRANCH   3  17
BRANCH   4  19
ATOM     19  C   UNL     1     101.773 112.397 127.221  1.00  0.00     0.191 C 
BRANCH  19  20
ATOM     20  O   UNL     1     102.966 112.566 127.940  1.00  0.00    -0.394 OA
ATOM     21  H   UNL     1     103.202 113.529 127.880  1.00  0.00     0.210 HD
ENDBRANCH  19  20
ENDBRANCH   4  19
TORSDOF 5
ENDMDL
MODEL 6
REMARK VINA RESULT:    -5.340      1.956      2.763
REMARK INTER + INTRA:          -7.009
REMARK INTER:                  -6.483
REMARK INTRA:                  -0.526
REMARK UNBOUND:                -0.576
REMARK SMILES O=c1ccn([C@H]2O[C@@H](CO)[C@@H](O)[C@@H]2O)c(=O)[nH]1
REMARK SMILES IDX 6 1 13 2 11 3 8 4 7 5 5 6 3 7 4 8 2 9 17 10 1 11 15 12 16 14
REMARK SMILES IDX 14 15 12 17 9 19 10 20
REMARK H PARENT 17 13 14 16 12 18 10 21
REMARK Flexibility Score: inf
ROOT
ATOM      1  C   UNL     1     101.301 114.244 123.835  1.00  0.00     0.255 C 
ATOM      2  C   UNL     1     100.406 113.404 124.758  1.00  0.00     0.196 C 
ATOM      3  C   UNL     1     101.049 113.554 126.127  1.00  0.00     0.179 C 
ATOM      4  C   UNL     1     102.392 114.209 125.800  1.00  0.00     0.178 C 
ATOM      5  O   UNL     1     102.234 114.955 124.619  1.00  0.00    -0.347 OA
ENDROOT
BRANCH   1   6
ATOM      6  N   UNL     1     100.498 115.177 123.016  1.00  0.00    -0.271 N 
ATOM      7  C   UNL     1      99.126 117.141 122.896  1.00  0.00     0.090 A 
ATOM      8  C   UNL     1      99.878 116.229 123.632  1.00  0.00     0.099 A 
ATOM      9  C   UNL     1      99.028 116.968 121.520  1.00  0.00     0.253 A 
ATOM     10  N   UNL     1      99.665 115.927 120.923  1.00  0.00    -0.274 N 
ATOM     11  O   UNL     1      98.354 117.778 120.829  1.00  0.00    -0.269 OA
ATOM     12  C   UNL     1     100.400 115.040 121.651  1.00  0.00     0.330 A 
ATOM     13  H   UNL     1      99.594 115.808 119.886  1.00  0.00     0.175 HD
ATOM     14  O   UNL     1     100.990 114.099 121.055  1.00  0.00    -0.248 OA
ENDBRANCH   1   6
BRANCH   2  15
ATOM     15  O   UNL     1     100.420 112.061 124.347  1.00  0.00    -0.386 OA
ATOM     16  H   UNL     1     101.367 111.765 124.375  1.00  0.00     0.211 HD
ENDBRANCH   2  15
BRANCH   3  17
ATOM     17  O   UNL     1     100.259 114.382 126.942  1.00  0.00    -0.387 OA
ATOM     18  H   UNL     1      99.611 114.835 126.341  1.00  0.00     0.211 HD
ENDBRANCH   3  17
BRANCH   4  19
ATOM     19  C   UNL     1     102.964 115.087 126.926  1.00  0.00     0.191 C 
BRANCH  19  20
ATOM     20  O   UNL     1     103.287 114.325 128.060  1.00  0.00    -0.394 OA
ATOM     21  H   UNL     1     104.277 114.329 128.135  1.00  0.00     0.210 HD
ENDBRANCH  19  20
ENDBRANCH   4  19
TORSDOF 5
ENDMDL
MODEL 7
REMARK VINA RESULT:    -5.218      2.288      3.061
REMARK INTER + INTRA:          -6.862
REMARK INTER:                  -6.317
REMARK INTRA:                  -0.545
REMARK UNBOUND:                -0.576
REMARK SMILES O=c1ccn([C@H]2O[C@@H](CO)[C@@H](O)[C@@H]2O)c(=O)[nH]1
REMARK SMILES IDX 6 1 13 2 11 3 8 4 7 5 5 6 3 7 4 8 2 9 17 10 1 11 15 12 16 14
REMARK SMILES IDX 14 15 12 17 9 19 10 20
REMARK H PARENT 17 13 14 16 12 18 10 21
REMARK Flexibility Score: inf
ROOT
ATOM      1  C   UNL     1     101.189 115.590 125.425  1.00  0.00     0.255 C 
ATOM      2  C   UNL     1     101.892 114.635 124.449  1.00  0.00     0.196 C 
ATOM      3  C   UNL     1     101.563 113.253 124.990  1.00  0.00     0.179 C 
ATOM      4  C   UNL     1     100.967 113.559 126.365  1.00  0.00     0.178 C 
ATOM      5  O   UNL     1     100.386 114.839 126.308  1.00  0.00    -0.347 OA
ENDROOT
BRANCH   1   6
ATOM      6  N   UNL     1     100.370 116.586 124.703  1.00  0.00    -0.271 N 
ATOM      7  C   UNL     1      99.212 117.227 122.702  1.00  0.00     0.090 A 
ATOM      8  C   UNL     1      99.997 116.324 123.413  1.00  0.00     0.099 A 
ATOM      9  C   UNL     1      98.803 118.396 123.333  1.00  0.00     0.253 A 
ATOM     10  N   UNL     1      99.169 118.633 124.620  1.00  0.00    -0.274 N 
ATOM     11  O   UNL     1      98.092 119.232 122.713  1.00  0.00    -0.269 OA
ATOM     12  C   UNL     1      99.937 117.743 125.309  1.00  0.00     0.330 A 
ATOM     13  H   UNL     1      98.851 119.511 125.091  1.00  0.00     0.175 HD
ATOM     14  O   UNL     1     100.238 117.993 126.507  1.00  0.00    -0.248 OA
ENDBRANCH   1   6
BRANCH   2  15
ATOM     15  O   UNL     1     103.278 114.860 124.471  1.00  0.00    -0.386 OA
ATOM     16  H   UNL     1     103.634 114.360 125.252  1.00  0.00     0.211 HD
ENDBRANCH   2  15
BRANCH   3  17
ATOM     17  O   UNL     1     100.627 112.620 124.154  1.00  0.00    -0.387 OA
ATOM     18  H   UNL     1     101.069 112.500 123.274  1.00  0.00     0.211 HD
ENDBRANCH   3  17
BRANCH   4  19
ATOM     19  C   UNL     1      99.949 112.521 126.865  1.00  0.00     0.191 C 
BRANCH  19  20
ATOM     20  O   UNL     1      98.751 112.582 126.136  1.00  0.00    -0.394 OA
ATOM     21  H   UNL     1      98.477 111.644 125.956  1.00  0.00     0.210 HD
ENDBRANCH  19  20
ENDBRANCH   4  19
TORSDOF 5
ENDMDL
MODEL 8
REMARK VINA RESULT:    -5.142      2.127      3.404
REMARK INTER + INTRA:          -6.770
REMARK INTER:                  -6.324
REMARK INTRA:                  -0.446
REMARK UNBOUND:                -0.576
REMARK SMILES O=c1ccn([C@H]2O[C@@H](CO)[C@@H](O)[C@@H]2O)c(=O)[nH]1
REMARK SMILES IDX 6 1 13 2 11 3 8 4 7 5 5 6 3 7 4 8 2 9 17 10 1 11 15 12 16 14
REMARK SMILES IDX 14 15 12 17 9 19 10 20
REMARK H PARENT 17 13 14 16 12 18 10 21
REMARK Flexibility Score: inf
ROOT
ATOM      1  C   UNL     1     100.905 114.496 125.901  1.00  0.00     0.255 C 
ATOM      2  C   UNL     1     102.423 114.277 125.980  1.00  0.00     0.196 C 
ATOM      3  C   UNL     1     102.657 113.034 125.136  1.00  0.00     0.179 C 
ATOM      4  C   UNL     1     101.240 112.506 124.909  1.00  0.00     0.178 C 
ATOM      5  O   UNL     1     100.358 113.600 124.959  1.00  0.00    -0.347 OA
ENDROOT
BRANCH   1   6
ATOM      6  N   UNL     1     100.585 115.891 125.533  1.00  0.00    -0.271 N 
ATOM      7  C   UNL     1      99.972 118.105 126.223  1.00  0.00     0.090 A 
ATOM      8  C   UNL     1     100.264 116.778 126.524  1.00  0.00     0.099 A 
ATOM      9  C   UNL     1     100.024 118.515 124.896  1.00  0.00     0.253 A 
ATOM     10  N   UNL     1     100.360 117.625 123.926  1.00  0.00    -0.274 N 
ATOM     11  O   UNL     1      99.763 119.711 124.594  1.00  0.00    -0.269 OA
ATOM     12  C   UNL     1     100.646 116.328 124.230  1.00  0.00     0.330 A 
ATOM     13  H   UNL     1     100.406 117.942 122.930  1.00  0.00     0.175 HD
ATOM     14  O   UNL     1     100.972 115.539 123.302  1.00  0.00    -0.248 OA
ENDBRANCH   1   6
BRANCH   2  15
ATOM     15  O   UNL     1     102.807 114.052 127.313  1.00  0.00    -0.386 OA
ATOM     16  H   UNL     1     101.979 114.099 127.858  1.00  0.00     0.211 HD
ENDBRANCH   2  15
BRANCH   3  17
ATOM     17  O   UNL     1     103.274 113.387 123.923  1.00  0.00    -0.387 OA
ATOM     18  H   UNL     1     103.437 112.540 123.432  1.00  0.00     0.211 HD
ENDBRANCH   3  17
BRANCH   4  19
ATOM     19  C   UNL     1     101.055 111.716 123.603  1.00  0.00     0.191 C 
BRANCH  19  20
ATOM     20  O   UNL     1     100.887 112.572 122.503  1.00  0.00    -0.394 OA
ATOM     21  H   UNL     1     101.069 113.493 122.827  1.00  0.00     0.210 HD
ENDBRANCH  19  20
ENDBRANCH   4  19
TORSDOF 5
ENDMDL
MODEL 9
REMARK VINA RESULT:    -5.126      2.975      4.516
REMARK INTER + INTRA:          -6.751
REMARK INTER:                  -6.134
REMARK INTRA:                  -0.617
REMARK UNBOUND:                -0.576
REMARK SMILES O=c1ccn([C@H]2O[C@@H](CO)[C@@H](O)[C@@H]2O)c(=O)[nH]1
REMARK SMILES IDX 6 1 13 2 11 3 8 4 7 5 5 6 3 7 4 8 2 9 17 10 1 11 15 12 16 14
REMARK SMILES IDX 14 15 12 17 9 19 10 20
REMARK H PARENT 17 13 14 16 12 18 10 21
REMARK Flexibility Score: inf
ROOT
ATOM      1  C   UNL     1     102.528 113.494 125.538  1.00  0.00     0.255 C 
ATOM      2  C   UNL     1     101.886 112.620 126.626  1.00  0.00     0.196 C 
ATOM      3  C   UNL     1     100.794 113.504 127.207  1.00  0.00     0.179 C 
ATOM      4  C   UNL     1     101.113 114.875 126.608  1.00  0.00     0.178 C 
ATOM      5  O   UNL     1     101.764 114.668 125.379  1.00  0.00    -0.347 OA
ENDROOT
BRANCH   1   6
ATOM      6  N   UNL     1     102.627 112.765 124.256  1.00  0.00    -0.271 N 
ATOM      7  C   UNL     1     101.772 111.072 122.788  1.00  0.00     0.090 A 
ATOM      8  C   UNL     1     101.725 111.772 123.990  1.00  0.00     0.099 A 
ATOM      9  C   UNL     1     102.748 111.410 121.857  1.00  0.00     0.253 A 
ATOM     10  N   UNL     1     103.626 112.410 122.131  1.00  0.00    -0.274 N 
ATOM     11  O   UNL     1     102.814 110.792 120.760  1.00  0.00    -0.269 OA
ATOM     12  C   UNL     1     103.571 113.090 123.310  1.00  0.00     0.330 A 
ATOM     13  H   UNL     1     104.352 112.664 121.423  1.00  0.00     0.175 HD
ATOM     14  O   UNL     1     104.393 114.024 123.517  1.00  0.00    -0.248 OA
ENDBRANCH   1   6
BRANCH   2  15
ATOM     15  O   UNL     1     102.838 112.297 127.607  1.00  0.00    -0.386 OA
ATOM     16  H   UNL     1     102.332 112.075 128.432  1.00  0.00     0.211 HD
ENDBRANCH   2  15
BRANCH   3  17
ATOM     17  O   UNL     1      99.532 113.044 126.794  1.00  0.00    -0.387 OA
ATOM     18  H   UNL     1      99.331 112.240 127.341  1.00  0.00     0.211 HD
ENDBRANCH   3  17
BRANCH   4  19
ATOM     19  C   UNL     1      99.892 115.793 126.430  1.00  0.00     0.191 C 
BRANCH  19  20
ATOM     20  O   UNL     1      99.200 115.506 125.243  1.00  0.00    -0.394 OA
ATOM     21  H   UNL     1      99.886 115.300 124.554  1.00  0.00     0.210 HD
ENDBRANCH  19  20
ENDBRANCH   4  19
TORSDOF 5
ENDMDL
