MODEL 1
REMARK VINA RESULT:    -2.418      0.000      0.000
REMARK INTER + INTRA:          -4.030
REMARK INTER:                  -3.407
REMARK INTRA:                  -0.623
REMARK UNBOUND:                -0.623
REMARK SMILES CCCCCCCCC(=O)[O-]
REMARK SMILES IDX 6 1 7 2 8 3 9 4 10 5 11 6 5 7 4 8 3 9 2 10 1 11
REMARK H PARENT
REMARK Flexibility Score: inf
ROOT
ATOM      1  C   UNL     1     176.859 208.019 200.009  1.00  0.00     0.000 C 
ENDROOT
BRANCH   1   2
ATOM      2  C   UNL     1     178.391 207.882 200.054  1.00  0.00     0.006 C 
BRANCH   2   3
ATOM      3  C   UNL     1     178.961 207.164 198.824  1.00  0.00     0.053 C 
BRANCH   3   4
ATOM      4  C   UNL     1     180.456 207.154 198.873  1.00  0.00     0.041 C 
ATOM      5  O   UNL     1     181.122 206.879 197.839  1.00  0.00    -0.550 OA
ATOM      6  O   UNL     1     181.116 207.497 200.046  1.00  0.00    -0.550 OA
ENDBRANCH   3   4
ENDBRANCH   2   3
ENDBRANCH   1   2
BRANCH   1   7
ATOM      7  C   UNL     1     176.144 207.826 201.361  1.00  0.00     0.000 C 
BRANCH   7   8
ATOM      8  C   UNL     1     175.950 206.363 201.798  1.00  0.00    -0.000 C 
BRANCH   8   9
ATOM      9  C   UNL     1     176.929 205.935 202.906  1.00  0.00    -0.000 C 
BRANCH   9  10
ATOM     10  C   UNL     1     177.903 204.843 202.440  1.00  0.00    -0.003 C 
ATOM     11  C   UNL     1     179.359 205.313 202.428  1.00  0.00     0.004 C 
ENDBRANCH   9  10
ENDBRANCH   8   9
ENDBRANCH   7   8
ENDBRANCH   1   7
TORSDOF 7
ENDMDL
MODEL 2
REMARK VINA RESULT:    -2.218      1.031      1.432
REMARK INTER + INTRA:          -3.748
REMARK INTER:                  -3.022
REMARK INTRA:                  -0.725
REMARK UNBOUND:                -0.623
REMARK SMILES CCCCCCCCC(=O)[O-]
REMARK SMILES IDX 6 1 7 2 8 3 9 4 10 5 11 6 5 7 4 8 3 9 2 10 1 11
REMARK H PARENT
REMARK Flexibility Score: inf
ROOT
ATOM      1  C   UNL     1     176.629 208.125 200.885  1.00  0.00     0.000 C 
ENDROOT
BRANCH   1   2
ATOM      2  C   UNL     1     177.341 207.625 199.616  1.00  0.00     0.006 C 
BRANCH   2   3
ATOM      3  C   UNL     1     178.869 207.666 199.735  1.00  0.00     0.053 C 
BRANCH   3   4
ATOM      4  C   UNL     1     179.502 206.973 198.570  1.00  0.00     0.041 C 
ATOM      5  O   UNL     1     180.735 207.106 198.346  1.00  0.00    -0.550 OA
ATOM      6  O   UNL     1     178.742 206.139 197.760  1.00  0.00    -0.550 OA
ENDBRANCH   3   4
ENDBRANCH   2   3
ENDBRANCH   1   2
BRANCH   1   7
ATOM      7  C   UNL     1     175.485 207.225 201.392  1.00  0.00     0.000 C 
BRANCH   7   8
ATOM      8  C   UNL     1     175.910 205.819 201.853  1.00  0.00    -0.000 C 
BRANCH   8   9
ATOM      9  C   UNL     1     177.050 205.848 202.887  1.00  0.00    -0.000 C 
BRANCH   9  10
ATOM     10  C   UNL     1     178.094 204.748 202.643  1.00  0.00    -0.003 C 
ATOM     11  C   UNL     1     178.198 204.344 201.171  1.00  0.00     0.004 C 
ENDBRANCH   9  10
ENDBRANCH   8   9
ENDBRANCH   7   8
ENDBRANCH   1   7
TORSDOF 7
ENDMDL
MODEL 3
REMARK VINA RESULT:    -2.190      1.329      1.726
REMARK INTER + INTRA:          -3.708
REMARK INTER:                  -3.054
REMARK INTRA:                  -0.654
REMARK UNBOUND:                -0.623
REMARK SMILES CCCCCCCCC(=O)[O-]
REMARK SMILES IDX 6 1 7 2 8 3 9 4 10 5 11 6 5 7 4 8 3 9 2 10 1 11
REMARK H PARENT
REMARK Flexibility Score: inf
ROOT
ATOM      1  C   UNL     1     176.758 207.770 199.066  1.00  0.00     0.000 C 
ENDROOT
BRANCH   1   2
ATOM      2  C   UNL     1     177.780 206.965 198.243  1.00  0.00     0.006 C 
BRANCH   2   3
ATOM      3  C   UNL     1     179.231 207.251 198.652  1.00  0.00     0.053 C 
BRANCH   3   4
ATOM      4  C   UNL     1     180.177 206.728 197.618  1.00  0.00     0.041 C 
ATOM      5  O   UNL     1     180.754 205.621 197.789  1.00  0.00    -0.550 OA
ATOM      6  O   UNL     1     180.382 207.437 196.441  1.00  0.00    -0.550 OA
ENDBRANCH   3   4
ENDBRANCH   2   3
ENDBRANCH   1   2
BRANCH   1   7
ATOM      7  C   UNL     1     177.192 208.100 200.508  1.00  0.00     0.000 C 
BRANCH   7   8
ATOM      8  C   UNL     1     176.200 207.676 201.605  1.00  0.00    -0.000 C 
BRANCH   8   9
ATOM      9  C   UNL     1     176.528 206.299 202.208  1.00  0.00    -0.000 C 
BRANCH   9  10
ATOM     10  C   UNL     1     177.954 205.835 201.873  1.00  0.00    -0.003 C 
ATOM     11  C   UNL     1     177.983 204.515 201.101  1.00  0.00     0.004 C 
ENDBRANCH   9  10
ENDBRANCH   8   9
ENDBRANCH   7   8
ENDBRANCH   1   7
TORSDOF 7
ENDMDL
MODEL 4
REMARK VINA RESULT:    -2.187      1.312      2.931
REMARK INTER + INTRA:          -3.705
REMARK INTER:                  -3.009
REMARK INTRA:                  -0.696
REMARK UNBOUND:                -0.623
REMARK SMILES CCCCCCCCC(=O)[O-]
REMARK SMILES IDX 6 1 7 2 8 3 9 4 10 5 11 6 5 7 4 8 3 9 2 10 1 11
REMARK H PARENT
REMARK Flexibility Score: inf
ROOT
ATOM      1  C   UNL     1     178.137 205.563 201.006  1.00  0.00     0.000 C 
ENDROOT
BRANCH   1   2
ATOM      2  C   UNL     1     179.605 206.025 200.999  1.00  0.00     0.006 C 
BRANCH   2   3
ATOM      3  C   UNL     1     179.869 207.154 199.995  1.00  0.00     0.053 C 
BRANCH   3   4
ATOM      4  C   UNL     1     180.410 206.600 198.716  1.00  0.00     0.041 C 
ATOM      5  O   UNL     1     181.083 205.534 198.721  1.00  0.00    -0.550 OA
ATOM      6  O   UNL     1     180.129 207.230 197.511  1.00  0.00    -0.550 OA
ENDBRANCH   3   4
ENDBRANCH   2   3
ENDBRANCH   1   2
BRANCH   1   7
ATOM      7  C   UNL     1     177.306 206.040 202.214  1.00  0.00     0.000 C 
BRANCH   7   8
ATOM      8  C   UNL     1     176.097 206.928 201.869  1.00  0.00    -0.000 C 
BRANCH   8   9
ATOM      9  C   UNL     1     176.466 208.116 200.963  1.00  0.00    -0.000 C 
BRANCH   9  10
ATOM     10  C   UNL     1     175.669 208.124 199.650  1.00  0.00    -0.003 C 
ATOM     11  C   UNL     1     176.497 207.659 198.451  1.00  0.00     0.004 C 
ENDBRANCH   9  10
ENDBRANCH   8   9
ENDBRANCH   7   8
ENDBRANCH   1   7
TORSDOF 7
ENDMDL
MODEL 5
REMARK VINA RESULT:    -2.156      2.056      3.362
REMARK INTER + INTRA:          -3.661
REMARK INTER:                  -3.159
REMARK INTRA:                  -0.502
REMARK UNBOUND:                -0.623
REMARK SMILES CCCCCCCCC(=O)[O-]
REMARK SMILES IDX 6 1 7 2 8 3 9 4 10 5 11 6 5 7 4 8 3 9 2 10 1 11
REMARK H PARENT
REMARK Flexibility Score: inf
ROOT
ATOM      1  C   UNL     1     178.102 206.358 200.822  1.00  0.00     0.000 C 
ENDROOT
BRANCH   1   2
ATOM      2  C   UNL     1     178.649 207.488 199.933  1.00  0.00     0.006 C 
BRANCH   2   3
ATOM      3  C   UNL     1     179.287 206.971 198.637  1.00  0.00     0.053 C 
BRANCH   3   4
ATOM      4  C   UNL     1     178.436 207.325 197.459  1.00  0.00     0.041 C 
ATOM      5  O   UNL     1     178.902 207.242 196.292  1.00  0.00    -0.550 OA
ATOM      6  O   UNL     1     177.110 207.697 197.645  1.00  0.00    -0.550 OA
ENDBRANCH   3   4
ENDBRANCH   2   3
ENDBRANCH   1   2
BRANCH   1   7
ATOM      7  C   UNL     1     176.851 206.721 201.647  1.00  0.00     0.000 C 
BRANCH   7   8
ATOM      8  C   UNL     1     176.277 208.125 201.386  1.00  0.00    -0.000 C 
BRANCH   8   9
ATOM      9  C   UNL     1     175.001 208.099 200.527  1.00  0.00    -0.000 C 
BRANCH   9  10
ATOM     10  C   UNL     1     174.213 206.790 200.683  1.00  0.00    -0.003 C 
ATOM     11  C   UNL     1     172.998 206.934 201.601  1.00  0.00     0.004 C 
ENDBRANCH   9  10
ENDBRANCH   8   9
ENDBRANCH   7   8
ENDBRANCH   1   7
TORSDOF 7
ENDMDL
MODEL 6
REMARK VINA RESULT:    -2.112      3.163      4.609
REMARK INTER + INTRA:          -3.600
REMARK INTER:                  -2.961
REMARK INTRA:                  -0.638
REMARK UNBOUND:                -0.623
REMARK SMILES CCCCCCCCC(=O)[O-]
REMARK SMILES IDX 6 1 7 2 8 3 9 4 10 5 11 6 5 7 4 8 3 9 2 10 1 11
REMARK H PARENT
REMARK Flexibility Score: inf
ROOT
ATOM      1  C   UNL     1     176.616 205.607 201.406  1.00  0.00     0.000 C 
ENDROOT
BRANCH   1   2
ATOM      2  C   UNL     1     176.558 207.005 202.048  1.00  0.00     0.006 C 
BRANCH   2   3
ATOM      3  C   UNL     1     176.313 208.121 201.025  1.00  0.00     0.053 C 
BRANCH   3   4
ATOM      4  C   UNL     1     174.934 208.014 200.456  1.00  0.00     0.041 C 
ATOM      5  O   UNL     1     174.771 207.777 199.229  1.00  0.00    -0.550 OA
ATOM      6  O   UNL     1     173.828 208.125 201.289  1.00  0.00    -0.550 OA
ENDBRANCH   3   4
ENDBRANCH   2   3
ENDBRANCH   1   2
BRANCH   1   7
ATOM      7  C   UNL     1     177.971 205.233 200.774  1.00  0.00     0.000 C 
BRANCH   7   8
ATOM      8  C   UNL     1     179.205 205.518 201.649  1.00  0.00    -0.000 C 
BRANCH   8   9
ATOM      9  C   UNL     1     180.320 206.256 200.887  1.00  0.00    -0.000 C 
BRANCH   9  10
ATOM     10  C   UNL     1     179.768 207.247 199.851  1.00  0.00    -0.003 C 
ATOM     11  C   UNL     1     180.327 207.010 198.447  1.00  0.00     0.004 C 
ENDBRANCH   9  10
ENDBRANCH   8   9
ENDBRANCH   7   8
ENDBRANCH   1   7
TORSDOF 7
ENDMDL
MODEL 7
REMARK VINA RESULT:    -2.096      2.839      4.070
REMARK INTER + INTRA:          -3.576
REMARK INTER:                  -2.732
REMARK INTRA:                  -0.844
REMARK UNBOUND:                -0.623
REMARK SMILES CCCCCCCCC(=O)[O-]
REMARK SMILES IDX 6 1 7 2 8 3 9 4 10 5 11 6 5 7 4 8 3 9 2 10 1 11
REMARK H PARENT
REMARK Flexibility Score: inf
ROOT
ATOM      1  C   UNL     1     178.120 208.109 200.129  1.00  0.00     0.000 C 
ENDROOT
BRANCH   1   2
ATOM      2  C   UNL     1     176.591 208.125 200.303  1.00  0.00     0.006 C 
BRANCH   2   3
ATOM      3  C   UNL     1     176.135 207.483 201.619  1.00  0.00     0.053 C 
BRANCH   3   4
ATOM      4  C   UNL     1     175.572 206.120 201.368  1.00  0.00     0.041 C 
ATOM      5  O   UNL     1     175.777 205.543 200.267  1.00  0.00    -0.550 OA
ATOM      6  O   UNL     1     174.864 205.465 202.367  1.00  0.00    -0.550 OA
ENDBRANCH   3   4
ENDBRANCH   2   3
ENDBRANCH   1   2
BRANCH   1   7
ATOM      7  C   UNL     1     178.639 207.218 198.983  1.00  0.00     0.000 C 
BRANCH   7   8
ATOM      8  C   UNL     1     179.401 205.956 199.426  1.00  0.00    -0.000 C 
BRANCH   8   9
ATOM      9  C   UNL     1     179.782 205.980 200.916  1.00  0.00    -0.000 C 
BRANCH   9  10
ATOM     10  C   UNL     1     179.240 204.764 201.682  1.00  0.00    -0.003 C 
ATOM     11  C   UNL     1     178.670 205.130 203.053  1.00  0.00     0.004 C 
ENDBRANCH   9  10
ENDBRANCH   8   9
ENDBRANCH   7   8
ENDBRANCH   1   7
TORSDOF 7
ENDMDL
MODEL 8
REMARK VINA RESULT:    -2.093      1.675      2.608
REMARK INTER + INTRA:          -3.572
REMARK INTER:                  -2.874
REMARK INTRA:                  -0.698
REMARK UNBOUND:                -0.623
REMARK SMILES CCCCCCCCC(=O)[O-]
REMARK SMILES IDX 6 1 7 2 8 3 9 4 10 5 11 6 5 7 4 8 3 9 2 10 1 11
REMARK H PARENT
REMARK Flexibility Score: inf
ROOT
ATOM      1  C   UNL     1     176.305 207.288 197.556  1.00  0.00     0.000 C 
ENDROOT
BRANCH   1   2
ATOM      2  C   UNL     1     177.425 206.525 198.285  1.00  0.00     0.006 C 
BRANCH   2   3
ATOM      3  C   UNL     1     178.490 207.454 198.880  1.00  0.00     0.053 C 
BRANCH   3   4
ATOM      4  C   UNL     1     179.601 206.656 199.485  1.00  0.00     0.041 C 
ATOM      5  O   UNL     1     179.426 205.441 199.770  1.00  0.00    -0.550 OA
ATOM      6  O   UNL     1     180.846 207.238 199.687  1.00  0.00    -0.550 OA
ENDBRANCH   3   4
ENDBRANCH   2   3
ENDBRANCH   1   2
BRANCH   1   7
ATOM      7  C   UNL     1     175.383 208.124 198.466  1.00  0.00     0.000 C 
BRANCH   7   8
ATOM      8  C   UNL     1     174.756 207.359 199.645  1.00  0.00    -0.000 C 
BRANCH   8   9
ATOM      9  C   UNL     1     174.857 208.125 200.976  1.00  0.00    -0.000 C 
BRANCH   9  10
ATOM     10  C   UNL     1     176.246 208.002 201.621  1.00  0.00    -0.003 C 
ATOM     11  C   UNL     1     176.652 206.552 201.885  1.00  0.00     0.004 C 
ENDBRANCH   9  10
ENDBRANCH   8   9
ENDBRANCH   7   8
ENDBRANCH   1   7
TORSDOF 7
ENDMDL
