MODEL 1
REMARK VINA RESULT:    -5.309      0.000      0.000
REMARK INTER + INTRA:          -7.584
REMARK INTER:                  -7.948
REMARK INTRA:                   0.363
REMARK UNBOUND:                 0.363
REMARK SMILES O=c1c(O[C@@H]2O[C@@H](CO)[C@H](O)[C@H](O)[C@@H]2O)c(-c2cc(O)c(O)c(O)c2)oc2cc(O)cc(O)c12
REMARK SMILES IDX 4 1 3 2 16 3 26 4 2 5 27 6 1 7 34 8 28 9 32 10 29 11 31 12
REMARK SMILES IDX 17 13 18 14 19 15 25 16 21 17 23 18 20 19 22 21 24 23 33 25
REMARK SMILES IDX 30 27 5 29 14 30 6 31 12 32 7 33 10 34 15 35 13 37 8 39 9 40
REMARK SMILES IDX 11 42
REMARK H PARENT 20 20 22 22 24 24 33 26 30 28 15 36 13 38 9 41 11 43
REMARK Flexibility Score: inf
ROOT
ATOM      1  O   UNL     1       3.222 -17.690   6.802  1.00  0.00    -0.454 OA
ENDROOT
BRANCH   1   2
ATOM      2  C   UNL     1       3.627 -16.352   6.818  1.00  0.00     0.214 A 
ATOM      3  C   UNL     1       4.246 -15.811   7.956  1.00  0.00     0.181 A 
ATOM      4  O   UNL     1       4.708 -14.565   7.926  1.00  0.00    -0.452 OA
ATOM      5  C   UNL     1       3.459 -15.549   5.684  1.00  0.00     0.239 A 
ATOM      6  C   UNL     1       4.597 -13.773   6.864  1.00  0.00     0.146 A 
ATOM      7  O   UNL     1       2.875 -16.024   4.673  1.00  0.00    -0.285 OA
ATOM      8  C   UNL     1       3.954 -14.229   5.689  1.00  0.00     0.111 A 
ATOM      9  C   UNL     1       5.122 -12.479   6.920  1.00  0.00     0.094 A 
ATOM     10  C   UNL     1       3.844 -13.359   4.580  1.00  0.00     0.134 A 
ATOM     11  C   UNL     1       5.024 -11.627   5.816  1.00  0.00     0.123 A 
ATOM     12  C   UNL     1       4.380 -12.065   4.655  1.00  0.00     0.093 A 
BRANCH   3  13
ATOM     13  C   UNL     1       4.430 -16.603   9.191  1.00  0.00     0.029 A 
ATOM     14  C   UNL     1       4.675 -17.984   9.136  1.00  0.00     0.062 A 
ATOM     15  C   UNL     1       4.846 -18.723  10.314  1.00  0.00     0.162 A 
ATOM     16  C   UNL     1       4.333 -15.973  10.441  1.00  0.00     0.062 A 
ATOM     17  C   UNL     1       4.768 -18.082  11.562  1.00  0.00     0.200 A 
ATOM     18  C   UNL     1       4.510 -16.700  11.620  1.00  0.00     0.162 A 
BRANCH  15  19
ATOM     19  O   UNL     1       5.089 -20.096  10.250  1.00  0.00    -0.504 OA
ATOM     20  H   UNL     1       5.888 -20.516  10.712  1.00  0.00     0.293 HD
ENDBRANCH  15  19
BRANCH  17  21
ATOM     21  O   UNL     1       4.944 -18.801  12.744  1.00  0.00    -0.502 OA
ATOM     22  H   UNL     1       5.077 -19.805  12.752  1.00  0.00     0.293 HD
ENDBRANCH  17  21
BRANCH  18  23
ATOM     23  O   UNL     1       4.429 -16.036  12.843  1.00  0.00    -0.504 OA
ATOM     24  H   UNL     1       3.634 -15.460  13.095  1.00  0.00     0.293 HD
ENDBRANCH  18  23
ENDBRANCH   3  13
BRANCH  10  25
ATOM     25  O   UNL     1       3.213 -13.769   3.404  1.00  0.00    -0.507 OA
ATOM     26  H   UNL     1       3.583 -13.534   2.492  1.00  0.00     0.293 HD
ENDBRANCH  10  25
BRANCH  11  27
ATOM     27  O   UNL     1       5.556 -10.340   5.862  1.00  0.00    -0.508 OA
ATOM     28  H   UNL     1       5.581  -9.807   6.724  1.00  0.00     0.293 HD
ENDBRANCH  11  27
ENDBRANCH   1   2
BRANCH   1  29
ATOM     29  C   UNL     1       3.908 -18.655   6.009  1.00  0.00     0.339 C 
ATOM     30  C   UNL     1       4.166 -19.938   6.835  1.00  0.00     0.214 C 
ATOM     31  O   UNL     1       3.136 -18.961   4.863  1.00  0.00    -0.332 OA
ATOM     32  C   UNL     1       4.410 -21.169   5.915  1.00  0.00     0.180 C 
ATOM     33  C   UNL     1       3.878 -19.715   3.904  1.00  0.00     0.179 C 
ATOM     34  C   UNL     1       4.904 -20.707   4.531  1.00  0.00     0.177 C 
BRANCH  30  35
ATOM     35  O   UNL     1       3.129 -20.184   7.756  1.00  0.00    -0.384 OA
ATOM     36  H   UNL     1       2.646 -21.000   7.460  1.00  0.00     0.211 HD
ENDBRANCH  30  35
BRANCH  32  37
ATOM     37  O   UNL     1       3.232 -21.921   5.749  1.00  0.00    -0.387 OA
ATOM     38  H   UNL     1       3.313 -22.718   6.337  1.00  0.00     0.211 HD
ENDBRANCH  32  37
BRANCH  33  39
ATOM     39  C   UNL     1       4.541 -18.780   2.880  1.00  0.00     0.191 C 
BRANCH  39  40
ATOM     40  O   UNL     1       3.919 -17.522   2.895  1.00  0.00    -0.394 OA
ATOM     41  H   UNL     1       4.643 -16.844   2.911  1.00  0.00     0.210 HD
ENDBRANCH  39  40
ENDBRANCH  33  39
BRANCH  34  42
ATOM     42  O   UNL     1       5.078 -21.813   3.683  1.00  0.00    -0.387 OA
ATOM     43  H   UNL     1       5.406 -21.462   2.815  1.00  0.00     0.211 HD
ENDBRANCH  34  42
ENDBRANCH   1  29
TORSDOF 13
ENDMDL
MODEL 2
REMARK VINA RESULT:    -4.066      1.334      2.181
REMARK INTER + INTRA:          -5.724
REMARK INTER:                  -6.160
REMARK INTRA:                   0.437
REMARK UNBOUND:                 0.363
REMARK SMILES O=c1c(O[C@@H]2O[C@@H](CO)[C@H](O)[C@H](O)[C@@H]2O)c(-c2cc(O)c(O)c(O)c2)oc2cc(O)cc(O)c12
REMARK SMILES IDX 4 1 3 2 16 3 26 4 2 5 27 6 1 7 34 8 28 9 32 10 29 11 31 12
REMARK SMILES IDX 17 13 18 14 19 15 25 16 21 17 23 18 20 19 22 21 24 23 33 25
REMARK SMILES IDX 30 27 5 29 14 30 6 31 12 32 7 33 10 34 15 35 13 37 8 39 9 40
REMARK SMILES IDX 11 42
REMARK H PARENT 20 20 22 22 24 24 33 26 30 28 15 36 13 38 9 41 11 43
REMARK Flexibility Score: inf
ROOT
ATOM      1  O   UNL     1       2.956 -18.419   6.407  1.00  0.00    -0.454 OA
ENDROOT
BRANCH   1   2
ATOM      2  C   UNL     1       3.368 -17.084   6.447  1.00  0.00     0.214 A 
ATOM      3  C   UNL     1       3.855 -16.527   7.640  1.00  0.00     0.181 A 
ATOM      4  O   UNL     1       4.329 -15.285   7.643  1.00  0.00    -0.452 OA
ATOM      5  C   UNL     1       3.341 -16.301   5.288  1.00  0.00     0.239 A 
ATOM      6  C   UNL     1       4.350 -14.512   6.562  1.00  0.00     0.146 A 
ATOM      7  O   UNL     1       2.875 -16.789   4.224  1.00  0.00    -0.285 OA
ATOM      8  C   UNL     1       3.845 -14.985   5.328  1.00  0.00     0.111 A 
ATOM      9  C   UNL     1       4.877 -13.221   6.657  1.00  0.00     0.094 A 
ATOM     10  C   UNL     1       3.873 -14.134   4.199  1.00  0.00     0.134 A 
ATOM     11  C   UNL     1       4.917 -12.388   5.534  1.00  0.00     0.123 A 
ATOM     12  C   UNL     1       4.409 -12.842   4.315  1.00  0.00     0.093 A 
BRANCH   3  13
ATOM     13  C   UNL     1       3.886 -17.298   8.902  1.00  0.00     0.029 A 
ATOM     14  C   UNL     1       3.364 -18.599   8.969  1.00  0.00     0.062 A 
ATOM     15  C   UNL     1       3.397 -19.318  10.170  1.00  0.00     0.162 A 
ATOM     16  C   UNL     1       4.422 -16.714  10.059  1.00  0.00     0.062 A 
ATOM     17  C   UNL     1       3.955 -18.734  11.321  1.00  0.00     0.200 A 
ATOM     18  C   UNL     1       4.468 -17.426  11.260  1.00  0.00     0.162 A 
BRANCH  15  19
ATOM     19  O   UNL     1       2.875 -20.610  10.228  1.00  0.00    -0.504 OA
ATOM     20  H   UNL     1       3.030 -21.211  11.031  1.00  0.00     0.293 HD
ENDBRANCH  15  19
BRANCH  17  21
ATOM     21  O   UNL     1       4.004 -19.439  12.524  1.00  0.00    -0.502 OA
ATOM     22  H   UNL     1       4.294 -19.005  13.394  1.00  0.00     0.293 HD
ENDBRANCH  17  21
BRANCH  18  23
ATOM     23  O   UNL     1       5.029 -16.821  12.384  1.00  0.00    -0.504 OA
ATOM     24  H   UNL     1       4.650 -15.973  12.788  1.00  0.00     0.293 HD
ENDBRANCH  18  23
ENDBRANCH   3  13
BRANCH  10  25
ATOM     25  O   UNL     1       3.380 -14.560   2.964  1.00  0.00    -0.507 OA
ATOM     26  H   UNL     1       3.879 -15.232   2.396  1.00  0.00     0.293 HD
ENDBRANCH  10  25
BRANCH  11  27
ATOM     27  O   UNL     1       5.452 -11.104   5.620  1.00  0.00    -0.508 OA
ATOM     28  H   UNL     1       6.453 -10.950   5.674  1.00  0.00     0.293 HD
ENDBRANCH  11  27
ENDBRANCH   1   2
BRANCH   1  29
ATOM     29  C   UNL     1       3.896 -19.472   6.221  1.00  0.00     0.339 C 
ATOM     30  C   UNL     1       3.598 -20.229   4.904  1.00  0.00     0.214 C 
ATOM     31  O   UNL     1       5.206 -18.937   6.187  1.00  0.00    -0.332 OA
ATOM     32  C   UNL     1       4.849 -20.999   4.393  1.00  0.00     0.180 C 
ATOM     33  C   UNL     1       6.204 -19.955   6.268  1.00  0.00     0.179 C 
ATOM     34  C   UNL     1       5.809 -21.288   5.562  1.00  0.00     0.177 C 
BRANCH  30  35
ATOM     35  O   UNL     1       3.084 -19.370   3.913  1.00  0.00    -0.384 OA
ATOM     36  H   UNL     1       2.165 -19.674   3.693  1.00  0.00     0.211 HD
ENDBRANCH  30  35
BRANCH  32  37
ATOM     37  O   UNL     1       5.537 -20.259   3.413  1.00  0.00    -0.387 OA
ATOM     38  H   UNL     1       6.264 -20.842   3.068  1.00  0.00     0.211 HD
ENDBRANCH  32  37
BRANCH  33  39
ATOM     39  C   UNL     1       6.622 -20.185   7.729  1.00  0.00     0.191 C 
BRANCH  39  40
ATOM     40  O   UNL     1       5.625 -20.897   8.414  1.00  0.00    -0.394 OA
ATOM     41  H   UNL     1       5.649 -21.827   8.070  1.00  0.00     0.210 HD
ENDBRANCH  39  40
ENDBRANCH  33  39
BRANCH  34  42
ATOM     42  O   UNL     1       6.962 -21.940   5.095  1.00  0.00    -0.387 OA
ATOM     43  H   UNL     1       6.912 -21.937   4.104  1.00  0.00     0.211 HD
ENDBRANCH  34  42
ENDBRANCH   1  29
TORSDOF 13
ENDMDL
MODEL 3
REMARK VINA RESULT:    -3.948      1.258      5.919
REMARK INTER + INTRA:          -5.547
REMARK INTER:                  -6.411
REMARK INTRA:                   0.864
REMARK UNBOUND:                 0.363
REMARK SMILES O=c1c(O[C@@H]2O[C@@H](CO)[C@H](O)[C@H](O)[C@@H]2O)c(-c2cc(O)c(O)c(O)c2)oc2cc(O)cc(O)c12
REMARK SMILES IDX 4 1 3 2 16 3 26 4 2 5 27 6 1 7 34 8 28 9 32 10 29 11 31 12
REMARK SMILES IDX 17 13 18 14 19 15 25 16 21 17 23 18 20 19 22 21 24 23 33 25
REMARK SMILES IDX 30 27 5 29 14 30 6 31 12 32 7 33 10 34 15 35 13 37 8 39 9 40
REMARK SMILES IDX 11 42
REMARK H PARENT 20 20 22 22 24 24 33 26 30 28 15 36 13 38 9 41 11 43
REMARK Flexibility Score: inf
ROOT
ATOM      1  O   UNL     1       3.074 -17.609   6.500  1.00  0.00    -0.454 OA
ENDROOT
BRANCH   1   2
ATOM      2  C   UNL     1       3.714 -17.374   7.720  1.00  0.00     0.214 A 
ATOM      3  C   UNL     1       4.285 -16.120   7.992  1.00  0.00     0.181 A 
ATOM      4  O   UNL     1       4.809 -15.880   9.190  1.00  0.00    -0.452 OA
ATOM      5  C   UNL     1       3.755 -18.370   8.701  1.00  0.00     0.239 A 
ATOM      6  C   UNL     1       4.847 -16.785  10.163  1.00  0.00     0.146 A 
ATOM      7  O   UNL     1       3.271 -19.506   8.447  1.00  0.00    -0.285 OA
ATOM      8  C   UNL     1       4.326 -18.084   9.958  1.00  0.00     0.111 A 
ATOM      9  C   UNL     1       5.410 -16.440  11.394  1.00  0.00     0.094 A 
ATOM     10  C   UNL     1       4.389 -19.027  11.010  1.00  0.00     0.134 A 
ATOM     11  C   UNL     1       5.457 -17.371  12.437  1.00  0.00     0.123 A 
ATOM     12  C   UNL     1       4.956 -18.660  12.240  1.00  0.00     0.093 A 
BRANCH   3  13
ATOM     13  C   UNL     1       4.293 -15.035   6.987  1.00  0.00     0.029 A 
ATOM     14  C   UNL     1       3.950 -15.285   5.650  1.00  0.00     0.062 A 
ATOM     15  C   UNL     1       3.964 -14.249   4.706  1.00  0.00     0.162 A 
ATOM     16  C   UNL     1       4.675 -13.740   7.366  1.00  0.00     0.062 A 
ATOM     17  C   UNL     1       4.328 -12.949   5.098  1.00  0.00     0.200 A 
ATOM     18  C   UNL     1       4.684 -12.699   6.436  1.00  0.00     0.162 A 
BRANCH  15  19
ATOM     19  O   UNL     1       3.622 -14.506   3.378  1.00  0.00    -0.504 OA
ATOM     20  H   UNL     1       4.275 -14.943   2.736  1.00  0.00     0.293 HD
ENDBRANCH  15  19
BRANCH  17  21
ATOM     21  O   UNL     1       4.339 -11.904   4.174  1.00  0.00    -0.502 OA
ATOM     22  H   UNL     1       4.570 -10.952   4.436  1.00  0.00     0.293 HD
ENDBRANCH  17  21
BRANCH  18  23
ATOM     23  O   UNL     1       5.047 -11.419   6.854  1.00  0.00    -0.504 OA
ATOM     24  H   UNL     1       5.828 -11.256   7.479  1.00  0.00     0.293 HD
ENDBRANCH  18  23
ENDBRANCH   3  13
BRANCH  10  25
ATOM     25  O   UNL     1       3.890 -20.321  10.847  1.00  0.00    -0.507 OA
ATOM     26  H   UNL     1       3.570 -20.657   9.948  1.00  0.00     0.293 HD
ENDBRANCH  10  25
BRANCH  11  27
ATOM     27  O   UNL     1       6.007 -17.029  13.671  1.00  0.00    -0.508 OA
ATOM     28  H   UNL     1       5.854 -17.598  14.495  1.00  0.00     0.293 HD
ENDBRANCH  11  27
ENDBRANCH   1   2
BRANCH   1  29
ATOM     29  C   UNL     1       3.241 -18.843   5.809  1.00  0.00     0.339 C 
ATOM     30  C   UNL     1       2.906 -18.665   4.309  1.00  0.00     0.214 C 
ATOM     31  O   UNL     1       4.575 -19.293   5.959  1.00  0.00    -0.332 OA
ATOM     32  C   UNL     1       3.561 -19.779   3.442  1.00  0.00     0.180 C 
ATOM     33  C   UNL     1       4.739 -20.640   5.519  1.00  0.00     0.179 C 
ATOM     34  C   UNL     1       3.841 -21.025   4.304  1.00  0.00     0.177 C 
BRANCH  30  35
ATOM     35  O   UNL     1       3.257 -17.382   3.844  1.00  0.00    -0.384 OA
ATOM     36  H   UNL     1       2.468 -17.001   3.378  1.00  0.00     0.211 HD
ENDBRANCH  30  35
BRANCH  32  37
ATOM     37  O   UNL     1       4.771 -19.338   2.875  1.00  0.00    -0.387 OA
ATOM     38  H   UNL     1       4.898 -19.849   2.032  1.00  0.00     0.211 HD
ENDBRANCH  32  37
BRANCH  33  39
ATOM     39  C   UNL     1       4.559 -21.617   6.692  1.00  0.00     0.191 C 
BRANCH  39  40
ATOM     40  O   UNL     1       5.461 -21.311   7.722  1.00  0.00    -0.394 OA
ATOM     41  H   UNL     1       4.996 -21.504   8.578  1.00  0.00     0.210 HD
ENDBRANCH  39  40
ENDBRANCH  33  39
BRANCH  34  42
ATOM     42  O   UNL     1       4.477 -22.014   3.535  1.00  0.00    -0.387 OA
ATOM     43  H   UNL     1       5.346 -21.637   3.243  1.00  0.00     0.211 HD
ENDBRANCH  34  42
ENDBRANCH   1  29
TORSDOF 13
ENDMDL
MODEL 4
REMARK VINA RESULT:    -3.172      1.510      7.370
REMARK INTER + INTRA:          -4.385
REMARK INTER:                  -5.085
REMARK INTRA:                   0.699
REMARK UNBOUND:                 0.363
REMARK SMILES O=c1c(O[C@@H]2O[C@@H](CO)[C@H](O)[C@H](O)[C@@H]2O)c(-c2cc(O)c(O)c(O)c2)oc2cc(O)cc(O)c12
REMARK SMILES IDX 4 1 3 2 16 3 26 4 2 5 27 6 1 7 34 8 28 9 32 10 29 11 31 12
REMARK SMILES IDX 17 13 18 14 19 15 25 16 21 17 23 18 20 19 22 21 24 23 33 25
REMARK SMILES IDX 30 27 5 29 14 30 6 31 12 32 7 33 10 34 15 35 13 37 8 39 9 40
REMARK SMILES IDX 11 42
REMARK H PARENT 20 20 22 22 24 24 33 26 30 28 15 36 13 38 9 41 11 43
REMARK Flexibility Score: inf
ROOT
ATOM      1  O   UNL     1       5.410 -16.621   7.759  1.00  0.00    -0.454 OA
ENDROOT
BRANCH   1   2
ATOM      2  C   UNL     1       4.828 -17.482   6.825  1.00  0.00     0.214 A 
ATOM      3  C   UNL     1       4.186 -16.966   5.687  1.00  0.00     0.181 A 
ATOM      4  O   UNL     1       3.718 -17.796   4.761  1.00  0.00    -0.452 OA
ATOM      5  C   UNL     1       4.918 -18.868   6.988  1.00  0.00     0.239 A 
ATOM      6  C   UNL     1       3.804 -19.119   4.858  1.00  0.00     0.146 A 
ATOM      7  O   UNL     1       5.466 -19.332   8.024  1.00  0.00    -0.285 OA
ATOM      8  C   UNL     1       4.404 -19.720   5.990  1.00  0.00     0.111 A 
ATOM      9  C   UNL     1       3.292 -19.914   3.829  1.00  0.00     0.094 A 
ATOM     10  C   UNL     1       4.472 -21.131   6.068  1.00  0.00     0.134 A 
ATOM     11  C   UNL     1       3.374 -21.308   3.904  1.00  0.00     0.123 A 
ATOM     12  C   UNL     1       3.954 -21.911   5.023  1.00  0.00     0.093 A 
BRANCH   3  13
ATOM     13  C   UNL     1       4.039 -15.510   5.471  1.00  0.00     0.029 A 
ATOM     14  C   UNL     1       3.522 -15.006   4.268  1.00  0.00     0.062 A 
ATOM     15  C   UNL     1       3.389 -13.625   4.074  1.00  0.00     0.162 A 
ATOM     16  C   UNL     1       4.447 -14.615   6.471  1.00  0.00     0.062 A 
ATOM     17  C   UNL     1       3.781 -12.734   5.089  1.00  0.00     0.200 A 
ATOM     18  C   UNL     1       4.312 -13.237   6.290  1.00  0.00     0.162 A 
BRANCH  15  19
ATOM     19  O   UNL     1       2.875 -13.131   2.875  1.00  0.00    -0.504 OA
ATOM     20  H   UNL     1       1.949 -13.387   2.549  1.00  0.00     0.293 HD
ENDBRANCH  15  19
BRANCH  17  21
ATOM     21  O   UNL     1       3.649 -11.356   4.916  1.00  0.00    -0.502 OA
ATOM     22  H   UNL     1       4.277 -10.821   4.326  1.00  0.00     0.293 HD
ENDBRANCH  17  21
BRANCH  18  23
ATOM     23  O   UNL     1       4.707 -12.378   7.316  1.00  0.00    -0.504 OA
ATOM     24  H   UNL     1       5.531 -11.794   7.244  1.00  0.00     0.293 HD
ENDBRANCH  18  23
ENDBRANCH   3  13
BRANCH  10  25
ATOM     25  O   UNL     1       5.051 -21.763   7.170  1.00  0.00    -0.507 OA
ATOM     26  H   UNL     1       5.803 -22.432   7.064  1.00  0.00     0.293 HD
ENDBRANCH  10  25
BRANCH  11  27
ATOM     27  O   UNL     1       2.876 -22.105   2.875  1.00  0.00    -0.508 OA
ATOM     28  H   UNL     1       3.484 -22.704   2.327  1.00  0.00     0.293 HD
ENDBRANCH  11  27
ENDBRANCH   1   2
BRANCH   1  29
ATOM     29  C   UNL     1       5.374 -16.917   9.152  1.00  0.00     0.339 C 
ATOM     30  C   UNL     1       5.797 -15.675   9.973  1.00  0.00     0.214 C 
ATOM     31  O   UNL     1       4.067 -17.319   9.518  1.00  0.00    -0.332 OA
ATOM     32  C   UNL     1       5.280 -15.758  11.439  1.00  0.00     0.180 C 
ATOM     33  C   UNL     1       4.026 -17.879  10.830  1.00  0.00     0.179 C 
ATOM     34  C   UNL     1       5.028 -17.226  11.830  1.00  0.00     0.177 C 
BRANCH  30  35
ATOM     35  O   UNL     1       5.392 -14.476   9.354  1.00  0.00    -0.384 OA
ATOM     36  H   UNL     1       6.047 -13.771   9.598  1.00  0.00     0.211 HD
ENDBRANCH  30  35
BRANCH  32  37
ATOM     37  O   UNL     1       4.084 -15.033  11.598  1.00  0.00    -0.387 OA
ATOM     38  H   UNL     1       3.373 -15.542  11.126  1.00  0.00     0.211 HD
ENDBRANCH  32  37
BRANCH  33  39
ATOM     39  C   UNL     1       4.192 -19.405  10.771  1.00  0.00     0.191 C 
BRANCH  39  40
ATOM     40  O   UNL     1       5.447 -19.778  11.277  1.00  0.00    -0.394 OA
ATOM     41  H   UNL     1       6.113 -19.161  10.877  1.00  0.00     0.210 HD
ENDBRANCH  39  40
ENDBRANCH  33  39
BRANCH  34  42
ATOM     42  O   UNL     1       4.516 -17.299  13.136  1.00  0.00    -0.387 OA
ATOM     43  H   UNL     1       3.757 -16.662  13.183  1.00  0.00     0.211 HD
ENDBRANCH  34  42
ENDBRANCH   1  29
TORSDOF 13
ENDMDL
