MODEL 1
REMARK VINA RESULT:     5.067      0.000      0.000
REMARK INTER + INTRA:          15.449
REMARK INTER:                   8.030
REMARK INTRA:                   7.420
REMARK UNBOUND:                 7.420
REMARK SMILES C[C@@H]1O[C@H](O[C@@H]2CC[C@]3(C)[C@H](CC[C@@]4(C)[C@@H]3C=C[C@]35OC[C@@]6(CCC(C)(C)C[C@@H]63)[C@@H](O)C[C@@]45C)[C@@]2(C)CO)[C@@H](O)[C@@H](O[C@@H]2O[C@@H](CO)[C@@H](O)[C@@H](O)[C@H]2O)[C@@H]1O
REMARK SMILES IDX 1 1 2 2 54 3 41 4 39 5 4 6 3 7 55 8 42 10 43 11 52 12 44 13
REMARK SMILES IDX 50 14 45 15 48 16 53 17 51 19 46 21 47 22 49 24 5 26 6 27
REMARK SMILES IDX 7 28 35 29 8 30 11 31 36 32 9 33 12 34 10 35 16 36 13 37
REMARK SMILES IDX 14 38 17 39 15 40 33 41 18 42 19 43 32 44 34 45 29 46 20 47
REMARK SMILES IDX 30 48 22 49 28 50 21 51 23 52 25 53 24 54 26 55 27 56 37 57
REMARK SMILES IDX 38 58 31 60 40 62
REMARK H PARENT 55 9 53 18 51 20 47 23 49 25 38 59 31 61 40 63
REMARK Flexibility Score: inf
ROOT
ATOM      1  C   UNL     1       3.048  -3.328  24.301  1.00  0.00     0.041 C 
ATOM      2  C   UNL     1       1.971  -3.160  25.447  1.00  0.00     0.150 C 
ATOM      3  C   UNL     1       0.485  -2.726  25.189  1.00  0.00     0.175 C 
ATOM      4  C   UNL     1      -0.121  -2.989  26.634  1.00  0.00     0.186 C 
ATOM      5  C   UNL     1       0.000  -4.467  27.285  1.00  0.00     0.202 C 
ATOM      6  C   UNL     1       1.201  -5.295  26.762  1.00  0.00     0.282 C 
ATOM      7  O   UNL     1       2.144  -4.473  26.132  1.00  0.00    -0.344 OA
ENDROOT
BRANCH   3   8
ATOM      8  O   UNL     1      -0.122  -3.493  24.214  1.00  0.00    -0.388 OA
ATOM      9  H   UNL     1      -0.342  -4.269  24.820  1.00  0.00     0.211 HD
ENDBRANCH   3   8
BRANCH   4  10
ATOM     10  O   UNL     1       0.604  -2.168  27.577  1.00  0.00    -0.341 OA
BRANCH  10  11
ATOM     11  C   UNL     1       1.437  -1.146  27.051  1.00  0.00     0.282 C 
ATOM     12  C   UNL     1       1.104   0.212  27.812  1.00  0.00     0.202 C 
ATOM     13  O   UNL     1       2.803  -1.619  27.114  1.00  0.00    -0.341 OA
ATOM     14  C   UNL     1       2.093   0.622  28.953  1.00  0.00     0.179 C 
ATOM     15  C   UNL     1       3.197  -1.435  28.471  1.00  0.00     0.178 C 
ATOM     16  C   UNL     1       3.443   0.104  28.560  1.00  0.00     0.177 C 
BRANCH  12  17
ATOM     17  O   UNL     1       0.840   1.289  26.967  1.00  0.00    -0.385 OA
ATOM     18  H   UNL     1       1.053   2.140  27.432  1.00  0.00     0.211 HD
ENDBRANCH  12  17
BRANCH  14  19
ATOM     19  O   UNL     1       2.080   2.025  29.125  1.00  0.00    -0.387 OA
ATOM     20  H   UNL     1       1.147   2.330  29.237  1.00  0.00     0.211 HD
ENDBRANCH  14  19
BRANCH  15  21
ATOM     21  C   UNL     1       4.320  -2.306  29.087  1.00  0.00     0.191 C 
BRANCH  21  22
ATOM     22  O   UNL     1       5.150  -2.770  28.059  1.00  0.00    -0.394 OA
ATOM     23  H   UNL     1       6.121  -2.745  28.338  1.00  0.00     0.210 HD
ENDBRANCH  21  22
ENDBRANCH  15  21
BRANCH  16  24
ATOM     24  O   UNL     1       3.841   0.728  27.364  1.00  0.00    -0.387 OA
ATOM     25  H   UNL     1       4.756   0.382  27.157  1.00  0.00     0.211 HD
ENDBRANCH  16  24
ENDBRANCH  10  11
ENDBRANCH   4  10
BRANCH   6  26
ATOM     26  O   UNL     1       0.675  -6.320  25.913  1.00  0.00    -0.346 OA
BRANCH  26  27
ATOM     27  C   UNL     1       1.300  -7.586  26.184  1.00  0.00     0.130 C 
ATOM     28  C   UNL     1       1.972  -7.307  27.628  1.00  0.00     0.033 C 
ATOM     29  C   UNL     1       2.404  -8.418  25.297  1.00  0.00     0.020 C 
ATOM     30  C   UNL     1       3.470  -7.203  27.688  1.00  0.00     0.010 C 
ATOM     31  C   UNL     1       3.921  -7.922  25.321  1.00  0.00     0.006 C 
ATOM     32  C   UNL     1       1.990  -8.713  23.744  1.00  0.00     0.017 C 
ATOM     33  C   UNL     1       4.186  -6.759  26.377  1.00  0.00    -0.022 C 
ATOM     34  C   UNL     1       4.624  -7.699  23.976  1.00  0.00     0.005 C 
ATOM     35  C   UNL     1       3.694  -5.337  25.962  1.00  0.00     0.012 C 
ATOM     36  C   UNL     1       5.768  -6.672  26.575  1.00  0.00     0.024 C 
ATOM     37  C   UNL     1       6.097  -7.714  24.167  1.00  0.00     0.008 C 
ATOM     38  C   UNL     1       6.580  -6.657  25.197  1.00  0.00    -0.017 C 
ATOM     39  C   UNL     1       6.267  -7.641  27.658  1.00  0.00    -0.024 C 
ATOM     40  C   UNL     1       6.433  -5.273  24.479  1.00  0.00     0.013 C 
ATOM     41  C   UNL     1       8.112  -6.932  25.531  1.00  0.00     0.009 C 
ATOM     42  C   UNL     1       7.373  -8.373  27.578  1.00  0.00     0.005 C 
ATOM     43  C   UNL     1       8.284  -8.304  26.389  1.00  0.00     0.096 C 
ATOM     44  C   UNL     1       8.941  -7.154  24.199  1.00  0.00     0.043 C 
ATOM     45  C   UNL     1       8.698  -5.619  26.215  1.00  0.00     0.015 C 
ATOM     46  C   UNL     1       9.734  -8.428  26.823  1.00  0.00     0.037 C 
ATOM     47  O   UNL     1       8.044  -9.467  25.627  1.00  0.00    -0.369 OA
ATOM     48  C   UNL     1      10.345  -7.640  24.515  1.00  0.00     0.124 C 
ATOM     49  C   UNL     1      10.314  -8.871  25.462  1.00  0.00     0.026 C 
ATOM     50  C   UNL     1      10.227  -9.375  27.921  1.00  0.00     0.014 C 
ATOM     51  C   UNL     1       9.276  -9.921  25.095  1.00  0.00     0.171 C 
ATOM     52  C   UNL     1      11.732  -9.428  25.679  1.00  0.00     0.013 C 
ATOM     53  C   UNL     1      11.719  -8.942  28.171  1.00  0.00    -0.035 C 
ATOM     54  C   UNL     1      12.386  -8.554  26.773  1.00  0.00     0.007 C 
ATOM     55  C   UNL     1      12.516 -10.122  28.716  1.00  0.00     0.011 C 
ATOM     56  C   UNL     1      11.689  -7.714  29.118  1.00  0.00     0.011 C 
BRANCH  29  57
ATOM     57  C   UNL     1       2.395  -9.919  25.852  1.00  0.00     0.165 C 
BRANCH  57  58
ATOM     58  O   UNL     1       1.755 -10.113  27.087  1.00  0.00    -0.396 OA
ATOM     59  H   UNL     1       1.588  -9.241  27.525  1.00  0.00     0.210 HD
ENDBRANCH  57  58
ENDBRANCH  29  57
BRANCH  48  60
ATOM     60  O   UNL     1      10.947  -7.979  23.282  1.00  0.00    -0.392 OA
ATOM     61  H   UNL     1      10.343  -7.682  22.564  1.00  0.00     0.210 HD
ENDBRANCH  48  60
ENDBRANCH  26  27
ENDBRANCH   6  26
BRANCH   5  62
ATOM     62  O   UNL     1       0.264  -4.417  28.674  1.00  0.00    -0.385 OA
ATOM     63  H   UNL     1       0.241  -3.442  28.961  1.00  0.00     0.211 HD
ENDBRANCH   5  62
TORSDOF 14
ENDMDL
MODEL 2
REMARK VINA RESULT:     6.772      3.058      5.990
REMARK INTER + INTRA:          18.150
REMARK INTER:                  10.452
REMARK INTRA:                   7.698
REMARK UNBOUND:                 7.420
REMARK SMILES C[C@@H]1O[C@H](O[C@@H]2CC[C@]3(C)[C@H](CC[C@@]4(C)[C@@H]3C=C[C@]35OC[C@@]6(CCC(C)(C)C[C@@H]63)[C@@H](O)C[C@@]45C)[C@@]2(C)CO)[C@@H](O)[C@@H](O[C@@H]2O[C@@H](CO)[C@@H](O)[C@@H](O)[C@H]2O)[C@@H]1O
REMARK SMILES IDX 1 1 2 2 54 3 41 4 39 5 4 6 3 7 55 8 42 10 43 11 52 12 44 13
REMARK SMILES IDX 50 14 45 15 48 16 53 17 51 19 46 21 47 22 49 24 5 26 6 27
REMARK SMILES IDX 7 28 35 29 8 30 11 31 36 32 9 33 12 34 10 35 16 36 13 37
REMARK SMILES IDX 14 38 17 39 15 40 33 41 18 42 19 43 32 44 34 45 29 46 20 47
REMARK SMILES IDX 30 48 22 49 28 50 21 51 23 52 25 53 24 54 26 55 27 56 37 57
REMARK SMILES IDX 38 58 31 60 40 62
REMARK H PARENT 55 9 53 18 51 20 47 23 49 25 38 59 31 61 40 63
REMARK Flexibility Score: inf
ROOT
ATOM      1  C   UNL     1       0.320  -5.440  28.034  1.00  0.00     0.041 C 
ATOM      2  C   UNL     1       1.309  -6.081  26.978  1.00  0.00     0.150 C 
ATOM      3  C   UNL     1       2.255  -5.242  26.049  1.00  0.00     0.175 C 
ATOM      4  C   UNL     1       3.138  -6.416  25.444  1.00  0.00     0.186 C 
ATOM      5  C   UNL     1       3.949  -7.394  26.449  1.00  0.00     0.202 C 
ATOM      6  C   UNL     1       3.320  -7.516  27.860  1.00  0.00     0.282 C 
ATOM      7  O   UNL     1       1.993  -7.071  27.861  1.00  0.00    -0.344 OA
ENDROOT
BRANCH   3   8
ATOM      8  O   UNL     1       3.007  -4.326  26.759  1.00  0.00    -0.388 OA
ATOM      9  H   UNL     1       2.453  -4.373  27.600  1.00  0.00     0.211 HD
ENDBRANCH   3   8
BRANCH   4  10
ATOM     10  O   UNL     1       2.255  -7.330  24.757  1.00  0.00    -0.341 OA
BRANCH  10  11
ATOM     11  C   UNL     1       2.555  -7.638  23.404  1.00  0.00     0.282 C 
ATOM     12  C   UNL     1       1.759  -8.957  23.003  1.00  0.00     0.202 C 
ATOM     13  O   UNL     1       2.299  -6.450  22.618  1.00  0.00    -0.341 OA
ATOM     14  C   UNL     1       0.440  -8.745  22.188  1.00  0.00     0.179 C 
ATOM     15  C   UNL     1       0.886  -6.416  22.444  1.00  0.00     0.178 C 
ATOM     16  C   UNL     1       0.640  -7.512  21.359  1.00  0.00     0.177 C 
BRANCH  12  17
ATOM     17  O   UNL     1       2.551  -9.947  22.424  1.00  0.00    -0.385 OA
ATOM     18  H   UNL     1       3.470  -9.599  22.278  1.00  0.00     0.211 HD
ENDBRANCH  12  17
BRANCH  14  19
ATOM     19  O   UNL     1       0.167  -9.888  21.403  1.00  0.00    -0.387 OA
ATOM     20  H   UNL     1      -0.812 -10.010  21.337  1.00  0.00     0.211 HD
ENDBRANCH  14  19
BRANCH  15  21
ATOM     21  C   UNL     1       0.158  -5.074  22.183  1.00  0.00     0.191 C 
BRANCH  21  22
ATOM     22  O   UNL     1       0.732  -4.083  22.989  1.00  0.00    -0.394 OA
ATOM     23  H   UNL     1       1.174  -3.369  22.427  1.00  0.00     0.210 HD
ENDBRANCH  21  22
ENDBRANCH  15  21
BRANCH  16  24
ATOM     24  O   UNL     1       1.701  -7.732  20.463  1.00  0.00    -0.387 OA
ATOM     25  H   UNL     1       1.462  -7.250  19.619  1.00  0.00     0.211 HD
ENDBRANCH  16  24
ENDBRANCH  10  11
ENDBRANCH   4  10
BRANCH   6  26
ATOM     26  O   UNL     1       4.166  -6.803  28.767  1.00  0.00    -0.346 OA
BRANCH  26  27
ATOM     27  C   UNL     1       5.404  -7.503  28.977  1.00  0.00     0.130 C 
ATOM     28  C   UNL     1       6.471  -6.289  28.924  1.00  0.00     0.033 C 
ATOM     29  C   UNL     1       6.057  -8.748  28.129  1.00  0.00     0.020 C 
ATOM     30  C   UNL     1       7.379  -6.214  27.730  1.00  0.00     0.010 C 
ATOM     31  C   UNL     1       6.741  -8.428  26.723  1.00  0.00     0.006 C 
ATOM     32  C   UNL     1       5.099 -10.059  27.941  1.00  0.00     0.017 C 
ATOM     33  C   UNL     1       6.852  -6.869  26.417  1.00  0.00    -0.022 C 
ATOM     34  C   UNL     1       6.309  -9.260  25.508  1.00  0.00     0.005 C 
ATOM     35  C   UNL     1       5.530  -6.167  25.970  1.00  0.00     0.012 C 
ATOM     36  C   UNL     1       7.898  -6.708  25.222  1.00  0.00     0.024 C 
ATOM     37  C   UNL     1       7.340  -9.173  24.443  1.00  0.00     0.008 C 
ATOM     38  C   UNL     1       7.630  -7.711  24.006  1.00  0.00    -0.017 C 
ATOM     39  C   UNL     1       9.344  -6.616  25.732  1.00  0.00    -0.024 C 
ATOM     40  C   UNL     1       6.376  -7.263  23.181  1.00  0.00     0.013 C 
ATOM     41  C   UNL     1       8.920  -7.703  23.074  1.00  0.00     0.009 C 
ATOM     42  C   UNL     1      10.393  -7.211  25.172  1.00  0.00     0.005 C 
ATOM     43  C   UNL     1      10.260  -8.044  23.932  1.00  0.00     0.096 C 
ATOM     44  C   UNL     1       8.818  -8.838  21.972  1.00  0.00     0.043 C 
ATOM     45  C   UNL     1       8.941  -6.316  22.293  1.00  0.00     0.015 C 
ATOM     46  C   UNL     1      11.472  -7.857  23.035  1.00  0.00     0.037 C 
ATOM     47  O   UNL     1      10.329  -9.392  24.340  1.00  0.00    -0.369 OA
ATOM     48  C   UNL     1      10.137  -8.986  21.231  1.00  0.00     0.124 C 
ATOM     49  C   UNL     1      11.322  -9.158  22.220  1.00  0.00     0.026 C 
ATOM     50  C   UNL     1      12.912  -7.737  23.546  1.00  0.00     0.014 C 
ATOM     51  C   UNL     1      11.051 -10.124  23.364  1.00  0.00     0.171 C 
ATOM     52  C   UNL     1      12.632  -9.428  21.458  1.00  0.00     0.013 C 
ATOM     53  C   UNL     1      13.740  -7.297  22.282  1.00  0.00    -0.035 C 
ATOM     54  C   UNL     1      13.165  -8.052  20.999  1.00  0.00     0.007 C 
ATOM     55  C   UNL     1      15.190  -7.746  22.434  1.00  0.00     0.011 C 
ATOM     56  C   UNL     1      13.571  -5.763  22.134  1.00  0.00     0.011 C 
BRANCH  29  57
ATOM     57  C   UNL     1       7.188  -9.391  29.062  1.00  0.00     0.165 C 
BRANCH  57  58
ATOM     58  O   UNL     1       8.476  -9.458  28.507  1.00  0.00    -0.396 OA
ATOM     59  H   UNL     1       8.468  -9.104  27.583  1.00  0.00     0.210 HD
ENDBRANCH  57  58
ENDBRANCH  29  57
BRANCH  48  60
ATOM     60  O   UNL     1      10.013 -10.125  20.402  1.00  0.00    -0.392 OA
ATOM     61  H   UNL     1      10.524  -9.951  19.579  1.00  0.00     0.210 HD
ENDBRANCH  48  60
ENDBRANCH  26  27
ENDBRANCH   6  26
BRANCH   5  62
ATOM     62  O   UNL     1       3.937  -8.738  26.007  1.00  0.00    -0.385 OA
ATOM     63  H   UNL     1       4.082  -8.738  25.001  1.00  0.00     0.211 HD
ENDBRANCH   5  62
TORSDOF 14
ENDMDL
MODEL 3
REMARK VINA RESULT:     8.000      3.031     10.194
REMARK INTER + INTRA:          20.096
REMARK INTER:                   7.598
REMARK INTRA:                  12.499
REMARK UNBOUND:                 7.420
REMARK SMILES C[C@@H]1O[C@H](O[C@@H]2CC[C@]3(C)[C@H](CC[C@@]4(C)[C@@H]3C=C[C@]35OC[C@@]6(CCC(C)(C)C[C@@H]63)[C@@H](O)C[C@@]45C)[C@@]2(C)CO)[C@@H](O)[C@@H](O[C@@H]2O[C@@H](CO)[C@@H](O)[C@@H](O)[C@H]2O)[C@@H]1O
REMARK SMILES IDX 1 1 2 2 54 3 41 4 39 5 4 6 3 7 55 8 42 10 43 11 52 12 44 13
REMARK SMILES IDX 50 14 45 15 48 16 53 17 51 19 46 21 47 22 49 24 5 26 6 27
REMARK SMILES IDX 7 28 35 29 8 30 11 31 36 32 9 33 12 34 10 35 16 36 13 37
REMARK SMILES IDX 14 38 17 39 15 40 33 41 18 42 19 43 32 44 34 45 29 46 20 47
REMARK SMILES IDX 30 48 22 49 28 50 21 51 23 52 25 53 24 54 26 55 27 56 37 57
REMARK SMILES IDX 38 58 31 60 40 62
REMARK H PARENT 55 9 53 18 51 20 47 23 49 25 38 59 31 61 40 63
REMARK Flexibility Score: inf
ROOT
ATOM      1  C   UNL     1      13.089  -6.127  21.855  1.00  0.00     0.041 C 
ATOM      2  C   UNL     1      12.314  -7.474  21.557  1.00  0.00     0.150 C 
ATOM      3  C   UNL     1      13.019  -8.810  21.135  1.00  0.00     0.175 C 
ATOM      4  C   UNL     1      11.785  -9.804  21.240  1.00  0.00     0.186 C 
ATOM      5  C   UNL     1      10.987  -9.929  22.645  1.00  0.00     0.202 C 
ATOM      6  C   UNL     1      11.070  -8.664  23.535  1.00  0.00     0.282 C 
ATOM      7  O   UNL     1      11.484  -7.551  22.794  1.00  0.00    -0.344 OA
ENDROOT
BRANCH   3   8
ATOM      8  O   UNL     1      14.048  -9.151  21.992  1.00  0.00    -0.388 OA
ATOM      9  H   UNL     1      14.287  -8.204  22.244  1.00  0.00     0.211 HD
ENDBRANCH   3   8
BRANCH   4  10
ATOM     10  O   UNL     1      10.759  -9.339  20.334  1.00  0.00    -0.341 OA
BRANCH  10  11
ATOM     11  C   UNL     1       9.514 -10.019  20.350  1.00  0.00     0.282 C 
ATOM     12  C   UNL     1       8.553  -9.278  21.381  1.00  0.00     0.202 C 
ATOM     13  O   UNL     1       9.056 -10.125  18.981  1.00  0.00    -0.341 OA
ATOM     14  C   UNL     1       7.497  -8.304  20.761  1.00  0.00     0.179 C 
ATOM     15  C   UNL     1       8.512  -8.845  18.671  1.00  0.00     0.178 C 
ATOM     16  C   UNL     1       7.139  -8.858  19.415  1.00  0.00     0.177 C 
BRANCH  12  17
ATOM     17  O   UNL     1       7.962 -10.124  22.319  1.00  0.00    -0.385 OA
ATOM     18  H   UNL     1       7.906 -11.045  21.951  1.00  0.00     0.211 HD
ENDBRANCH  12  17
BRANCH  14  19
ATOM     19  O   UNL     1       6.378  -8.193  21.616  1.00  0.00    -0.387 OA
ATOM     20  H   UNL     1       6.421  -7.330  22.096  1.00  0.00     0.211 HD
ENDBRANCH  14  19
BRANCH  15  21
ATOM     21  C   UNL     1       8.448  -8.354  17.204  1.00  0.00     0.191 C 
BRANCH  21  22
ATOM     22  O   UNL     1       7.796  -7.115  17.168  1.00  0.00    -0.394 OA
ATOM     23  H   UNL     1       6.907  -7.187  16.692  1.00  0.00     0.210 HD
ENDBRANCH  21  22
ENDBRANCH  15  21
BRANCH  16  24
ATOM     24  O   UNL     1       6.549 -10.123  19.584  1.00  0.00    -0.387 OA
ATOM     25  H   UNL     1       7.296 -10.759  19.777  1.00  0.00     0.211 HD
ENDBRANCH  16  24
ENDBRANCH  10  11
ENDBRANCH   4  10
BRANCH   6  26
ATOM     26  O   UNL     1      11.930  -8.973  24.637  1.00  0.00    -0.346 OA
BRANCH  26  27
ATOM     27  C   UNL     1      11.167  -9.285  25.815  1.00  0.00     0.130 C 
ATOM     28  C   UNL     1       9.936 -10.123  25.186  1.00  0.00     0.033 C 
ATOM     29  C   UNL     1      10.531  -8.278  26.945  1.00  0.00     0.020 C 
ATOM     30  C   UNL     1       8.583  -9.470  25.180  1.00  0.00     0.010 C 
ATOM     31  C   UNL     1       9.203  -7.473  26.577  1.00  0.00     0.006 C 
ATOM     32  C   UNL     1      11.581  -7.236  27.640  1.00  0.00     0.017 C 
ATOM     33  C   UNL     1       8.567  -7.911  25.184  1.00  0.00    -0.022 C 
ATOM     34  C   UNL     1       9.199  -5.955  26.801  1.00  0.00     0.005 C 
ATOM     35  C   UNL     1       9.286  -7.372  23.907  1.00  0.00     0.012 C 
ATOM     36  C   UNL     1       7.076  -7.342  25.161  1.00  0.00     0.024 C 
ATOM     37  C   UNL     1       7.801  -5.458  26.869  1.00  0.00     0.008 C 
ATOM     38  C   UNL     1       6.976  -5.807  25.601  1.00  0.00    -0.017 C 
ATOM     39  C   UNL     1       6.079  -8.311  25.815  1.00  0.00    -0.024 C 
ATOM     40  C   UNL     1       7.522  -4.868  24.473  1.00  0.00     0.013 C 
ATOM     41  C   UNL     1       5.444  -5.479  25.881  1.00  0.00     0.009 C 
ATOM     42  C   UNL     1       5.082  -7.956  26.619  1.00  0.00     0.005 C 
ATOM     43  C   UNL     1       4.814  -6.521  26.961  1.00  0.00     0.096 C 
ATOM     44  C   UNL     1       5.293  -4.043  26.535  1.00  0.00     0.043 C 
ATOM     45  C   UNL     1       4.700  -5.416  24.476  1.00  0.00     0.015 C 
ATOM     46  C   UNL     1       3.318  -6.271  27.062  1.00  0.00     0.037 C 
ATOM     47  O   UNL     1       5.294  -6.319  28.271  1.00  0.00    -0.369 OA
ATOM     48  C   UNL     1       3.868  -3.819  27.014  1.00  0.00     0.124 C 
ATOM     49  C   UNL     1       3.388  -4.987  27.917  1.00  0.00     0.026 C 
ATOM     50  C   UNL     1       2.321  -7.250  27.690  1.00  0.00     0.014 C 
ATOM     51  C   UNL     1       4.408  -5.446  28.949  1.00  0.00     0.171 C 
ATOM     52  C   UNL     1       1.991  -4.692  28.493  1.00  0.00     0.013 C 
ATOM     53  C   UNL     1       0.909  -6.664  27.315  1.00  0.00    -0.035 C 
ATOM     54  C   UNL     1       0.972  -5.072  27.394  1.00  0.00     0.007 C 
ATOM     55  C   UNL     1      -0.123  -7.107  28.347  1.00  0.00     0.011 C 
ATOM     56  C   UNL     1       0.590  -7.126  25.870  1.00  0.00     0.011 C 
BRANCH  29  57
ATOM     57  C   UNL     1      10.189  -9.183  28.221  1.00  0.00     0.165 C 
BRANCH  57  58
ATOM     58  O   UNL     1      11.281  -9.826  28.827  1.00  0.00    -0.396 OA
ATOM     59  H   UNL     1      10.973 -10.628  29.319  1.00  0.00     0.210 HD
ENDBRANCH  57  58
ENDBRANCH  29  57
BRANCH  48  60
ATOM     60  O   UNL     1       3.867  -2.602  27.735  1.00  0.00    -0.392 OA
ATOM     61  H   UNL     1       3.878  -1.868  27.079  1.00  0.00     0.210 HD
ENDBRANCH  48  60
ENDBRANCH  26  27
ENDBRANCH   6  26
BRANCH   5  62
ATOM     62  O   UNL     1       9.592 -10.061  22.454  1.00  0.00    -0.385 OA
ATOM     63  H   UNL     1       9.272  -9.257  21.921  1.00  0.00     0.211 HD
ENDBRANCH   5  62
TORSDOF 14
ENDMDL
