MODEL 1
REMARK VINA RESULT:    -4.085      0.000      0.000
REMARK INTER + INTRA:          -4.341
REMARK INTER:                  -4.324
REMARK INTRA:                  -0.016
REMARK UNBOUND:                -0.016
REMARK SMILES O=C([O-])c1cccnc1
REMARK SMILES IDX 4 1 5 2 9 3 6 4 8 5 7 6 2 7 1 8 3 9
REMARK H PARENT
REMARK Flexibility Score: inf
ROOT
ATOM      1  C   UNL     1     159.057 161.980 157.652  1.00  0.00     0.016 A 
ATOM      2  C   UNL     1     157.962 161.105 157.746  1.00  0.00     0.013 A 
ATOM      3  C   UNL     1     159.700 162.115 156.410  1.00  0.00     0.120 A 
ATOM      4  C   UNL     1     157.534 160.394 156.623  1.00  0.00     0.021 A 
ATOM      5  N   UNL     1     159.263 161.411 155.331  1.00  0.00    -0.264 NA
ATOM      6  C   UNL     1     158.204 160.562 155.411  1.00  0.00     0.111 A 
ENDROOT
BRANCH   1   7
ATOM      7  C   UNL     1     159.520 162.738 158.835  1.00  0.00     0.073 C 
ATOM      8  O   UNL     1     158.939 163.800 159.183  1.00  0.00    -0.545 OA
ATOM      9  O   UNL     1     160.603 162.286 159.582  1.00  0.00    -0.545 OA
ENDBRANCH   1   7
TORSDOF 1
ENDMDL
MODEL 2
REMARK VINA RESULT:    -4.085      2.525      3.331
REMARK INTER + INTRA:          -4.340
REMARK INTER:                  -4.323
REMARK INTRA:                  -0.016
REMARK UNBOUND:                -0.016
REMARK SMILES O=C([O-])c1cccnc1
REMARK SMILES IDX 4 1 5 2 9 3 6 4 8 5 7 6 2 7 1 8 3 9
REMARK H PARENT
REMARK Flexibility Score: inf
ROOT
ATOM      1  C   UNL     1     158.325 161.218 157.403  1.00  0.00     0.016 A 
ATOM      2  C   UNL     1     158.535 161.907 158.610  1.00  0.00     0.013 A 
ATOM      3  C   UNL     1     159.123 161.550 156.295  1.00  0.00     0.120 A 
ATOM      4  C   UNL     1     159.518 162.896 158.689  1.00  0.00     0.021 A 
ATOM      5  N   UNL     1     160.073 162.518 156.400  1.00  0.00    -0.264 NA
ATOM      6  C   UNL     1     160.285 163.191 157.561  1.00  0.00     0.111 A 
ENDROOT
BRANCH   1   7
ATOM      7  C   UNL     1     157.287 160.168 157.307  1.00  0.00     0.073 C 
ATOM      8  O   UNL     1     156.070 160.479 157.203  1.00  0.00    -0.545 OA
ATOM      9  O   UNL     1     157.640 158.824 157.329  1.00  0.00    -0.545 OA
ENDBRANCH   1   7
TORSDOF 1
ENDMDL
MODEL 3
REMARK VINA RESULT:    -4.062     12.341     13.372
REMARK INTER + INTRA:          -4.316
REMARK INTER:                  -4.299
REMARK INTRA:                  -0.016
REMARK UNBOUND:                -0.016
REMARK SMILES O=C([O-])c1cccnc1
REMARK SMILES IDX 4 1 5 2 9 3 6 4 8 5 7 6 2 7 1 8 3 9
REMARK H PARENT
REMARK Flexibility Score: inf
ROOT
ATOM      1  C   UNL     1     152.890 150.028 157.631  1.00  0.00     0.016 A 
ATOM      2  C   UNL     1     153.982 150.907 157.738  1.00  0.00     0.013 A 
ATOM      3  C   UNL     1     152.256 149.900 156.383  1.00  0.00     0.120 A 
ATOM      4  C   UNL     1     154.413 151.627 156.624  1.00  0.00     0.021 A 
ATOM      5  N   UNL     1     152.698 150.613 155.313  1.00  0.00    -0.264 NA
ATOM      6  C   UNL     1     153.752 151.466 155.405  1.00  0.00     0.111 A 
ENDROOT
BRANCH   1   7
ATOM      7  C   UNL     1     152.423 149.260 158.805  1.00  0.00     0.073 C 
ATOM      8  O   UNL     1     153.026 148.215 159.168  1.00  0.00    -0.545 OA
ATOM      9  O   UNL     1     151.311 149.683 159.526  1.00  0.00    -0.545 OA
ENDBRANCH   1   7
TORSDOF 1
ENDMDL
MODEL 4
REMARK VINA RESULT:    -4.039      3.005      3.723
REMARK INTER + INTRA:          -4.291
REMARK INTER:                  -4.268
REMARK INTRA:                  -0.024
REMARK UNBOUND:                -0.016
REMARK SMILES O=C([O-])c1cccnc1
REMARK SMILES IDX 4 1 5 2 9 3 6 4 8 5 7 6 2 7 1 8 3 9
REMARK H PARENT
REMARK Flexibility Score: inf
ROOT
ATOM      1  C   UNL     1     158.699 161.284 156.461  1.00  0.00     0.016 A 
ATOM      2  C   UNL     1     158.109 161.176 157.733  1.00  0.00     0.013 A 
ATOM      3  C   UNL     1     159.746 162.204 156.286  1.00  0.00     0.120 A 
ATOM      4  C   UNL     1     158.565 161.972 158.785  1.00  0.00     0.021 A 
ATOM      5  N   UNL     1     160.171 162.967 157.329  1.00  0.00    -0.264 NA
ATOM      6  C   UNL     1     159.609 162.871 158.562  1.00  0.00     0.111 A 
ENDROOT
BRANCH   1   7
ATOM      7  C   UNL     1     158.224 160.447 155.338  1.00  0.00     0.073 C 
ATOM      8  O   UNL     1     158.707 160.591 154.183  1.00  0.00    -0.545 OA
ATOM      9  O   UNL     1     157.237 159.488 155.542  1.00  0.00    -0.545 OA
ENDBRANCH   1   7
TORSDOF 1
ENDMDL
MODEL 5
REMARK VINA RESULT:    -4.032     12.058     13.104
REMARK INTER + INTRA:          -4.284
REMARK INTER:                  -4.261
REMARK INTRA:                  -0.024
REMARK UNBOUND:                -0.016
REMARK SMILES O=C([O-])c1cccnc1
REMARK SMILES IDX 4 1 5 2 9 3 6 4 8 5 7 6 2 7 1 8 3 9
REMARK H PARENT
REMARK Flexibility Score: inf
ROOT
ATOM      1  C   UNL     1     153.243 150.685 156.457  1.00  0.00     0.016 A 
ATOM      2  C   UNL     1     153.804 150.766 157.743  1.00  0.00     0.013 A 
ATOM      3  C   UNL     1     152.191 149.778 156.244  1.00  0.00     0.120 A 
ATOM      4  C   UNL     1     153.317 149.959 158.772  1.00  0.00     0.021 A 
ATOM      5  N   UNL     1     151.735 149.003 157.264  1.00  0.00    -0.264 NA
ATOM      6  C   UNL     1     152.270 149.073 158.511  1.00  0.00     0.111 A 
ENDROOT
BRANCH   1   7
ATOM      7  C   UNL     1     153.751 151.535 155.359  1.00  0.00     0.073 C 
ATOM      8  O   UNL     1     153.289 151.418 154.192  1.00  0.00    -0.545 OA
ATOM      9  O   UNL     1     154.747 152.476 155.599  1.00  0.00    -0.545 OA
ENDBRANCH   1   7
TORSDOF 1
ENDMDL
MODEL 6
REMARK VINA RESULT:    -3.944     11.506     12.527
REMARK INTER + INTRA:          -4.191
REMARK INTER:                  -4.167
REMARK INTRA:                  -0.023
REMARK UNBOUND:                -0.016
REMARK SMILES O=C([O-])c1cccnc1
REMARK SMILES IDX 4 1 5 2 9 3 6 4 8 5 7 6 2 7 1 8 3 9
REMARK H PARENT
REMARK Flexibility Score: inf
ROOT
ATOM      1  C   UNL     1     153.505 150.673 156.929  1.00  0.00     0.016 A 
ATOM      2  C   UNL     1     152.918 150.746 155.655  1.00  0.00     0.013 A 
ATOM      3  C   UNL     1     154.630 151.473 157.193  1.00  0.00     0.120 A 
ATOM      4  C   UNL     1     153.450 151.597 154.685  1.00  0.00     0.021 A 
ATOM      5  N   UNL     1     155.129 152.294 156.231  1.00  0.00    -0.264 NA
ATOM      6  C   UNL     1     154.569 152.372 154.995  1.00  0.00     0.111 A 
ENDROOT
BRANCH   1   7
ATOM      7  C   UNL     1     152.950 149.774 157.964  1.00  0.00     0.073 C 
ATOM      8  O   UNL     1     153.344 149.852 159.159  1.00  0.00    -0.545 OA
ATOM      9  O   UNL     1     151.984 148.830 157.633  1.00  0.00    -0.545 OA
ENDBRANCH   1   7
TORSDOF 1
ENDMDL
MODEL 7
REMARK VINA RESULT:    -3.906      1.556      2.031
REMARK INTER + INTRA:          -4.151
REMARK INTER:                  -4.127
REMARK INTRA:                  -0.024
REMARK UNBOUND:                -0.016
REMARK SMILES O=C([O-])c1cccnc1
REMARK SMILES IDX 4 1 5 2 9 3 6 4 8 5 7 6 2 7 1 8 3 9
REMARK H PARENT
REMARK Flexibility Score: inf
ROOT
ATOM      1  C   UNL     1     158.616 161.535 157.035  1.00  0.00     0.016 A 
ATOM      2  C   UNL     1     159.030 161.276 155.717  1.00  0.00     0.013 A 
ATOM      3  C   UNL     1     157.515 160.824 157.541  1.00  0.00     0.120 A 
ATOM      4  C   UNL     1     158.353 160.331 154.943  1.00  0.00     0.021 A 
ATOM      5  N   UNL     1     156.874 159.909 156.766  1.00  0.00    -0.264 NA
ATOM      6  C   UNL     1     157.266 159.650 155.491  1.00  0.00     0.111 A 
ENDROOT
BRANCH   1   7
ATOM      7  C   UNL     1     159.325 162.534 157.864  1.00  0.00     0.073 C 
ATOM      8  O   UNL     1     158.961 162.756 159.050  1.00  0.00    -0.545 OA
ATOM      9  O   UNL     1     160.404 163.242 157.346  1.00  0.00    -0.545 OA
ENDBRANCH   1   7
TORSDOF 1
ENDMDL
MODEL 8
REMARK VINA RESULT:    -3.743      8.105      8.942
REMARK INTER + INTRA:          -3.978
REMARK INTER:                  -3.955
REMARK INTRA:                  -0.023
REMARK UNBOUND:                -0.016
REMARK SMILES O=C([O-])c1cccnc1
REMARK SMILES IDX 4 1 5 2 9 3 6 4 8 5 7 6 2 7 1 8 3 9
REMARK H PARENT
REMARK Flexibility Score: inf
ROOT
ATOM      1  C   UNL     1     163.113 164.677 150.577  1.00  0.00     0.016 A 
ATOM      2  C   UNL     1     162.317 164.004 149.636  1.00  0.00     0.013 A 
ATOM      3  C   UNL     1     163.903 165.754 150.137  1.00  0.00     0.120 A 
ATOM      4  C   UNL     1     162.322 164.406 148.299  1.00  0.00     0.021 A 
ATOM      5  N   UNL     1     163.889 166.125 148.829  1.00  0.00    -0.264 NA
ATOM      6  C   UNL     1     163.123 165.480 147.910  1.00  0.00     0.111 A 
ENDROOT
BRANCH   1   7
ATOM      7  C   UNL     1     163.117 164.260 151.997  1.00  0.00     0.073 C 
ATOM      8  O   UNL     1     164.027 164.650 152.776  1.00  0.00    -0.545 OA
ATOM      9  O   UNL     1     162.115 163.432 152.490  1.00  0.00    -0.545 OA
ENDBRANCH   1   7
TORSDOF 1
ENDMDL
MODEL 9
REMARK VINA RESULT:    -3.724     18.490     19.595
REMARK INTER + INTRA:          -3.958
REMARK INTER:                  -3.940
REMARK INTRA:                  -0.017
REMARK UNBOUND:                -0.016
REMARK SMILES O=C([O-])c1cccnc1
REMARK SMILES IDX 4 1 5 2 9 3 6 4 8 5 7 6 2 7 1 8 3 9
REMARK H PARENT
REMARK Flexibility Score: inf
ROOT
ATOM      1  C   UNL     1     148.796 147.392 149.334  1.00  0.00     0.016 A 
ATOM      2  C   UNL     1     150.001 148.116 149.325  1.00  0.00     0.013 A 
ATOM      3  C   UNL     1     148.125 147.227 150.558  1.00  0.00     0.120 A 
ATOM      4  C   UNL     1     150.505 148.652 150.511  1.00  0.00     0.021 A 
ATOM      5  N   UNL     1     148.638 147.760 151.699  1.00  0.00    -0.264 NA
ATOM      6  C   UNL     1     149.802 148.462 151.702  1.00  0.00     0.111 A 
ENDROOT
BRANCH   1   7
ATOM      7  C   UNL     1     148.252 146.819 148.084  1.00  0.00     0.073 C 
ATOM      8  O   UNL     1     148.849 145.875 147.500  1.00  0.00    -0.545 OA
ATOM      9  O   UNL     1     147.073 147.313 147.537  1.00  0.00    -0.545 OA
ENDBRANCH   1   7
TORSDOF 1
ENDMDL
