MODEL 1
REMARK VINA RESULT:    -5.155      0.000      0.000
REMARK INTER + INTRA:          -8.841
REMARK INTER:                  -7.867
REMARK INTRA:                  -0.973
REMARK UNBOUND:                -0.973
REMARK SMILES OC[C@@H]1O[C@@](CO)(O[C@@H]2O[C@H](CO)[C@@H](O)[C@H](O)[C@@H]2O)[C@H](O)[C@H]1O
REMARK SMILES IDX 8 1 9 2 11 3 14 4 10 5 16 6 18 7 12 8 13 9 15 11 17 13 19 15
REMARK SMILES IDX 5 17 20 18 4 19 22 20 3 21 6 22 7 23 21 25 23 27 2 29 1 30
REMARK H PARENT 13 10 15 12 17 14 19 16 7 24 21 26 23 28 1 31
REMARK Flexibility Score: inf
ROOT
ATOM      1  O   UNL     1     143.177 137.672 154.239  1.00  0.00    -0.313 OA
ENDROOT
BRANCH   1   2
ATOM      2  C   UNL     1     144.070 136.787 153.551  1.00  0.00     0.285 C 
ATOM      3  C   UNL     1     145.873 135.296 153.749  1.00  0.00     0.178 C 
ATOM      4  C   UNL     1     146.828 136.134 152.874  1.00  0.00     0.177 C 
ATOM      5  O   UNL     1     145.017 136.184 154.426  1.00  0.00    -0.341 OA
ATOM      6  C   UNL     1     146.000 136.853 151.805  1.00  0.00     0.179 C 
ATOM      7  C   UNL     1     144.769 137.603 152.429  1.00  0.00     0.202 C 
BRANCH   3   8
ATOM      8  C   UNL     1     146.632 134.480 154.812  1.00  0.00     0.191 C 
BRANCH   8   9
ATOM      9  O   UNL     1     146.645 135.133 156.055  1.00  0.00    -0.394 OA
ATOM     10  H   UNL     1     147.473 135.679 156.071  1.00  0.00     0.210 HD
ENDBRANCH   8   9
ENDBRANCH   3   8
BRANCH   4  11
ATOM     11  O   UNL     1     147.777 135.309 152.244  1.00  0.00    -0.387 OA
ATOM     12  H   UNL     1     148.185 135.843 151.516  1.00  0.00     0.211 HD
ENDBRANCH   4  11
BRANCH   6  13
ATOM     13  O   UNL     1     146.831 137.737 151.094  1.00  0.00    -0.387 OA
ATOM     14  H   UNL     1     147.623 137.212 150.806  1.00  0.00     0.211 HD
ENDBRANCH   6  13
BRANCH   7  15
ATOM     15  O   UNL     1     145.061 138.897 152.935  1.00  0.00    -0.385 OA
ATOM     16  H   UNL     1     145.961 139.204 152.644  1.00  0.00     0.211 HD
ENDBRANCH   7  15
ENDBRANCH   1   2
BRANCH   1  17
ATOM     17  C   UNL     1     141.774 137.494 154.014  1.00  0.00     0.224 C 
ATOM     18  C   UNL     1     141.043 137.866 155.320  1.00  0.00     0.208 C 
ATOM     19  O   UNL     1     141.334 138.396 153.018  1.00  0.00    -0.337 OA
ATOM     20  C   UNL     1     140.789 139.349 155.162  1.00  0.00     0.180 C 
ATOM     21  C   UNL     1     140.883 139.579 153.646  1.00  0.00     0.179 C 
BRANCH  17  22
ATOM     22  C   UNL     1     141.441 136.021 153.602  1.00  0.00     0.225 C 
BRANCH  22  23
ATOM     23  O   UNL     1     140.288 135.974 152.805  1.00  0.00    -0.391 OA
ATOM     24  H   UNL     1     140.112 136.899 152.489  1.00  0.00     0.210 HD
ENDBRANCH  22  23
ENDBRANCH  17  22
BRANCH  18  25
ATOM     25  O   UNL     1     139.809 137.191 155.456  1.00  0.00    -0.385 OA
ATOM     26  H   UNL     1     139.878 136.603 156.254  1.00  0.00     0.211 HD
ENDBRANCH  18  25
BRANCH  20  27
ATOM     27  O   UNL     1     141.788 140.092 155.816  1.00  0.00    -0.387 OA
ATOM     28  H   UNL     1     142.099 139.553 156.583  1.00  0.00     0.211 HD
ENDBRANCH  20  27
BRANCH  21  29
ATOM     29  C   UNL     1     139.547 140.023 153.018  1.00  0.00     0.191 C 
BRANCH  29  30
ATOM     30  O   UNL     1     139.239 141.346 153.400  1.00  0.00    -0.394 OA
ATOM     31  H   UNL     1     139.314 141.382 154.394  1.00  0.00     0.210 HD
ENDBRANCH  29  30
ENDBRANCH  21  29
ENDBRANCH   1  17
TORSDOF 13
ENDMDL
MODEL 2
REMARK VINA RESULT:    -5.038      1.602      6.245
REMARK INTER + INTRA:          -8.661
REMARK INTER:                  -7.640
REMARK INTRA:                  -1.021
REMARK UNBOUND:                -0.973
REMARK SMILES OC[C@@H]1O[C@@](CO)(O[C@@H]2O[C@H](CO)[C@@H](O)[C@H](O)[C@@H]2O)[C@H](O)[C@H]1O
REMARK SMILES IDX 8 1 9 2 11 3 14 4 10 5 16 6 18 7 12 8 13 9 15 11 17 13 19 15
REMARK SMILES IDX 5 17 20 18 4 19 22 20 3 21 6 22 7 23 21 25 23 27 2 29 1 30
REMARK H PARENT 13 10 15 12 17 14 19 16 7 24 21 26 23 28 1 31
REMARK Flexibility Score: inf
ROOT
ATOM      1  O   UNL     1     144.358 136.631 152.708  1.00  0.00    -0.313 OA
ENDROOT
BRANCH   1   2
ATOM      2  C   UNL     1     143.336 136.704 153.711  1.00  0.00     0.285 C 
ATOM      3  C   UNL     1     141.080 136.309 154.229  1.00  0.00     0.178 C 
ATOM      4  C   UNL     1     140.749 137.792 154.494  1.00  0.00     0.177 C 
ATOM      5  O   UNL     1     142.072 136.260 153.232  1.00  0.00    -0.341 OA
ATOM      6  C   UNL     1     141.993 138.470 155.073  1.00  0.00     0.179 C 
ATOM      7  C   UNL     1     143.272 138.174 154.211  1.00  0.00     0.202 C 
BRANCH   3   8
ATOM      8  C   UNL     1     139.858 135.529 153.708  1.00  0.00     0.191 C 
BRANCH   8   9
ATOM      9  O   UNL     1     139.049 135.071 154.760  1.00  0.00    -0.394 OA
ATOM     10  H   UNL     1     138.213 134.742 154.342  1.00  0.00     0.210 HD
ENDBRANCH   8   9
ENDBRANCH   3   8
BRANCH   4  11
ATOM     11  O   UNL     1     139.691 137.907 155.414  1.00  0.00    -0.387 OA
ATOM     12  H   UNL     1     139.815 137.190 156.087  1.00  0.00     0.211 HD
ENDBRANCH   4  11
BRANCH   6  13
ATOM     13  O   UNL     1     141.759 139.853 155.181  1.00  0.00    -0.387 OA
ATOM     14  H   UNL     1     140.820 140.004 154.897  1.00  0.00     0.211 HD
ENDBRANCH   6  13
BRANCH   7  15
ATOM     15  O   UNL     1     143.443 139.032 153.093  1.00  0.00    -0.385 OA
ATOM     16  H   UNL     1     144.381 139.354 153.026  1.00  0.00     0.211 HD
ENDBRANCH   7  15
ENDBRANCH   1   2
BRANCH   1  17
ATOM     17  C   UNL     1     145.710 136.491 153.157  1.00  0.00     0.224 C 
ATOM     18  C   UNL     1     146.548 135.998 151.960  1.00  0.00     0.208 C 
ATOM     19  O   UNL     1     146.220 137.756 153.531  1.00  0.00    -0.337 OA
ATOM     20  C   UNL     1     146.996 137.284 151.300  1.00  0.00     0.180 C 
ATOM     21  C   UNL     1     146.859 138.335 152.412  1.00  0.00     0.179 C 
BRANCH  17  22
ATOM     22  C   UNL     1     145.817 135.485 154.352  1.00  0.00     0.225 C 
BRANCH  22  23
ATOM     23  O   UNL     1     147.038 135.639 155.026  1.00  0.00    -0.391 OA
ATOM     24  H   UNL     1     146.923 135.250 155.932  1.00  0.00     0.210 HD
ENDBRANCH  22  23
ENDBRANCH  17  22
BRANCH  18  25
ATOM     25  O   UNL     1     147.684 135.261 152.368  1.00  0.00    -0.385 OA
ATOM     26  H   UNL     1     148.475 135.856 152.270  1.00  0.00     0.211 HD
ENDBRANCH  18  25
BRANCH  20  27
ATOM     27  O   UNL     1     146.141 137.611 150.232  1.00  0.00    -0.387 OA
ATOM     28  H   UNL     1     145.240 137.755 150.612  1.00  0.00     0.211 HD
ENDBRANCH  20  27
BRANCH  21  29
ATOM     29  C   UNL     1     148.211 138.940 152.842  1.00  0.00     0.191 C 
BRANCH  29  30
ATOM     30  O   UNL     1     148.056 140.303 153.175  1.00  0.00    -0.394 OA
ATOM     31  H   UNL     1     148.896 140.764 152.897  1.00  0.00     0.210 HD
ENDBRANCH  29  30
ENDBRANCH  21  29
ENDBRANCH   1  17
TORSDOF 13
ENDMDL
MODEL 3
REMARK VINA RESULT:    -5.022      1.659      2.006
REMARK INTER + INTRA:          -8.637
REMARK INTER:                  -8.090
REMARK INTRA:                  -0.547
REMARK UNBOUND:                -0.973
REMARK SMILES OC[C@@H]1O[C@@](CO)(O[C@@H]2O[C@H](CO)[C@@H](O)[C@H](O)[C@@H]2O)[C@H](O)[C@H]1O
REMARK SMILES IDX 8 1 9 2 11 3 14 4 10 5 16 6 18 7 12 8 13 9 15 11 17 13 19 15
REMARK SMILES IDX 5 17 20 18 4 19 22 20 3 21 6 22 7 23 21 25 23 27 2 29 1 30
REMARK H PARENT 13 10 15 12 17 14 19 16 7 24 21 26 23 28 1 31
REMARK Flexibility Score: inf
ROOT
ATOM      1  O   UNL     1     143.247 138.307 152.135  1.00  0.00    -0.313 OA
ENDROOT
BRANCH   1   2
ATOM      2  C   UNL     1     144.630 137.939 152.206  1.00  0.00     0.285 C 
ATOM      3  C   UNL     1     146.290 136.820 153.434  1.00  0.00     0.178 C 
ATOM      4  C   UNL     1     147.128 138.087 153.698  1.00  0.00     0.177 C 
ATOM      5  O   UNL     1     144.936 137.201 153.383  1.00  0.00    -0.341 OA
ATOM      6  C   UNL     1     146.977 139.027 152.499  1.00  0.00     0.179 C 
ATOM      7  C   UNL     1     145.469 139.243 152.116  1.00  0.00     0.202 C 
BRANCH   3   8
ATOM      8  C   UNL     1     146.440 135.783 154.562  1.00  0.00     0.191 C 
BRANCH   8   9
ATOM      9  O   UNL     1     147.747 135.276 154.630  1.00  0.00    -0.394 OA
ATOM     10  H   UNL     1     148.023 135.349 155.580  1.00  0.00     0.210 HD
ENDBRANCH   8   9
ENDBRANCH   3   8
BRANCH   4  11
ATOM     11  O   UNL     1     148.487 137.758 153.858  1.00  0.00    -0.387 OA
ATOM     12  H   UNL     1     148.534 136.774 153.966  1.00  0.00     0.211 HD
ENDBRANCH   4  11
BRANCH   6  13
ATOM     13  O   UNL     1     147.612 140.249 152.786  1.00  0.00    -0.387 OA
ATOM     14  H   UNL     1     148.377 140.037 153.382  1.00  0.00     0.211 HD
ENDBRANCH   6  13
BRANCH   7  15
ATOM     15  O   UNL     1     144.808 140.251 152.867  1.00  0.00    -0.385 OA
ATOM     16  H   UNL     1     143.985 139.897 153.299  1.00  0.00     0.211 HD
ENDBRANCH   7  15
ENDBRANCH   1   2
BRANCH   1  17
ATOM     17  C   UNL     1     142.313 137.491 152.852  1.00  0.00     0.224 C 
ATOM     18  C   UNL     1     142.512 137.770 154.356  1.00  0.00     0.208 C 
ATOM     19  O   UNL     1     140.993 137.882 152.527  1.00  0.00    -0.337 OA
ATOM     20  C   UNL     1     141.570 138.923 154.620  1.00  0.00     0.180 C 
ATOM     21  C   UNL     1     140.564 138.850 153.461  1.00  0.00     0.179 C 
BRANCH  17  22
ATOM     22  C   UNL     1     142.524 135.971 152.544  1.00  0.00     0.225 C 
BRANCH  22  23
ATOM     23  O   UNL     1     141.319 135.265 152.668  1.00  0.00    -0.391 OA
ATOM     24  H   UNL     1     141.508 134.453 153.208  1.00  0.00     0.210 HD
ENDBRANCH  22  23
ENDBRANCH  17  22
BRANCH  18  25
ATOM     25  O   UNL     1     142.140 136.668 155.160  1.00  0.00    -0.385 OA
ATOM     26  H   UNL     1     141.208 136.824 155.465  1.00  0.00     0.211 HD
ENDBRANCH  18  25
BRANCH  20  27
ATOM     27  O   UNL     1     142.263 140.147 154.568  1.00  0.00    -0.387 OA
ATOM     28  H   UNL     1     142.469 140.326 153.618  1.00  0.00     0.211 HD
ENDBRANCH  20  27
BRANCH  21  29
ATOM     29  C   UNL     1     139.130 138.524 153.925  1.00  0.00     0.191 C 
BRANCH  29  30
ATOM     30  O   UNL     1     139.108 137.303 154.632  1.00  0.00    -0.394 OA
ATOM     31  H   UNL     1     138.239 137.270 155.120  1.00  0.00     0.210 HD
ENDBRANCH  29  30
ENDBRANCH  21  29
ENDBRANCH   1  17
TORSDOF 13
ENDMDL
MODEL 4
REMARK VINA RESULT:    -5.002      1.161      1.754
REMARK INTER + INTRA:          -8.607
REMARK INTER:                  -7.498
REMARK INTRA:                  -1.109
REMARK UNBOUND:                -0.973
REMARK SMILES OC[C@@H]1O[C@@](CO)(O[C@@H]2O[C@H](CO)[C@@H](O)[C@H](O)[C@@H]2O)[C@H](O)[C@H]1O
REMARK SMILES IDX 8 1 9 2 11 3 14 4 10 5 16 6 18 7 12 8 13 9 15 11 17 13 19 15
REMARK SMILES IDX 5 17 20 18 4 19 22 20 3 21 6 22 7 23 21 25 23 27 2 29 1 30
REMARK H PARENT 13 10 15 12 17 14 19 16 7 24 21 26 23 28 1 31
REMARK Flexibility Score: inf
ROOT
ATOM      1  O   UNL     1     143.412 138.495 153.727  1.00  0.00    -0.313 OA
ENDROOT
BRANCH   1   2
ATOM      2  C   UNL     1     144.286 137.531 153.125  1.00  0.00     0.285 C 
ATOM      3  C   UNL     1     145.641 135.644 153.469  1.00  0.00     0.178 C 
ATOM      4  C   UNL     1     146.948 136.350 153.056  1.00  0.00     0.177 C 
ATOM      5  O   UNL     1     144.804 136.603 154.070  1.00  0.00    -0.341 OA
ATOM      6  C   UNL     1     146.621 137.389 151.981  1.00  0.00     0.179 C 
ATOM      7  C   UNL     1     145.424 138.311 152.409  1.00  0.00     0.202 C 
BRANCH   3   8
ATOM      8  C   UNL     1     145.887 134.529 154.502  1.00  0.00     0.191 C 
BRANCH   8   9
ATOM      9  O   UNL     1     146.912 134.871 155.398  1.00  0.00    -0.394 OA
ATOM     10  H   UNL     1     147.726 134.403 155.078  1.00  0.00     0.210 HD
ENDBRANCH   8   9
ENDBRANCH   3   8
BRANCH   4  11
ATOM     11  O   UNL     1     147.870 135.422 152.536  1.00  0.00    -0.387 OA
ATOM     12  H   UNL     1     147.789 135.460 151.548  1.00  0.00     0.211 HD
ENDBRANCH   4  11
BRANCH   6  13
ATOM     13  O   UNL     1     147.774 138.144 151.700  1.00  0.00    -0.387 OA
ATOM     14  H   UNL     1     148.505 137.494 151.538  1.00  0.00     0.211 HD
ENDBRANCH   6  13
BRANCH   7  15
ATOM     15  O   UNL     1     145.790 139.414 153.225  1.00  0.00    -0.385 OA
ATOM     16  H   UNL     1     146.240 140.123 152.692  1.00  0.00     0.211 HD
ENDBRANCH   7  15
ENDBRANCH   1   2
BRANCH   1  17
ATOM     17  C   UNL     1     142.083 138.592 153.204  1.00  0.00     0.224 C 
ATOM     18  C   UNL     1     141.351 137.279 153.550  1.00  0.00     0.208 C 
ATOM     19  O   UNL     1     141.391 139.639 153.856  1.00  0.00    -0.337 OA
ATOM     20  C   UNL     1     140.744 137.569 154.904  1.00  0.00     0.180 C 
ATOM     21  C   UNL     1     140.704 139.103 154.969  1.00  0.00     0.179 C 
BRANCH  17  22
ATOM     22  C   UNL     1     142.090 138.824 151.656  1.00  0.00     0.225 C 
BRANCH  22  23
ATOM     23  O   UNL     1     140.938 139.513 151.249  1.00  0.00    -0.391 OA
ATOM     24  H   UNL     1     140.208 138.844 151.169  1.00  0.00     0.210 HD
ENDBRANCH  22  23
ENDBRANCH  17  22
BRANCH  18  25
ATOM     25  O   UNL     1     140.321 136.979 152.629  1.00  0.00    -0.385 OA
ATOM     26  H   UNL     1     139.455 137.143 153.088  1.00  0.00     0.211 HD
ENDBRANCH  18  25
BRANCH  20  27
ATOM     27  O   UNL     1     141.569 137.074 155.930  1.00  0.00    -0.387 OA
ATOM     28  H   UNL     1     140.979 136.806 156.677  1.00  0.00     0.211 HD
ENDBRANCH  20  27
BRANCH  21  29
ATOM     29  C   UNL     1     139.270 139.670 155.015  1.00  0.00     0.191 C 
BRANCH  29  30
ATOM     30  O   UNL     1     139.157 140.790 154.163  1.00  0.00    -0.394 OA
ATOM     31  H   UNL     1     138.183 140.921 153.989  1.00  0.00     0.210 HD
ENDBRANCH  29  30
ENDBRANCH  21  29
ENDBRANCH   1  17
TORSDOF 13
ENDMDL
MODEL 5
REMARK VINA RESULT:    -4.970      1.831      2.556
REMARK INTER + INTRA:          -8.558
REMARK INTER:                  -7.434
REMARK INTRA:                  -1.124
REMARK UNBOUND:                -0.973
REMARK SMILES OC[C@@H]1O[C@@](CO)(O[C@@H]2O[C@H](CO)[C@@H](O)[C@H](O)[C@@H]2O)[C@H](O)[C@H]1O
REMARK SMILES IDX 8 1 9 2 11 3 14 4 10 5 16 6 18 7 12 8 13 9 15 11 17 13 19 15
REMARK SMILES IDX 5 17 20 18 4 19 22 20 3 21 6 22 7 23 21 25 23 27 2 29 1 30
REMARK H PARENT 13 10 15 12 17 14 19 16 7 24 21 26 23 28 1 31
REMARK Flexibility Score: inf
ROOT
ATOM      1  O   UNL     1     141.796 137.516 152.754  1.00  0.00    -0.313 OA
ENDROOT
BRANCH   1   2
ATOM      2  C   UNL     1     143.194 137.352 153.029  1.00  0.00     0.285 C 
ATOM      3  C   UNL     1     145.343 138.276 152.826  1.00  0.00     0.178 C 
ATOM      4  C   UNL     1     145.890 137.133 151.948  1.00  0.00     0.177 C 
ATOM      5  O   UNL     1     143.976 138.431 152.530  1.00  0.00    -0.341 OA
ATOM      6  C   UNL     1     145.198 135.831 152.360  1.00  0.00     0.179 C 
ATOM      7  C   UNL     1     143.637 135.995 152.416  1.00  0.00     0.202 C 
BRANCH   3   8
ATOM      8  C   UNL     1     146.038 139.618 152.527  1.00  0.00     0.191 C 
BRANCH   8   9
ATOM      9  O   UNL     1     147.059 139.890 153.450  1.00  0.00    -0.394 OA
ATOM     10  H   UNL     1     146.685 139.682 154.345  1.00  0.00     0.210 HD
ENDBRANCH   8   9
ENDBRANCH   3   8
BRANCH   4  11
ATOM     11  O   UNL     1     147.279 136.993 152.126  1.00  0.00    -0.387 OA
ATOM     12  H   UNL     1     147.458 137.107 153.094  1.00  0.00     0.211 HD
ENDBRANCH   4  11
BRANCH   6  13
ATOM     13  O   UNL     1     145.574 134.807 151.473  1.00  0.00    -0.387 OA
ATOM     14  H   UNL     1     145.185 135.040 150.590  1.00  0.00     0.211 HD
ENDBRANCH   6  13
BRANCH   7  15
ATOM     15  O   UNL     1     142.981 135.835 151.167  1.00  0.00    -0.385 OA
ATOM     16  H   UNL     1     143.330 136.476 150.492  1.00  0.00     0.211 HD
ENDBRANCH   7  15
ENDBRANCH   1   2
BRANCH   1  17
ATOM     17  C   UNL     1     140.886 137.312 153.840  1.00  0.00     0.224 C 
ATOM     18  C   UNL     1     141.587 137.786 155.129  1.00  0.00     0.208 C 
ATOM     19  O   UNL     1     139.744 138.127 153.662  1.00  0.00    -0.337 OA
ATOM     20  C   UNL     1     141.212 139.249 155.208  1.00  0.00     0.180 C 
ATOM     21  C   UNL     1     139.956 139.355 154.329  1.00  0.00     0.179 C 
BRANCH  17  22
ATOM     22  C   UNL     1     140.468 135.808 153.965  1.00  0.00     0.225 C 
BRANCH  22  23
ATOM     23  O   UNL     1     139.256 135.683 154.658  1.00  0.00    -0.391 OA
ATOM     24  H   UNL     1     139.468 135.704 155.628  1.00  0.00     0.210 HD
ENDBRANCH  22  23
ENDBRANCH  17  22
BRANCH  18  25
ATOM     25  O   UNL     1     141.107 137.118 156.279  1.00  0.00    -0.385 OA
ATOM     26  H   UNL     1     141.084 136.146 156.070  1.00  0.00     0.211 HD
ENDBRANCH  18  25
BRANCH  20  27
ATOM     27  O   UNL     1     142.235 140.049 154.668  1.00  0.00    -0.387 OA
ATOM     28  H   UNL     1     141.889 140.440 153.828  1.00  0.00     0.211 HD
ENDBRANCH  20  27
BRANCH  21  29
ATOM     29  C   UNL     1     138.692 139.738 155.124  1.00  0.00     0.191 C 
BRANCH  29  30
ATOM     30  O   UNL     1     137.745 140.351 154.276  1.00  0.00    -0.394 OA
ATOM     31  H   UNL     1     137.614 141.281 154.615  1.00  0.00     0.210 HD
ENDBRANCH  29  30
ENDBRANCH  21  29
ENDBRANCH   1  17
TORSDOF 13
ENDMDL
MODEL 6
REMARK VINA RESULT:    -4.962      1.881      3.731
REMARK INTER + INTRA:          -8.546
REMARK INTER:                  -7.604
REMARK INTRA:                  -0.942
REMARK UNBOUND:                -0.973
REMARK SMILES OC[C@@H]1O[C@@](CO)(O[C@@H]2O[C@H](CO)[C@@H](O)[C@H](O)[C@@H]2O)[C@H](O)[C@H]1O
REMARK SMILES IDX 8 1 9 2 11 3 14 4 10 5 16 6 18 7 12 8 13 9 15 11 17 13 19 15
REMARK SMILES IDX 5 17 20 18 4 19 22 20 3 21 6 22 7 23 21 25 23 27 2 29 1 30
REMARK H PARENT 13 10 15 12 17 14 19 16 7 24 21 26 23 28 1 31
REMARK Flexibility Score: inf
ROOT
ATOM      1  O   UNL     1     142.083 137.439 153.422  1.00  0.00    -0.313 OA
ENDROOT
BRANCH   1   2
ATOM      2  C   UNL     1     143.474 137.409 153.767  1.00  0.00     0.285 C 
ATOM      3  C   UNL     1     145.622 138.222 153.278  1.00  0.00     0.178 C 
ATOM      4  C   UNL     1     146.197 136.843 152.899  1.00  0.00     0.177 C 
ATOM      5  O   UNL     1     144.261 138.236 152.919  1.00  0.00    -0.341 OA
ATOM      6  C   UNL     1     145.503 135.777 153.750  1.00  0.00     0.179 C 
ATOM      7  C   UNL     1     143.940 135.927 153.710  1.00  0.00     0.202 C 
BRANCH   3   8
ATOM      8  C   UNL     1     146.316 139.367 152.516  1.00  0.00     0.191 C 
BRANCH   8   9
ATOM      9  O   UNL     1     147.230 140.053 153.332  1.00  0.00    -0.394 OA
ATOM     10  H   UNL     1     147.260 139.556 154.190  1.00  0.00     0.210 HD
ENDBRANCH   8   9
ENDBRANCH   3   8
BRANCH   4  11
ATOM     11  O   UNL     1     147.582 136.799 153.143  1.00  0.00    -0.387 OA
ATOM     12  H   UNL     1     147.869 137.727 153.342  1.00  0.00     0.211 HD
ENDBRANCH   4  11
BRANCH   6  13
ATOM     13  O   UNL     1     145.906 134.502 153.314  1.00  0.00    -0.387 OA
ATOM     14  H   UNL     1     146.891 134.464 153.422  1.00  0.00     0.211 HD
ENDBRANCH   6  13
BRANCH   7  15
ATOM     15  O   UNL     1     143.315 135.306 152.597  1.00  0.00    -0.385 OA
ATOM     16  H   UNL     1     143.414 134.317 152.634  1.00  0.00     0.211 HD
ENDBRANCH   7  15
ENDBRANCH   1   2
BRANCH   1  17
ATOM     17  C   UNL     1     141.151 137.696 154.479  1.00  0.00     0.224 C 
ATOM     18  C   UNL     1     139.875 138.282 153.840  1.00  0.00     0.208 C 
ATOM     19  O   UNL     1     140.786 136.478 155.098  1.00  0.00    -0.337 OA
ATOM     20  C   UNL     1     139.049 137.053 153.532  1.00  0.00     0.180 C 
ATOM     21  C   UNL     1     139.627 135.977 154.463  1.00  0.00     0.179 C 
BRANCH  17  22
ATOM     22  C   UNL     1     141.740 138.690 155.535  1.00  0.00     0.225 C 
BRANCH  22  23
ATOM     23  O   UNL     1     141.771 139.997 155.027  1.00  0.00    -0.391 OA
ATOM     24  H   UNL     1     141.096 140.046 154.300  1.00  0.00     0.210 HD
ENDBRANCH  22  23
ENDBRANCH  17  22
BRANCH  18  25
ATOM     25  O   UNL     1     139.161 139.114 154.732  1.00  0.00    -0.385 OA
ATOM     26  H   UNL     1     139.552 138.985 155.637  1.00  0.00     0.211 HD
ENDBRANCH  18  25
BRANCH  20  27
ATOM     27  O   UNL     1     139.227 136.663 152.192  1.00  0.00    -0.387 OA
ATOM     28  H   UNL     1     139.699 135.795 152.200  1.00  0.00     0.211 HD
ENDBRANCH  20  27
BRANCH  21  29
ATOM     29  C   UNL     1     138.621 135.494 155.527  1.00  0.00     0.191 C 
BRANCH  29  30
ATOM     30  O   UNL     1     138.353 134.118 155.361  1.00  0.00    -0.394 OA
ATOM     31  H   UNL     1     137.363 134.025 155.290  1.00  0.00     0.210 HD
ENDBRANCH  29  30
ENDBRANCH  21  29
ENDBRANCH   1  17
TORSDOF 13
ENDMDL
MODEL 7
REMARK VINA RESULT:    -4.932      1.610      6.542
REMARK INTER + INTRA:          -8.500
REMARK INTER:                  -7.268
REMARK INTRA:                  -1.233
REMARK UNBOUND:                -0.973
REMARK SMILES OC[C@@H]1O[C@@](CO)(O[C@@H]2O[C@H](CO)[C@@H](O)[C@H](O)[C@@H]2O)[C@H](O)[C@H]1O
REMARK SMILES IDX 8 1 9 2 11 3 14 4 10 5 16 6 18 7 12 8 13 9 15 11 17 13 19 15
REMARK SMILES IDX 5 17 20 18 4 19 22 20 3 21 6 22 7 23 21 25 23 27 2 29 1 30
REMARK H PARENT 13 10 15 12 17 14 19 16 7 24 21 26 23 28 1 31
REMARK Flexibility Score: inf
ROOT
ATOM      1  O   UNL     1     143.711 138.361 152.690  1.00  0.00    -0.313 OA
ENDROOT
BRANCH   1   2
ATOM      2  C   UNL     1     142.358 137.972 152.961  1.00  0.00     0.285 C 
ATOM      3  C   UNL     1     140.138 138.690 153.228  1.00  0.00     0.178 C 
ATOM      4  C   UNL     1     140.036 138.241 154.700  1.00  0.00     0.177 C 
ATOM      5  O   UNL     1     141.469 139.082 152.988  1.00  0.00    -0.341 OA
ATOM      6  C   UNL     1     140.905 136.996 154.889  1.00  0.00     0.179 C 
ATOM      7  C   UNL     1     142.351 137.202 154.311  1.00  0.00     0.202 C 
BRANCH   3   8
ATOM      8  C   UNL     1     139.236 139.902 152.930  1.00  0.00     0.191 C 
BRANCH   8   9
ATOM      9  O   UNL     1     139.234 140.820 153.992  1.00  0.00    -0.394 OA
ATOM     10  H   UNL     1     140.011 141.417 153.842  1.00  0.00     0.210 HD
ENDBRANCH   8   9
ENDBRANCH   3   8
BRANCH   4  11
ATOM     11  O   UNL     1     138.705 137.929 155.032  1.00  0.00    -0.387 OA
ATOM     12  H   UNL     1     138.324 138.730 155.475  1.00  0.00     0.211 HD
ENDBRANCH   4  11
BRANCH   6  13
ATOM     13  O   UNL     1     140.943 136.660 156.254  1.00  0.00    -0.387 OA
ATOM     14  H   UNL     1     140.031 136.354 156.496  1.00  0.00     0.211 HD
ENDBRANCH   6  13
BRANCH   7  15
ATOM     15  O   UNL     1     143.255 137.848 155.196  1.00  0.00    -0.385 OA
ATOM     16  H   UNL     1     144.198 137.645 154.959  1.00  0.00     0.211 HD
ENDBRANCH   7  15
ENDBRANCH   1   2
BRANCH   1  17
ATOM     17  C   UNL     1     144.585 137.363 152.152  1.00  0.00     0.224 C 
ATOM     18  C   UNL     1     145.795 138.091 151.532  1.00  0.00     0.208 C 
ATOM     19  O   UNL     1     145.080 136.550 153.199  1.00  0.00    -0.337 OA
ATOM     20  C   UNL     1     146.766 138.192 152.687  1.00  0.00     0.180 C 
ATOM     21  C   UNL     1     146.301 137.094 153.656  1.00  0.00     0.179 C 
BRANCH  17  22
ATOM     22  C   UNL     1     143.863 136.486 151.075  1.00  0.00     0.225 C 
BRANCH  22  23
ATOM     23  O   UNL     1     144.460 135.221 150.980  1.00  0.00    -0.391 OA
ATOM     24  H   UNL     1     145.442 135.354 151.047  1.00  0.00     0.210 HD
ENDBRANCH  22  23
ENDBRANCH  17  22
BRANCH  18  25
ATOM     25  O   UNL     1     146.389 137.351 150.485  1.00  0.00    -0.385 OA
ATOM     26  H   UNL     1     147.003 137.962 149.998  1.00  0.00     0.211 HD
ENDBRANCH  18  25
BRANCH  20  27
ATOM     27  O   UNL     1     146.661 139.448 153.311  1.00  0.00    -0.387 OA
ATOM     28  H   UNL     1     147.252 139.432 154.104  1.00  0.00     0.211 HD
ENDBRANCH  20  27
BRANCH  21  29
ATOM     29  C   UNL     1     147.337 135.965 153.833  1.00  0.00     0.191 C 
BRANCH  29  30
ATOM     30  O   UNL     1     147.683 135.414 152.580  1.00  0.00    -0.394 OA
ATOM     31  H   UNL     1     148.563 135.810 152.326  1.00  0.00     0.210 HD
ENDBRANCH  29  30
ENDBRANCH  21  29
ENDBRANCH   1  17
TORSDOF 13
ENDMDL
MODEL 8
REMARK VINA RESULT:    -4.893      1.567      6.596
REMARK INTER + INTRA:          -8.441
REMARK INTER:                  -7.257
REMARK INTRA:                  -1.184
REMARK UNBOUND:                -0.973
REMARK SMILES OC[C@@H]1O[C@@](CO)(O[C@@H]2O[C@H](CO)[C@@H](O)[C@H](O)[C@@H]2O)[C@H](O)[C@H]1O
REMARK SMILES IDX 8 1 9 2 11 3 14 4 10 5 16 6 18 7 12 8 13 9 15 11 17 13 19 15
REMARK SMILES IDX 5 17 20 18 4 19 22 20 3 21 6 22 7 23 21 25 23 27 2 29 1 30
REMARK H PARENT 13 10 15 12 17 14 19 16 7 24 21 26 23 28 1 31
REMARK Flexibility Score: inf
ROOT
ATOM      1  O   UNL     1     144.666 137.440 153.799  1.00  0.00    -0.313 OA
ENDROOT
BRANCH   1   2
ATOM      2  C   UNL     1     143.382 137.873 153.329  1.00  0.00     0.285 C 
ATOM      3  C   UNL     1     141.309 138.811 153.907  1.00  0.00     0.178 C 
ATOM      4  C   UNL     1     140.489 137.572 153.493  1.00  0.00     0.177 C 
ATOM      5  O   UNL     1     142.558 138.364 154.379  1.00  0.00    -0.341 OA
ATOM      6  C   UNL     1     141.193 136.897 152.313  1.00  0.00     0.179 C 
ATOM      7  C   UNL     1     142.721 136.672 152.598  1.00  0.00     0.202 C 
BRANCH   3   8
ATOM      8  C   UNL     1     140.635 139.595 155.049  1.00  0.00     0.191 C 
BRANCH   8   9
ATOM      9  O   UNL     1     139.575 140.386 154.578  1.00  0.00    -0.394 OA
ATOM     10  H   UNL     1     139.153 139.872 153.842  1.00  0.00     0.210 HD
ENDBRANCH   8   9
ENDBRANCH   3   8
BRANCH   4  11
ATOM     11  O   UNL     1     139.189 137.945 153.104  1.00  0.00    -0.387 OA
ATOM     12  H   UNL     1     138.830 137.203 152.554  1.00  0.00     0.211 HD
ENDBRANCH   4  11
BRANCH   6  13
ATOM     13  O   UNL     1     140.543 135.685 152.019  1.00  0.00    -0.387 OA
ATOM     14  H   UNL     1     141.030 135.281 151.254  1.00  0.00     0.211 HD
ENDBRANCH   6  13
BRANCH   7  15
ATOM     15  O   UNL     1     143.017 135.489 153.326  1.00  0.00    -0.385 OA
ATOM     16  H   UNL     1     143.904 135.552 153.770  1.00  0.00     0.211 HD
ENDBRANCH   7  15
ENDBRANCH   1   2
BRANCH   1  17
ATOM     17  C   UNL     1     145.759 137.508 152.876  1.00  0.00     0.224 C 
ATOM     18  C   UNL     1     147.060 137.327 153.684  1.00  0.00     0.208 C 
ATOM     19  O   UNL     1     145.680 136.429 151.965  1.00  0.00    -0.337 OA
ATOM     20  C   UNL     1     147.264 135.828 153.677  1.00  0.00     0.180 C 
ATOM     21  C   UNL     1     146.434 135.349 152.476  1.00  0.00     0.179 C 
BRANCH  17  22
ATOM     22  C   UNL     1     145.778 138.871 152.106  1.00  0.00     0.225 C 
BRANCH  22  23
ATOM     23  O   UNL     1     146.170 139.917 152.954  1.00  0.00    -0.391 OA
ATOM     24  H   UNL     1     145.993 140.768 152.473  1.00  0.00     0.210 HD
ENDBRANCH  22  23
ENDBRANCH  17  22
BRANCH  18  25
ATOM     25  O   UNL     1     148.167 137.953 153.066  1.00  0.00    -0.385 OA
ATOM     26  H   UNL     1     148.822 137.241 152.838  1.00  0.00     0.211 HD
ENDBRANCH  18  25
BRANCH  20  27
ATOM     27  O   UNL     1     146.759 135.257 154.859  1.00  0.00    -0.387 OA
ATOM     28  H   UNL     1     145.912 134.804 154.626  1.00  0.00     0.211 HD
ENDBRANCH  20  27
BRANCH  21  29
ATOM     29  C   UNL     1     147.294 134.739 151.351  1.00  0.00     0.191 C 
BRANCH  29  30
ATOM     30  O   UNL     1     147.994 135.753 150.663  1.00  0.00    -0.394 OA
ATOM     31  H   UNL     1     147.355 136.150 150.009  1.00  0.00     0.210 HD
ENDBRANCH  29  30
ENDBRANCH  21  29
ENDBRANCH   1  17
TORSDOF 13
ENDMDL
MODEL 9
REMARK VINA RESULT:    -4.824      1.743      6.374
REMARK INTER + INTRA:          -8.335
REMARK INTER:                  -7.174
REMARK INTRA:                  -1.161
REMARK UNBOUND:                -0.973
REMARK SMILES OC[C@@H]1O[C@@](CO)(O[C@@H]2O[C@H](CO)[C@@H](O)[C@H](O)[C@@H]2O)[C@H](O)[C@H]1O
REMARK SMILES IDX 8 1 9 2 11 3 14 4 10 5 16 6 18 7 12 8 13 9 15 11 17 13 19 15
REMARK SMILES IDX 5 17 20 18 4 19 22 20 3 21 6 22 7 23 21 25 23 27 2 29 1 30
REMARK H PARENT 13 10 15 12 17 14 19 16 7 24 21 26 23 28 1 31
REMARK Flexibility Score: inf
ROOT
ATOM      1  O   UNL     1     143.524 136.807 152.344  1.00  0.00    -0.313 OA
ENDROOT
BRANCH   1   2
ATOM      2  C   UNL     1     142.483 136.981 153.314  1.00  0.00     0.285 C 
ATOM      3  C   UNL     1     140.178 137.246 153.676  1.00  0.00     0.178 C 
ATOM      4  C   UNL     1     140.307 138.652 154.294  1.00  0.00     0.177 C 
ATOM      5  O   UNL     1     141.197 137.101 152.716  1.00  0.00    -0.341 OA
ATOM      6  C   UNL     1     141.638 138.730 155.047  1.00  0.00     0.179 C 
ATOM      7  C   UNL     1     142.837 138.234 154.163  1.00  0.00     0.202 C 
BRANCH   3   8
ATOM      8  C   UNL     1     138.831 137.054 152.954  1.00  0.00     0.191 C 
BRANCH   8   9
ATOM      9  O   UNL     1     137.793 136.778 153.859  1.00  0.00    -0.394 OA
ATOM     10  H   UNL     1     137.206 136.115 153.412  1.00  0.00     0.210 HD
ENDBRANCH   8   9
ENDBRANCH   3   8
BRANCH   4  11
ATOM     11  O   UNL     1     139.253 138.897 155.194  1.00  0.00    -0.387 OA
ATOM     12  H   UNL     1     138.803 138.028 155.352  1.00  0.00     0.211 HD
ENDBRANCH   4  11
BRANCH   6  13
ATOM     13  O   UNL     1     141.841 140.050 155.491  1.00  0.00    -0.387 OA
ATOM     14  H   UNL     1     141.102 140.593 155.114  1.00  0.00     0.211 HD
ENDBRANCH   6  13
BRANCH   7  15
ATOM     15  O   UNL     1     143.380 139.220 153.296  1.00  0.00    -0.385 OA
ATOM     16  H   UNL     1     144.235 138.913 152.893  1.00  0.00     0.211 HD
ENDBRANCH   7  15
ENDBRANCH   1   2
BRANCH   1  17
ATOM     17  C   UNL     1     144.356 135.649 152.476  1.00  0.00     0.224 C 
ATOM     18  C   UNL     1     145.578 135.849 151.555  1.00  0.00     0.208 C 
ATOM     19  O   UNL     1     144.843 135.562 153.801  1.00  0.00    -0.337 OA
ATOM     20  C   UNL     1     146.572 136.556 152.450  1.00  0.00     0.180 C 
ATOM     21  C   UNL     1     146.089 136.225 153.870  1.00  0.00     0.179 C 
BRANCH  17  22
ATOM     22  C   UNL     1     143.588 134.341 152.090  1.00  0.00     0.225 C 
BRANCH  22  23
ATOM     23  O   UNL     1     144.207 133.215 152.650  1.00  0.00    -0.391 OA
ATOM     24  H   UNL     1     145.178 133.285 152.452  1.00  0.00     0.210 HD
ENDBRANCH  22  23
ENDBRANCH  17  22
BRANCH  18  25
ATOM     25  O   UNL     1     146.129 134.622 151.121  1.00  0.00    -0.385 OA
ATOM     26  H   UNL     1     147.065 134.800 150.838  1.00  0.00     0.211 HD
ENDBRANCH  18  25
BRANCH  20  27
ATOM     27  O   UNL     1     146.517 137.946 152.244  1.00  0.00    -0.387 OA
ATOM     28  H   UNL     1     145.760 138.292 152.778  1.00  0.00     0.211 HD
ENDBRANCH  20  27
BRANCH  21  29
ATOM     29  C   UNL     1     147.091 135.364 154.665  1.00  0.00     0.191 C 
BRANCH  29  30
ATOM     30  O   UNL     1     146.605 135.121 155.968  1.00  0.00    -0.394 OA
ATOM     31  H   UNL     1     147.073 135.761 156.573  1.00  0.00     0.210 HD
ENDBRANCH  29  30
ENDBRANCH  21  29
ENDBRANCH   1  17
TORSDOF 13
ENDMDL
