MODEL 1
REMARK VINA RESULT:    -6.332      0.000      0.000
REMARK INTER + INTRA:          -7.128
REMARK INTER:                  -7.072
REMARK INTRA:                  -0.056
REMARK UNBOUND:                -0.056
REMARK SMILES COc1cc2ccc(=O)oc2cc1OC
REMARK SMILES IDX 3 1 13 2 12 3 11 4 5 5 4 6 6 7 7 8 8 9 9 10 10 11 2 12 1 13
REMARK SMILES IDX 14 14 15 15
REMARK H PARENT
REMARK Flexibility Score: inf
ROOT
ATOM      1  C   UNL     1      12.248   1.677  34.514  1.00  0.00     0.161 A 
ATOM      2  C   UNL     1      11.835   2.523  35.558  1.00  0.00     0.164 A 
ATOM      3  C   UNL     1      10.538   2.390  36.095  1.00  0.00     0.098 A 
ATOM      4  C   UNL     1       9.661   1.424  35.595  1.00  0.00     0.142 A 
ATOM      5  C   UNL     1      10.075   0.577  34.548  1.00  0.00     0.022 A 
ATOM      6  C   UNL     1      11.362   0.703  34.011  1.00  0.00     0.062 A 
ATOM      7  C   UNL     1       9.173  -0.380  34.069  1.00  0.00     0.019 A 
ATOM      8  C   UNL     1       7.903  -0.468  34.637  1.00  0.00     0.094 A 
ATOM      9  C   UNL     1       7.562   0.407  35.674  1.00  0.00     0.336 A 
ATOM     10  O   UNL     1       6.420   0.344  36.199  1.00  0.00    -0.246 OA
ATOM     11  O   UNL     1       8.439   1.308  36.109  1.00  0.00    -0.423 OA
ENDROOT
BRANCH   1  12
ATOM     12  O   UNL     1      13.546   1.837  34.004  1.00  0.00    -0.493 OA
ATOM     13  C   UNL     1      13.918   2.805  33.029  1.00  0.00     0.278 C 
ENDBRANCH   1  12
BRANCH   2  14
ATOM     14  O   UNL     1      12.743   3.481  36.036  1.00  0.00    -0.493 OA
ATOM     15  C   UNL     1      12.395   4.818  36.387  1.00  0.00     0.278 C 
ENDBRANCH   2  14
TORSDOF 2
ENDMDL
MODEL 2
REMARK VINA RESULT:    -6.091      1.217      2.627
REMARK INTER + INTRA:          -6.859
REMARK INTER:                  -6.730
REMARK INTRA:                  -0.129
REMARK UNBOUND:                -0.056
REMARK SMILES COc1cc2ccc(=O)oc2cc1OC
REMARK SMILES IDX 3 1 13 2 12 3 11 4 5 5 4 6 6 7 7 8 8 9 9 10 10 11 2 12 1 13
REMARK SMILES IDX 14 14 15 15
REMARK H PARENT
REMARK Flexibility Score: inf
ROOT
ATOM      1  C   UNL     1      11.857   2.527  35.621  1.00  0.00     0.161 A 
ATOM      2  C   UNL     1      12.322   1.813  34.503  1.00  0.00     0.164 A 
ATOM      3  C   UNL     1      11.506   0.826  33.914  1.00  0.00     0.098 A 
ATOM      4  C   UNL     1      10.238   0.554  34.434  1.00  0.00     0.142 A 
ATOM      5  C   UNL     1       9.772   1.270  35.555  1.00  0.00     0.022 A 
ATOM      6  C   UNL     1      10.578   2.251  36.145  1.00  0.00     0.062 A 
ATOM      7  C   UNL     1       8.498   0.974  36.052  1.00  0.00     0.019 A 
ATOM      8  C   UNL     1       7.732  -0.012  35.430  1.00  0.00     0.094 A 
ATOM      9  C   UNL     1       8.261  -0.680  34.321  1.00  0.00     0.336 A 
ATOM     10  O   UNL     1       7.586  -1.574  33.745  1.00  0.00    -0.246 OA
ATOM     11  O   UNL     1       9.475  -0.379  33.869  1.00  0.00    -0.423 OA
ENDROOT
BRANCH   1  12
ATOM     12  O   UNL     1      12.697   3.502  36.182  1.00  0.00    -0.493 OA
ATOM     13  C   UNL     1      12.363   4.881  36.306  1.00  0.00     0.278 C 
ENDBRANCH   1  12
BRANCH   2  14
ATOM     14  O   UNL     1      13.601   2.113  34.007  1.00  0.00    -0.493 OA
ATOM     15  C   UNL     1      13.867   3.070  32.986  1.00  0.00     0.278 C 
ENDBRANCH   2  14
TORSDOF 2
ENDMDL
MODEL 3
REMARK VINA RESULT:    -5.480      7.038     10.535
REMARK INTER + INTRA:          -6.177
REMARK INTER:                  -6.075
REMARK INTRA:                  -0.101
REMARK UNBOUND:                -0.056
REMARK SMILES COc1cc2ccc(=O)oc2cc1OC
REMARK SMILES IDX 3 1 13 2 12 3 11 4 5 5 4 6 6 7 7 8 8 9 9 10 10 11 2 12 1 13
REMARK SMILES IDX 14 14 15 15
REMARK H PARENT
REMARK Flexibility Score: inf
ROOT
ATOM      1  C   UNL     1       2.439  -4.521  39.074  1.00  0.00     0.161 A 
ATOM      2  C   UNL     1       3.484  -4.941  38.233  1.00  0.00     0.164 A 
ATOM      3  C   UNL     1       4.234  -3.984  37.519  1.00  0.00     0.098 A 
ATOM      4  C   UNL     1       3.945  -2.623  37.641  1.00  0.00     0.142 A 
ATOM      5  C   UNL     1       2.896  -2.202  38.484  1.00  0.00     0.022 A 
ATOM      6  C   UNL     1       2.148  -3.147  39.196  1.00  0.00     0.062 A 
ATOM      7  C   UNL     1       2.632  -0.832  38.584  1.00  0.00     0.019 A 
ATOM      8  C   UNL     1       3.405   0.071  37.855  1.00  0.00     0.094 A 
ATOM      9  C   UNL     1       4.429  -0.421  37.039  1.00  0.00     0.336 A 
ATOM     10  O   UNL     1       5.139   0.377  36.372  1.00  0.00    -0.246 OA
ATOM     11  O   UNL     1       4.659  -1.729  36.962  1.00  0.00    -0.423 OA
ENDROOT
BRANCH   1  12
ATOM     12  O   UNL     1       1.713  -5.500  39.771  1.00  0.00    -0.493 OA
ATOM     13  C   UNL     1       0.520  -5.251  40.505  1.00  0.00     0.278 C 
ENDBRANCH   1  12
BRANCH   2  14
ATOM     14  O   UNL     1       3.747  -6.316  38.135  1.00  0.00    -0.493 OA
ATOM     15  C   UNL     1       4.618  -6.905  37.174  1.00  0.00     0.278 C 
ENDBRANCH   2  14
TORSDOF 2
ENDMDL
MODEL 4
REMARK VINA RESULT:    -5.296      6.552     10.362
REMARK INTER + INTRA:          -5.971
REMARK INTER:                  -5.859
REMARK INTRA:                  -0.112
REMARK UNBOUND:                -0.056
REMARK SMILES COc1cc2ccc(=O)oc2cc1OC
REMARK SMILES IDX 3 1 13 2 12 3 11 4 5 5 4 6 6 7 7 8 8 9 9 10 10 11 2 12 1 13
REMARK SMILES IDX 14 14 15 15
REMARK H PARENT
REMARK Flexibility Score: inf
ROOT
ATOM      1  C   UNL     1       2.501  -4.479  38.971  1.00  0.00     0.161 A 
ATOM      2  C   UNL     1       1.832  -3.288  39.300  1.00  0.00     0.164 A 
ATOM      3  C   UNL     1       2.297  -2.060  38.788  1.00  0.00     0.098 A 
ATOM      4  C   UNL     1       3.418  -2.019  37.956  1.00  0.00     0.142 A 
ATOM      5  C   UNL     1       4.090  -3.214  37.627  1.00  0.00     0.022 A 
ATOM      6  C   UNL     1       3.633  -4.437  38.132  1.00  0.00     0.062 A 
ATOM      7  C   UNL     1       5.210  -3.139  36.792  1.00  0.00     0.019 A 
ATOM      8  C   UNL     1       5.627  -1.897  36.313  1.00  0.00     0.094 A 
ATOM      9  C   UNL     1       4.910  -0.754  36.683  1.00  0.00     0.336 A 
ATOM     10  O   UNL     1       5.270   0.376  36.262  1.00  0.00    -0.246 OA
ATOM     11  O   UNL     1       3.849  -0.854  37.479  1.00  0.00    -0.423 OA
ENDROOT
BRANCH   1  12
ATOM     12  O   UNL     1       2.011  -5.685  39.498  1.00  0.00    -0.493 OA
ATOM     13  C   UNL     1       2.094  -6.946  38.843  1.00  0.00     0.278 C 
ENDBRANCH   1  12
BRANCH   2  14
ATOM     14  O   UNL     1       0.708  -3.367  40.138  1.00  0.00    -0.493 OA
ATOM     15  C   UNL     1       0.484  -2.531  41.269  1.00  0.00     0.278 C 
ENDBRANCH   2  14
TORSDOF 2
ENDMDL
MODEL 5
REMARK VINA RESULT:    -5.271      4.749      8.858
REMARK INTER + INTRA:          -5.943
REMARK INTER:                  -5.809
REMARK INTRA:                  -0.134
REMARK UNBOUND:                -0.056
REMARK SMILES COc1cc2ccc(=O)oc2cc1OC
REMARK SMILES IDX 3 1 13 2 12 3 11 4 5 5 4 6 6 7 7 8 8 9 9 10 10 11 2 12 1 13
REMARK SMILES IDX 14 14 15 15
REMARK H PARENT
REMARK Flexibility Score: inf
ROOT
ATOM      1  C   UNL     1       4.020  -4.063  37.026  1.00  0.00     0.161 A 
ATOM      2  C   UNL     1       5.156  -4.603  36.398  1.00  0.00     0.164 A 
ATOM      3  C   UNL     1       6.168  -3.743  35.924  1.00  0.00     0.098 A 
ATOM      4  C   UNL     1       6.049  -2.359  36.075  1.00  0.00     0.142 A 
ATOM      5  C   UNL     1       4.909  -1.818  36.703  1.00  0.00     0.022 A 
ATOM      6  C   UNL     1       3.901  -2.666  37.177  1.00  0.00     0.062 A 
ATOM      7  C   UNL     1       4.820  -0.429  36.839  1.00  0.00     0.019 A 
ATOM      8  C   UNL     1       5.850   0.375  36.352  1.00  0.00     0.094 A 
ATOM      9  C   UNL     1       6.951  -0.233  35.739  1.00  0.00     0.336 A 
ATOM     10  O   UNL     1       7.892   0.474  35.292  1.00  0.00    -0.246 OA
ATOM     11  O   UNL     1       7.010  -1.557  35.624  1.00  0.00    -0.423 OA
ENDROOT
BRANCH   1  12
ATOM     12  O   UNL     1       3.032  -4.949  37.486  1.00  0.00    -0.493 OA
ATOM     13  C   UNL     1       2.652  -5.097  38.850  1.00  0.00     0.278 C 
ENDBRANCH   1  12
BRANCH   2  14
ATOM     14  O   UNL     1       5.243  -5.997  36.265  1.00  0.00    -0.493 OA
ATOM     15  C   UNL     1       5.045  -6.706  35.045  1.00  0.00     0.278 C 
ENDBRANCH   2  14
TORSDOF 2
ENDMDL
MODEL 6
REMARK VINA RESULT:    -5.215      7.704     10.765
REMARK INTER + INTRA:          -5.880
REMARK INTER:                  -5.763
REMARK INTRA:                  -0.117
REMARK UNBOUND:                -0.056
REMARK SMILES COc1cc2ccc(=O)oc2cc1OC
REMARK SMILES IDX 3 1 13 2 12 3 11 4 5 5 4 6 6 7 7 8 8 9 9 10 10 11 2 12 1 13
REMARK SMILES IDX 14 14 15 15
REMARK H PARENT
REMARK Flexibility Score: inf
ROOT
ATOM      1  C   UNL     1       2.592  -3.565  39.232  1.00  0.00     0.161 A 
ATOM      2  C   UNL     1       2.490  -4.955  39.052  1.00  0.00     0.164 A 
ATOM      3  C   UNL     1       3.310  -5.599  38.103  1.00  0.00     0.098 A 
ATOM      4  C   UNL     1       4.222  -4.864  37.341  1.00  0.00     0.142 A 
ATOM      5  C   UNL     1       4.323  -3.470  37.521  1.00  0.00     0.022 A 
ATOM      6  C   UNL     1       3.512  -2.824  38.462  1.00  0.00     0.062 A 
ATOM      7  C   UNL     1       5.246  -2.763  36.743  1.00  0.00     0.019 A 
ATOM      8  C   UNL     1       6.032  -3.451  35.819  1.00  0.00     0.094 A 
ATOM      9  C   UNL     1       5.876  -4.835  35.695  1.00  0.00     0.336 A 
ATOM     10  O   UNL     1       6.576  -5.475  34.866  1.00  0.00    -0.246 OA
ATOM     11  O   UNL     1       4.991  -5.483  36.448  1.00  0.00    -0.423 OA
ENDROOT
BRANCH   1  12
ATOM     12  O   UNL     1       1.760  -2.956  40.186  1.00  0.00    -0.493 OA
ATOM     13  C   UNL     1       2.220  -2.116  41.239  1.00  0.00     0.278 C 
ENDBRANCH   1  12
BRANCH   2  14
ATOM     14  O   UNL     1       1.564  -5.661  39.835  1.00  0.00    -0.493 OA
ATOM     15  C   UNL     1       0.767  -6.744  39.363  1.00  0.00     0.278 C 
ENDBRANCH   2  14
TORSDOF 2
ENDMDL
MODEL 7
REMARK VINA RESULT:    -5.212      2.078      2.529
REMARK INTER + INTRA:          -5.878
REMARK INTER:                  -5.742
REMARK INTRA:                  -0.136
REMARK UNBOUND:                -0.056
REMARK SMILES COc1cc2ccc(=O)oc2cc1OC
REMARK SMILES IDX 3 1 13 2 12 3 11 4 5 5 4 6 6 7 7 8 8 9 9 10 10 11 2 12 1 13
REMARK SMILES IDX 14 14 15 15
REMARK H PARENT
REMARK Flexibility Score: inf
ROOT
ATOM      1  C   UNL     1      12.288   3.273  33.920  1.00  0.00     0.161 A 
ATOM      2  C   UNL     1      11.212   3.574  33.069  1.00  0.00     0.164 A 
ATOM      3  C   UNL     1       9.929   3.064  33.355  1.00  0.00     0.098 A 
ATOM      4  C   UNL     1       9.722   2.261  34.480  1.00  0.00     0.142 A 
ATOM      5  C   UNL     1      10.801   1.959  35.333  1.00  0.00     0.022 A 
ATOM      6  C   UNL     1      12.077   2.463  35.055  1.00  0.00     0.062 A 
ATOM      7  C   UNL     1      10.561   1.152  36.451  1.00  0.00     0.019 A 
ATOM      8  C   UNL     1       9.273   0.674  36.687  1.00  0.00     0.094 A 
ATOM      9  C   UNL     1       8.250   1.016  35.795  1.00  0.00     0.336 A 
ATOM     10  O   UNL     1       7.080   0.594  35.990  1.00  0.00    -0.246 OA
ATOM     11  O   UNL     1       8.507   1.785  34.740  1.00  0.00    -0.423 OA
ENDROOT
BRANCH   1  12
ATOM     12  O   UNL     1      13.552   3.799  33.605  1.00  0.00    -0.493 OA
ATOM     13  C   UNL     1      14.622   3.046  33.046  1.00  0.00     0.278 C 
ENDBRANCH   1  12
BRANCH   2  14
ATOM     14  O   UNL     1      11.456   4.384  31.949  1.00  0.00    -0.493 OA
ATOM     15  C   UNL     1      11.170   5.779  31.882  1.00  0.00     0.278 C 
ENDBRANCH   2  14
TORSDOF 2
ENDMDL
MODEL 8
REMARK VINA RESULT:    -5.140      5.988      8.777
REMARK INTER + INTRA:          -5.797
REMARK INTER:                  -5.676
REMARK INTRA:                  -0.120
REMARK UNBOUND:                -0.056
REMARK SMILES COc1cc2ccc(=O)oc2cc1OC
REMARK SMILES IDX 3 1 13 2 12 3 11 4 5 5 4 6 6 7 7 8 8 9 9 10 10 11 2 12 1 13
REMARK SMILES IDX 14 14 15 15
REMARK H PARENT
REMARK Flexibility Score: inf
ROOT
ATOM      1  C   UNL     1       3.835  -2.455  37.664  1.00  0.00     0.161 A 
ATOM      2  C   UNL     1       4.767  -1.869  36.790  1.00  0.00     0.164 A 
ATOM      3  C   UNL     1       5.628  -2.690  36.033  1.00  0.00     0.098 A 
ATOM      4  C   UNL     1       5.560  -4.080  36.146  1.00  0.00     0.142 A 
ATOM      5  C   UNL     1       4.626  -4.668  37.022  1.00  0.00     0.022 A 
ATOM      6  C   UNL     1       3.768  -3.859  37.776  1.00  0.00     0.062 A 
ATOM      7  C   UNL     1       4.583  -6.063  37.112  1.00  0.00     0.019 A 
ATOM      8  C   UNL     1       5.458  -6.827  36.340  1.00  0.00     0.094 A 
ATOM      9  C   UNL     1       6.358  -6.174  35.492  1.00  0.00     0.336 A 
ATOM     10  O   UNL     1       7.157  -6.845  34.787  1.00  0.00    -0.246 OA
ATOM     11  O   UNL     1       6.378  -4.845  35.426  1.00  0.00    -0.423 OA
ENDROOT
BRANCH   1  12
ATOM     12  O   UNL     1       2.993  -1.608  38.402  1.00  0.00    -0.493 OA
ATOM     13  C   UNL     1       1.594  -1.465  38.179  1.00  0.00     0.278 C 
ENDBRANCH   1  12
BRANCH   2  14
ATOM     14  O   UNL     1       4.807  -0.469  36.702  1.00  0.00    -0.493 OA
ATOM     15  C   UNL     1       5.955   0.284  36.319  1.00  0.00     0.278 C 
ENDBRANCH   2  14
TORSDOF 2
ENDMDL
MODEL 9
REMARK VINA RESULT:    -5.074      8.028      9.876
REMARK INTER + INTRA:          -5.723
REMARK INTER:                  -5.619
REMARK INTRA:                  -0.104
REMARK UNBOUND:                -0.056
REMARK SMILES COc1cc2ccc(=O)oc2cc1OC
REMARK SMILES IDX 3 1 13 2 12 3 11 4 5 5 4 6 6 7 7 8 8 9 9 10 10 11 2 12 1 13
REMARK SMILES IDX 14 14 15 15
REMARK H PARENT
REMARK Flexibility Score: inf
ROOT
ATOM      1  C   UNL     1       3.413  -2.530  38.141  1.00  0.00     0.161 A 
ATOM      2  C   UNL     1       2.996  -3.745  38.712  1.00  0.00     0.164 A 
ATOM      3  C   UNL     1       3.514  -4.962  38.223  1.00  0.00     0.098 A 
ATOM      4  C   UNL     1       4.438  -4.968  37.176  1.00  0.00     0.142 A 
ATOM      5  C   UNL     1       4.856  -3.749  36.603  1.00  0.00     0.022 A 
ATOM      6  C   UNL     1       4.346  -2.538  37.084  1.00  0.00     0.062 A 
ATOM      7  C   UNL     1       5.783  -3.789  35.556  1.00  0.00     0.019 A 
ATOM      8  C   UNL     1       6.263  -5.021  35.112  1.00  0.00     0.094 A 
ATOM      9  C   UNL     1       5.802  -6.189  35.729  1.00  0.00     0.336 A 
ATOM     10  O   UNL     1       6.222  -7.311  35.342  1.00  0.00    -0.246 OA
ATOM     11  O   UNL     1       4.920  -6.122  36.723  1.00  0.00    -0.423 OA
ENDROOT
BRANCH   1  12
ATOM     12  O   UNL     1       2.877  -1.337  38.653  1.00  0.00    -0.493 OA
ATOM     13  C   UNL     1       3.205  -0.036  38.178  1.00  0.00     0.278 C 
ENDBRANCH   1  12
BRANCH   2  14
ATOM     14  O   UNL     1       2.066  -3.702  39.763  1.00  0.00    -0.493 OA
ATOM     15  C   UNL     1       1.082  -4.701  40.013  1.00  0.00     0.278 C 
ENDBRANCH   2  14
TORSDOF 2
ENDMDL
