MODEL 1
REMARK VINA RESULT:    -6.001      0.000      0.000
REMARK INTER + INTRA:          -6.791
REMARK INTER:                  -6.527
REMARK INTRA:                  -0.264
REMARK UNBOUND:                -0.264
REMARK SMILES CC1=C[C@H]2[C@@H](CC1)[C@@](C)(O)CC[C@H]2C(C)C
REMARK SMILES IDX 1 1 2 2 3 3 4 4 13 5 12 6 11 7 8 8 5 9 6 10 7 11 9 12 14 13
REMARK SMILES IDX 15 14 16 15 10 16
REMARK H PARENT 10 17
REMARK Flexibility Score: inf
ROOT
ATOM      1  C   UNL     1      -4.386  18.672  48.516  1.00  0.00     0.039 C 
ATOM      2  C   UNL     1      -3.476  19.866  48.413  1.00  0.00    -0.077 C 
ATOM      3  C   UNL     1      -3.908  21.057  48.879  1.00  0.00    -0.024 C 
ATOM      4  C   UNL     1      -3.027  22.294  48.885  1.00  0.00     0.021 C 
ATOM      5  C   UNL     1      -3.819  23.640  48.956  1.00  0.00    -0.001 C 
ATOM      6  C   UNL     1      -4.517  23.908  47.603  1.00  0.00     0.007 C 
ATOM      7  C   UNL     1      -3.502  23.943  46.455  1.00  0.00     0.035 C 
ATOM      8  C   UNL     1      -2.732  22.607  46.320  1.00  0.00     0.065 C 
ATOM      9  C   UNL     1      -2.039  22.281  47.690  1.00  0.00     0.028 C 
ATOM     10  C   UNL     1      -1.254  20.950  47.725  1.00  0.00     0.011 C 
ATOM     11  C   UNL     1      -2.160  19.709  47.674  1.00  0.00     0.031 C 
ATOM     12  C   UNL     1      -1.678  22.754  45.200  1.00  0.00     0.042 C 
ENDROOT
BRANCH   5  13
ATOM     13  C   UNL     1      -4.816  23.749  50.162  1.00  0.00    -0.014 C 
ATOM     14  C   UNL     1      -5.919  24.793  49.895  1.00  0.00     0.007 C 
ATOM     15  C   UNL     1      -4.105  24.117  51.478  1.00  0.00     0.007 C 
ENDBRANCH   5  13
BRANCH   8  16
ATOM     16  O   UNL     1      -3.635  21.582  45.973  1.00  0.00    -0.390 OA
ATOM     17  H   UNL     1      -4.082  21.835  45.123  1.00  0.00     0.211 HD
ENDBRANCH   8  16
TORSDOF 2
ENDMDL
MODEL 2
REMARK VINA RESULT:    -5.972      1.810      4.836
REMARK INTER + INTRA:          -6.760
REMARK INTER:                  -6.540
REMARK INTRA:                  -0.220
REMARK UNBOUND:                -0.264
REMARK SMILES CC1=C[C@H]2[C@@H](CC1)[C@@](C)(O)CC[C@H]2C(C)C
REMARK SMILES IDX 1 1 2 2 3 3 4 4 13 5 12 6 11 7 8 8 5 9 6 10 7 11 9 12 14 13
REMARK SMILES IDX 15 14 16 15 10 16
REMARK H PARENT 10 17
REMARK Flexibility Score: inf
ROOT
ATOM      1  C   UNL     1      -3.422  25.243  52.183  1.00  0.00     0.039 C 
ATOM      2  C   UNL     1      -4.369  24.919  51.060  1.00  0.00    -0.077 C 
ATOM      3  C   UNL     1      -4.179  23.784  50.354  1.00  0.00    -0.024 C 
ATOM      4  C   UNL     1      -5.131  23.342  49.255  1.00  0.00     0.021 C 
ATOM      5  C   UNL     1      -4.503  22.340  48.233  1.00  0.00    -0.001 C 
ATOM      6  C   UNL     1      -3.495  23.081  47.326  1.00  0.00     0.007 C 
ATOM      7  C   UNL     1      -4.166  24.248  46.592  1.00  0.00     0.035 C 
ATOM      8  C   UNL     1      -4.756  25.288  47.572  1.00  0.00     0.065 C 
ATOM      9  C   UNL     1      -5.760  24.564  48.537  1.00  0.00     0.028 C 
ATOM     10  C   UNL     1      -6.411  25.472  49.606  1.00  0.00     0.011 C 
ATOM     11  C   UNL     1      -5.423  25.945  50.684  1.00  0.00     0.031 C 
ATOM     12  C   UNL     1      -5.482  26.382  46.756  1.00  0.00     0.042 C 
ENDROOT
BRANCH   5  13
ATOM     13  C   UNL     1      -3.876  21.054  48.878  1.00  0.00    -0.014 C 
ATOM     14  C   UNL     1      -2.336  21.117  48.887  1.00  0.00     0.007 C 
ATOM     15  C   UNL     1      -4.308  19.766  48.153  1.00  0.00     0.007 C 
ENDBRANCH   5  13
BRANCH   8  16
ATOM     16  O   UNL     1      -3.710  25.880  48.309  1.00  0.00    -0.390 OA
ATOM     17  H   UNL     1      -3.640  26.834  48.040  1.00  0.00     0.211 HD
ENDBRANCH   8  16
TORSDOF 2
ENDMDL
MODEL 3
REMARK VINA RESULT:    -5.967      1.881      4.633
REMARK INTER + INTRA:          -6.754
REMARK INTER:                  -6.488
REMARK INTRA:                  -0.266
REMARK UNBOUND:                -0.264
REMARK SMILES CC1=C[C@H]2[C@@H](CC1)[C@@](C)(O)CC[C@H]2C(C)C
REMARK SMILES IDX 1 1 2 2 3 3 4 4 13 5 12 6 11 7 8 8 5 9 6 10 7 11 9 12 14 13
REMARK SMILES IDX 15 14 16 15 10 16
REMARK H PARENT 10 17
REMARK Flexibility Score: inf
ROOT
ATOM      1  C   UNL     1      -2.279  23.914  51.633  1.00  0.00     0.039 C 
ATOM      2  C   UNL     1      -3.508  23.844  50.768  1.00  0.00    -0.077 C 
ATOM      3  C   UNL     1      -3.512  23.008  49.708  1.00  0.00    -0.024 C 
ATOM      4  C   UNL     1      -4.736  22.819  48.829  1.00  0.00     0.021 C 
ATOM      5  C   UNL     1      -4.417  22.254  47.407  1.00  0.00    -0.001 C 
ATOM      6  C   UNL     1      -3.734  23.345  46.551  1.00  0.00     0.007 C 
ATOM      7  C   UNL     1      -4.614  24.597  46.448  1.00  0.00     0.035 C 
ATOM      8  C   UNL     1      -4.910  25.215  47.835  1.00  0.00     0.065 C 
ATOM      9  C   UNL     1      -5.571  24.122  48.746  1.00  0.00     0.028 C 
ATOM     10  C   UNL     1      -5.897  24.582  50.186  1.00  0.00     0.011 C 
ATOM     11  C   UNL     1      -4.645  24.810  51.048  1.00  0.00     0.031 C 
ATOM     12  C   UNL     1      -5.864  26.417  47.648  1.00  0.00     0.042 C 
ENDROOT
BRANCH   5  13
ATOM     13  C   UNL     1      -3.605  20.912  47.402  1.00  0.00    -0.014 C 
ATOM     14  C   UNL     1      -3.182  20.509  45.976  1.00  0.00     0.007 C 
ATOM     15  C   UNL     1      -4.397  19.746  48.024  1.00  0.00     0.007 C 
ENDBRANCH   5  13
BRANCH   8  16
ATOM     16  O   UNL     1      -3.705  25.667  48.410  1.00  0.00    -0.390 OA
ATOM     17  H   UNL     1      -3.003  24.984  48.242  1.00  0.00     0.211 HD
ENDBRANCH   8  16
TORSDOF 2
ENDMDL
MODEL 4
REMARK VINA RESULT:    -5.870      2.841      5.473
REMARK INTER + INTRA:          -6.648
REMARK INTER:                  -6.393
REMARK INTRA:                  -0.255
REMARK UNBOUND:                -0.264
REMARK SMILES CC1=C[C@H]2[C@@H](CC1)[C@@](C)(O)CC[C@H]2C(C)C
REMARK SMILES IDX 1 1 2 2 3 3 4 4 13 5 12 6 11 7 8 8 5 9 6 10 7 11 9 12 14 13
REMARK SMILES IDX 15 14 16 15 10 16
REMARK H PARENT 10 17
REMARK Flexibility Score: inf
ROOT
ATOM      1  C   UNL     1      -4.770  28.525  48.473  1.00  0.00     0.039 C 
ATOM      2  C   UNL     1      -5.139  27.227  49.137  1.00  0.00    -0.077 C 
ATOM      3  C   UNL     1      -4.375  26.775  50.154  1.00  0.00    -0.024 C 
ATOM      4  C   UNL     1      -4.718  25.516  50.930  1.00  0.00     0.021 C 
ATOM      5  C   UNL     1      -3.504  24.877  51.679  1.00  0.00    -0.001 C 
ATOM      6  C   UNL     1      -2.546  24.220  50.660  1.00  0.00     0.007 C 
ATOM      7  C   UNL     1      -3.275  23.163  49.821  1.00  0.00     0.035 C 
ATOM      8  C   UNL     1      -4.455  23.767  49.023  1.00  0.00     0.065 C 
ATOM      9  C   UNL     1      -5.432  24.480  50.024  1.00  0.00     0.028 C 
ATOM     10  C   UNL     1      -6.652  25.167  49.369  1.00  0.00     0.011 C 
ATOM     11  C   UNL     1      -6.280  26.414  48.553  1.00  0.00     0.031 C 
ATOM     12  C   UNL     1      -5.182  22.628  48.274  1.00  0.00     0.042 C 
ENDROOT
BRANCH   5  13
ATOM     13  C   UNL     1      -2.747  25.853  52.649  1.00  0.00    -0.014 C 
ATOM     14  C   UNL     1      -1.535  25.168  53.311  1.00  0.00     0.007 C 
ATOM     15  C   UNL     1      -3.663  26.402  53.758  1.00  0.00     0.007 C 
ENDBRANCH   5  13
BRANCH   8  16
ATOM     16  O   UNL     1      -3.957  24.694  48.084  1.00  0.00    -0.390 OA
ATOM     17  H   UNL     1      -4.546  24.673  47.284  1.00  0.00     0.211 HD
ENDBRANCH   8  16
TORSDOF 2
ENDMDL
MODEL 5
REMARK VINA RESULT:    -5.816      1.698      4.391
REMARK INTER + INTRA:          -6.591
REMARK INTER:                  -6.320
REMARK INTRA:                  -0.270
REMARK UNBOUND:                -0.264
REMARK SMILES CC1=C[C@H]2[C@@H](CC1)[C@@](C)(O)CC[C@H]2C(C)C
REMARK SMILES IDX 1 1 2 2 3 3 4 4 13 5 12 6 11 7 8 8 5 9 6 10 7 11 9 12 14 13
REMARK SMILES IDX 15 14 16 15 10 16
REMARK H PARENT 10 17
REMARK Flexibility Score: inf
ROOT
ATOM      1  C   UNL     1      -0.052  23.138  49.676  1.00  0.00     0.039 C 
ATOM      2  C   UNL     1      -1.543  22.995  49.811  1.00  0.00    -0.077 C 
ATOM      3  C   UNL     1      -2.159  21.972  49.181  1.00  0.00    -0.024 C 
ATOM      4  C   UNL     1      -3.648  21.708  49.326  1.00  0.00     0.021 C 
ATOM      5  C   UNL     1      -4.260  20.857  48.167  1.00  0.00    -0.001 C 
ATOM      6  C   UNL     1      -4.341  21.707  46.879  1.00  0.00     0.007 C 
ATOM      7  C   UNL     1      -5.168  22.978  47.107  1.00  0.00     0.035 C 
ATOM      8  C   UNL     1      -4.565  23.873  48.215  1.00  0.00     0.065 C 
ATOM      9  C   UNL     1      -4.432  23.030  49.532  1.00  0.00     0.028 C 
ATOM     10  C   UNL     1      -3.807  23.783  50.729  1.00  0.00     0.011 C 
ATOM     11  C   UNL     1      -2.311  24.080  50.545  1.00  0.00     0.031 C 
ATOM     12  C   UNL     1      -5.499  25.084  48.437  1.00  0.00     0.042 C 
ENDROOT
BRANCH   5  13
ATOM     13  C   UNL     1      -3.546  19.482  47.918  1.00  0.00    -0.014 C 
ATOM     14  C   UNL     1      -3.047  19.356  46.465  1.00  0.00     0.007 C 
ATOM     15  C   UNL     1      -4.462  18.282  48.224  1.00  0.00     0.007 C 
ENDBRANCH   5  13
BRANCH   8  16
ATOM     16  O   UNL     1      -3.299  24.336  47.801  1.00  0.00    -0.390 OA
ATOM     17  H   UNL     1      -3.306  25.329  47.829  1.00  0.00     0.211 HD
ENDBRANCH   8  16
TORSDOF 2
ENDMDL
MODEL 6
REMARK VINA RESULT:    -5.425      1.545      4.254
REMARK INTER + INTRA:          -6.165
REMARK INTER:                  -5.899
REMARK INTRA:                  -0.266
REMARK UNBOUND:                -0.264
REMARK SMILES CC1=C[C@H]2[C@@H](CC1)[C@@](C)(O)CC[C@H]2C(C)C
REMARK SMILES IDX 1 1 2 2 3 3 4 4 13 5 12 6 11 7 8 8 5 9 6 10 7 11 9 12 14 13
REMARK SMILES IDX 15 14 16 15 10 16
REMARK H PARENT 10 17
REMARK Flexibility Score: inf
ROOT
ATOM      1  C   UNL     1      -0.114  22.562  45.767  1.00  0.00     0.039 C 
ATOM      2  C   UNL     1      -1.032  22.638  46.956  1.00  0.00    -0.077 C 
ATOM      3  C   UNL     1      -1.668  21.518  47.361  1.00  0.00    -0.024 C 
ATOM      4  C   UNL     1      -2.551  21.487  48.596  1.00  0.00     0.021 C 
ATOM      5  C   UNL     1      -3.582  20.313  48.613  1.00  0.00    -0.001 C 
ATOM      6  C   UNL     1      -4.702  20.584  47.584  1.00  0.00     0.007 C 
ATOM      7  C   UNL     1      -5.403  21.918  47.869  1.00  0.00     0.035 C 
ATOM      8  C   UNL     1      -4.422  23.113  47.811  1.00  0.00     0.065 C 
ATOM      9  C   UNL     1      -3.247  22.855  48.818  1.00  0.00     0.028 C 
ATOM     10  C   UNL     1      -2.159  23.953  48.850  1.00  0.00     0.011 C 
ATOM     11  C   UNL     1      -1.305  23.997  47.574  1.00  0.00     0.031 C 
ATOM     12  C   UNL     1      -5.188  24.402  48.189  1.00  0.00     0.042 C 
ENDROOT
BRANCH   5  13
ATOM     13  C   UNL     1      -2.953  18.887  48.432  1.00  0.00    -0.014 C 
ATOM     14  C   UNL     1      -3.813  17.999  47.511  1.00  0.00     0.007 C 
ATOM     15  C   UNL     1      -2.762  18.156  49.774  1.00  0.00     0.007 C 
ENDBRANCH   5  13
BRANCH   8  16
ATOM     16  O   UNL     1      -3.922  23.242  46.499  1.00  0.00    -0.390 OA
ATOM     17  H   UNL     1      -3.574  22.357  46.210  1.00  0.00     0.211 HD
ENDBRANCH   8  16
TORSDOF 2
ENDMDL
MODEL 7
REMARK VINA RESULT:    -5.353      1.805      3.296
REMARK INTER + INTRA:          -6.087
REMARK INTER:                  -5.816
REMARK INTRA:                  -0.271
REMARK UNBOUND:                -0.264
REMARK SMILES CC1=C[C@H]2[C@@H](CC1)[C@@](C)(O)CC[C@H]2C(C)C
REMARK SMILES IDX 1 1 2 2 3 3 4 4 13 5 12 6 11 7 8 8 5 9 6 10 7 11 9 12 14 13
REMARK SMILES IDX 15 14 16 15 10 16
REMARK H PARENT 10 17
REMARK Flexibility Score: inf
ROOT
ATOM      1  C   UNL     1      -1.784  23.759  51.909  1.00  0.00     0.039 C 
ATOM      2  C   UNL     1      -1.937  23.549  50.427  1.00  0.00    -0.077 C 
ATOM      3  C   UNL     1      -3.010  24.076  49.801  1.00  0.00    -0.024 C 
ATOM      4  C   UNL     1      -3.203  23.978  48.298  1.00  0.00     0.021 C 
ATOM      5  C   UNL     1      -4.683  24.160  47.832  1.00  0.00    -0.001 C 
ATOM      6  C   UNL     1      -5.510  22.911  48.212  1.00  0.00     0.007 C 
ATOM      7  C   UNL     1      -4.906  21.642  47.598  1.00  0.00     0.035 C 
ATOM      8  C   UNL     1      -3.455  21.400  48.077  1.00  0.00     0.065 C 
ATOM      9  C   UNL     1      -2.592  22.667  47.741  1.00  0.00     0.028 C 
ATOM     10  C   UNL     1      -1.115  22.590  48.193  1.00  0.00     0.011 C 
ATOM     11  C   UNL     1      -0.943  22.646  49.719  1.00  0.00     0.031 C 
ATOM     12  C   UNL     1      -2.896  20.154  47.352  1.00  0.00     0.042 C 
ENDROOT
BRANCH   5  13
ATOM     13  C   UNL     1      -5.366  25.486  48.323  1.00  0.00    -0.014 C 
ATOM     14  C   UNL     1      -6.563  25.198  49.250  1.00  0.00     0.007 C 
ATOM     15  C   UNL     1      -5.853  26.361  47.153  1.00  0.00     0.007 C 
ENDBRANCH   5  13
BRANCH   8  16
ATOM     16  O   UNL     1      -3.456  21.163  49.467  1.00  0.00    -0.390 OA
ATOM     17  H   UNL     1      -3.331  20.189  49.617  1.00  0.00     0.211 HD
ENDBRANCH   8  16
TORSDOF 2
ENDMDL
MODEL 8
REMARK VINA RESULT:    -5.271      2.856      5.328
REMARK INTER + INTRA:          -5.997
REMARK INTER:                  -5.733
REMARK INTRA:                  -0.265
REMARK UNBOUND:                -0.264
REMARK SMILES CC1=C[C@H]2[C@@H](CC1)[C@@](C)(O)CC[C@H]2C(C)C
REMARK SMILES IDX 1 1 2 2 3 3 4 4 13 5 12 6 11 7 8 8 5 9 6 10 7 11 9 12 14 13
REMARK SMILES IDX 15 14 16 15 10 16
REMARK H PARENT 10 17
REMARK Flexibility Score: inf
ROOT
ATOM      1  C   UNL     1      -3.066  24.865  45.574  1.00  0.00     0.039 C 
ATOM      2  C   UNL     1      -4.105  24.721  46.652  1.00  0.00    -0.077 C 
ATOM      3  C   UNL     1      -4.852  25.794  46.986  1.00  0.00    -0.024 C 
ATOM      4  C   UNL     1      -5.973  25.717  48.007  1.00  0.00     0.021 C 
ATOM      5  C   UNL     1      -6.359  27.096  48.636  1.00  0.00    -0.001 C 
ATOM      6  C   UNL     1      -5.248  27.559  49.605  1.00  0.00     0.007 C 
ATOM      7  C   UNL     1      -5.006  26.517  50.704  1.00  0.00     0.035 C 
ATOM      8  C   UNL     1      -4.572  25.150  50.123  1.00  0.00     0.065 C 
ATOM      9  C   UNL     1      -5.660  24.665  49.102  1.00  0.00     0.028 C 
ATOM     10  C   UNL     1      -5.350  23.319  48.406  1.00  0.00     0.011 C 
ATOM     11  C   UNL     1      -4.184  23.407  47.409  1.00  0.00     0.031 C 
ATOM     12  C   UNL     1      -4.429  24.141  51.285  1.00  0.00     0.042 C 
ENDROOT
BRANCH   5  13
ATOM     13  C   UNL     1      -6.728  28.210  47.593  1.00  0.00    -0.014 C 
ATOM     14  C   UNL     1      -6.278  29.605  48.069  1.00  0.00     0.007 C 
ATOM     15  C   UNL     1      -8.239  28.259  47.299  1.00  0.00     0.007 C 
ENDBRANCH   5  13
BRANCH   8  16
ATOM     16  O   UNL     1      -3.326  25.292  49.479  1.00  0.00    -0.390 OA
ATOM     17  H   UNL     1      -2.623  25.376  50.175  1.00  0.00     0.211 HD
ENDBRANCH   8  16
TORSDOF 2
ENDMDL
MODEL 9
REMARK VINA RESULT:    -5.255      1.833      3.379
REMARK INTER + INTRA:          -5.979
REMARK INTER:                  -5.711
REMARK INTRA:                  -0.269
REMARK UNBOUND:                -0.264
REMARK SMILES CC1=C[C@H]2[C@@H](CC1)[C@@](C)(O)CC[C@H]2C(C)C
REMARK SMILES IDX 1 1 2 2 3 3 4 4 13 5 12 6 11 7 8 8 5 9 6 10 7 11 9 12 14 13
REMARK SMILES IDX 15 14 16 15 10 16
REMARK H PARENT 10 17
REMARK Flexibility Score: inf
ROOT
ATOM      1  C   UNL     1      -0.180  23.119  49.692  1.00  0.00     0.039 C 
ATOM      2  C   UNL     1      -0.963  22.575  48.528  1.00  0.00    -0.077 C 
ATOM      3  C   UNL     1      -2.110  23.189  48.171  1.00  0.00    -0.024 C 
ATOM      4  C   UNL     1      -2.922  22.754  46.963  1.00  0.00     0.021 C 
ATOM      5  C   UNL     1      -4.419  23.203  47.006  1.00  0.00    -0.001 C 
ATOM      6  C   UNL     1      -5.184  22.372  48.060  1.00  0.00     0.007 C 
ATOM      7  C   UNL     1      -5.082  20.872  47.762  1.00  0.00     0.035 C 
ATOM      8  C   UNL     1      -3.616  20.379  47.762  1.00  0.00     0.065 C 
ATOM      9  C   UNL     1      -2.796  21.227  46.727  1.00  0.00     0.028 C 
ATOM     10  C   UNL     1      -1.293  20.873  46.636  1.00  0.00     0.011 C 
ATOM     11  C   UNL     1      -0.497  21.282  47.885  1.00  0.00     0.031 C 
ATOM     12  C   UNL     1      -3.596  18.882  47.374  1.00  0.00     0.042 C 
ENDROOT
BRANCH   5  13
ATOM     13  C   UNL     1      -4.634  24.745  47.204  1.00  0.00    -0.014 C 
ATOM     14  C   UNL     1      -5.578  25.038  48.387  1.00  0.00     0.007 C 
ATOM     15  C   UNL     1      -5.204  25.423  45.945  1.00  0.00     0.007 C 
ENDBRANCH   5  13
BRANCH   8  16
ATOM     16  O   UNL     1      -3.073  20.528  49.055  1.00  0.00    -0.390 OA
ATOM     17  H   UNL     1      -3.228  19.685  49.557  1.00  0.00     0.211 HD
ENDBRANCH   8  16
TORSDOF 2
ENDMDL
