MODEL 1
REMARK VINA RESULT:    -5.443      0.000      0.000
REMARK INTER + INTRA:          -7.697
REMARK INTER:                  -7.353
REMARK INTRA:                  -0.344
REMARK UNBOUND:                -0.344
REMARK SMILES CC(=O)OCC=C(C)CCC=C(C)C
REMARK SMILES IDX 7 1 6 2 8 3 9 4 10 5 11 6 13 7 12 8 14 9 5 10 4 11 2 12 3 13
REMARK SMILES IDX 1 14
REMARK H PARENT
REMARK Flexibility Score: inf
ROOT
ATOM      1  C   UNL     1      49.663  -7.910  -2.697  1.00  0.00    -0.074 C 
ATOM      2  C   UNL     1      48.442  -7.687  -2.162  1.00  0.00     0.013 C 
ATOM      3  C   UNL     1      50.565  -9.001  -2.174  1.00  0.00     0.039 C 
ENDROOT
BRANCH   1   4
ATOM      4  C   UNL     1      50.160  -7.019  -3.817  1.00  0.00     0.034 C 
BRANCH   4   5
ATOM      5  C   UNL     1      49.036  -6.143  -4.386  1.00  0.00     0.032 C 
BRANCH   5   6
ATOM      6  C   UNL     1      48.340  -6.800  -5.554  1.00  0.00    -0.028 C 
ATOM      7  C   UNL     1      48.021  -7.545  -7.873  1.00  0.00     0.039 C 
ATOM      8  C   UNL     1      48.802  -6.797  -6.824  1.00  0.00    -0.080 C 
ATOM      9  C   UNL     1      50.058  -6.056  -7.218  1.00  0.00     0.039 C 
ENDBRANCH   5   6
ENDBRANCH   4   5
ENDBRANCH   1   4
BRANCH   2  10
ATOM     10  C   UNL     1      47.876  -8.505  -1.029  1.00  0.00     0.260 C 
BRANCH  10  11
ATOM     11  O   UNL     1      46.569  -8.049  -0.687  1.00  0.00    -0.462 OA
BRANCH  11  12
ATOM     12  C   UNL     1      46.327  -7.075   0.288  1.00  0.00     0.302 C 
ATOM     13  O   UNL     1      47.275  -6.588   0.963  1.00  0.00    -0.253 OA
ATOM     14  C   UNL     1      44.927  -6.645   0.565  1.00  0.00     0.139 C 
ENDBRANCH  11  12
ENDBRANCH  10  11
ENDBRANCH   2  10
TORSDOF 6
ENDMDL
MODEL 2
REMARK VINA RESULT:    -5.176      1.701      2.577
REMARK INTER + INTRA:          -7.337
REMARK INTER:                  -6.890
REMARK INTRA:                  -0.447
REMARK UNBOUND:                -0.344
REMARK SMILES CC(=O)OCC=C(C)CCC=C(C)C
REMARK SMILES IDX 7 1 6 2 8 3 9 4 10 5 11 6 13 7 12 8 14 9 5 10 4 11 2 12 3 13
REMARK SMILES IDX 1 14
REMARK H PARENT
REMARK Flexibility Score: inf
ROOT
ATOM      1  C   UNL     1      49.435  -7.249  -3.454  1.00  0.00    -0.074 C 
ATOM      2  C   UNL     1      48.619  -6.877  -2.443  1.00  0.00     0.013 C 
ATOM      3  C   UNL     1      50.637  -8.129  -3.212  1.00  0.00     0.039 C 
ENDROOT
BRANCH   1   4
ATOM      4  C   UNL     1      49.167  -6.738  -4.854  1.00  0.00     0.034 C 
BRANCH   4   5
ATOM      5  C   UNL     1      49.356  -5.218  -4.950  1.00  0.00     0.032 C 
BRANCH   5   6
ATOM      6  C   UNL     1      50.784  -4.806  -4.683  1.00  0.00    -0.028 C 
ATOM      7  C   UNL     1      53.111  -4.227  -5.214  1.00  0.00     0.039 C 
ATOM      8  C   UNL     1      51.744  -4.704  -5.629  1.00  0.00    -0.080 C 
ATOM      9  C   UNL     1      51.489  -5.070  -7.072  1.00  0.00     0.039 C 
ENDBRANCH   5   6
ENDBRANCH   4   5
ENDBRANCH   1   4
BRANCH   2  10
ATOM     10  C   UNL     1      48.822  -7.314  -1.014  1.00  0.00     0.260 C 
BRANCH  10  11
ATOM     11  O   UNL     1      47.784  -6.803  -0.181  1.00  0.00    -0.462 OA
BRANCH  11  12
ATOM     12  C   UNL     1      46.496  -7.349  -0.139  1.00  0.00     0.302 C 
ATOM     13  O   UNL     1      46.198  -8.357  -0.836  1.00  0.00    -0.253 OA
ATOM     14  C   UNL     1      45.450  -6.699   0.702  1.00  0.00     0.139 C 
ENDBRANCH  11  12
ENDBRANCH  10  11
ENDBRANCH   2  10
TORSDOF 6
ENDMDL
MODEL 3
REMARK VINA RESULT:    -5.160     10.997     12.285
REMARK INTER + INTRA:          -7.315
REMARK INTER:                  -6.416
REMARK INTRA:                  -0.899
REMARK UNBOUND:                -0.344
REMARK SMILES CC(=O)OCC=C(C)CCC=C(C)C
REMARK SMILES IDX 7 1 6 2 8 3 9 4 10 5 11 6 13 7 12 8 14 9 5 10 4 11 2 12 3 13
REMARK SMILES IDX 1 14
REMARK H PARENT
REMARK Flexibility Score: inf
ROOT
ATOM      1  C   UNL     1      58.817  -1.935  -2.470  1.00  0.00    -0.074 C 
ATOM      2  C   UNL     1      59.310  -2.220  -1.244  1.00  0.00     0.013 C 
ATOM      3  C   UNL     1      57.438  -2.383  -2.888  1.00  0.00     0.039 C 
ENDROOT
BRANCH   1   4
ATOM      4  C   UNL     1      59.681  -1.190  -3.465  1.00  0.00     0.034 C 
BRANCH   4   5
ATOM      5  C   UNL     1      60.298   0.073  -2.849  1.00  0.00     0.032 C 
BRANCH   5   6
ATOM      6  C   UNL     1      59.687   1.335  -3.411  1.00  0.00    -0.028 C 
ATOM      7  C   UNL     1      58.240   3.319  -3.470  1.00  0.00     0.039 C 
ATOM      8  C   UNL     1      58.710   2.048  -2.810  1.00  0.00    -0.080 C 
ATOM      9  C   UNL     1      58.070   1.600  -1.517  1.00  0.00     0.039 C 
ENDBRANCH   5   6
ENDBRANCH   4   5
ENDBRANCH   1   4
BRANCH   2  10
ATOM     10  C   UNL     1      58.533  -2.979  -0.198  1.00  0.00     0.260 C 
BRANCH  10  11
ATOM     11  O   UNL     1      57.829  -2.079   0.655  1.00  0.00    -0.462 OA
BRANCH  11  12
ATOM     12  C   UNL     1      56.433  -1.974   0.673  1.00  0.00     0.302 C 
ATOM     13  O   UNL     1      55.852  -0.992   0.136  1.00  0.00    -0.253 OA
ATOM     14  C   UNL     1      55.629  -3.011   1.379  1.00  0.00     0.139 C 
ENDBRANCH  11  12
ENDBRANCH  10  11
ENDBRANCH   2  10
TORSDOF 6
ENDMDL
MODEL 4
REMARK VINA RESULT:    -5.122      3.173      6.556
REMARK INTER + INTRA:          -7.263
REMARK INTER:                  -6.566
REMARK INTRA:                  -0.696
REMARK UNBOUND:                -0.344
REMARK SMILES CC(=O)OCC=C(C)CCC=C(C)C
REMARK SMILES IDX 7 1 6 2 8 3 9 4 10 5 11 6 13 7 12 8 14 9 5 10 4 11 2 12 3 13
REMARK SMILES IDX 1 14
REMARK H PARENT
REMARK Flexibility Score: inf
ROOT
ATOM      1  C   UNL     1      49.511  -6.513  -4.537  1.00  0.00    -0.074 C 
ATOM      2  C   UNL     1      48.673  -7.171  -5.368  1.00  0.00     0.013 C 
ATOM      3  C   UNL     1      49.649  -5.011  -4.586  1.00  0.00     0.039 C 
ENDROOT
BRANCH   1   4
ATOM      4  C   UNL     1      50.363  -7.298  -3.562  1.00  0.00     0.034 C 
BRANCH   4   5
ATOM      5  C   UNL     1      49.507  -8.164  -2.628  1.00  0.00     0.032 C 
BRANCH   5   6
ATOM      6  C   UNL     1      48.941  -7.367  -1.477  1.00  0.00    -0.028 C 
ATOM      7  C   UNL     1      47.349  -6.764   0.295  1.00  0.00     0.039 C 
ATOM      8  C   UNL     1      47.754  -7.616  -0.881  1.00  0.00    -0.080 C 
ATOM      9  C   UNL     1      46.824  -8.701  -1.369  1.00  0.00     0.039 C 
ENDBRANCH   5   6
ENDBRANCH   4   5
ENDBRANCH   1   4
BRANCH   2  10
ATOM     10  C   UNL     1      47.806  -6.477  -6.388  1.00  0.00     0.260 C 
BRANCH  10  11
ATOM     11  O   UNL     1      47.781  -7.213  -7.609  1.00  0.00    -0.462 OA
BRANCH  11  12
ATOM     12  C   UNL     1      48.881  -7.308  -8.469  1.00  0.00     0.302 C 
ATOM     13  O   UNL     1      49.230  -8.421  -8.950  1.00  0.00    -0.253 OA
ATOM     14  C   UNL     1      49.677  -6.087  -8.781  1.00  0.00     0.139 C 
ENDBRANCH  11  12
ENDBRANCH  10  11
ENDBRANCH   2  10
TORSDOF 6
ENDMDL
MODEL 5
REMARK VINA RESULT:    -5.110      3.055      6.223
REMARK INTER + INTRA:          -7.246
REMARK INTER:                  -6.719
REMARK INTRA:                  -0.528
REMARK UNBOUND:                -0.344
REMARK SMILES CC(=O)OCC=C(C)CCC=C(C)C
REMARK SMILES IDX 7 1 6 2 8 3 9 4 10 5 11 6 13 7 12 8 14 9 5 10 4 11 2 12 3 13
REMARK SMILES IDX 1 14
REMARK H PARENT
REMARK Flexibility Score: inf
ROOT
ATOM      1  C   UNL     1      49.297  -7.378  -3.178  1.00  0.00    -0.074 C 
ATOM      2  C   UNL     1      48.789  -6.881  -4.328  1.00  0.00     0.013 C 
ATOM      3  C   UNL     1      50.538  -8.237  -3.173  1.00  0.00     0.039 C 
ENDROOT
BRANCH   1   4
ATOM      4  C   UNL     1      48.584  -7.108  -1.870  1.00  0.00     0.034 C 
BRANCH   4   5
ATOM      5  C   UNL     1      47.887  -8.365  -1.332  1.00  0.00     0.032 C 
BRANCH   5   6
ATOM      6  C   UNL     1      46.402  -8.158  -1.155  1.00  0.00    -0.028 C 
ATOM      7  C   UNL     1      44.343  -7.270  -0.153  1.00  0.00     0.039 C 
ATOM      8  C   UNL     1      45.841  -7.428  -0.166  1.00  0.00    -0.080 C 
ATOM      9  C   UNL     1      46.667  -6.788   0.925  1.00  0.00     0.039 C 
ENDBRANCH   5   6
ENDBRANCH   4   5
ENDBRANCH   1   4
BRANCH   2  10
ATOM     10  C   UNL     1      49.416  -7.119  -5.679  1.00  0.00     0.260 C 
BRANCH  10  11
ATOM     11  O   UNL     1      50.067  -5.939  -6.144  1.00  0.00    -0.462 OA
BRANCH  11  12
ATOM     12  C   UNL     1      51.287  -5.484  -5.632  1.00  0.00     0.302 C 
ATOM     13  O   UNL     1      52.315  -6.213  -5.668  1.00  0.00    -0.253 OA
ATOM     14  C   UNL     1      51.358  -4.140  -4.991  1.00  0.00     0.139 C 
ENDBRANCH  11  12
ENDBRANCH  10  11
ENDBRANCH   2  10
TORSDOF 6
ENDMDL
MODEL 6
REMARK VINA RESULT:    -4.892      1.428      2.881
REMARK INTER + INTRA:          -6.952
REMARK INTER:                  -6.291
REMARK INTRA:                  -0.660
REMARK UNBOUND:                -0.344
REMARK SMILES CC(=O)OCC=C(C)CCC=C(C)C
REMARK SMILES IDX 7 1 6 2 8 3 9 4 10 5 11 6 13 7 12 8 14 9 5 10 4 11 2 12 3 13
REMARK SMILES IDX 1 14
REMARK H PARENT
REMARK Flexibility Score: inf
ROOT
ATOM      1  C   UNL     1      48.728  -6.271  -4.968  1.00  0.00    -0.074 C 
ATOM      2  C   UNL     1      48.463  -7.250  -4.075  1.00  0.00     0.013 C 
ATOM      3  C   UNL     1      49.608  -5.098  -4.611  1.00  0.00     0.039 C 
ENDROOT
BRANCH   1   4
ATOM      4  C   UNL     1      48.094  -6.324  -6.342  1.00  0.00     0.034 C 
BRANCH   4   5
ATOM      5  C   UNL     1      48.991  -7.048  -7.354  1.00  0.00     0.032 C 
BRANCH   5   6
ATOM      6  C   UNL     1      49.764  -6.083  -8.221  1.00  0.00    -0.028 C 
ATOM      7  C   UNL     1      51.732  -4.904  -9.100  1.00  0.00     0.039 C 
ATOM      8  C   UNL     1      51.094  -5.861  -8.126  1.00  0.00    -0.080 C 
ATOM      9  C   UNL     1      51.944  -6.525  -7.069  1.00  0.00     0.039 C 
ENDBRANCH   5   6
ENDBRANCH   4   5
ENDBRANCH   1   4
BRANCH   2  10
ATOM     10  C   UNL     1      49.027  -7.268  -2.677  1.00  0.00     0.260 C 
BRANCH  10  11
ATOM     11  O   UNL     1      48.056  -7.753  -1.752  1.00  0.00    -0.462 OA
BRANCH  11  12
ATOM     12  C   UNL     1      47.790  -7.133  -0.526  1.00  0.00     0.302 C 
ATOM     13  O   UNL     1      48.715  -6.596   0.142  1.00  0.00    -0.253 OA
ATOM     14  C   UNL     1      46.402  -7.151   0.019  1.00  0.00     0.139 C 
ENDBRANCH  11  12
ENDBRANCH  10  11
ENDBRANCH   2  10
TORSDOF 6
ENDMDL
MODEL 7
REMARK VINA RESULT:    -4.882      2.921      5.978
REMARK INTER + INTRA:          -6.939
REMARK INTER:                  -6.324
REMARK INTRA:                  -0.615
REMARK UNBOUND:                -0.344
REMARK SMILES CC(=O)OCC=C(C)CCC=C(C)C
REMARK SMILES IDX 7 1 6 2 8 3 9 4 10 5 11 6 13 7 12 8 14 9 5 10 4 11 2 12 3 13
REMARK SMILES IDX 1 14
REMARK H PARENT
REMARK Flexibility Score: inf
ROOT
ATOM      1  C   UNL     1      50.569  -7.326  -3.931  1.00  0.00    -0.074 C 
ATOM      2  C   UNL     1      49.320  -6.929  -4.262  1.00  0.00     0.013 C 
ATOM      3  C   UNL     1      51.783  -6.536  -4.354  1.00  0.00     0.039 C 
ENDROOT
BRANCH   1   4
ATOM      4  C   UNL     1      50.761  -8.612  -3.156  1.00  0.00     0.034 C 
BRANCH   4   5
ATOM      5  C   UNL     1      50.288  -8.477  -1.702  1.00  0.00     0.032 C 
BRANCH   5   6
ATOM      6  C   UNL     1      48.825  -8.815  -1.548  1.00  0.00    -0.028 C 
ATOM      7  C   UNL     1      46.466  -8.454  -0.965  1.00  0.00     0.039 C 
ATOM      8  C   UNL     1      47.901  -7.995  -1.000  1.00  0.00    -0.080 C 
ATOM      9  C   UNL     1      48.269  -6.654  -0.411  1.00  0.00     0.039 C 
ENDBRANCH   5   6
ENDBRANCH   4   5
ENDBRANCH   1   4
BRANCH   2  10
ATOM     10  C   UNL     1      49.033  -5.678  -5.053  1.00  0.00     0.260 C 
BRANCH  10  11
ATOM     11  O   UNL     1      48.327  -5.994  -6.251  1.00  0.00    -0.462 OA
BRANCH  11  12
ATOM     12  C   UNL     1      48.956  -6.456  -7.413  1.00  0.00     0.302 C 
ATOM     13  O   UNL     1      50.088  -6.016  -7.752  1.00  0.00    -0.253 OA
ATOM     14  C   UNL     1      48.256  -7.442  -8.284  1.00  0.00     0.139 C 
ENDBRANCH  11  12
ENDBRANCH  10  11
ENDBRANCH   2  10
TORSDOF 6
ENDMDL
MODEL 8
REMARK VINA RESULT:    -4.870      3.734      6.706
REMARK INTER + INTRA:          -6.923
REMARK INTER:                  -6.496
REMARK INTRA:                  -0.426
REMARK UNBOUND:                -0.344
REMARK SMILES CC(=O)OCC=C(C)CCC=C(C)C
REMARK SMILES IDX 7 1 6 2 8 3 9 4 10 5 11 6 13 7 12 8 14 9 5 10 4 11 2 12 3 13
REMARK SMILES IDX 1 14
REMARK H PARENT
REMARK Flexibility Score: inf
ROOT
ATOM      1  C   UNL     1      49.803  -7.017  -4.603  1.00  0.00    -0.074 C 
ATOM      2  C   UNL     1      49.685  -6.430  -5.814  1.00  0.00     0.013 C 
ATOM      3  C   UNL     1      50.820  -8.103  -4.350  1.00  0.00     0.039 C 
ENDROOT
BRANCH   1   4
ATOM      4  C   UNL     1      48.866  -6.612  -3.484  1.00  0.00     0.034 C 
BRANCH   4   5
ATOM      5  C   UNL     1      49.088  -7.456  -2.222  1.00  0.00     0.032 C 
BRANCH   5   6
ATOM      6  C   UNL     1      48.296  -6.938  -1.046  1.00  0.00    -0.028 C 
ATOM      7  C   UNL     1      46.500  -6.888   0.630  1.00  0.00     0.039 C 
ATOM      8  C   UNL     1      47.148  -7.487  -0.591  1.00  0.00    -0.080 C 
ATOM      9  C   UNL     1      46.494  -8.663  -1.280  1.00  0.00     0.039 C 
ENDBRANCH   5   6
ENDBRANCH   4   5
ENDBRANCH   1   4
BRANCH   2  10
ATOM     10  C   UNL     1      50.555  -6.787  -6.993  1.00  0.00     0.260 C 
BRANCH  10  11
ATOM     11  O   UNL     1      51.846  -6.196  -6.860  1.00  0.00    -0.462 OA
BRANCH  11  12
ATOM     12  C   UNL     1      52.048  -4.817  -6.727  1.00  0.00     0.302 C 
ATOM     13  O   UNL     1      52.059  -4.065  -7.739  1.00  0.00    -0.253 OA
ATOM     14  C   UNL     1      52.302  -4.240  -5.376  1.00  0.00     0.139 C 
ENDBRANCH  11  12
ENDBRANCH  10  11
ENDBRANCH   2  10
TORSDOF 6
ENDMDL
MODEL 9
REMARK VINA RESULT:    -4.861     12.089     13.828
REMARK INTER + INTRA:          -6.911
REMARK INTER:                  -6.048
REMARK INTRA:                  -0.863
REMARK UNBOUND:                -0.344
REMARK SMILES CC(=O)OCC=C(C)CCC=C(C)C
REMARK SMILES IDX 7 1 6 2 8 3 9 4 10 5 11 6 13 7 12 8 14 9 5 10 4 11 2 12 3 13
REMARK SMILES IDX 1 14
REMARK H PARENT
REMARK Flexibility Score: inf
ROOT
ATOM      1  C   UNL     1      60.102  -0.934  -1.941  1.00  0.00    -0.074 C 
ATOM      2  C   UNL     1      60.628   0.251  -2.320  1.00  0.00     0.013 C 
ATOM      3  C   UNL     1      59.290  -1.776  -2.894  1.00  0.00     0.039 C 
ENDROOT
BRANCH   1   4
ATOM      4  C   UNL     1      60.292  -1.412  -0.516  1.00  0.00     0.034 C 
BRANCH   4   5
ATOM      5  C   UNL     1      59.294  -0.751   0.443  1.00  0.00     0.032 C 
BRANCH   5   6
ATOM      6  C   UNL     1      58.299  -1.742   0.998  1.00  0.00    -0.028 C 
ATOM      7  C   UNL     1      56.145  -2.898   1.235  1.00  0.00     0.039 C 
ATOM      8  C   UNL     1      57.001  -1.817   0.629  1.00  0.00    -0.080 C 
ATOM      9  C   UNL     1      56.390  -0.844  -0.352  1.00  0.00     0.039 C 
ENDBRANCH   5   6
ENDBRANCH   4   5
ENDBRANCH   1   4
BRANCH   2  10
ATOM     10  C   UNL     1      60.469   0.819  -3.708  1.00  0.00     0.260 C 
BRANCH  10  11
ATOM     11  O   UNL     1      59.174   1.394  -3.868  1.00  0.00    -0.462 OA
BRANCH  11  12
ATOM     12  C   UNL     1      58.696   2.440  -3.071  1.00  0.00     0.302 C 
ATOM     13  O   UNL     1      59.063   3.629  -3.277  1.00  0.00    -0.253 OA
ATOM     14  C   UNL     1      57.780   2.137  -1.934  1.00  0.00     0.139 C 
ENDBRANCH  11  12
ENDBRANCH  10  11
ENDBRANCH   2  10
TORSDOF 6
ENDMDL
