MODEL 1
REMARK VINA RESULT:    -5.830      0.000      0.000
REMARK INTER + INTRA:          -5.517
REMARK INTER:                  -6.341
REMARK INTRA:                   0.825
REMARK UNBOUND:                 0.825
REMARK SMILES C=C(C)[C@@H]1CC[C@]2(C)CC[C@@]3(C)[C@H](CC[C@@H]4[C@@]5(C)CC[C@H](O)C(C)(C)[C@@H]5CC[C@]43C)[C@H]12
REMARK SMILES IDX 4 1 5 2 6 3 7 4 31 5 13 6 14 7 15 8 16 9 17 10 19 11 20 12
REMARK SMILES IDX 21 13 23 14 26 15 27 16 28 17 29 18 11 19 10 20 9 21 12 22
REMARK SMILES IDX 30 23 24 24 25 25 18 26 8 27 2 28 3 29 1 30 22 31
REMARK H PARENT 22 32
REMARK Flexibility Score: inf
ROOT
ATOM      1  C   UNL     1      10.772  30.735  38.995  1.00  0.00     0.018 C 
ATOM      2  C   UNL     1      11.157  29.551  39.903  1.00  0.00     0.009 C 
ATOM      3  C   UNL     1      11.183  28.300  39.010  1.00  0.00     0.008 C 
ATOM      4  C   UNL     1      10.740  28.743  37.600  1.00  0.00    -0.029 C 
ATOM      5  C   UNL     1      11.092  30.259  37.553  1.00  0.00     0.006 C 
ATOM      6  C   UNL     1      12.540  30.594  37.014  1.00  0.00    -0.000 C 
ATOM      7  C   UNL     1      13.677  30.381  38.050  1.00  0.00     0.005 C 
ATOM      8  C   UNL     1      15.033  30.845  37.530  1.00  0.00     0.005 C 
ATOM      9  C   UNL     1      15.426  30.071  36.251  1.00  0.00     0.002 C 
ATOM     10  C   UNL     1      16.966  30.195  35.840  1.00  0.00    -0.026 C 
ATOM     11  C   UNL     1      17.851  29.631  37.002  1.00  0.00     0.010 C 
ATOM     12  C   UNL     1      19.326  29.413  36.625  1.00  0.00     0.033 C 
ATOM     13  C   UNL     1      19.488  28.503  35.406  1.00  0.00     0.120 C 
ATOM     14  C   UNL     1      18.693  29.007  34.159  1.00  0.00    -0.006 C 
ATOM     15  C   UNL     1      17.191  29.261  34.587  1.00  0.00     0.003 C 
ATOM     16  C   UNL     1      16.226  29.624  33.433  1.00  0.00     0.005 C 
ATOM     17  C   UNL     1      14.765  29.429  33.869  1.00  0.00     0.008 C 
ATOM     18  C   UNL     1      14.342  30.288  35.109  1.00  0.00    -0.024 C 
ATOM     19  C   UNL     1      12.861  29.867  35.653  1.00  0.00    -0.024 C 
ATOM     20  C   UNL     1      12.730  28.326  35.916  1.00  0.00     0.008 C 
ATOM     21  C   UNL     1      11.370  27.875  36.469  1.00  0.00     0.007 C 
ATOM     22  C   UNL     1      11.775  30.267  34.599  1.00  0.00     0.012 C 
ATOM     23  C   UNL     1      14.309  31.780  34.631  1.00  0.00     0.012 C 
ATOM     24  C   UNL     1      18.752  27.876  33.093  1.00  0.00     0.014 C 
ATOM     25  C   UNL     1      19.371  30.254  33.532  1.00  0.00     0.014 C 
ATOM     26  C   UNL     1      17.382  31.683  35.591  1.00  0.00     0.012 C 
ATOM     27  C   UNL     1       9.197  28.552  37.497  1.00  0.00     0.011 C 
ENDROOT
BRANCH   1  28
ATOM     28  C   UNL     1      11.271  32.118  39.415  1.00  0.00    -0.077 C 
ATOM     29  C   UNL     1      10.802  32.752  40.706  1.00  0.00     0.039 C 
ATOM     30  C   UNL     1      11.989  32.856  38.551  1.00  0.00     0.008 C 
ENDBRANCH   1  28
BRANCH  13  31
ATOM     31  O   UNL     1      20.861  28.394  35.114  1.00  0.00    -0.393 OA
ATOM     32  H   UNL     1      21.195  27.563  35.542  1.00  0.00     0.210 HD
ENDBRANCH  13  31
TORSDOF 2
ENDMDL
MODEL 2
REMARK VINA RESULT:    -3.366      3.090      7.839
REMARK INTER + INTRA:          -2.837
REMARK INTER:                  -2.670
REMARK INTRA:                  -0.167
REMARK UNBOUND:                 0.825
REMARK SMILES C=C(C)[C@@H]1CC[C@]2(C)CC[C@@]3(C)[C@H](CC[C@@H]4[C@@]5(C)CC[C@H](O)C(C)(C)[C@@H]5CC[C@]43C)[C@H]12
REMARK SMILES IDX 4 1 5 2 6 3 7 4 31 5 13 6 14 7 15 8 16 9 17 10 19 11 20 12
REMARK SMILES IDX 21 13 23 14 26 15 27 16 28 17 29 18 11 19 10 20 9 21 12 22
REMARK SMILES IDX 30 23 24 24 25 25 18 26 8 27 2 28 3 29 1 30 22 31
REMARK H PARENT 22 32
REMARK Flexibility Score: inf
ROOT
ATOM      1  C   UNL     1      16.914  29.937  35.734  1.00  0.00     0.018 C 
ATOM      2  C   UNL     1      16.935  31.456  35.481  1.00  0.00     0.009 C 
ATOM      3  C   UNL     1      15.761  31.763  34.538  1.00  0.00     0.008 C 
ATOM      4  C   UNL     1      15.104  30.413  34.182  1.00  0.00    -0.029 C 
ATOM      5  C   UNL     1      15.471  29.487  35.378  1.00  0.00     0.006 C 
ATOM      6  C   UNL     1      14.430  29.484  36.568  1.00  0.00    -0.000 C 
ATOM      7  C   UNL     1      14.528  30.711  37.513  1.00  0.00     0.005 C 
ATOM      8  C   UNL     1      13.599  30.596  38.716  1.00  0.00     0.005 C 
ATOM      9  C   UNL     1      12.125  30.480  38.266  1.00  0.00     0.002 C 
ATOM     10  C   UNL     1      11.049  30.734  39.421  1.00  0.00    -0.026 C 
ATOM     11  C   UNL     1      11.239  32.183  39.984  1.00  0.00     0.010 C 
ATOM     12  C   UNL     1      10.091  32.667  40.884  1.00  0.00     0.033 C 
ATOM     13  C   UNL     1       8.731  32.591  40.187  1.00  0.00     0.120 C 
ATOM     14  C   UNL     1       8.406  31.165  39.637  1.00  0.00    -0.006 C 
ATOM     15  C   UNL     1       9.623  30.678  38.749  1.00  0.00     0.003 C 
ATOM     16  C   UNL     1       9.402  29.341  38.002  1.00  0.00     0.005 C 
ATOM     17  C   UNL     1      10.428  29.180  36.869  1.00  0.00     0.008 C 
ATOM     18  C   UNL     1      11.921  29.203  37.342  1.00  0.00    -0.024 C 
ATOM     19  C   UNL     1      12.951  29.256  36.075  1.00  0.00    -0.024 C 
ATOM     20  C   UNL     1      12.618  30.419  35.075  1.00  0.00     0.008 C 
ATOM     21  C   UNL     1      13.579  30.544  33.883  1.00  0.00     0.007 C 
ATOM     22  C   UNL     1      12.885  27.908  35.281  1.00  0.00     0.012 C 
ATOM     23  C   UNL     1      12.159  27.877  38.141  1.00  0.00     0.012 C 
ATOM     24  C   UNL     1       7.131  31.296  38.757  1.00  0.00     0.014 C 
ATOM     25  C   UNL     1       8.060  30.188  40.791  1.00  0.00     0.014 C 
ATOM     26  C   UNL     1      11.221  29.727  40.605  1.00  0.00     0.012 C 
ATOM     27  C   UNL     1      15.766  29.884  32.876  1.00  0.00     0.011 C 
ENDROOT
BRANCH   1  28
ATOM     28  C   UNL     1      17.506  29.448  37.057  1.00  0.00    -0.077 C 
ATOM     29  C   UNL     1      18.591  30.235  37.758  1.00  0.00     0.039 C 
ATOM     30  C   UNL     1      17.192  28.223  37.513  1.00  0.00     0.008 C 
ENDBRANCH   1  28
BRANCH  13  31
ATOM     31  O   UNL     1       7.742  33.014  41.096  1.00  0.00    -0.393 OA
ATOM     32  H   UNL     1       6.909  32.517  40.889  1.00  0.00     0.210 HD
ENDBRANCH  13  31
TORSDOF 2
ENDMDL
