MODEL 1
REMARK VINA RESULT:    -4.111      0.000      0.000
REMARK INTER + INTRA:          -5.498
REMARK INTER:                  -5.313
REMARK INTRA:                  -0.186
REMARK UNBOUND:                -0.186
REMARK SMILES CCCCCCC(=O)[O-]
REMARK SMILES IDX 5 1 6 2 7 3 8 4 9 5 4 6 3 7 2 8 1 9
REMARK H PARENT
REMARK Flexibility Score: inf
ROOT
ATOM      1  C   UNL     1       2.943 -37.575  18.298  1.00  0.00     0.006 C 
ENDROOT
BRANCH   1   2
ATOM      2  C   UNL     1       3.330 -36.980  19.658  1.00  0.00     0.053 C 
BRANCH   2   3
ATOM      3  C   UNL     1       4.806 -37.061  19.900  1.00  0.00     0.041 C 
ATOM      4  O   UNL     1       5.377 -38.181  19.968  1.00  0.00    -0.550 OA
ATOM      5  O   UNL     1       5.556 -35.897  20.017  1.00  0.00    -0.550 OA
ENDBRANCH   2   3
ENDBRANCH   1   2
BRANCH   1   6
ATOM      6  C   UNL     1       3.313 -36.648  17.131  1.00  0.00     0.000 C 
BRANCH   6   7
ATOM      7  C   UNL     1       2.202 -36.631  16.071  1.00  0.00    -0.000 C 
BRANCH   7   8
ATOM      8  C   UNL     1       2.749 -36.758  14.641  1.00  0.00    -0.003 C 
ATOM      9  C   UNL     1       3.815 -37.846  14.509  1.00  0.00     0.004 C 
ENDBRANCH   7   8
ENDBRANCH   6   7
ENDBRANCH   1   6
TORSDOF 5
ENDMDL
MODEL 2
REMARK VINA RESULT:    -4.017      1.072      1.697
REMARK INTER + INTRA:          -5.377
REMARK INTER:                  -5.212
REMARK INTRA:                  -0.164
REMARK UNBOUND:                -0.186
REMARK SMILES CCCCCCC(=O)[O-]
REMARK SMILES IDX 5 1 6 2 7 3 8 4 9 5 4 6 3 7 2 8 1 9
REMARK H PARENT
REMARK Flexibility Score: inf
ROOT
ATOM      1  C   UNL     1       3.120 -37.310  19.647  1.00  0.00     0.006 C 
ENDROOT
BRANCH   1   2
ATOM      2  C   UNL     1       4.643 -37.422  19.507  1.00  0.00     0.053 C 
BRANCH   2   3
ATOM      3  C   UNL     1       5.345 -36.252  20.126  1.00  0.00     0.041 C 
ATOM      4  O   UNL     1       5.720 -35.287  19.411  1.00  0.00    -0.550 OA
ATOM      5  O   UNL     1       5.556 -36.215  21.499  1.00  0.00    -0.550 OA
ENDBRANCH   2   3
ENDBRANCH   1   2
BRANCH   1   6
ATOM      6  C   UNL     1       2.395 -37.549  18.314  1.00  0.00     0.000 C 
BRANCH   6   7
ATOM      7  C   UNL     1       3.142 -36.873  17.156  1.00  0.00    -0.000 C 
BRANCH   7   8
ATOM      8  C   UNL     1       2.200 -36.420  16.029  1.00  0.00    -0.003 C 
ATOM      9  C   UNL     1       2.769 -36.693  14.637  1.00  0.00     0.004 C 
ENDBRANCH   7   8
ENDBRANCH   6   7
ENDBRANCH   1   6
TORSDOF 5
ENDMDL
MODEL 3
REMARK VINA RESULT:    -3.889      2.882      5.151
REMARK INTER + INTRA:          -5.211
REMARK INTER:                  -5.102
REMARK INTRA:                  -0.109
REMARK UNBOUND:                -0.186
REMARK SMILES CCCCCCC(=O)[O-]
REMARK SMILES IDX 5 1 6 2 7 3 8 4 9 5 4 6 3 7 2 8 1 9
REMARK H PARENT
REMARK Flexibility Score: inf
ROOT
ATOM      1  C   UNL     1       3.063 -37.438  18.490  1.00  0.00     0.006 C 
ENDROOT
BRANCH   1   2
ATOM      2  C   UNL     1       3.439 -36.575  17.279  1.00  0.00     0.053 C 
BRANCH   2   3
ATOM      3  C   UNL     1       2.843 -37.107  16.012  1.00  0.00     0.041 C 
ATOM      4  O   UNL     1       1.679 -36.773  15.669  1.00  0.00    -0.550 OA
ATOM      5  O   UNL     1       3.588 -37.946  15.192  1.00  0.00    -0.550 OA
ENDBRANCH   2   3
ENDBRANCH   1   2
BRANCH   1   6
ATOM      6  C   UNL     1       4.188 -37.495  19.535  1.00  0.00     0.000 C 
BRANCH   6   7
ATOM      7  C   UNL     1       4.294 -36.166  20.298  1.00  0.00    -0.000 C 
BRANCH   7   8
ATOM      8  C   UNL     1       5.692 -35.936  20.892  1.00  0.00    -0.003 C 
ATOM      9  C   UNL     1       5.661 -35.694  22.401  1.00  0.00     0.004 C 
ENDBRANCH   7   8
ENDBRANCH   6   7
ENDBRANCH   1   6
TORSDOF 5
ENDMDL
MODEL 4
REMARK VINA RESULT:    -3.800      2.952      4.721
REMARK INTER + INTRA:          -5.096
REMARK INTER:                  -4.846
REMARK INTRA:                  -0.251
REMARK UNBOUND:                -0.186
REMARK SMILES CCCCCCC(=O)[O-]
REMARK SMILES IDX 5 1 6 2 7 3 8 4 9 5 4 6 3 7 2 8 1 9
REMARK H PARENT
REMARK Flexibility Score: inf
ROOT
ATOM      1  C   UNL     1       2.283 -37.529  18.261  1.00  0.00     0.006 C 
ENDROOT
BRANCH   1   2
ATOM      2  C   UNL     1       3.201 -37.058  17.125  1.00  0.00     0.053 C 
BRANCH   2   3
ATOM      3  C   UNL     1       2.419 -36.588  15.938  1.00  0.00     0.041 C 
ATOM      4  O   UNL     1       1.319 -35.998  16.096  1.00  0.00    -0.550 OA
ATOM      5  O   UNL     1       2.924 -36.772  14.656  1.00  0.00    -0.550 OA
ENDBRANCH   2   3
ENDBRANCH   1   2
BRANCH   1   6
ATOM      6  C   UNL     1       2.949 -37.398  19.639  1.00  0.00     0.000 C 
BRANCH   6   7
ATOM      7  C   UNL     1       4.473 -37.547  19.527  1.00  0.00    -0.000 C 
BRANCH   7   8
ATOM      8  C   UNL     1       5.231 -36.512  20.373  1.00  0.00    -0.003 C 
ATOM      9  C   UNL     1       5.738 -35.330  19.548  1.00  0.00     0.004 C 
ENDBRANCH   7   8
ENDBRANCH   6   7
ENDBRANCH   1   6
TORSDOF 5
ENDMDL
MODEL 5
REMARK VINA RESULT:    -3.707      1.540      2.173
REMARK INTER + INTRA:          -4.976
REMARK INTER:                  -4.711
REMARK INTRA:                  -0.266
REMARK UNBOUND:                -0.186
REMARK SMILES CCCCCCC(=O)[O-]
REMARK SMILES IDX 5 1 6 2 7 3 8 4 9 5 4 6 3 7 2 8 1 9
REMARK H PARENT
REMARK Flexibility Score: inf
ROOT
ATOM      1  C   UNL     1       3.168 -36.384  16.994  1.00  0.00     0.006 C 
ENDROOT
BRANCH   1   2
ATOM      2  C   UNL     1       3.669 -37.382  18.046  1.00  0.00     0.053 C 
BRANCH   2   3
ATOM      3  C   UNL     1       2.946 -37.226  19.349  1.00  0.00     0.041 C 
ATOM      4  O   UNL     1       3.440 -36.522  20.268  1.00  0.00    -0.550 OA
ATOM      5  O   UNL     1       1.710 -37.833  19.534  1.00  0.00    -0.550 OA
ENDBRANCH   2   3
ENDBRANCH   1   2
BRANCH   1   6
ATOM      6  C   UNL     1       2.105 -36.997  16.071  1.00  0.00     0.000 C 
BRANCH   6   7
ATOM      7  C   UNL     1       2.446 -36.737  14.596  1.00  0.00    -0.000 C 
BRANCH   7   8
ATOM      8  C   UNL     1       3.898 -37.106  14.252  1.00  0.00    -0.003 C 
ATOM      9  C   UNL     1       4.139 -38.615  14.246  1.00  0.00     0.004 C 
ENDBRANCH   7   8
ENDBRANCH   6   7
ENDBRANCH   1   6
TORSDOF 5
ENDMDL
MODEL 6
REMARK VINA RESULT:    -3.666      2.785      5.578
REMARK INTER + INTRA:          -4.922
REMARK INTER:                  -4.806
REMARK INTRA:                  -0.116
REMARK UNBOUND:                -0.186
REMARK SMILES CCCCCCC(=O)[O-]
REMARK SMILES IDX 5 1 6 2 7 3 8 4 9 5 4 6 3 7 2 8 1 9
REMARK H PARENT
REMARK Flexibility Score: inf
ROOT
ATOM      1  C   UNL     1       4.641 -35.859  19.200  1.00  0.00     0.006 C 
ENDROOT
BRANCH   1   2
ATOM      2  C   UNL     1       4.130 -37.305  19.204  1.00  0.00     0.053 C 
BRANCH   2   3
ATOM      3  C   UNL     1       2.995 -37.497  18.246  1.00  0.00     0.041 C 
ATOM      4  O   UNL     1       3.180 -37.359  17.009  1.00  0.00    -0.550 OA
ATOM      5  O   UNL     1       1.740 -37.860  18.719  1.00  0.00    -0.550 OA
ENDBRANCH   2   3
ENDBRANCH   1   2
BRANCH   1   6
ATOM      6  C   UNL     1       5.794 -35.647  20.192  1.00  0.00     0.000 C 
BRANCH   6   7
ATOM      7  C   UNL     1       5.496 -36.333  21.533  1.00  0.00    -0.000 C 
BRANCH   7   8
ATOM      8  C   UNL     1       5.748 -35.412  22.736  1.00  0.00    -0.003 C 
ATOM      9  C   UNL     1       6.125 -36.182  24.002  1.00  0.00     0.004 C 
ENDBRANCH   7   8
ENDBRANCH   6   7
ENDBRANCH   1   6
TORSDOF 5
ENDMDL
MODEL 7
REMARK VINA RESULT:    -3.655      2.415      3.393
REMARK INTER + INTRA:          -4.909
REMARK INTER:                  -4.813
REMARK INTRA:                  -0.096
REMARK UNBOUND:                -0.186
REMARK SMILES CCCCCCC(=O)[O-]
REMARK SMILES IDX 5 1 6 2 7 3 8 4 9 5 4 6 3 7 2 8 1 9
REMARK H PARENT
REMARK Flexibility Score: inf
ROOT
ATOM      1  C   UNL     1       4.380 -35.928  20.971  1.00  0.00     0.006 C 
ENDROOT
BRANCH   1   2
ATOM      2  C   UNL     1       5.814 -35.722  21.477  1.00  0.00     0.053 C 
BRANCH   2   3
ATOM      3  C   UNL     1       5.875 -35.680  22.973  1.00  0.00     0.041 C 
ATOM      4  O   UNL     1       6.074 -36.736  23.629  1.00  0.00    -0.550 OA
ATOM      5  O   UNL     1       5.746 -34.469  23.641  1.00  0.00    -0.550 OA
ENDBRANCH   2   3
ENDBRANCH   1   2
BRANCH   1   6
ATOM      6  C   UNL     1       4.312 -36.022  19.440  1.00  0.00     0.000 C 
BRANCH   6   7
ATOM      7  C   UNL     1       3.877 -37.426  18.996  1.00  0.00    -0.000 C 
BRANCH   7   8
ATOM      8  C   UNL     1       2.758 -37.392  17.944  1.00  0.00    -0.003 C 
ATOM      9  C   UNL     1       3.131 -36.571  16.709  1.00  0.00     0.004 C 
ENDBRANCH   7   8
ENDBRANCH   6   7
ENDBRANCH   1   6
TORSDOF 5
ENDMDL
MODEL 8
REMARK VINA RESULT:    -3.173      3.132      4.610
REMARK INTER + INTRA:          -4.286
REMARK INTER:                  -4.006
REMARK INTRA:                  -0.280
REMARK UNBOUND:                -0.186
REMARK SMILES CCCCCCC(=O)[O-]
REMARK SMILES IDX 5 1 6 2 7 3 8 4 9 5 4 6 3 7 2 8 1 9
REMARK H PARENT
REMARK Flexibility Score: inf
ROOT
ATOM      1  C   UNL     1       3.957 -36.226  17.535  1.00  0.00     0.006 C 
ENDROOT
BRANCH   1   2
ATOM      2  C   UNL     1       3.244 -37.299  16.701  1.00  0.00     0.053 C 
BRANCH   2   3
ATOM      3  C   UNL     1       2.370 -36.693  15.646  1.00  0.00     0.041 C 
ATOM      4  O   UNL     1       1.293 -36.124  15.965  1.00  0.00    -0.550 OA
ATOM      5  O   UNL     1       2.763 -36.728  14.314  1.00  0.00    -0.550 OA
ENDBRANCH   2   3
ENDBRANCH   1   2
BRANCH   1   6
ATOM      6  C   UNL     1       3.878 -36.512  19.042  1.00  0.00     0.000 C 
BRANCH   6   7
ATOM      7  C   UNL     1       3.062 -37.785  19.315  1.00  0.00    -0.000 C 
BRANCH   7   8
ATOM      8  C   UNL     1       1.681 -37.482  19.918  1.00  0.00    -0.003 C 
ATOM      9  C   UNL     1       0.532 -37.867  18.986  1.00  0.00     0.004 C 
ENDBRANCH   7   8
ENDBRANCH   6   7
ENDBRANCH   1   6
TORSDOF 5
ENDMDL
MODEL 9
REMARK VINA RESULT:    -3.081      1.813      2.864
REMARK INTER + INTRA:          -4.167
REMARK INTER:                  -3.904
REMARK INTRA:                  -0.263
REMARK UNBOUND:                -0.186
REMARK SMILES CCCCCCC(=O)[O-]
REMARK SMILES IDX 5 1 6 2 7 3 8 4 9 5 4 6 3 7 2 8 1 9
REMARK H PARENT
REMARK Flexibility Score: inf
ROOT
ATOM      1  C   UNL     1       4.150 -36.761  18.279  1.00  0.00     0.006 C 
ENDROOT
BRANCH   1   2
ATOM      2  C   UNL     1       4.572 -35.539  19.106  1.00  0.00     0.053 C 
BRANCH   2   3
ATOM      3  C   UNL     1       4.484 -35.807  20.577  1.00  0.00     0.041 C 
ATOM      4  O   UNL     1       3.458 -35.469  21.223  1.00  0.00    -0.550 OA
ATOM      5  O   UNL     1       5.524 -36.460  21.228  1.00  0.00    -0.550 OA
ENDBRANCH   2   3
ENDBRANCH   1   2
BRANCH   1   6
ATOM      6  C   UNL     1       3.274 -36.375  17.077  1.00  0.00     0.000 C 
BRANCH   6   7
ATOM      7  C   UNL     1       1.911 -37.078  17.146  1.00  0.00    -0.000 C 
BRANCH   7   8
ATOM      8  C   UNL     1       1.761 -37.954  18.400  1.00  0.00    -0.003 C 
ATOM      9  C   UNL     1       0.539 -37.581  19.240  1.00  0.00     0.004 C 
ENDBRANCH   7   8
ENDBRANCH   6   7
ENDBRANCH   1   6
TORSDOF 5
ENDMDL
