MODEL 1
REMARK VINA RESULT:    -4.063      0.000      0.000
REMARK INTER + INTRA:          -5.760
REMARK INTER:                  -5.607
REMARK INTRA:                  -0.153
REMARK UNBOUND:                -0.153
REMARK SMILES CCCCCCCCO
REMARK SMILES IDX 5 1 4 2 3 3 2 4 1 5 6 6 7 7 8 8 9 9
REMARK H PARENT 9 10
REMARK Flexibility Score: inf
ROOT
ATOM      1  C   UNL     1       2.651  -3.198 -22.544  1.00  0.00     0.000 C 
ENDROOT
BRANCH   1   2
ATOM      2  C   UNL     1       3.664  -4.076 -21.793  1.00  0.00    -0.000 C 
BRANCH   2   3
ATOM      3  C   UNL     1       4.376  -5.080 -22.716  1.00  0.00    -0.000 C 
BRANCH   3   4
ATOM      4  C   UNL     1       3.660  -6.437 -22.773  1.00  0.00    -0.003 C 
ATOM      5  C   UNL     1       3.914  -7.185 -24.082  1.00  0.00     0.004 C 
ENDBRANCH   3   4
ENDBRANCH   2   3
ENDBRANCH   1   2
BRANCH   1   6
ATOM      6  C   UNL     1       2.328  -1.896 -21.797  1.00  0.00     0.002 C 
BRANCH   6   7
ATOM      7  C   UNL     1       2.183  -0.722 -22.776  1.00  0.00     0.028 C 
BRANCH   7   8
ATOM      8  C   UNL     1       0.870   0.038 -22.560  1.00  0.00     0.156 C 
BRANCH   8   9
ATOM      9  O   UNL     1      -0.043  -0.734 -21.827  1.00  0.00    -0.396 OA
ATOM     10  H   UNL     1      -0.919  -0.270 -21.886  1.00  0.00     0.210 HD
ENDBRANCH   8   9
ENDBRANCH   7   8
ENDBRANCH   6   7
ENDBRANCH   1   6
TORSDOF 7
ENDMDL
MODEL 2
REMARK VINA RESULT:    -4.016      2.591      5.435
REMARK INTER + INTRA:          -5.695
REMARK INTER:                  -5.521
REMARK INTRA:                  -0.175
REMARK UNBOUND:                -0.153
REMARK SMILES CCCCCCCCO
REMARK SMILES IDX 5 1 4 2 3 3 2 4 1 5 6 6 7 7 8 8 9 9
REMARK H PARENT 9 10
REMARK Flexibility Score: inf
ROOT
ATOM      1  C   UNL     1       3.617  -3.129 -21.803  1.00  0.00     0.000 C 
ENDROOT
BRANCH   1   2
ATOM      2  C   UNL     1       2.350  -2.640 -22.523  1.00  0.00    -0.000 C 
BRANCH   2   3
ATOM      3  C   UNL     1       1.588  -1.572 -21.719  1.00  0.00    -0.000 C 
BRANCH   3   4
ATOM      4  C   UNL     1       2.017  -0.144 -22.083  1.00  0.00    -0.003 C 
ATOM      5  C   UNL     1       2.542  -0.032 -23.514  1.00  0.00     0.004 C 
ENDBRANCH   3   4
ENDBRANCH   2   3
ENDBRANCH   1   2
BRANCH   1   6
ATOM      6  C   UNL     1       3.817  -4.647 -21.926  1.00  0.00     0.002 C 
BRANCH   6   7
ATOM      7  C   UNL     1       4.292  -5.026 -23.336  1.00  0.00     0.028 C 
BRANCH   7   8
ATOM      8  C   UNL     1       4.195  -6.535 -23.582  1.00  0.00     0.156 C 
BRANCH   8   9
ATOM      9  O   UNL     1       3.500  -7.169 -22.542  1.00  0.00    -0.396 OA
ATOM     10  H   UNL     1       3.648  -6.622 -21.726  1.00  0.00     0.210 HD
ENDBRANCH   8   9
ENDBRANCH   7   8
ENDBRANCH   6   7
ENDBRANCH   1   6
TORSDOF 7
ENDMDL
MODEL 3
REMARK VINA RESULT:    -3.905      2.742      5.499
REMARK INTER + INTRA:          -5.542
REMARK INTER:                  -5.337
REMARK INTRA:                  -0.205
REMARK UNBOUND:                -0.153
REMARK SMILES CCCCCCCCO
REMARK SMILES IDX 5 1 4 2 3 3 2 4 1 5 6 6 7 7 8 8 9 9
REMARK H PARENT 9 10
REMARK Flexibility Score: inf
ROOT
ATOM      1  C   UNL     1       1.836  -2.145 -21.733  1.00  0.00     0.000 C 
ENDROOT
BRANCH   1   2
ATOM      2  C   UNL     1       1.415  -0.835 -22.418  1.00  0.00    -0.000 C 
BRANCH   2   3
ATOM      3  C   UNL     1       2.611   0.082 -22.726  1.00  0.00    -0.000 C 
BRANCH   3   4
ATOM      4  C   UNL     1       2.789   0.331 -24.232  1.00  0.00    -0.003 C 
ATOM      5  C   UNL     1       4.009   1.195 -24.547  1.00  0.00     0.004 C 
ENDBRANCH   3   4
ENDBRANCH   2   3
ENDBRANCH   1   2
BRANCH   1   6
ATOM      6  C   UNL     1       2.743  -3.011 -22.619  1.00  0.00     0.002 C 
BRANCH   6   7
ATOM      7  C   UNL     1       3.604  -3.955 -21.767  1.00  0.00     0.028 C 
BRANCH   7   8
ATOM      8  C   UNL     1       4.095  -5.161 -22.575  1.00  0.00     0.156 C 
BRANCH   8   9
ATOM      9  O   UNL     1       4.824  -6.044 -21.765  1.00  0.00    -0.396 OA
ATOM     10  H   UNL     1       5.744  -5.674 -21.697  1.00  0.00     0.210 HD
ENDBRANCH   8   9
ENDBRANCH   7   8
ENDBRANCH   6   7
ENDBRANCH   1   6
TORSDOF 7
ENDMDL
MODEL 4
REMARK VINA RESULT:    -3.681     10.557     12.754
REMARK INTER + INTRA:          -5.232
REMARK INTER:                  -4.768
REMARK INTRA:                  -0.464
REMARK UNBOUND:                -0.153
REMARK SMILES CCCCCCCCO
REMARK SMILES IDX 5 1 4 2 3 3 2 4 1 5 6 6 7 7 8 8 9 9
REMARK H PARENT 9 10
REMARK Flexibility Score: inf
ROOT
ATOM      1  C   UNL     1      -7.580   2.427 -23.247  1.00  0.00     0.000 C 
ENDROOT
BRANCH   1   2
ATOM      2  C   UNL     1      -7.795   3.944 -23.364  1.00  0.00    -0.000 C 
BRANCH   2   3
ATOM      3  C   UNL     1      -8.975   4.443 -22.513  1.00  0.00    -0.000 C 
BRANCH   3   4
ATOM      4  C   UNL     1      -8.648   5.738 -21.755  1.00  0.00    -0.003 C 
ATOM      5  C   UNL     1      -7.264   6.289 -22.098  1.00  0.00     0.004 C 
ENDBRANCH   3   4
ENDBRANCH   2   3
ENDBRANCH   1   2
BRANCH   1   6
ATOM      6  C   UNL     1      -6.602   2.053 -22.124  1.00  0.00     0.002 C 
BRANCH   6   7
ATOM      7  C   UNL     1      -5.417   3.029 -22.081  1.00  0.00     0.028 C 
BRANCH   7   8
ATOM      8  C   UNL     1      -5.063   3.430 -20.645  1.00  0.00     0.156 C 
BRANCH   8   9
ATOM      9  O   UNL     1      -3.721   3.143 -20.360  1.00  0.00    -0.396 OA
ATOM     10  H   UNL     1      -3.670   2.962 -19.384  1.00  0.00     0.210 HD
ENDBRANCH   8   9
ENDBRANCH   7   8
ENDBRANCH   6   7
ENDBRANCH   1   6
TORSDOF 7
ENDMDL
MODEL 5
REMARK VINA RESULT:    -3.679      9.522     10.292
REMARK INTER + INTRA:          -5.230
REMARK INTER:                  -5.038
REMARK INTRA:                  -0.192
REMARK UNBOUND:                -0.153
REMARK SMILES CCCCCCCCO
REMARK SMILES IDX 5 1 4 2 3 3 2 4 1 5 6 6 7 7 8 8 9 9
REMARK H PARENT 9 10
REMARK Flexibility Score: inf
ROOT
ATOM      1  C   UNL     1      -3.510   3.707 -23.160  1.00  0.00     0.000 C 
ENDROOT
BRANCH   1   2
ATOM      2  C   UNL     1      -4.983   4.125 -23.031  1.00  0.00    -0.000 C 
BRANCH   2   3
ATOM      3  C   UNL     1      -5.812   3.125 -22.208  1.00  0.00    -0.000 C 
BRANCH   3   4
ATOM      4  C   UNL     1      -4.934   2.163 -21.394  1.00  0.00    -0.003 C 
ATOM      5  C   UNL     1      -4.896   2.512 -19.907  1.00  0.00     0.004 C 
ENDBRANCH   3   4
ENDBRANCH   2   3
ENDBRANCH   1   2
BRANCH   1   6
ATOM      6  C   UNL     1      -2.729   4.587 -24.146  1.00  0.00     0.002 C 
BRANCH   6   7
ATOM      7  C   UNL     1      -1.254   4.698 -23.734  1.00  0.00     0.028 C 
BRANCH   7   8
ATOM      8  C   UNL     1      -0.722   6.125 -23.904  1.00  0.00     0.156 C 
BRANCH   8   9
ATOM      9  O   UNL     1      -0.551   6.748 -22.658  1.00  0.00    -0.396 OA
ATOM     10  H   UNL     1       0.427   6.874 -22.536  1.00  0.00     0.210 HD
ENDBRANCH   8   9
ENDBRANCH   7   8
ENDBRANCH   6   7
ENDBRANCH   1   6
TORSDOF 7
ENDMDL
MODEL 6
REMARK VINA RESULT:    -3.585      9.342     10.381
REMARK INTER + INTRA:          -5.100
REMARK INTER:                  -4.846
REMARK INTRA:                  -0.254
REMARK UNBOUND:                -0.153
REMARK SMILES CCCCCCCCO
REMARK SMILES IDX 5 1 4 2 3 3 2 4 1 5 6 6 7 7 8 8 9 9
REMARK H PARENT 9 10
REMARK Flexibility Score: inf
ROOT
ATOM      1  C   UNL     1      -4.078   4.144 -23.496  1.00  0.00     0.000 C 
ENDROOT
BRANCH   1   2
ATOM      2  C   UNL     1      -3.830   3.359 -22.198  1.00  0.00    -0.000 C 
BRANCH   2   3
ATOM      3  C   UNL     1      -5.068   2.570 -21.737  1.00  0.00    -0.000 C 
BRANCH   3   4
ATOM      4  C   UNL     1      -6.381   3.204 -22.219  1.00  0.00    -0.003 C 
ATOM      5  C   UNL     1      -7.302   2.199 -22.910  1.00  0.00     0.004 C 
ENDBRANCH   3   4
ENDBRANCH   2   3
ENDBRANCH   1   2
BRANCH   1   6
ATOM      6  C   UNL     1      -2.830   4.223 -24.387  1.00  0.00     0.002 C 
BRANCH   6   7
ATOM      7  C   UNL     1      -1.557   4.349 -23.538  1.00  0.00     0.028 C 
BRANCH   7   8
ATOM      8  C   UNL     1      -0.772   5.621 -23.877  1.00  0.00     0.156 C 
BRANCH   8   9
ATOM      9  O   UNL     1      -0.725   6.490 -22.777  1.00  0.00    -0.396 OA
ATOM     10  H   UNL     1       0.230   6.566 -22.515  1.00  0.00     0.210 HD
ENDBRANCH   8   9
ENDBRANCH   7   8
ENDBRANCH   6   7
ENDBRANCH   1   6
TORSDOF 7
ENDMDL
MODEL 7
REMARK VINA RESULT:    -3.542      3.027      5.222
REMARK INTER + INTRA:          -5.041
REMARK INTER:                  -4.873
REMARK INTRA:                  -0.167
REMARK UNBOUND:                -0.153
REMARK SMILES CCCCCCCCO
REMARK SMILES IDX 5 1 4 2 3 3 2 4 1 5 6 6 7 7 8 8 9 9
REMARK H PARENT 9 10
REMARK Flexibility Score: inf
ROOT
ATOM      1  C   UNL     1      -0.480   0.730 -22.819  1.00  0.00     0.000 C 
ENDROOT
BRANCH   1   2
ATOM      2  C   UNL     1       0.982   0.484 -23.226  1.00  0.00    -0.000 C 
BRANCH   2   3
ATOM      3  C   UNL     1       1.817  -0.132 -22.091  1.00  0.00    -0.000 C 
BRANCH   3   4
ATOM      4  C   UNL     1       1.425  -1.588 -21.797  1.00  0.00    -0.003 C 
ATOM      5  C   UNL     1       2.496  -2.587 -22.232  1.00  0.00     0.004 C 
ENDBRANCH   3   4
ENDBRANCH   2   3
ENDBRANCH   1   2
BRANCH   1   6
ATOM      6  C   UNL     1      -1.271   1.497 -23.888  1.00  0.00     0.002 C 
BRANCH   6   7
ATOM      7  C   UNL     1      -1.298   3.000 -23.578  1.00  0.00     0.028 C 
BRANCH   7   8
ATOM      8  C   UNL     1      -2.660   3.444 -23.033  1.00  0.00     0.156 C 
BRANCH   8   9
ATOM      9  O   UNL     1      -2.750   3.207 -21.653  1.00  0.00    -0.396 OA
ATOM     10  H   UNL     1      -2.828   2.223 -21.539  1.00  0.00     0.210 HD
ENDBRANCH   8   9
ENDBRANCH   7   8
ENDBRANCH   6   7
ENDBRANCH   1   6
TORSDOF 7
ENDMDL
MODEL 8
REMARK VINA RESULT:    -3.470      2.793      6.797
REMARK INTER + INTRA:          -4.942
REMARK INTER:                  -4.750
REMARK INTRA:                  -0.192
REMARK UNBOUND:                -0.153
REMARK SMILES CCCCCCCCO
REMARK SMILES IDX 5 1 4 2 3 3 2 4 1 5 6 6 7 7 8 8 9 9
REMARK H PARENT 9 10
REMARK Flexibility Score: inf
ROOT
ATOM      1  C   UNL     1       1.172   0.450 -22.994  1.00  0.00     0.000 C 
ENDROOT
BRANCH   1   2
ATOM      2  C   UNL     1      -0.350   0.321 -22.827  1.00  0.00    -0.000 C 
BRANCH   2   3
ATOM      3  C   UNL     1      -1.128   1.307 -23.715  1.00  0.00    -0.000 C 
BRANCH   3   4
ATOM      4  C   UNL     1      -1.619   2.537 -22.938  1.00  0.00    -0.003 C 
ATOM      5  C   UNL     1      -1.573   3.818 -23.770  1.00  0.00     0.004 C 
ENDBRANCH   3   4
ENDBRANCH   2   3
ENDBRANCH   1   2
BRANCH   1   6
ATOM      6  C   UNL     1       1.953  -0.336 -21.930  1.00  0.00     0.002 C 
BRANCH   6   7
ATOM      7  C   UNL     1       1.427  -1.774 -21.814  1.00  0.00     0.028 C 
BRANCH   7   8
ATOM      8  C   UNL     1       2.531  -2.805 -22.076  1.00  0.00     0.156 C 
BRANCH   8   9
ATOM      9  O   UNL     1       2.946  -2.767 -23.415  1.00  0.00    -0.396 OA
ATOM     10  H   UNL     1       2.331  -2.144 -23.886  1.00  0.00     0.210 HD
ENDBRANCH   8   9
ENDBRANCH   7   8
ENDBRANCH   6   7
ENDBRANCH   1   6
TORSDOF 7
ENDMDL
MODEL 9
REMARK VINA RESULT:    -3.403     10.139     11.944
REMARK INTER + INTRA:          -4.849
REMARK INTER:                  -4.394
REMARK INTRA:                  -0.456
REMARK UNBOUND:                -0.153
REMARK SMILES CCCCCCCCO
REMARK SMILES IDX 5 1 4 2 3 3 2 4 1 5 6 6 7 7 8 8 9 9
REMARK H PARENT 9 10
REMARK Flexibility Score: inf
ROOT
ATOM      1  C   UNL     1      -6.078   4.698 -23.099  1.00  0.00     0.000 C 
ENDROOT
BRANCH   1   2
ATOM      2  C   UNL     1      -7.384   4.558 -22.301  1.00  0.00    -0.000 C 
BRANCH   2   3
ATOM      3  C   UNL     1      -8.566   4.107 -23.176  1.00  0.00    -0.000 C 
BRANCH   3   4
ATOM      4  C   UNL     1      -8.111   3.363 -24.441  1.00  0.00    -0.003 C 
ATOM      5  C   UNL     1      -8.138   1.844 -24.274  1.00  0.00     0.004 C 
ENDBRANCH   3   4
ENDBRANCH   2   3
ENDBRANCH   1   2
BRANCH   1   6
ATOM      6  C   UNL     1      -4.966   3.775 -22.579  1.00  0.00     0.002 C 
BRANCH   6   7
ATOM      7  C   UNL     1      -5.541   2.683 -21.667  1.00  0.00     0.028 C 
BRANCH   7   8
ATOM      8  C   UNL     1      -4.823   2.636 -20.313  1.00  0.00     0.156 C 
BRANCH   8   9
ATOM      9  O   UNL     1      -3.524   3.156 -20.416  1.00  0.00    -0.396 OA
ATOM     10  H   UNL     1      -3.266   3.456 -19.505  1.00  0.00     0.210 HD
ENDBRANCH   8   9
ENDBRANCH   7   8
ENDBRANCH   6   7
ENDBRANCH   1   6
TORSDOF 7
ENDMDL
