MODEL 1
REMARK VINA RESULT:    -3.621      0.000      0.000
REMARK INTER + INTRA:          -7.548
REMARK INTER:                  -6.162
REMARK INTRA:                  -1.386
REMARK UNBOUND:                -1.386
REMARK SMILES CCCCCCCCCCCCCC(=O)[O-]
REMARK SMILES IDX 8 1 9 2 10 3 11 4 12 5 13 6 14 7 15 8 16 9 7 10 6 11 5 12
REMARK SMILES IDX 4 13 3 14 2 15 1 16
REMARK H PARENT
REMARK Flexibility Score: inf
ROOT
ATOM      1  C   UNL     1     -96.281 150.288 240.261  1.00  0.00     0.000 C 
ENDROOT
BRANCH   1   2
ATOM      2  C   UNL     1     -97.697 150.851 240.456  1.00  0.00     0.000 C 
BRANCH   2   3
ATOM      3  C   UNL     1     -98.739 149.754 240.728  1.00  0.00     0.000 C 
BRANCH   3   4
ATOM      4  C   UNL     1     -99.535 150.001 242.019  1.00  0.00     0.000 C 
BRANCH   4   5
ATOM      5  C   UNL     1     -98.606 150.432 243.162  1.00  0.00     0.006 C 
BRANCH   5   6
ATOM      6  C   UNL     1     -99.368 150.683 244.469  1.00  0.00     0.053 C 
BRANCH   6   7
ATOM      7  C   UNL     1     -99.013 152.007 245.074  1.00  0.00     0.041 C 
ATOM      8  O   UNL     1     -98.010 152.113 245.827  1.00  0.00    -0.550 OA
ATOM      9  O   UNL     1     -99.773 153.132 244.778  1.00  0.00    -0.550 OA
ENDBRANCH   6   7
ENDBRANCH   5   6
ENDBRANCH   4   5
ENDBRANCH   3   4
ENDBRANCH   2   3
ENDBRANCH   1   2
BRANCH   1  10
ATOM     10  C   UNL     1     -96.280 148.756 240.379  1.00  0.00     0.000 C 
BRANCH  10  11
ATOM     11  C   UNL     1     -94.952 148.126 239.928  1.00  0.00    -0.000 C 
BRANCH  11  12
ATOM     12  C   UNL     1     -94.227 148.969 238.867  1.00  0.00    -0.000 C 
BRANCH  12  13
ATOM     13  C   UNL     1     -94.581 148.489 237.451  1.00  0.00    -0.000 C 
BRANCH  13  14
ATOM     14  C   UNL     1     -95.613 149.395 236.760  1.00  0.00    -0.000 C 
BRANCH  14  15
ATOM     15  C   UNL     1     -97.013 148.766 236.709  1.00  0.00    -0.003 C 
ATOM     16  C   UNL     1     -98.098 149.829 236.847  1.00  0.00     0.004 C 
ENDBRANCH  14  15
ENDBRANCH  13  14
ENDBRANCH  12  13
ENDBRANCH  11  12
ENDBRANCH  10  11
ENDBRANCH   1  10
TORSDOF 12
ENDMDL
MODEL 2
REMARK VINA RESULT:    -3.576      0.979      1.711
REMARK INTER + INTRA:          -7.470
REMARK INTER:                  -5.708
REMARK INTRA:                  -1.763
REMARK UNBOUND:                -1.386
REMARK SMILES CCCCCCCCCCCCCC(=O)[O-]
REMARK SMILES IDX 8 1 9 2 10 3 11 4 12 5 13 6 14 7 15 8 16 9 7 10 6 11 5 12
REMARK SMILES IDX 4 13 3 14 2 15 1 16
REMARK H PARENT
REMARK Flexibility Score: inf
ROOT
ATOM      1  C   UNL     1     -96.001 148.511 240.380  1.00  0.00     0.000 C 
ENDROOT
BRANCH   1   2
ATOM      2  C   UNL     1     -95.996 150.020 240.090  1.00  0.00     0.000 C 
BRANCH   2   3
ATOM      3  C   UNL     1     -97.355 150.682 240.365  1.00  0.00     0.000 C 
BRANCH   3   4
ATOM      4  C   UNL     1     -98.505 149.665 240.436  1.00  0.00     0.000 C 
BRANCH   4   5
ATOM      5  C   UNL     1     -99.305 149.831 241.736  1.00  0.00     0.006 C 
BRANCH   5   6
ATOM      6  C   UNL     1     -98.433 150.328 242.896  1.00  0.00     0.053 C 
BRANCH   6   7
ATOM      7  C   UNL     1     -99.259 150.915 244.000  1.00  0.00     0.041 C 
ATOM      8  O   UNL     1     -98.774 151.796 244.757  1.00  0.00    -0.550 OA
ATOM      9  O   UNL     1    -100.578 150.511 244.171  1.00  0.00    -0.550 OA
ENDBRANCH   6   7
ENDBRANCH   5   6
ENDBRANCH   4   5
ENDBRANCH   3   4
ENDBRANCH   2   3
ENDBRANCH   1   2
BRANCH   1  10
ATOM     10  C   UNL     1     -94.838 147.811 239.664  1.00  0.00     0.000 C 
BRANCH  10  11
ATOM     11  C   UNL     1     -94.144 148.715 238.632  1.00  0.00    -0.000 C 
BRANCH  11  12
ATOM     12  C   UNL     1     -93.878 147.998 237.299  1.00  0.00    -0.000 C 
BRANCH  12  13
ATOM     13  C   UNL     1     -95.068 148.165 236.342  1.00  0.00    -0.000 C 
BRANCH  13  14
ATOM     14  C   UNL     1     -95.659 149.584 236.374  1.00  0.00    -0.000 C 
BRANCH  14  15
ATOM     15  C   UNL     1     -97.191 149.586 236.469  1.00  0.00    -0.003 C 
ATOM     16  C   UNL     1     -97.706 148.284 237.076  1.00  0.00     0.004 C 
ENDBRANCH  14  15
ENDBRANCH  13  14
ENDBRANCH  12  13
ENDBRANCH  11  12
ENDBRANCH  10  11
ENDBRANCH   1  10
TORSDOF 12
ENDMDL
MODEL 3
REMARK VINA RESULT:    -3.482      4.173      6.940
REMARK INTER + INTRA:          -7.312
REMARK INTER:                  -6.103
REMARK INTRA:                  -1.208
REMARK UNBOUND:                -1.386
REMARK SMILES CCCCCCCCCCCCCC(=O)[O-]
REMARK SMILES IDX 8 1 9 2 10 3 11 4 12 5 13 6 14 7 15 8 16 9 7 10 6 11 5 12
REMARK SMILES IDX 4 13 3 14 2 15 1 16
REMARK H PARENT
REMARK Flexibility Score: inf
ROOT
ATOM      1  C   UNL     1     -95.290 149.770 236.748  1.00  0.00     0.000 C 
ENDROOT
BRANCH   1   2
ATOM      2  C   UNL     1     -96.676 149.546 236.125  1.00  0.00     0.000 C 
BRANCH   2   3
ATOM      3  C   UNL     1     -96.797 150.149 234.716  1.00  0.00     0.000 C 
BRANCH   3   4
ATOM      4  C   UNL     1     -95.689 151.169 234.411  1.00  0.00     0.000 C 
BRANCH   4   5
ATOM      5  C   UNL     1     -96.271 152.433 233.763  1.00  0.00     0.006 C 
BRANCH   5   6
ATOM      6  C   UNL     1     -97.785 152.552 233.974  1.00  0.00     0.053 C 
BRANCH   6   7
ATOM      7  C   UNL     1     -98.153 153.837 234.650  1.00  0.00     0.041 C 
ATOM      8  O   UNL     1     -99.293 153.980 235.166  1.00  0.00    -0.550 OA
ATOM      9  O   UNL     1     -97.224 154.866 234.739  1.00  0.00    -0.550 OA
ENDBRANCH   6   7
ENDBRANCH   5   6
ENDBRANCH   4   5
ENDBRANCH   3   4
ENDBRANCH   2   3
ENDBRANCH   1   2
BRANCH   1  10
ATOM     10  C   UNL     1     -94.866 148.558 237.590  1.00  0.00     0.000 C 
BRANCH  10  11
ATOM     11  C   UNL     1     -94.360 148.953 238.987  1.00  0.00    -0.000 C 
BRANCH  11  12
ATOM     12  C   UNL     1     -95.119 148.238 240.116  1.00  0.00    -0.000 C 
BRANCH  12  13
ATOM     13  C   UNL     1     -96.539 148.805 240.265  1.00  0.00    -0.000 C 
BRANCH  13  14
ATOM     14  C   UNL     1     -96.553 150.336 240.412  1.00  0.00    -0.000 C 
BRANCH  14  15
ATOM     15  C   UNL     1     -97.963 150.930 240.289  1.00  0.00    -0.003 C 
ATOM     16  C   UNL     1     -98.717 150.319 239.111  1.00  0.00     0.004 C 
ENDBRANCH  14  15
ENDBRANCH  13  14
ENDBRANCH  12  13
ENDBRANCH  11  12
ENDBRANCH  10  11
ENDBRANCH   1  10
TORSDOF 12
ENDMDL
MODEL 4
REMARK VINA RESULT:    -3.482      1.459      2.901
REMARK INTER + INTRA:          -7.310
REMARK INTER:                  -5.531
REMARK INTRA:                  -1.779
REMARK UNBOUND:                -1.386
REMARK SMILES CCCCCCCCCCCCCC(=O)[O-]
REMARK SMILES IDX 8 1 9 2 10 3 11 4 12 5 13 6 14 7 15 8 16 9 7 10 6 11 5 12
REMARK SMILES IDX 4 13 3 14 2 15 1 16
REMARK H PARENT
REMARK Flexibility Score: inf
ROOT
ATOM      1  C   UNL     1     -94.706 147.728 238.970  1.00  0.00     0.000 C 
ENDROOT
BRANCH   1   2
ATOM      2  C   UNL     1     -95.380 148.405 240.173  1.00  0.00     0.000 C 
BRANCH   2   3
ATOM      3  C   UNL     1     -95.683 149.891 239.924  1.00  0.00     0.000 C 
BRANCH   3   4
ATOM      4  C   UNL     1     -96.987 150.351 240.595  1.00  0.00     0.000 C 
BRANCH   4   5
ATOM      5  C   UNL     1     -97.787 149.149 241.118  1.00  0.00     0.006 C 
BRANCH   5   6
ATOM      6  C   UNL     1     -98.090 149.260 242.618  1.00  0.00     0.053 C 
BRANCH   6   7
ATOM      7  C   UNL     1     -99.092 150.336 242.904  1.00  0.00     0.041 C 
ATOM      8  O   UNL     1     -98.852 151.213 243.775  1.00  0.00    -0.550 OA
ATOM      9  O   UNL     1    -100.279 150.389 242.183  1.00  0.00    -0.550 OA
ENDBRANCH   6   7
ENDBRANCH   5   6
ENDBRANCH   4   5
ENDBRANCH   3   4
ENDBRANCH   2   3
ENDBRANCH   1   2
BRANCH   1  10
ATOM     10  C   UNL     1     -94.227 148.773 237.952  1.00  0.00     0.000 C 
BRANCH  10  11
ATOM     11  C   UNL     1     -94.880 148.600 236.571  1.00  0.00    -0.000 C 
BRANCH  11  12
ATOM     12  C   UNL     1     -95.546 149.890 236.065  1.00  0.00    -0.000 C 
BRANCH  12  13
ATOM     13  C   UNL     1     -97.060 149.696 235.899  1.00  0.00    -0.000 C 
BRANCH  13  14
ATOM     14  C   UNL     1     -97.604 148.536 236.749  1.00  0.00    -0.000 C 
BRANCH  14  15
ATOM     15  C   UNL     1     -98.810 148.945 237.607  1.00  0.00    -0.003 C 
ATOM     16  C   UNL     1     -99.051 150.450 237.535  1.00  0.00     0.004 C 
ENDBRANCH  14  15
ENDBRANCH  13  14
ENDBRANCH  12  13
ENDBRANCH  11  12
ENDBRANCH  10  11
ENDBRANCH   1  10
TORSDOF 12
ENDMDL
MODEL 5
REMARK VINA RESULT:    -3.465      4.917      7.827
REMARK INTER + INTRA:          -7.282
REMARK INTER:                  -5.978
REMARK INTRA:                  -1.304
REMARK UNBOUND:                -1.386
REMARK SMILES CCCCCCCCCCCCCC(=O)[O-]
REMARK SMILES IDX 8 1 9 2 10 3 11 4 12 5 13 6 14 7 15 8 16 9 7 10 6 11 5 12
REMARK SMILES IDX 4 13 3 14 2 15 1 16
REMARK H PARENT
REMARK Flexibility Score: inf
ROOT
ATOM      1  C   UNL     1     -93.419 146.935 234.671  1.00  0.00     0.000 C 
ENDROOT
BRANCH   1   2
ATOM      2  C   UNL     1     -94.082 147.550 233.430  1.00  0.00     0.000 C 
BRANCH   2   3
ATOM      3  C   UNL     1     -94.676 148.941 233.703  1.00  0.00     0.000 C 
BRANCH   3   4
ATOM      4  C   UNL     1     -96.192 148.997 233.460  1.00  0.00     0.000 C 
BRANCH   4   5
ATOM      5  C   UNL     1     -96.839 150.120 234.284  1.00  0.00     0.006 C 
BRANCH   5   6
ATOM      6  C   UNL     1     -95.868 151.277 234.554  1.00  0.00     0.053 C 
BRANCH   6   7
ATOM      7  C   UNL     1     -96.206 152.487 233.738  1.00  0.00     0.041 C 
ATOM      8  O   UNL     1     -96.606 153.540 234.300  1.00  0.00    -0.550 OA
ATOM      9  O   UNL     1     -96.047 152.461 232.358  1.00  0.00    -0.550 OA
ENDBRANCH   6   7
ENDBRANCH   5   6
ENDBRANCH   4   5
ENDBRANCH   3   4
ENDBRANCH   2   3
ENDBRANCH   1   2
BRANCH   1  10
ATOM     10  C   UNL     1     -94.256 147.205 235.930  1.00  0.00     0.000 C 
BRANCH  10  11
ATOM     11  C   UNL     1     -93.409 147.231 237.213  1.00  0.00    -0.000 C 
BRANCH  11  12
ATOM     12  C   UNL     1     -93.777 148.398 238.142  1.00  0.00    -0.000 C 
BRANCH  12  13
ATOM     13  C   UNL     1     -94.848 149.292 237.500  1.00  0.00    -0.000 C 
BRANCH  13  14
ATOM     14  C   UNL     1     -96.101 149.441 238.379  1.00  0.00    -0.000 C 
BRANCH  14  15
ATOM     15  C   UNL     1     -95.762 149.727 239.848  1.00  0.00    -0.003 C 
ATOM     16  C   UNL     1     -96.920 150.427 240.554  1.00  0.00     0.004 C 
ENDBRANCH  14  15
ENDBRANCH  13  14
ENDBRANCH  12  13
ENDBRANCH  11  12
ENDBRANCH  10  11
ENDBRANCH   1  10
TORSDOF 12
ENDMDL
MODEL 6
REMARK VINA RESULT:    -3.454      3.770      4.855
REMARK INTER + INTRA:          -7.264
REMARK INTER:                  -5.390
REMARK INTRA:                  -1.874
REMARK UNBOUND:                -1.386
REMARK SMILES CCCCCCCCCCCCCC(=O)[O-]
REMARK SMILES IDX 8 1 9 2 10 3 11 4 12 5 13 6 14 7 15 8 16 9 7 10 6 11 5 12
REMARK SMILES IDX 4 13 3 14 2 15 1 16
REMARK H PARENT
REMARK Flexibility Score: inf
ROOT
ATOM      1  C   UNL     1     -96.520 148.692 240.672  1.00  0.00     0.000 C 
ENDROOT
BRANCH   1   2
ATOM      2  C   UNL     1     -96.633 150.137 240.164  1.00  0.00     0.000 C 
BRANCH   2   3
ATOM      3  C   UNL     1     -98.001 150.767 240.469  1.00  0.00     0.000 C 
BRANCH   3   4
ATOM      4  C   UNL     1     -99.101 150.293 239.506  1.00  0.00     0.000 C 
BRANCH   4   5
ATOM      5  C   UNL     1     -99.513 151.419 238.548  1.00  0.00     0.006 C 
BRANCH   5   6
ATOM      6  C   UNL     1    -100.015 150.883 237.201  1.00  0.00     0.053 C 
BRANCH   6   7
ATOM      7  C   UNL     1     -99.721 151.833 236.081  1.00  0.00     0.041 C 
ATOM      8  O   UNL     1     -99.738 153.076 236.281  1.00  0.00    -0.550 OA
ATOM      9  O   UNL     1     -99.394 151.344 234.822  1.00  0.00    -0.550 OA
ENDBRANCH   6   7
ENDBRANCH   5   6
ENDBRANCH   4   5
ENDBRANCH   3   4
ENDBRANCH   2   3
ENDBRANCH   1   2
BRANCH   1  10
ATOM     10  C   UNL     1     -95.208 148.047 240.203  1.00  0.00     0.000 C 
BRANCH  10  11
ATOM     11  C   UNL     1     -94.387 148.969 239.286  1.00  0.00    -0.000 C 
BRANCH  11  12
ATOM     12  C   UNL     1     -93.714 148.210 238.131  1.00  0.00    -0.000 C 
BRANCH  12  13
ATOM     13  C   UNL     1     -94.592 148.242 236.871  1.00  0.00    -0.000 C 
BRANCH  13  14
ATOM     14  C   UNL     1     -95.301 149.593 236.678  1.00  0.00    -0.000 C 
BRANCH  14  15
ATOM     15  C   UNL     1     -96.810 149.440 236.441  1.00  0.00    -0.003 C 
ATOM     16  C   UNL     1     -97.327 148.124 237.013  1.00  0.00     0.004 C 
ENDBRANCH  14  15
ENDBRANCH  13  14
ENDBRANCH  12  13
ENDBRANCH  11  12
ENDBRANCH  10  11
ENDBRANCH   1  10
TORSDOF 12
ENDMDL
MODEL 7
REMARK VINA RESULT:    -3.438      5.300      7.488
REMARK INTER + INTRA:          -7.236
REMARK INTER:                  -5.456
REMARK INTRA:                  -1.780
REMARK UNBOUND:                -1.386
REMARK SMILES CCCCCCCCCCCCCC(=O)[O-]
REMARK SMILES IDX 8 1 9 2 10 3 11 4 12 5 13 6 14 7 15 8 16 9 7 10 6 11 5 12
REMARK SMILES IDX 4 13 3 14 2 15 1 16
REMARK H PARENT
REMARK Flexibility Score: inf
ROOT
ATOM      1  C   UNL     1     -95.705 148.156 240.057  1.00  0.00     0.000 C 
ENDROOT
BRANCH   1   2
ATOM      2  C   UNL     1     -94.725 149.247 239.600  1.00  0.00     0.000 C 
BRANCH   2   3
ATOM      3  C   UNL     1     -94.281 149.071 238.140  1.00  0.00     0.000 C 
BRANCH   3   4
ATOM      4  C   UNL     1     -93.551 147.741 237.899  1.00  0.00     0.000 C 
BRANCH   4   5
ATOM      5  C   UNL     1     -94.130 147.011 236.678  1.00  0.00     0.006 C 
BRANCH   5   6
ATOM      6  C   UNL     1     -94.577 147.981 235.577  1.00  0.00     0.053 C 
BRANCH   6   7
ATOM      7  C   UNL     1     -93.867 147.719 234.285  1.00  0.00     0.041 C 
ATOM      8  O   UNL     1     -92.817 147.024 234.266  1.00  0.00    -0.550 OA
ATOM      9  O   UNL     1     -94.384 148.214 233.094  1.00  0.00    -0.550 OA
ENDBRANCH   6   7
ENDBRANCH   5   6
ENDBRANCH   4   5
ENDBRANCH   3   4
ENDBRANCH   2   3
ENDBRANCH   1   2
BRANCH   1  10
ATOM     10  C   UNL     1     -96.985 148.775 240.635  1.00  0.00     0.000 C 
BRANCH  10  11
ATOM     11  C   UNL     1     -96.923 150.310 240.708  1.00  0.00    -0.000 C 
BRANCH  11  12
ATOM     12  C   UNL     1     -98.130 150.985 240.038  1.00  0.00    -0.000 C 
BRANCH  12  13
ATOM     13  C   UNL     1     -99.030 149.944 239.356  1.00  0.00    -0.000 C 
BRANCH  13  14
ATOM     14  C   UNL     1     -99.097 150.126 237.831  1.00  0.00    -0.000 C 
BRANCH  14  15
ATOM     15  C   UNL     1     -97.844 149.601 237.116  1.00  0.00    -0.003 C 
ATOM     16  C   UNL     1     -97.917 148.090 236.918  1.00  0.00     0.004 C 
ENDBRANCH  14  15
ENDBRANCH  13  14
ENDBRANCH  12  13
ENDBRANCH  11  12
ENDBRANCH  10  11
ENDBRANCH   1  10
TORSDOF 12
ENDMDL
MODEL 8
REMARK VINA RESULT:    -3.386      4.578      6.974
REMARK INTER + INTRA:          -7.148
REMARK INTER:                  -5.583
REMARK INTRA:                  -1.566
REMARK UNBOUND:                -1.386
REMARK SMILES CCCCCCCCCCCCCC(=O)[O-]
REMARK SMILES IDX 8 1 9 2 10 3 11 4 12 5 13 6 14 7 15 8 16 9 7 10 6 11 5 12
REMARK SMILES IDX 4 13 3 14 2 15 1 16
REMARK H PARENT
REMARK Flexibility Score: inf
ROOT
ATOM      1  C   UNL     1     -94.282 148.789 238.525  1.00  0.00     0.000 C 
ENDROOT
BRANCH   1   2
ATOM      2  C   UNL     1     -94.993 149.519 237.376  1.00  0.00     0.000 C 
BRANCH   2   3
ATOM      3  C   UNL     1     -95.599 148.553 236.345  1.00  0.00     0.000 C 
BRANCH   3   4
ATOM      4  C   UNL     1     -95.801 149.206 234.969  1.00  0.00     0.000 C 
BRANCH   4   5
ATOM      5  C   UNL     1     -95.732 150.737 235.072  1.00  0.00     0.006 C 
BRANCH   5   6
ATOM      6  C   UNL     1     -96.112 151.427 233.756  1.00  0.00     0.053 C 
BRANCH   6   7
ATOM      7  C   UNL     1     -97.196 152.442 233.954  1.00  0.00     0.041 C 
ATOM      8  O   UNL     1     -98.406 152.104 233.863  1.00  0.00    -0.550 OA
ATOM      9  O   UNL     1     -96.871 153.754 234.274  1.00  0.00    -0.550 OA
ENDBRANCH   6   7
ENDBRANCH   5   6
ENDBRANCH   4   5
ENDBRANCH   3   4
ENDBRANCH   2   3
ENDBRANCH   1   2
BRANCH   1  10
ATOM     10  C   UNL     1     -94.837 149.236 239.885  1.00  0.00     0.000 C 
BRANCH  10  11
ATOM     11  C   UNL     1     -96.372 149.171 239.952  1.00  0.00    -0.000 C 
BRANCH  11  12
ATOM     12  C   UNL     1     -97.002 150.500 240.399  1.00  0.00    -0.000 C 
BRANCH  12  13
ATOM     13  C   UNL     1     -98.320 150.759 239.654  1.00  0.00    -0.000 C 
BRANCH  13  14
ATOM     14  C   UNL     1     -98.582 149.732 238.540  1.00  0.00    -0.000 C 
BRANCH  14  15
ATOM     15  C   UNL     1     -98.836 150.389 237.176  1.00  0.00    -0.003 C 
ATOM     16  C   UNL     1     -99.544 151.731 237.336  1.00  0.00     0.004 C 
ENDBRANCH  14  15
ENDBRANCH  13  14
ENDBRANCH  12  13
ENDBRANCH  11  12
ENDBRANCH  10  11
ENDBRANCH   1  10
TORSDOF 12
ENDMDL
MODEL 9
REMARK VINA RESULT:    -3.352      2.268      4.013
REMARK INTER + INTRA:          -7.089
REMARK INTER:                  -5.831
REMARK INTRA:                  -1.259
REMARK UNBOUND:                -1.386
REMARK SMILES CCCCCCCCCCCCCC(=O)[O-]
REMARK SMILES IDX 8 1 9 2 10 3 11 4 12 5 13 6 14 7 15 8 16 9 7 10 6 11 5 12
REMARK SMILES IDX 4 13 3 14 2 15 1 16
REMARK H PARENT
REMARK Flexibility Score: inf
ROOT
ATOM      1  C   UNL     1     -93.789 147.981 238.453  1.00  0.00     0.000 C 
ENDROOT
BRANCH   1   2
ATOM      2  C   UNL     1     -94.505 147.149 239.528  1.00  0.00     0.000 C 
BRANCH   2   3
ATOM      3  C   UNL     1     -95.494 147.982 240.360  1.00  0.00     0.000 C 
BRANCH   3   4
ATOM      4  C   UNL     1     -95.574 149.444 239.897  1.00  0.00     0.000 C 
BRANCH   4   5
ATOM      5  C   UNL     1     -97.027 149.851 239.611  1.00  0.00     0.006 C 
BRANCH   5   6
ATOM      6  C   UNL     1     -97.598 150.772 240.696  1.00  0.00     0.053 C 
BRANCH   6   7
ATOM      7  C   UNL     1     -98.508 150.034 241.629  1.00  0.00     0.041 C 
ATOM      8  O   UNL     1     -99.757 150.095 241.479  1.00  0.00    -0.550 OA
ATOM      9  O   UNL     1     -97.975 149.249 242.645  1.00  0.00    -0.550 OA
ENDBRANCH   6   7
ENDBRANCH   5   6
ENDBRANCH   4   5
ENDBRANCH   3   4
ENDBRANCH   2   3
ENDBRANCH   1   2
BRANCH   1  10
ATOM     10  C   UNL     1     -93.628 147.177 237.155  1.00  0.00     0.000 C 
BRANCH  10  11
ATOM     11  C   UNL     1     -94.583 147.643 236.044  1.00  0.00    -0.000 C 
BRANCH  11  12
ATOM     12  C   UNL     1     -95.056 149.092 236.240  1.00  0.00    -0.000 C 
BRANCH  12  13
ATOM     13  C   UNL     1     -96.573 149.206 236.028  1.00  0.00    -0.000 C 
BRANCH  13  14
ATOM     14  C   UNL     1     -96.950 150.306 235.023  1.00  0.00    -0.000 C 
BRANCH  14  15
ATOM     15  C   UNL     1     -95.734 151.107 234.538  1.00  0.00    -0.003 C 
ATOM     16  C   UNL     1     -96.161 152.436 233.920  1.00  0.00     0.004 C 
ENDBRANCH  14  15
ENDBRANCH  13  14
ENDBRANCH  12  13
ENDBRANCH  11  12
ENDBRANCH  10  11
ENDBRANCH   1  10
TORSDOF 12
ENDMDL
