MODEL 1
REMARK VINA RESULT:    -4.539      0.000      0.000
REMARK INTER + INTRA:          -9.536
REMARK INTER:                  -7.989
REMARK INTRA:                  -1.546
REMARK UNBOUND:                -1.546
REMARK SMILES CCCCCCCCCCCCCCC(=O)[O-]
REMARK SMILES IDX 9 1 10 2 11 3 12 4 13 5 14 6 15 7 16 8 17 9 8 10 7 11 6 12
REMARK SMILES IDX 5 13 4 14 3 15 2 16 1 17
REMARK H PARENT
REMARK Flexibility Score: inf
ROOT
ATOM      1  C   UNL     1      -9.735   5.213   6.247  1.00  0.00     0.000 C 
ENDROOT
BRANCH   1   2
ATOM      2  C   UNL     1      -9.929   6.375   5.262  1.00  0.00     0.000 C 
BRANCH   2   3
ATOM      3  C   UNL     1      -9.264   7.656   5.788  1.00  0.00     0.000 C 
BRANCH   3   4
ATOM      4  C   UNL     1      -9.872   8.937   5.194  1.00  0.00     0.000 C 
BRANCH   4   5
ATOM      5  C   UNL     1      -8.916  10.144   5.117  1.00  0.00     0.006 C 
BRANCH   5   6
ATOM      6  C   UNL     1      -7.426   9.770   5.210  1.00  0.00     0.053 C 
BRANCH   6   7
ATOM      7  C   UNL     1      -6.726  10.476   6.333  1.00  0.00     0.041 C 
ATOM      8  O   UNL     1      -5.540  10.874   6.191  1.00  0.00    -0.550 OA
ATOM      9  O   UNL     1      -7.398  10.732   7.521  1.00  0.00    -0.550 OA
ENDBRANCH   6   7
ENDBRANCH   5   6
ENDBRANCH   4   5
ENDBRANCH   3   4
ENDBRANCH   2   3
ENDBRANCH   1   2
BRANCH   1  10
ATOM     10  C   UNL     1     -10.789   5.200   7.366  1.00  0.00     0.000 C 
BRANCH  10  11
ATOM     11  C   UNL     1     -11.152   3.775   7.820  1.00  0.00    -0.000 C 
BRANCH  11  12
ATOM     12  C   UNL     1     -11.665   2.903   6.662  1.00  0.00    -0.000 C 
BRANCH  12  13
ATOM     13  C   UNL     1     -12.995   3.414   6.084  1.00  0.00    -0.000 C 
BRANCH  13  14
ATOM     14  C   UNL     1     -12.855   3.945   4.647  1.00  0.00    -0.000 C 
BRANCH  14  15
ATOM     15  C   UNL     1     -13.828   5.097   4.314  1.00  0.00    -0.000 C 
BRANCH  15  16
ATOM     16  C   UNL     1     -14.211   5.910   5.560  1.00  0.00    -0.003 C 
ATOM     17  C   UNL     1     -13.448   7.230   5.612  1.00  0.00     0.004 C 
ENDBRANCH  15  16
ENDBRANCH  14  15
ENDBRANCH  13  14
ENDBRANCH  12  13
ENDBRANCH  11  12
ENDBRANCH  10  11
ENDBRANCH   1  10
TORSDOF 13
ENDMDL
MODEL 2
REMARK VINA RESULT:    -4.537      1.186      2.616
REMARK INTER + INTRA:          -9.531
REMARK INTER:                  -8.444
REMARK INTRA:                  -1.087
REMARK UNBOUND:                -1.546
REMARK SMILES CCCCCCCCCCCCCCC(=O)[O-]
REMARK SMILES IDX 9 1 10 2 11 3 12 4 13 5 14 6 15 7 16 8 17 9 8 10 7 11 6 12
REMARK SMILES IDX 5 13 4 14 3 15 2 16 1 17
REMARK H PARENT
REMARK Flexibility Score: inf
ROOT
ATOM      1  C   UNL     1      -9.745   5.153   5.953  1.00  0.00     0.000 C 
ENDROOT
BRANCH   1   2
ATOM      2  C   UNL     1      -9.490   6.647   6.204  1.00  0.00     0.000 C 
BRANCH   2   3
ATOM      3  C   UNL     1      -9.373   7.413   4.877  1.00  0.00     0.000 C 
BRANCH   3   4
ATOM      4  C   UNL     1      -9.930   8.844   4.958  1.00  0.00     0.000 C 
BRANCH   4   5
ATOM      5  C   UNL     1      -9.022   9.864   5.674  1.00  0.00     0.006 C 
BRANCH   5   6
ATOM      6  C   UNL     1      -7.531   9.739   5.310  1.00  0.00     0.053 C 
BRANCH   6   7
ATOM      7  C   UNL     1      -6.653  10.576   6.192  1.00  0.00     0.041 C 
ATOM      8  O   UNL     1      -7.141  11.180   7.184  1.00  0.00    -0.550 OA
ATOM      9  O   UNL     1      -5.289  10.657   5.943  1.00  0.00    -0.550 OA
ENDBRANCH   6   7
ENDBRANCH   5   6
ENDBRANCH   4   5
ENDBRANCH   3   4
ENDBRANCH   2   3
ENDBRANCH   1   2
BRANCH   1  10
ATOM     10  C   UNL     1     -10.270   4.870   4.536  1.00  0.00     0.000 C 
BRANCH  10  11
ATOM     11  C   UNL     1     -11.384   3.808   4.520  1.00  0.00    -0.000 C 
BRANCH  11  12
ATOM     12  C   UNL     1     -12.774   4.410   4.781  1.00  0.00    -0.000 C 
BRANCH  12  13
ATOM     13  C   UNL     1     -13.125   4.455   6.277  1.00  0.00    -0.000 C 
BRANCH  13  14
ATOM     14  C   UNL     1     -13.023   3.078   6.955  1.00  0.00    -0.000 C 
BRANCH  14  15
ATOM     15  C   UNL     1     -11.792   2.930   7.876  1.00  0.00    -0.000 C 
BRANCH  15  16
ATOM     16  C   UNL     1     -12.007   3.597   9.243  1.00  0.00    -0.003 C 
ATOM     17  C   UNL     1     -11.236   4.910   9.343  1.00  0.00     0.004 C 
ENDBRANCH  15  16
ENDBRANCH  14  15
ENDBRANCH  13  14
ENDBRANCH  12  13
ENDBRANCH  11  12
ENDBRANCH  10  11
ENDBRANCH   1  10
TORSDOF 13
ENDMDL
MODEL 3
REMARK VINA RESULT:    -4.522     16.437     18.508
REMARK INTER + INTRA:          -9.506
REMARK INTER:                  -8.668
REMARK INTRA:                  -0.837
REMARK UNBOUND:                -1.546
REMARK SMILES CCCCCCCCCCCCCCC(=O)[O-]
REMARK SMILES IDX 9 1 10 2 11 3 12 4 13 5 14 6 15 7 16 8 17 9 8 10 7 11 6 12
REMARK SMILES IDX 5 13 4 14 3 15 2 16 1 17
REMARK H PARENT
REMARK Flexibility Score: inf
ROOT
ATOM      1  C   UNL     1     -10.126  -0.899  -9.746  1.00  0.00     0.000 C 
ENDROOT
BRANCH   1   2
ATOM      2  C   UNL     1     -10.548  -2.360  -9.967  1.00  0.00     0.000 C 
BRANCH   2   3
ATOM      3  C   UNL     1      -9.321  -3.285 -10.000  1.00  0.00     0.000 C 
BRANCH   3   4
ATOM      4  C   UNL     1      -9.694  -4.777 -10.007  1.00  0.00     0.000 C 
BRANCH   4   5
ATOM      5  C   UNL     1     -10.706  -5.207  -8.927  1.00  0.00     0.006 C 
BRANCH   5   6
ATOM      6  C   UNL     1     -10.203  -6.339  -8.013  1.00  0.00     0.053 C 
BRANCH   6   7
ATOM      7  C   UNL     1     -10.881  -6.340  -6.675  1.00  0.00     0.041 C 
ATOM      8  O   UNL     1     -12.043  -6.809  -6.552  1.00  0.00    -0.550 OA
ATOM      9  O   UNL     1     -10.213  -5.860  -5.555  1.00  0.00    -0.550 OA
ENDBRANCH   6   7
ENDBRANCH   5   6
ENDBRANCH   4   5
ENDBRANCH   3   4
ENDBRANCH   2   3
ENDBRANCH   1   2
BRANCH   1  10
ATOM     10  C   UNL     1     -11.317   0.072  -9.763  1.00  0.00     0.000 C 
BRANCH  10  11
ATOM     11  C   UNL     1     -10.878   1.544  -9.867  1.00  0.00    -0.000 C 
BRANCH  11  12
ATOM     12  C   UNL     1     -11.882   2.503  -9.208  1.00  0.00    -0.000 C 
BRANCH  12  13
ATOM     13  C   UNL     1     -13.317   2.299  -9.721  1.00  0.00    -0.000 C 
BRANCH  13  14
ATOM     14  C   UNL     1     -14.312   1.973  -8.594  1.00  0.00    -0.000 C 
BRANCH  14  15
ATOM     15  C   UNL     1     -15.203   0.746  -8.889  1.00  0.00    -0.000 C 
BRANCH  15  16
ATOM     16  C   UNL     1     -14.727  -0.032 -10.124  1.00  0.00    -0.003 C 
ATOM     17  C   UNL     1     -14.544  -1.513  -9.805  1.00  0.00     0.004 C 
ENDBRANCH  15  16
ENDBRANCH  14  15
ENDBRANCH  13  14
ENDBRANCH  12  13
ENDBRANCH  11  12
ENDBRANCH  10  11
ENDBRANCH   1  10
TORSDOF 13
ENDMDL
MODEL 4
REMARK VINA RESULT:    -4.399      2.862      6.517
REMARK INTER + INTRA:          -9.288
REMARK INTER:                  -7.879
REMARK INTRA:                  -1.409
REMARK UNBOUND:                -1.546
REMARK SMILES CCCCCCCCCCCCCCC(=O)[O-]
REMARK SMILES IDX 9 1 10 2 11 3 12 4 13 5 14 6 15 7 16 8 17 9 8 10 7 11 6 12
REMARK SMILES IDX 5 13 4 14 3 15 2 16 1 17
REMARK H PARENT
REMARK Flexibility Score: inf
ROOT
ATOM      1  C   UNL     1     -11.224   4.291   8.028  1.00  0.00     0.000 C 
ENDROOT
BRANCH   1   2
ATOM      2  C   UNL     1     -11.237   3.061   7.108  1.00  0.00     0.000 C 
BRANCH   2   3
ATOM      3  C   UNL     1     -12.553   2.981   6.319  1.00  0.00     0.000 C 
BRANCH   3   4
ATOM      4  C   UNL     1     -12.396   3.382   4.844  1.00  0.00     0.000 C 
BRANCH   4   5
ATOM      5  C   UNL     1     -13.185   4.635   4.415  1.00  0.00     0.006 C 
BRANCH   5   6
ATOM      6  C   UNL     1     -14.036   5.254   5.538  1.00  0.00     0.053 C 
BRANCH   6   7
ATOM      7  C   UNL     1     -14.290   6.717   5.326  1.00  0.00     0.041 C 
ATOM      8  O   UNL     1     -15.413   7.113   4.917  1.00  0.00    -0.550 OA
ATOM      9  O   UNL     1     -13.299   7.646   5.618  1.00  0.00    -0.550 OA
ENDBRANCH   6   7
ENDBRANCH   5   6
ENDBRANCH   4   5
ENDBRANCH   3   4
ENDBRANCH   2   3
ENDBRANCH   1   2
BRANCH   1  10
ATOM     10  C   UNL     1     -10.874   5.588   7.283  1.00  0.00     0.000 C 
BRANCH  10  11
ATOM     11  C   UNL     1      -9.639   5.436   6.376  1.00  0.00    -0.000 C 
BRANCH  11  12
ATOM     12  C   UNL     1      -9.781   6.209   5.056  1.00  0.00    -0.000 C 
BRANCH  12  13
ATOM     13  C   UNL     1      -9.898   7.727   5.271  1.00  0.00    -0.000 C 
BRANCH  13  14
ATOM     14  C   UNL     1      -8.673   8.324   5.984  1.00  0.00    -0.000 C 
BRANCH  14  15
ATOM     15  C   UNL     1      -7.958   9.426   5.172  1.00  0.00    -0.000 C 
BRANCH  15  16
ATOM     16  C   UNL     1      -7.392  10.535   6.072  1.00  0.00    -0.003 C 
ATOM     17  C   UNL     1      -5.868  10.565   6.017  1.00  0.00     0.004 C 
ENDBRANCH  15  16
ENDBRANCH  14  15
ENDBRANCH  13  14
ENDBRANCH  12  13
ENDBRANCH  11  12
ENDBRANCH  10  11
ENDBRANCH   1  10
TORSDOF 13
ENDMDL
MODEL 5
REMARK VINA RESULT:    -4.348     16.530     18.336
REMARK INTER + INTRA:          -9.199
REMARK INTER:                  -9.447
REMARK INTRA:                   0.249
REMARK UNBOUND:                -1.546
REMARK SMILES CCCCCCCCCCCCCCC(=O)[O-]
REMARK SMILES IDX 9 1 10 2 11 3 12 4 13 5 14 6 15 7 16 8 17 9 8 10 7 11 6 12
REMARK SMILES IDX 5 13 4 14 3 15 2 16 1 17
REMARK H PARENT
REMARK Flexibility Score: inf
ROOT
ATOM      1  C   UNL     1     -11.445   0.870  -9.761  1.00  0.00     0.000 C 
ENDROOT
BRANCH   1   2
ATOM      2  C   UNL     1     -10.431  -0.279  -9.661  1.00  0.00     0.000 C 
BRANCH   2   3
ATOM      3  C   UNL     1     -11.079  -1.616 -10.052  1.00  0.00     0.000 C 
BRANCH   3   4
ATOM      4  C   UNL     1     -10.072  -2.777 -10.111  1.00  0.00     0.000 C 
BRANCH   4   5
ATOM      5  C   UNL     1      -9.451  -3.178  -8.758  1.00  0.00     0.006 C 
BRANCH   5   6
ATOM      6  C   UNL     1      -8.624  -4.475  -8.809  1.00  0.00     0.053 C 
BRANCH   6   7
ATOM      7  C   UNL     1      -9.441  -5.690  -8.484  1.00  0.00     0.041 C 
ATOM      8  O   UNL     1      -9.719  -5.966  -7.287  1.00  0.00    -0.550 OA
ATOM      9  O   UNL     1      -9.930  -6.495  -9.505  1.00  0.00    -0.550 OA
ENDBRANCH   6   7
ENDBRANCH   5   6
ENDBRANCH   4   5
ENDBRANCH   3   4
ENDBRANCH   2   3
ENDBRANCH   1   2
BRANCH   1  10
ATOM     10  C   UNL     1     -10.806   2.249  -9.533  1.00  0.00     0.000 C 
BRANCH  10  11
ATOM     11  C   UNL     1     -11.851   3.370  -9.392  1.00  0.00    -0.000 C 
BRANCH  11  12
ATOM     12  C   UNL     1     -13.192   2.857  -8.846  1.00  0.00    -0.000 C 
BRANCH  12  13
ATOM     13  C   UNL     1     -13.884   1.877  -9.808  1.00  0.00    -0.000 C 
BRANCH  13  14
ATOM     14  C   UNL     1     -14.916   0.979  -9.104  1.00  0.00    -0.000 C 
BRANCH  14  15
ATOM     15  C   UNL     1     -15.590  -0.045 -10.042  1.00  0.00    -0.000 C 
BRANCH  15  16
ATOM     16  C   UNL     1     -15.024  -1.462  -9.855  1.00  0.00    -0.003 C 
ATOM     17  C   UNL     1     -15.822  -2.241  -8.814  1.00  0.00     0.004 C 
ENDBRANCH  15  16
ENDBRANCH  14  15
ENDBRANCH  13  14
ENDBRANCH  12  13
ENDBRANCH  11  12
ENDBRANCH  10  11
ENDBRANCH   1  10
TORSDOF 13
ENDMDL
MODEL 6
REMARK VINA RESULT:    -4.329      1.245      2.695
REMARK INTER + INTRA:          -9.165
REMARK INTER:                  -7.485
REMARK INTRA:                  -1.680
REMARK UNBOUND:                -1.546
REMARK SMILES CCCCCCCCCCCCCCC(=O)[O-]
REMARK SMILES IDX 9 1 10 2 11 3 12 4 13 5 14 6 15 7 16 8 17 9 8 10 7 11 6 12
REMARK SMILES IDX 5 13 4 14 3 15 2 16 1 17
REMARK H PARENT
REMARK Flexibility Score: inf
ROOT
ATOM      1  C   UNL     1     -11.264   3.499   7.191  1.00  0.00     0.000 C 
ENDROOT
BRANCH   1   2
ATOM      2  C   UNL     1     -10.738   4.928   7.386  1.00  0.00     0.000 C 
BRANCH   2   3
ATOM      3  C   UNL     1      -9.694   5.278   6.314  1.00  0.00     0.000 C 
BRANCH   3   4
ATOM      4  C   UNL     1     -10.230   6.243   5.244  1.00  0.00     0.000 C 
BRANCH   4   5
ATOM      5  C   UNL     1      -9.302   7.424   4.899  1.00  0.00     0.006 C 
BRANCH   5   6
ATOM      6  C   UNL     1      -8.633   8.074   6.124  1.00  0.00     0.053 C 
BRANCH   6   7
ATOM      7  C   UNL     1      -7.975   9.380   5.793  1.00  0.00     0.041 C 
ATOM      8  O   UNL     1      -6.845   9.662   6.273  1.00  0.00    -0.550 OA
ATOM      9  O   UNL     1      -8.590  10.269   4.921  1.00  0.00    -0.550 OA
ENDBRANCH   6   7
ENDBRANCH   5   6
ENDBRANCH   4   5
ENDBRANCH   3   4
ENDBRANCH   2   3
ENDBRANCH   1   2
BRANCH   1  10
ATOM     10  C   UNL     1     -12.705   3.463   6.656  1.00  0.00     0.000 C 
BRANCH  10  11
ATOM     11  C   UNL     1     -12.764   3.369   5.121  1.00  0.00    -0.000 C 
BRANCH  11  12
ATOM     12  C   UNL     1     -13.504   4.557   4.487  1.00  0.00    -0.000 C 
BRANCH  12  13
ATOM     13  C   UNL     1     -13.847   5.652   5.512  1.00  0.00    -0.000 C 
BRANCH  13  14
ATOM     14  C   UNL     1     -14.835   6.695   4.962  1.00  0.00    -0.000 C 
BRANCH  14  15
ATOM     15  C   UNL     1     -14.540   8.136   5.432  1.00  0.00    -0.000 C 
BRANCH  15  16
ATOM     16  C   UNL     1     -13.191   8.244   6.160  1.00  0.00    -0.003 C 
ATOM     17  C   UNL     1     -12.286   9.276   5.492  1.00  0.00     0.004 C 
ENDBRANCH  15  16
ENDBRANCH  14  15
ENDBRANCH  13  14
ENDBRANCH  12  13
ENDBRANCH  11  12
ENDBRANCH  10  11
ENDBRANCH   1  10
TORSDOF 13
ENDMDL
MODEL 7
REMARK VINA RESULT:    -4.327      3.520      7.254
REMARK INTER + INTRA:          -9.162
REMARK INTER:                  -7.892
REMARK INTRA:                  -1.270
REMARK UNBOUND:                -1.546
REMARK SMILES CCCCCCCCCCCCCCC(=O)[O-]
REMARK SMILES IDX 9 1 10 2 11 3 12 4 13 5 14 6 15 7 16 8 17 9 8 10 7 11 6 12
REMARK SMILES IDX 5 13 4 14 3 15 2 16 1 17
REMARK H PARENT
REMARK Flexibility Score: inf
ROOT
ATOM      1  C   UNL     1     -10.185   6.286   5.435  1.00  0.00     0.000 C 
ENDROOT
BRANCH   1   2
ATOM      2  C   UNL     1      -9.865   5.141   6.408  1.00  0.00     0.000 C 
BRANCH   2   3
ATOM      3  C   UNL     1     -10.921   5.057   7.521  1.00  0.00     0.000 C 
BRANCH   3   4
ATOM      4  C   UNL     1     -11.383   3.619   7.804  1.00  0.00     0.000 C 
BRANCH   4   5
ATOM      5  C   UNL     1     -12.083   2.910   6.627  1.00  0.00     0.006 C 
BRANCH   5   6
ATOM      6  C   UNL     1     -13.178   3.753   5.948  1.00  0.00     0.053 C 
BRANCH   6   7
ATOM      7  C   UNL     1     -12.938   3.929   4.479  1.00  0.00     0.041 C 
ATOM      8  O   UNL     1     -11.896   3.466   3.945  1.00  0.00    -0.550 OA
ATOM      9  O   UNL     1     -13.886   4.570   3.690  1.00  0.00    -0.550 OA
ENDBRANCH   6   7
ENDBRANCH   5   6
ENDBRANCH   4   5
ENDBRANCH   3   4
ENDBRANCH   2   3
ENDBRANCH   1   2
BRANCH   1  10
ATOM     10  C   UNL     1      -9.333   7.540   5.692  1.00  0.00     0.000 C 
BRANCH  10  11
ATOM     11  C   UNL     1      -9.570   8.641   4.644  1.00  0.00    -0.000 C 
BRANCH  11  12
ATOM     12  C   UNL     1     -10.848   9.450   4.920  1.00  0.00    -0.000 C 
BRANCH  12  13
ATOM     13  C   UNL     1     -10.633  10.550   5.972  1.00  0.00    -0.000 C 
BRANCH  13  14
ATOM     14  C   UNL     1      -9.319  11.324   5.766  1.00  0.00    -0.000 C 
BRANCH  14  15
ATOM     15  C   UNL     1      -8.519  11.547   7.068  1.00  0.00    -0.000 C 
BRANCH  15  16
ATOM     16  C   UNL     1      -7.270  10.656   7.141  1.00  0.00    -0.003 C 
ATOM     17  C   UNL     1      -6.648  10.465   5.761  1.00  0.00     0.004 C 
ENDBRANCH  15  16
ENDBRANCH  14  15
ENDBRANCH  13  14
ENDBRANCH  12  13
ENDBRANCH  11  12
ENDBRANCH  10  11
ENDBRANCH   1  10
TORSDOF 13
ENDMDL
MODEL 8
REMARK VINA RESULT:    -4.223      3.567      6.985
REMARK INTER + INTRA:          -8.978
REMARK INTER:                  -7.542
REMARK INTRA:                  -1.437
REMARK UNBOUND:                -1.546
REMARK SMILES CCCCCCCCCCCCCCC(=O)[O-]
REMARK SMILES IDX 9 1 10 2 11 3 12 4 13 5 14 6 15 7 16 8 17 9 8 10 7 11 6 12
REMARK SMILES IDX 5 13 4 14 3 15 2 16 1 17
REMARK H PARENT
REMARK Flexibility Score: inf
ROOT
ATOM      1  C   UNL     1      -9.362   7.418   4.870  1.00  0.00     0.000 C 
ENDROOT
BRANCH   1   2
ATOM      2  C   UNL     1     -10.443   6.540   5.519  1.00  0.00     0.000 C 
BRANCH   2   3
ATOM      3  C   UNL     1      -9.811   5.469   6.420  1.00  0.00     0.000 C 
BRANCH   3   4
ATOM      4  C   UNL     1     -10.796   4.890   7.448  1.00  0.00     0.000 C 
BRANCH   4   5
ATOM      5  C   UNL     1     -11.232   3.433   7.194  1.00  0.00     0.006 C 
BRANCH   5   6
ATOM      6  C   UNL     1     -12.675   3.293   6.674  1.00  0.00     0.053 C 
BRANCH   6   7
ATOM      7  C   UNL     1     -12.812   3.712   5.241  1.00  0.00     0.041 C 
ATOM      8  O   UNL     1     -13.739   4.489   4.893  1.00  0.00    -0.550 OA
ATOM      9  O   UNL     1     -11.891   3.276   4.297  1.00  0.00    -0.550 OA
ENDBRANCH   6   7
ENDBRANCH   5   6
ENDBRANCH   4   5
ENDBRANCH   3   4
ENDBRANCH   2   3
ENDBRANCH   1   2
BRANCH   1  10
ATOM     10  C   UNL     1      -8.565   8.236   5.899  1.00  0.00     0.000 C 
BRANCH  10  11
ATOM     11  C   UNL     1      -7.962   9.518   5.297  1.00  0.00    -0.000 C 
BRANCH  11  12
ATOM     12  C   UNL     1      -7.421  10.474   6.372  1.00  0.00    -0.000 C 
BRANCH  12  13
ATOM     13  C   UNL     1      -8.507  11.411   6.927  1.00  0.00    -0.000 C 
BRANCH  13  14
ATOM     14  C   UNL     1      -9.648  11.661   5.927  1.00  0.00    -0.000 C 
BRANCH  14  15
ATOM     15  C   UNL     1     -11.054  11.399   6.510  1.00  0.00    -0.000 C 
BRANCH  15  16
ATOM     16  C   UNL     1     -11.734  10.184   5.860  1.00  0.00    -0.003 C 
ATOM     17  C   UNL     1     -11.916  10.391   4.360  1.00  0.00     0.004 C 
ENDBRANCH  15  16
ENDBRANCH  14  15
ENDBRANCH  13  14
ENDBRANCH  12  13
ENDBRANCH  11  12
ENDBRANCH  10  11
ENDBRANCH   1  10
TORSDOF 13
ENDMDL
MODEL 9
REMARK VINA RESULT:    -4.190      2.411      5.527
REMARK INTER + INTRA:          -8.920
REMARK INTER:                  -7.277
REMARK INTRA:                  -1.644
REMARK UNBOUND:                -1.546
REMARK SMILES CCCCCCCCCCCCCCC(=O)[O-]
REMARK SMILES IDX 9 1 10 2 11 3 12 4 13 5 14 6 15 7 16 8 17 9 8 10 7 11 6 12
REMARK SMILES IDX 5 13 4 14 3 15 2 16 1 17
REMARK H PARENT
REMARK Flexibility Score: inf
ROOT
ATOM      1  C   UNL     1     -12.227   3.311   6.454  1.00  0.00     0.000 C 
ENDROOT
BRANCH   1   2
ATOM      2  C   UNL     1     -12.126   3.376   4.923  1.00  0.00     0.000 C 
BRANCH   2   3
ATOM      3  C   UNL     1     -13.112   4.407   4.352  1.00  0.00     0.000 C 
BRANCH   3   4
ATOM      4  C   UNL     1     -13.915   5.137   5.440  1.00  0.00     0.000 C 
BRANCH   4   5
ATOM      5  C   UNL     1     -14.127   6.645   5.200  1.00  0.00     0.006 C 
BRANCH   5   6
ATOM      6  C   UNL     1     -13.179   7.547   6.011  1.00  0.00     0.053 C 
BRANCH   6   7
ATOM      7  C   UNL     1     -13.407   9.005   5.746  1.00  0.00     0.041 C 
ATOM      8  O   UNL     1     -12.435   9.806   5.721  1.00  0.00    -0.550 OA
ATOM      9  O   UNL     1     -14.689   9.474   5.485  1.00  0.00    -0.550 OA
ENDBRANCH   6   7
ENDBRANCH   5   6
ENDBRANCH   4   5
ENDBRANCH   3   4
ENDBRANCH   2   3
ENDBRANCH   1   2
BRANCH   1  10
ATOM     10  C   UNL     1     -10.915   3.702   7.154  1.00  0.00     0.000 C 
BRANCH  10  11
ATOM     11  C   UNL     1     -10.704   5.226   7.206  1.00  0.00    -0.000 C 
BRANCH  11  12
ATOM     12  C   UNL     1      -9.454   5.672   6.431  1.00  0.00    -0.000 C 
BRANCH  12  13
ATOM     13  C   UNL     1      -9.795   6.261   5.052  1.00  0.00    -0.000 C 
BRANCH  13  14
ATOM     14  C   UNL     1      -9.603   7.787   4.992  1.00  0.00    -0.000 C 
BRANCH  14  15
ATOM     15  C   UNL     1      -8.604   8.328   6.036  1.00  0.00    -0.000 C 
BRANCH  15  16
ATOM     16  C   UNL     1      -7.628   9.349   5.430  1.00  0.00    -0.003 C 
ATOM     17  C   UNL     1      -7.632  10.653   6.223  1.00  0.00     0.004 C 
ENDBRANCH  15  16
ENDBRANCH  14  15
ENDBRANCH  13  14
ENDBRANCH  12  13
ENDBRANCH  11  12
ENDBRANCH  10  11
ENDBRANCH   1  10
TORSDOF 13
ENDMDL
