MODEL 1
REMARK VINA RESULT:    -4.092      0.000      0.000
REMARK INTER + INTRA:          -5.603
REMARK INTER:                  -5.288
REMARK INTRA:                  -0.316
REMARK UNBOUND:                -0.316
REMARK SMILES CO[C@@]1(CO)O[C@H](CO)[C@@H](O)[C@H]1O
REMARK SMILES IDX 3 1 12 2 10 3 7 4 6 5 2 6 1 7 4 8 5 9 13 11 11 13 8 15 9 16
REMARK H PARENT 5 10 13 12 11 14 9 17
REMARK Flexibility Score: inf
ROOT
ATOM      1  C   UNL     1      31.763  -9.817  12.651  1.00  0.00     0.221 C 
ATOM      2  C   UNL     1      30.972  -9.246  13.843  1.00  0.00     0.207 C 
ATOM      3  C   UNL     1      30.616  -7.855  13.376  1.00  0.00     0.180 C 
ATOM      4  C   UNL     1      30.547  -8.022  11.859  1.00  0.00     0.179 C 
ATOM      5  O   UNL     1      31.332  -9.133  11.478  1.00  0.00    -0.337 OA
ENDROOT
BRANCH   1   6
ATOM      6  O   UNL     1      31.550 -11.228  12.592  1.00  0.00    -0.349 OA
ATOM      7  C   UNL     1      32.683 -11.984  12.961  1.00  0.00     0.198 C 
ENDBRANCH   1   6
BRANCH   1   8
ATOM      8  C   UNL     1      33.271  -9.554  12.849  1.00  0.00     0.224 C 
BRANCH   8   9
ATOM      9  O   UNL     1      33.731  -8.615  11.917  1.00  0.00    -0.391 OA
ATOM     10  H   UNL     1      34.305  -7.983  12.423  1.00  0.00     0.210 HD
ENDBRANCH   8   9
ENDBRANCH   1   8
BRANCH   2  11
ATOM     11  O   UNL     1      29.819 -10.012  14.125  1.00  0.00    -0.385 OA
ATOM     12  H   UNL     1      29.637  -9.953  15.100  1.00  0.00     0.211 HD
ENDBRANCH   2  11
BRANCH   3  13
ATOM     13  O   UNL     1      29.386  -7.415  13.892  1.00  0.00    -0.387 OA
ATOM     14  H   UNL     1      28.897  -8.229  14.183  1.00  0.00     0.211 HD
ENDBRANCH   3  13
BRANCH   4  15
ATOM     15  C   UNL     1      31.029  -6.773  11.111  1.00  0.00     0.191 C 
BRANCH  15  16
ATOM     16  O   UNL     1      31.934  -7.116  10.097  1.00  0.00    -0.394 OA
ATOM     17  H   UNL     1      32.137  -6.280   9.602  1.00  0.00     0.210 HD
ENDBRANCH  15  16
ENDBRANCH   4  15
TORSDOF 7
ENDMDL
MODEL 2
REMARK VINA RESULT:    -4.071     14.985     17.309
REMARK INTER + INTRA:          -5.576
REMARK INTER:                  -5.058
REMARK INTRA:                  -0.519
REMARK UNBOUND:                -0.316
REMARK SMILES CO[C@@]1(CO)O[C@H](CO)[C@@H](O)[C@H]1O
REMARK SMILES IDX 3 1 12 2 10 3 7 4 6 5 2 6 1 7 4 8 5 9 13 11 11 13 8 15 9 16
REMARK H PARENT 5 10 13 12 11 14 9 17
REMARK Flexibility Score: inf
ROOT
ATOM      1  C   UNL     1      33.568  -4.702  -4.774  1.00  0.00     0.221 C 
ATOM      2  C   UNL     1      32.061  -4.897  -4.524  1.00  0.00     0.207 C 
ATOM      3  C   UNL     1      32.020  -5.421  -3.108  1.00  0.00     0.180 C 
ATOM      4  C   UNL     1      33.269  -4.797  -2.488  1.00  0.00     0.179 C 
ATOM      5  O   UNL     1      34.193  -4.493  -3.512  1.00  0.00    -0.337 OA
ENDROOT
BRANCH   1   6
ATOM      6  O   UNL     1      33.745  -3.611  -5.680  1.00  0.00    -0.349 OA
ATOM      7  C   UNL     1      34.835  -2.776  -5.348  1.00  0.00     0.198 C 
ENDBRANCH   1   6
BRANCH   1   8
ATOM      8  C   UNL     1      34.162  -5.974  -5.415  1.00  0.00     0.224 C 
BRANCH   8   9
ATOM      9  O   UNL     1      35.363  -6.323  -4.785  1.00  0.00    -0.391 OA
ATOM     10  H   UNL     1      35.118  -6.930  -4.039  1.00  0.00     0.210 HD
ENDBRANCH   8   9
ENDBRANCH   1   8
BRANCH   2  11
ATOM     11  O   UNL     1      31.344  -3.687  -4.652  1.00  0.00    -0.385 OA
ATOM     12  H   UNL     1      30.375  -3.887  -4.564  1.00  0.00     0.211 HD
ENDBRANCH   2  11
BRANCH   3  13
ATOM     13  O   UNL     1      30.862  -5.020  -2.422  1.00  0.00    -0.387 OA
ATOM     14  H   UNL     1      30.820  -5.571  -1.597  1.00  0.00     0.211 HD
ENDBRANCH   3  13
BRANCH   4  15
ATOM     15  C   UNL     1      33.932  -5.719  -1.457  1.00  0.00     0.191 C 
BRANCH  15  16
ATOM     16  O   UNL     1      35.245  -6.032  -1.837  1.00  0.00    -0.394 OA
ATOM     17  H   UNL     1      35.297  -5.889  -2.819  1.00  0.00     0.210 HD
ENDBRANCH  15  16
ENDBRANCH   4  15
TORSDOF 7
ENDMDL
MODEL 3
REMARK VINA RESULT:    -4.062     15.046     16.801
REMARK INTER + INTRA:          -5.564
REMARK INTER:                  -5.343
REMARK INTRA:                  -0.222
REMARK UNBOUND:                -0.316
REMARK SMILES CO[C@@]1(CO)O[C@H](CO)[C@@H](O)[C@H]1O
REMARK SMILES IDX 3 1 12 2 10 3 7 4 6 5 2 6 1 7 4 8 5 9 13 11 11 13 8 15 9 16
REMARK H PARENT 5 10 13 12 11 14 9 17
REMARK Flexibility Score: inf
ROOT
ATOM      1  C   UNL     1      32.807  -3.960  -3.054  1.00  0.00     0.221 C 
ATOM      2  C   UNL     1      33.320  -4.789  -1.861  1.00  0.00     0.207 C 
ATOM      3  C   UNL     1      34.185  -5.834  -2.525  1.00  0.00     0.180 C 
ATOM      4  C   UNL     1      34.668  -5.114  -3.783  1.00  0.00     0.179 C 
ATOM      5  O   UNL     1      33.755  -4.087  -4.109  1.00  0.00    -0.337 OA
ENDROOT
BRANCH   1   6
ATOM      6  O   UNL     1      32.615  -2.611  -2.626  1.00  0.00    -0.349 OA
ATOM      7  C   UNL     1      32.718  -1.668  -3.673  1.00  0.00     0.198 C 
ENDBRANCH   1   6
BRANCH   1   8
ATOM      8  C   UNL     1      31.453  -4.521  -3.537  1.00  0.00     0.224 C 
BRANCH   8   9
ATOM      9  O   UNL     1      30.671  -4.920  -2.446  1.00  0.00    -0.391 OA
ATOM     10  H   UNL     1      30.972  -4.371  -1.675  1.00  0.00     0.210 HD
ENDBRANCH   8   9
ENDBRANCH   1   8
BRANCH   2  11
ATOM     11  O   UNL     1      34.060  -4.001  -0.952  1.00  0.00    -0.385 OA
ATOM     12  H   UNL     1      33.421  -3.475  -0.403  1.00  0.00     0.211 HD
ENDBRANCH   2  11
BRANCH   3  13
ATOM     13  O   UNL     1      35.268  -6.223  -1.719  1.00  0.00    -0.387 OA
ATOM     14  H   UNL     1      35.776  -6.898  -2.240  1.00  0.00     0.211 HD
ENDBRANCH   3  13
BRANCH   4  15
ATOM     15  C   UNL     1      34.818  -6.065  -4.977  1.00  0.00     0.191 C 
BRANCH  15  16
ATOM     16  O   UNL     1      36.153  -6.465  -5.132  1.00  0.00    -0.394 OA
ATOM     17  H   UNL     1      36.185  -7.434  -4.920  1.00  0.00     0.210 HD
ENDBRANCH  15  16
ENDBRANCH   4  15
TORSDOF 7
ENDMDL
MODEL 4
REMARK VINA RESULT:    -4.050     14.288     16.841
REMARK INTER + INTRA:          -5.549
REMARK INTER:                  -5.193
REMARK INTRA:                  -0.356
REMARK UNBOUND:                -0.316
REMARK SMILES CO[C@@]1(CO)O[C@H](CO)[C@@H](O)[C@H]1O
REMARK SMILES IDX 3 1 12 2 10 3 7 4 6 5 2 6 1 7 4 8 5 9 13 11 11 13 8 15 9 16
REMARK H PARENT 5 10 13 12 11 14 9 17
REMARK Flexibility Score: inf
ROOT
ATOM      1  C   UNL     1      32.525  -4.441  -3.495  1.00  0.00     0.221 C 
ATOM      2  C   UNL     1      33.614  -4.663  -4.562  1.00  0.00     0.207 C 
ATOM      3  C   UNL     1      34.767  -5.214  -3.756  1.00  0.00     0.180 C 
ATOM      4  C   UNL     1      34.057  -5.917  -2.601  1.00  0.00     0.179 C 
ATOM      5  O   UNL     1      32.778  -5.344  -2.424  1.00  0.00    -0.337 OA
ENDROOT
BRANCH   1   6
ATOM      6  O   UNL     1      31.245  -4.628  -4.101  1.00  0.00    -0.349 OA
ATOM      7  C   UNL     1      30.417  -3.486  -4.031  1.00  0.00     0.198 C 
ENDBRANCH   1   6
BRANCH   1   8
ATOM      8  C   UNL     1      32.608  -2.998  -2.955  1.00  0.00     0.224 C 
BRANCH   8   9
ATOM      9  O   UNL     1      32.968  -3.002  -1.601  1.00  0.00    -0.391 OA
ATOM     10  H   UNL     1      32.987  -3.955  -1.324  1.00  0.00     0.210 HD
ENDBRANCH   8   9
ENDBRANCH   1   8
BRANCH   2  11
ATOM     11  O   UNL     1      33.196  -5.570  -5.560  1.00  0.00    -0.385 OA
ATOM     12  H   UNL     1      33.616  -6.451  -5.376  1.00  0.00     0.211 HD
ENDBRANCH   2  11
BRANCH   3  13
ATOM     13  O   UNL     1      35.551  -6.118  -4.492  1.00  0.00    -0.387 OA
ATOM     14  H   UNL     1      35.855  -5.630  -5.302  1.00  0.00     0.211 HD
ENDBRANCH   3  13
BRANCH   4  15
ATOM     15  C   UNL     1      34.846  -5.825  -1.289  1.00  0.00     0.191 C 
BRANCH  15  16
ATOM     16  O   UNL     1      34.047  -5.304  -0.261  1.00  0.00    -0.394 OA
ATOM     17  H   UNL     1      33.379  -6.004  -0.038  1.00  0.00     0.210 HD
ENDBRANCH  15  16
ENDBRANCH   4  15
TORSDOF 7
ENDMDL
MODEL 5
REMARK VINA RESULT:    -3.979      1.604      3.794
REMARK INTER + INTRA:          -5.458
REMARK INTER:                  -5.077
REMARK INTRA:                  -0.381
REMARK UNBOUND:                -0.316
REMARK SMILES CO[C@@]1(CO)O[C@H](CO)[C@@H](O)[C@H]1O
REMARK SMILES IDX 3 1 12 2 10 3 7 4 6 5 2 6 1 7 4 8 5 9 13 11 11 13 8 15 9 16
REMARK H PARENT 5 10 13 12 11 14 9 17
REMARK Flexibility Score: inf
ROOT
ATOM      1  C   UNL     1      31.524  -8.179  12.420  1.00  0.00     0.221 C 
ATOM      2  C   UNL     1      31.815  -7.122  11.337  1.00  0.00     0.207 C 
ATOM      3  C   UNL     1      33.267  -6.785  11.578  1.00  0.00     0.180 C 
ATOM      4  C   UNL     1      33.816  -8.083  12.167  1.00  0.00     0.179 C 
ATOM      5  O   UNL     1      32.756  -8.814  12.746  1.00  0.00    -0.337 OA
ENDROOT
BRANCH   1   6
ATOM      6  O   UNL     1      30.536  -9.083  11.924  1.00  0.00    -0.349 OA
ATOM      7  C   UNL     1      30.882 -10.442  12.091  1.00  0.00     0.198 C 
ENDBRANCH   1   6
BRANCH   1   8
ATOM      8  C   UNL     1      30.971  -7.492  13.687  1.00  0.00     0.224 C 
BRANCH   8   9
ATOM      9  O   UNL     1      29.571  -7.473  13.661  1.00  0.00    -0.391 OA
ATOM     10  H   UNL     1      29.285  -7.044  14.509  1.00  0.00     0.210 HD
ENDBRANCH   8   9
ENDBRANCH   1   8
BRANCH   2  11
ATOM     11  O   UNL     1      31.608  -7.631  10.036  1.00  0.00    -0.385 OA
ATOM     12  H   UNL     1      30.719  -8.074  10.012  1.00  0.00     0.211 HD
ENDBRANCH   2  11
BRANCH   3  13
ATOM     13  O   UNL     1      33.941  -6.442  10.394  1.00  0.00    -0.387 OA
ATOM     14  H   UNL     1      33.446  -5.676  10.002  1.00  0.00     0.211 HD
ENDBRANCH   3  13
BRANCH   4  15
ATOM     15  C   UNL     1      34.902  -7.832  13.221  1.00  0.00     0.191 C 
BRANCH  15  16
ATOM     16  O   UNL     1      35.872  -6.943  12.737  1.00  0.00    -0.394 OA
ATOM     17  H   UNL     1      35.391  -6.116  12.472  1.00  0.00     0.210 HD
ENDBRANCH  15  16
ENDBRANCH   4  15
TORSDOF 7
ENDMDL
MODEL 6
REMARK VINA RESULT:    -3.908     14.742     17.030
REMARK INTER + INTRA:          -5.366
REMARK INTER:                  -4.888
REMARK INTRA:                  -0.478
REMARK UNBOUND:                -0.316
REMARK SMILES CO[C@@]1(CO)O[C@H](CO)[C@@H](O)[C@H]1O
REMARK SMILES IDX 3 1 12 2 10 3 7 4 6 5 2 6 1 7 4 8 5 9 13 11 11 13 8 15 9 16
REMARK H PARENT 5 10 13 12 11 14 9 17
REMARK Flexibility Score: inf
ROOT
ATOM      1  C   UNL     1      33.239  -5.320  -3.009  1.00  0.00     0.221 C 
ATOM      2  C   UNL     1      33.955  -5.526  -4.358  1.00  0.00     0.207 C 
ATOM      3  C   UNL     1      33.892  -4.154  -4.985  1.00  0.00     0.180 C 
ATOM      4  C   UNL     1      33.869  -3.233  -3.767  1.00  0.00     0.179 C 
ATOM      5  O   UNL     1      33.371  -3.948  -2.654  1.00  0.00    -0.337 OA
ENDROOT
BRANCH   1   6
ATOM      6  O   UNL     1      33.809  -6.210  -2.047  1.00  0.00    -0.349 OA
ATOM      7  C   UNL     1      34.367  -5.549  -0.931  1.00  0.00     0.198 C 
ENDBRANCH   1   6
BRANCH   1   8
ATOM      8  C   UNL     1      31.739  -5.650  -3.157  1.00  0.00     0.224 C 
BRANCH   8   9
ATOM      9  O   UNL     1      30.964  -4.739  -2.428  1.00  0.00    -0.391 OA
ATOM     10  H   UNL     1      30.043  -4.809  -2.791  1.00  0.00     0.210 HD
ENDBRANCH   8   9
ENDBRANCH   1   8
BRANCH   2  11
ATOM     11  O   UNL     1      35.289  -5.959  -4.185  1.00  0.00    -0.385 OA
ATOM     12  H   UNL     1      35.764  -5.855  -5.051  1.00  0.00     0.211 HD
ENDBRANCH   2  11
BRANCH   3  13
ATOM     13  O   UNL     1      35.005  -3.886  -5.800  1.00  0.00    -0.387 OA
ATOM     14  H   UNL     1      34.704  -4.019  -6.736  1.00  0.00     0.211 HD
ENDBRANCH   3  13
BRANCH   4  15
ATOM     15  C   UNL     1      33.012  -1.982  -3.997  1.00  0.00     0.191 C 
BRANCH  15  16
ATOM     16  O   UNL     1      31.657  -2.321  -4.124  1.00  0.00    -0.394 OA
ATOM     17  H   UNL     1      31.197  -1.959  -3.322  1.00  0.00     0.210 HD
ENDBRANCH  15  16
ENDBRANCH   4  15
TORSDOF 7
ENDMDL
MODEL 7
REMARK VINA RESULT:    -3.874     15.813     17.724
REMARK INTER + INTRA:          -5.322
REMARK INTER:                  -4.947
REMARK INTRA:                  -0.375
REMARK UNBOUND:                -0.316
REMARK SMILES CO[C@@]1(CO)O[C@H](CO)[C@@H](O)[C@H]1O
REMARK SMILES IDX 3 1 12 2 10 3 7 4 6 5 2 6 1 7 4 8 5 9 13 11 11 13 8 15 9 16
REMARK H PARENT 5 10 13 12 11 14 9 17
REMARK Flexibility Score: inf
ROOT
ATOM      1  C   UNL     1      31.118  -4.398  -4.774  1.00  0.00     0.221 C 
ATOM      2  C   UNL     1      31.123  -5.228  -3.476  1.00  0.00     0.207 C 
ATOM      3  C   UNL     1      32.582  -5.584  -3.311  1.00  0.00     0.180 C 
ATOM      4  C   UNL     1      33.288  -4.412  -3.989  1.00  0.00     0.179 C 
ATOM      5  O   UNL     1      32.409  -3.818  -4.922  1.00  0.00    -0.337 OA
ENDROOT
BRANCH   1   6
ATOM      6  O   UNL     1      30.069  -3.431  -4.696  1.00  0.00    -0.349 OA
ATOM      7  C   UNL     1      30.010  -2.573  -5.816  1.00  0.00     0.198 C 
ENDBRANCH   1   6
BRANCH   1   8
ATOM      8  C   UNL     1      30.848  -5.319  -5.984  1.00  0.00     0.224 C 
BRANCH   8   9
ATOM      9  O   UNL     1      29.656  -6.031  -5.800  1.00  0.00    -0.391 OA
ATOM     10  H   UNL     1      29.178  -5.996  -6.669  1.00  0.00     0.210 HD
ENDBRANCH   8   9
ENDBRANCH   1   8
BRANCH   2  11
ATOM     11  O   UNL     1      30.640  -4.487  -2.376  1.00  0.00    -0.385 OA
ATOM     12  H   UNL     1      30.201  -5.117  -1.745  1.00  0.00     0.211 HD
ENDBRANCH   2  11
BRANCH   3  13
ATOM     13  O   UNL     1      32.958  -5.688  -1.962  1.00  0.00    -0.387 OA
ATOM     14  H   UNL     1      33.264  -6.623  -1.828  1.00  0.00     0.211 HD
ENDBRANCH   3  13
BRANCH   4  15
ATOM     15  C   UNL     1      34.578  -4.840  -4.701  1.00  0.00     0.191 C 
BRANCH  15  16
ATOM     16  O   UNL     1      35.080  -6.029  -4.151  1.00  0.00    -0.394 OA
ATOM     17  H   UNL     1      34.320  -6.473  -3.693  1.00  0.00     0.210 HD
ENDBRANCH  15  16
ENDBRANCH   4  15
TORSDOF 7
ENDMDL
MODEL 8
REMARK VINA RESULT:    -3.800      1.608      2.743
REMARK INTER + INTRA:          -5.227
REMARK INTER:                  -4.902
REMARK INTRA:                  -0.325
REMARK UNBOUND:                -0.316
REMARK SMILES CO[C@@]1(CO)O[C@H](CO)[C@@H](O)[C@H]1O
REMARK SMILES IDX 3 1 12 2 10 3 7 4 6 5 2 6 1 7 4 8 5 9 13 11 11 13 8 15 9 16
REMARK H PARENT 5 10 13 12 11 14 9 17
REMARK Flexibility Score: inf
ROOT
ATOM      1  C   UNL     1      31.894  -9.289  12.783  1.00  0.00     0.221 C 
ATOM      2  C   UNL     1      33.395  -8.950  12.704  1.00  0.00     0.207 C 
ATOM      3  C   UNL     1      33.422  -7.753  11.784  1.00  0.00     0.180 C 
ATOM      4  C   UNL     1      32.059  -7.112  12.034  1.00  0.00     0.179 C 
ATOM      5  O   UNL     1      31.167  -8.093  12.521  1.00  0.00    -0.337 OA
ENDROOT
BRANCH   1   6
ATOM      6  O   UNL     1      31.617  -9.848  14.067  1.00  0.00    -0.349 OA
ATOM      7  C   UNL     1      30.390 -10.545  14.125  1.00  0.00     0.198 C 
ENDBRANCH   1   6
BRANCH   1   8
ATOM      8  C   UNL     1      31.535 -10.332  11.703  1.00  0.00     0.224 C 
BRANCH   8   9
ATOM      9  O   UNL     1      32.647 -11.130  11.406  1.00  0.00    -0.391 OA
ATOM     10  H   UNL     1      32.879 -11.603  12.247  1.00  0.00     0.210 HD
ENDBRANCH   8   9
ENDBRANCH   1   8
BRANCH   2  11
ATOM     11  O   UNL     1      33.933  -8.643  13.973  1.00  0.00    -0.385 OA
ATOM     12  H   UNL     1      34.831  -8.240  13.842  1.00  0.00     0.211 HD
ENDBRANCH   2  11
BRANCH   3  13
ATOM     13  O   UNL     1      34.464  -6.863  12.094  1.00  0.00    -0.387 OA
ATOM     14  H   UNL     1      34.032  -6.021  12.396  1.00  0.00     0.211 HD
ENDBRANCH   3  13
BRANCH   4  15
ATOM     15  C   UNL     1      31.474  -6.471  10.769  1.00  0.00     0.191 C 
BRANCH  15  16
ATOM     16  O   UNL     1      32.276  -6.749   9.652  1.00  0.00    -0.394 OA
ATOM     17  H   UNL     1      33.201  -6.868   9.990  1.00  0.00     0.210 HD
ENDBRANCH  15  16
ENDBRANCH   4  15
TORSDOF 7
ENDMDL
MODEL 9
REMARK VINA RESULT:    -3.769     15.799     17.076
REMARK INTER + INTRA:          -5.186
REMARK INTER:                  -4.690
REMARK INTRA:                  -0.496
REMARK UNBOUND:                -0.316
REMARK SMILES CO[C@@]1(CO)O[C@H](CO)[C@@H](O)[C@H]1O
REMARK SMILES IDX 3 1 12 2 10 3 7 4 6 5 2 6 1 7 4 8 5 9 13 11 11 13 8 15 9 16
REMARK H PARENT 5 10 13 12 11 14 9 17
REMARK Flexibility Score: inf
ROOT
ATOM      1  C   UNL     1      32.806  -4.446  -3.373  1.00  0.00     0.221 C 
ATOM      2  C   UNL     1      31.324  -4.536  -2.964  1.00  0.00     0.207 C 
ATOM      3  C   UNL     1      30.694  -3.399  -3.733  1.00  0.00     0.180 C 
ATOM      4  C   UNL     1      31.595  -3.289  -4.960  1.00  0.00     0.179 C 
ATOM      5  O   UNL     1      32.865  -3.825  -4.653  1.00  0.00    -0.337 OA
ENDROOT
BRANCH   1   6
ATOM      6  O   UNL     1      33.367  -5.760  -3.356  1.00  0.00    -0.349 OA
ATOM      7  C   UNL     1      34.117  -6.037  -2.192  1.00  0.00     0.198 C 
ENDBRANCH   1   6
BRANCH   1   8
ATOM      8  C   UNL     1      33.576  -3.569  -2.363  1.00  0.00     0.224 C 
BRANCH   8   9
ATOM      9  O   UNL     1      34.365  -2.627  -3.035  1.00  0.00    -0.391 OA
ATOM     10  H   UNL     1      33.965  -1.740  -2.836  1.00  0.00     0.210 HD
ENDBRANCH   8   9
ENDBRANCH   1   8
BRANCH   2  11
ATOM     11  O   UNL     1      30.755  -5.780  -3.315  1.00  0.00    -0.385 OA
ATOM     12  H   UNL     1      30.032  -5.986  -2.665  1.00  0.00     0.211 HD
ENDBRANCH   2  11
BRANCH   3  13
ATOM     13  O   UNL     1      29.367  -3.674  -4.104  1.00  0.00    -0.387 OA
ATOM     14  H   UNL     1      29.223  -3.228  -4.979  1.00  0.00     0.211 HD
ENDBRANCH   3  13
BRANCH   4  15
ATOM     15  C   UNL     1      31.754  -1.840  -5.440  1.00  0.00     0.191 C 
BRANCH  15  16
ATOM     16  O   UNL     1      32.318  -1.040  -4.437  1.00  0.00    -0.394 OA
ATOM     17  H   UNL     1      33.266  -1.323  -4.348  1.00  0.00     0.210 HD
ENDBRANCH  15  16
ENDBRANCH   4  15
TORSDOF 7
ENDMDL
