MODEL 1
REMARK VINA RESULT:    -6.466      0.000      0.000
REMARK INTER + INTRA:          -7.682
REMARK INTER:                  -7.411
REMARK INTRA:                  -0.271
REMARK UNBOUND:                -0.271
REMARK SMILES CC1(C)CC[C@@]23CO[C@]4(C=C[C@@H]5[C@@]6(C)CC[C@H](O)[C@](C)(CO)[C@@H]6CC[C@]5(C)[C@]4(C)C[C@@H]2O)[C@@H]3C1
REMARK SMILES IDX 1 1 2 2 4 3 5 4 6 5 7 6 8 7 9 8 33 9 34 10 10 11 11 12 12 13
REMARK SMILES IDX 13 14 15 15 16 16 17 17 19 18 23 19 24 20 25 21 26 22 28 23
REMARK SMILES IDX 30 24 31 25 29 26 27 27 20 28 14 29 3 30 32 31 21 33 22 34
REMARK SMILES IDX 18 36
REMARK H PARENT 32 32 22 35 18 37
REMARK Flexibility Score: inf
ROOT
ATOM      1  C   UNL     1      -3.383  12.932  80.605  1.00  0.00     0.011 C 
ATOM      2  C   UNL     1      -3.414  11.778  81.628  1.00  0.00    -0.035 C 
ATOM      3  C   UNL     1      -2.135  11.845  82.493  1.00  0.00     0.007 C 
ATOM      4  C   UNL     1      -2.008  10.661  83.464  1.00  0.00     0.013 C 
ATOM      5  C   UNL     1      -2.211   9.257  82.813  1.00  0.00     0.026 C 
ATOM      6  C   UNL     1      -1.039   8.871  81.912  1.00  0.00     0.171 C 
ATOM      7  O   UNL     1      -1.510   7.920  80.990  1.00  0.00    -0.369 OA
ATOM      8  C   UNL     1      -2.933   7.886  81.069  1.00  0.00     0.096 C 
ATOM      9  C   UNL     1      -3.345   9.200  81.799  1.00  0.00     0.037 C 
ATOM     10  C   UNL     1      -3.431  10.437  80.863  1.00  0.00     0.014 C 
ATOM     11  C   UNL     1      -3.391   7.790  79.629  1.00  0.00     0.005 C 
ATOM     12  C   UNL     1      -4.024   6.729  79.109  1.00  0.00    -0.024 C 
ATOM     13  C   UNL     1      -4.769   5.651  79.904  1.00  0.00     0.024 C 
ATOM     14  C   UNL     1      -6.185   5.234  79.213  1.00  0.00    -0.022 C 
ATOM     15  C   UNL     1      -6.134   3.727  78.821  1.00  0.00     0.010 C 
ATOM     16  C   UNL     1      -7.473   3.181  78.299  1.00  0.00     0.033 C 
ATOM     17  C   UNL     1      -8.629   3.371  79.309  1.00  0.00     0.123 C 
ATOM     18  C   UNL     1      -8.816   4.857  79.775  1.00  0.00     0.020 C 
ATOM     19  C   UNL     1      -7.384   5.413  80.212  1.00  0.00     0.006 C 
ATOM     20  C   UNL     1      -7.328   6.807  80.874  1.00  0.00     0.005 C 
ATOM     21  C   UNL     1      -5.975   7.122  81.575  1.00  0.00     0.008 C 
ATOM     22  C   UNL     1      -4.827   6.047  81.440  1.00  0.00    -0.017 C 
ATOM     23  C   UNL     1      -3.374   6.614  81.913  1.00  0.00     0.009 C 
ATOM     24  C   UNL     1      -3.361   6.971  83.458  1.00  0.00     0.043 C 
ATOM     25  C   UNL     1      -2.400   8.117  83.897  1.00  0.00     0.124 C 
ATOM     26  C   UNL     1      -2.283   5.501  81.700  1.00  0.00     0.015 C 
ATOM     27  C   UNL     1      -5.182   4.807  82.347  1.00  0.00     0.013 C 
ATOM     28  C   UNL     1      -9.743   4.812  81.026  1.00  0.00     0.017 C 
ATOM     29  C   UNL     1      -6.434   6.053  77.903  1.00  0.00     0.012 C 
ATOM     30  C   UNL     1      -4.688  11.942  82.494  1.00  0.00     0.011 C 
ENDROOT
BRANCH  25  31
ATOM     31  O   UNL     1      -2.889   8.648  85.106  1.00  0.00    -0.392 OA
ATOM     32  H   UNL     1      -2.840   7.933  85.788  1.00  0.00     0.210 HD
ENDBRANCH  25  31
BRANCH  18  33
ATOM     33  C   UNL     1      -9.599   5.667  78.687  1.00  0.00     0.165 C 
BRANCH  33  34
ATOM     34  O   UNL     1     -10.988   5.530  78.822  1.00  0.00    -0.396 OA
ATOM     35  H   UNL     1     -11.279   4.905  78.110  1.00  0.00     0.210 HD
ENDBRANCH  33  34
ENDBRANCH  18  33
BRANCH  17  36
ATOM     36  O   UNL     1      -9.821   2.875  78.752  1.00  0.00    -0.392 OA
ATOM     37  H   UNL     1     -10.350   3.666  78.455  1.00  0.00     0.210 HD
ENDBRANCH  17  36
TORSDOF 4
ENDMDL
MODEL 2
REMARK VINA RESULT:    -6.406      1.899      7.652
REMARK INTER + INTRA:          -7.614
REMARK INTER:                  -7.389
REMARK INTRA:                  -0.225
REMARK UNBOUND:                -0.271
REMARK SMILES CC1(C)CC[C@@]23CO[C@]4(C=C[C@@H]5[C@@]6(C)CC[C@H](O)[C@](C)(CO)[C@@H]6CC[C@]5(C)[C@]4(C)C[C@@H]2O)[C@@H]3C1
REMARK SMILES IDX 1 1 2 2 4 3 5 4 6 5 7 6 8 7 9 8 33 9 34 10 10 11 11 12 12 13
REMARK SMILES IDX 13 14 15 15 16 16 17 17 19 18 23 19 24 20 25 21 26 22 28 23
REMARK SMILES IDX 30 24 31 25 29 26 27 27 20 28 14 29 3 30 32 31 21 33 22 34
REMARK SMILES IDX 18 36
REMARK H PARENT 32 32 22 35 18 37
REMARK Flexibility Score: inf
ROOT
ATOM      1  C   UNL     1      -8.141   8.707  75.191  1.00  0.00     0.011 C 
ATOM      2  C   UNL     1      -7.872   7.329  75.829  1.00  0.00    -0.035 C 
ATOM      3  C   UNL     1      -9.120   6.439  75.633  1.00  0.00     0.007 C 
ATOM      4  C   UNL     1      -9.002   5.081  76.344  1.00  0.00     0.013 C 
ATOM      5  C   UNL     1      -8.560   5.162  77.839  1.00  0.00     0.026 C 
ATOM      6  C   UNL     1      -9.662   5.732  78.731  1.00  0.00     0.171 C 
ATOM      7  O   UNL     1      -9.046   6.260  79.878  1.00  0.00    -0.369 OA
ATOM      8  C   UNL     1      -7.640   6.310  79.650  1.00  0.00     0.096 C 
ATOM      9  C   UNL     1      -7.460   6.180  78.108  1.00  0.00     0.037 C 
ATOM     10  C   UNL     1      -7.627   7.521  77.341  1.00  0.00     0.014 C 
ATOM     11  C   UNL     1      -7.208   7.640  80.229  1.00  0.00     0.005 C 
ATOM     12  C   UNL     1      -6.403   7.773  81.293  1.00  0.00    -0.024 C 
ATOM     13  C   UNL     1      -5.453   6.701  81.838  1.00  0.00     0.024 C 
ATOM     14  C   UNL     1      -4.001   7.310  82.260  1.00  0.00    -0.022 C 
ATOM     15  C   UNL     1      -3.783   7.090  83.787  1.00  0.00     0.010 C 
ATOM     16  C   UNL     1      -2.380   7.488  84.272  1.00  0.00     0.033 C 
ATOM     17  C   UNL     1      -1.254   6.743  83.517  1.00  0.00     0.123 C 
ATOM     18  C   UNL     1      -1.333   6.900  81.959  1.00  0.00     0.020 C 
ATOM     19  C   UNL     1      -2.832   6.575  81.512  1.00  0.00     0.006 C 
ATOM     20  C   UNL     1      -3.128   6.494  79.999  1.00  0.00     0.005 C 
ATOM     21  C   UNL     1      -4.498   5.841  79.655  1.00  0.00     0.008 C 
ATOM     22  C   UNL     1      -5.430   5.445  80.866  1.00  0.00    -0.017 C 
ATOM     23  C   UNL     1      -6.952   5.089  80.399  1.00  0.00     0.009 C 
ATOM     24  C   UNL     1      -6.992   3.805  79.471  1.00  0.00     0.043 C 
ATOM     25  C   UNL     1      -8.137   3.748  78.415  1.00  0.00     0.124 C 
ATOM     26  C   UNL     1      -7.823   4.757  81.666  1.00  0.00     0.015 C 
ATOM     27  C   UNL     1      -4.830   4.172  81.575  1.00  0.00     0.013 C 
ATOM     28  C   UNL     1      -0.383   5.821  81.359  1.00  0.00     0.017 C 
ATOM     29  C   UNL     1      -3.940   8.852  81.993  1.00  0.00     0.012 C 
ATOM     30  C   UNL     1      -6.630   6.716  75.136  1.00  0.00     0.011 C 
ENDROOT
BRANCH  25  31
ATOM     31  O   UNL     1      -7.724   2.886  77.380  1.00  0.00    -0.392 OA
ATOM     32  H   UNL     1      -7.673   3.419  76.549  1.00  0.00     0.210 HD
ENDBRANCH  25  31
BRANCH  18  33
ATOM     33  C   UNL     1      -0.740   8.284  81.527  1.00  0.00     0.165 C 
BRANCH  33  34
ATOM     34  O   UNL     1       0.657   8.321  81.641  1.00  0.00    -0.396 OA
ATOM     35  H   UNL     1       0.967   7.380  81.598  1.00  0.00     0.210 HD
ENDBRANCH  33  34
ENDBRANCH  18  33
BRANCH  17  36
ATOM     36  O   UNL     1      -0.005   7.179  83.994  1.00  0.00    -0.392 OA
ATOM     37  H   UNL     1       0.617   6.403  83.918  1.00  0.00     0.210 HD
ENDBRANCH  17  36
TORSDOF 4
ENDMDL
MODEL 3
REMARK VINA RESULT:    -6.155      2.793      3.665
REMARK INTER + INTRA:          -7.326
REMARK INTER:                  -7.222
REMARK INTRA:                  -0.104
REMARK UNBOUND:                -0.271
REMARK SMILES CC1(C)CC[C@@]23CO[C@]4(C=C[C@@H]5[C@@]6(C)CC[C@H](O)[C@](C)(CO)[C@@H]6CC[C@]5(C)[C@]4(C)C[C@@H]2O)[C@@H]3C1
REMARK SMILES IDX 1 1 2 2 4 3 5 4 6 5 7 6 8 7 9 8 33 9 34 10 10 11 11 12 12 13
REMARK SMILES IDX 13 14 15 15 16 16 17 17 19 18 23 19 24 20 25 21 26 22 28 23
REMARK SMILES IDX 30 24 31 25 29 26 27 27 20 28 14 29 3 30 32 31 21 33 22 34
REMARK SMILES IDX 18 36
REMARK H PARENT 32 32 22 35 18 37
REMARK Flexibility Score: inf
ROOT
ATOM      1  C   UNL     1      -2.860  12.306  81.438  1.00  0.00     0.011 C 
ATOM      2  C   UNL     1      -3.043  10.848  81.909  1.00  0.00    -0.035 C 
ATOM      3  C   UNL     1      -2.342  10.676  83.276  1.00  0.00     0.007 C 
ATOM      4  C   UNL     1      -2.360   9.223  83.778  1.00  0.00     0.013 C 
ATOM      5  C   UNL     1      -1.888   8.165  82.732  1.00  0.00     0.026 C 
ATOM      6  C   UNL     1      -0.384   8.245  82.478  1.00  0.00     0.171 C 
ATOM      7  O   UNL     1      -0.139   7.688  81.211  1.00  0.00    -0.369 OA
ATOM      8  C   UNL     1      -1.389   7.517  80.547  1.00  0.00     0.096 C 
ATOM      9  C   UNL     1      -2.400   8.415  81.320  1.00  0.00     0.037 C 
ATOM     10  C   UNL     1      -2.377   9.906  80.884  1.00  0.00     0.014 C 
ATOM     11  C   UNL     1      -1.122   7.946  79.119  1.00  0.00     0.005 C 
ATOM     12  C   UNL     1      -1.165   7.121  78.064  1.00  0.00    -0.024 C 
ATOM     13  C   UNL     1      -1.881   5.766  78.014  1.00  0.00     0.024 C 
ATOM     14  C   UNL     1      -2.687   5.539  76.616  1.00  0.00    -0.022 C 
ATOM     15  C   UNL     1      -2.085   4.307  75.877  1.00  0.00     0.010 C 
ATOM     16  C   UNL     1      -2.866   3.902  74.617  1.00  0.00     0.033 C 
ATOM     17  C   UNL     1      -4.355   3.602  74.909  1.00  0.00     0.123 C 
ATOM     18  C   UNL     1      -5.101   4.776  75.632  1.00  0.00     0.020 C 
ATOM     19  C   UNL     1      -4.206   5.230  76.874  1.00  0.00     0.006 C 
ATOM     20  C   UNL     1      -4.806   6.264  77.851  1.00  0.00     0.005 C 
ATOM     21  C   UNL     1      -4.033   6.388  79.196  1.00  0.00     0.008 C 
ATOM     22  C   UNL     1      -2.712   5.538  79.348  1.00  0.00    -0.017 C 
ATOM     23  C   UNL     1      -1.816   5.989  80.633  1.00  0.00     0.009 C 
ATOM     24  C   UNL     1      -2.579   5.727  81.998  1.00  0.00     0.043 C 
ATOM     25  C   UNL     1      -2.239   6.686  83.178  1.00  0.00     0.124 C 
ATOM     26  C   UNL     1      -0.499   5.130  80.681  1.00  0.00     0.015 C 
ATOM     27  C   UNL     1      -3.101   4.021  79.537  1.00  0.00     0.013 C 
ATOM     28  C   UNL     1      -6.440   4.185  76.165  1.00  0.00     0.017 C 
ATOM     29  C   UNL     1      -2.532   6.777  75.670  1.00  0.00     0.012 C 
ATOM     30  C   UNL     1      -4.563  10.570  82.018  1.00  0.00     0.011 C 
ENDROOT
BRANCH  25  31
ATOM     31  O   UNL     1      -3.330   6.674  84.069  1.00  0.00    -0.392 OA
ATOM     32  H   UNL     1      -4.073   6.198  83.623  1.00  0.00     0.210 HD
ENDBRANCH  25  31
BRANCH  18  33
ATOM     33  C   UNL     1      -5.501   5.879  74.594  1.00  0.00     0.165 C 
BRANCH  33  34
ATOM     34  O   UNL     1      -6.739   6.465  74.893  1.00  0.00    -0.396 OA
ATOM     35  H   UNL     1      -6.546   7.380  75.221  1.00  0.00     0.210 HD
ENDBRANCH  33  34
ENDBRANCH  18  33
BRANCH  17  36
ATOM     36  O   UNL     1      -5.007   3.268  73.708  1.00  0.00    -0.392 OA
ATOM     37  H   UNL     1      -4.537   2.471  73.339  1.00  0.00     0.210 HD
ENDBRANCH  17  36
TORSDOF 4
ENDMDL
MODEL 4
REMARK VINA RESULT:    -6.126      4.321      7.813
REMARK INTER + INTRA:          -7.292
REMARK INTER:                  -7.021
REMARK INTRA:                  -0.271
REMARK UNBOUND:                -0.271
REMARK SMILES CC1(C)CC[C@@]23CO[C@]4(C=C[C@@H]5[C@@]6(C)CC[C@H](O)[C@](C)(CO)[C@@H]6CC[C@]5(C)[C@]4(C)C[C@@H]2O)[C@@H]3C1
REMARK SMILES IDX 1 1 2 2 4 3 5 4 6 5 7 6 8 7 9 8 33 9 34 10 10 11 11 12 12 13
REMARK SMILES IDX 13 14 15 15 16 16 17 17 19 18 23 19 24 20 25 21 26 22 28 23
REMARK SMILES IDX 30 24 31 25 29 26 27 27 20 28 14 29 3 30 32 31 21 33 22 34
REMARK SMILES IDX 18 36
REMARK H PARENT 32 32 22 35 18 37
REMARK Flexibility Score: inf
ROOT
ATOM      1  C   UNL     1      -2.290   8.275  72.664  1.00  0.00     0.011 C 
ATOM      2  C   UNL     1      -1.310   7.415  73.487  1.00  0.00    -0.035 C 
ATOM      3  C   UNL     1      -0.799   6.257  72.599  1.00  0.00     0.007 C 
ATOM      4  C   UNL     1       0.092   5.266  73.365  1.00  0.00     0.013 C 
ATOM      5  C   UNL     1      -0.505   4.759  74.715  1.00  0.00     0.026 C 
ATOM      6  C   UNL     1      -1.680   3.808  74.498  1.00  0.00     0.171 C 
ATOM      7  O   UNL     1      -2.465   3.832  75.664  1.00  0.00    -0.369 OA
ATOM      8  C   UNL     1      -2.027   4.918  76.477  1.00  0.00     0.096 C 
ATOM      9  C   UNL     1      -1.198   5.840  75.533  1.00  0.00     0.037 C 
ATOM     10  C   UNL     1      -2.064   6.822  74.696  1.00  0.00     0.014 C 
ATOM     11  C   UNL     1      -3.304   5.535  77.007  1.00  0.00     0.005 C 
ATOM     12  C   UNL     1      -3.660   5.537  78.299  1.00  0.00    -0.024 C 
ATOM     13  C   UNL     1      -2.717   5.332  79.489  1.00  0.00     0.024 C 
ATOM     14  C   UNL     1      -3.030   6.359  80.716  1.00  0.00    -0.022 C 
ATOM     15  C   UNL     1      -3.443   5.537  81.973  1.00  0.00     0.010 C 
ATOM     16  C   UNL     1      -3.614   6.391  83.239  1.00  0.00     0.033 C 
ATOM     17  C   UNL     1      -2.341   7.195  83.592  1.00  0.00     0.123 C 
ATOM     18  C   UNL     1      -1.821   8.096  82.419  1.00  0.00     0.020 C 
ATOM     19  C   UNL     1      -1.756   7.192  81.104  1.00  0.00     0.006 C 
ATOM     20  C   UNL     1      -1.111   7.807  79.843  1.00  0.00     0.005 C 
ATOM     21  C   UNL     1      -0.773   6.769  78.734  1.00  0.00     0.008 C 
ATOM     22  C   UNL     1      -1.211   5.274  78.990  1.00  0.00    -0.017 C 
ATOM     23  C   UNL     1      -1.116   4.351  77.649  1.00  0.00     0.009 C 
ATOM     24  C   UNL     1       0.380   4.213  77.140  1.00  0.00     0.043 C 
ATOM     25  C   UNL     1       0.575   4.018  75.606  1.00  0.00     0.124 C 
ATOM     26  C   UNL     1      -1.616   2.896  77.978  1.00  0.00     0.015 C 
ATOM     27  C   UNL     1      -0.261   4.645  80.079  1.00  0.00     0.013 C 
ATOM     28  C   UNL     1      -0.377   8.532  82.804  1.00  0.00     0.017 C 
ATOM     29  C   UNL     1      -4.222   7.310  80.362  1.00  0.00     0.012 C 
ATOM     30  C   UNL     1      -0.146   8.326  73.947  1.00  0.00     0.011 C 
ENDROOT
BRANCH  25  31
ATOM     31  O   UNL     1       1.877   4.449  75.282  1.00  0.00    -0.392 OA
ATOM     32  H   UNL     1       1.915   5.425  75.435  1.00  0.00     0.210 HD
ENDBRANCH  25  31
BRANCH  18  33
ATOM     33  C   UNL     1      -2.663   9.415  82.342  1.00  0.00     0.165 C 
BRANCH  33  34
ATOM     34  O   UNL     1      -2.166  10.411  83.194  1.00  0.00    -0.396 OA
ATOM     35  H   UNL     1      -2.909  10.656  83.803  1.00  0.00     0.210 HD
ENDBRANCH  33  34
ENDBRANCH  18  33
BRANCH  17  36
ATOM     36  O   UNL     1      -2.583   7.970  84.741  1.00  0.00    -0.392 OA
ATOM     37  H   UNL     1      -3.572   8.064  84.820  1.00  0.00     0.210 HD
ENDBRANCH  17  36
TORSDOF 4
ENDMDL
MODEL 5
REMARK VINA RESULT:    -6.077      1.933      7.783
REMARK INTER + INTRA:          -7.236
REMARK INTER:                  -6.979
REMARK INTRA:                  -0.257
REMARK UNBOUND:                -0.271
REMARK SMILES CC1(C)CC[C@@]23CO[C@]4(C=C[C@@H]5[C@@]6(C)CC[C@H](O)[C@](C)(CO)[C@@H]6CC[C@]5(C)[C@]4(C)C[C@@H]2O)[C@@H]3C1
REMARK SMILES IDX 1 1 2 2 4 3 5 4 6 5 7 6 8 7 9 8 33 9 34 10 10 11 11 12 12 13
REMARK SMILES IDX 13 14 15 15 16 16 17 17 19 18 23 19 24 20 25 21 26 22 28 23
REMARK SMILES IDX 30 24 31 25 29 26 27 27 20 28 14 29 3 30 32 31 21 33 22 34
REMARK SMILES IDX 18 36
REMARK H PARENT 32 32 22 35 18 37
REMARK Flexibility Score: inf
ROOT
ATOM      1  C   UNL     1     -11.165   6.020  81.644  1.00  0.00     0.011 C 
ATOM      2  C   UNL     1     -10.294   5.936  80.373  1.00  0.00    -0.035 C 
ATOM      3  C   UNL     1     -10.958   4.955  79.380  1.00  0.00     0.007 C 
ATOM      4  C   UNL     1     -10.103   4.704  78.128  1.00  0.00     0.013 C 
ATOM      5  C   UNL     1      -8.612   4.340  78.416  1.00  0.00     0.026 C 
ATOM      6  C   UNL     1      -8.471   2.939  79.008  1.00  0.00     0.171 C 
ATOM      7  O   UNL     1      -7.254   2.898  79.710  1.00  0.00    -0.369 OA
ATOM      8  C   UNL     1      -6.761   4.230  79.831  1.00  0.00     0.096 C 
ATOM      9  C   UNL     1      -7.978   5.157  79.533  1.00  0.00     0.037 C 
ATOM     10  C   UNL     1      -8.902   5.393  80.759  1.00  0.00     0.014 C 
ATOM     11  C   UNL     1      -6.232   4.313  81.247  1.00  0.00     0.005 C 
ATOM     12  C   UNL     1      -4.940   4.478  81.561  1.00  0.00    -0.024 C 
ATOM     13  C   UNL     1      -3.855   5.031  80.630  1.00  0.00     0.024 C 
ATOM     14  C   UNL     1      -2.859   6.076  81.385  1.00  0.00    -0.022 C 
ATOM     15  C   UNL     1      -1.410   5.503  81.363  1.00  0.00     0.010 C 
ATOM     16  C   UNL     1      -0.354   6.475  81.913  1.00  0.00     0.033 C 
ATOM     17  C   UNL     1      -0.343   7.828  81.164  1.00  0.00     0.123 C 
ATOM     18  C   UNL     1      -1.741   8.538  81.130  1.00  0.00     0.020 C 
ATOM     19  C   UNL     1      -2.820   7.464  80.650  1.00  0.00     0.006 C 
ATOM     20  C   UNL     1      -4.254   7.964  80.371  1.00  0.00     0.005 C 
ATOM     21  C   UNL     1      -5.137   6.950  79.587  1.00  0.00     0.008 C 
ATOM     22  C   UNL     1      -4.506   5.538  79.273  1.00  0.00    -0.017 C 
ATOM     23  C   UNL     1      -5.610   4.454  78.759  1.00  0.00     0.009 C 
ATOM     24  C   UNL     1      -6.250   4.885  77.374  1.00  0.00     0.043 C 
ATOM     25  C   UNL     1      -7.715   4.421  77.112  1.00  0.00     0.124 C 
ATOM     26  C   UNL     1      -4.908   3.067  78.518  1.00  0.00     0.015 C 
ATOM     27  C   UNL     1      -3.425   5.705  78.137  1.00  0.00     0.013 C 
ATOM     28  C   UNL     1      -1.637   9.663  80.057  1.00  0.00     0.017 C 
ATOM     29  C   UNL     1      -3.269   6.260  82.885  1.00  0.00     0.012 C 
ATOM     30  C   UNL     1     -10.190   7.360  79.771  1.00  0.00     0.011 C 
ENDROOT
BRANCH  25  31
ATOM     31  O   UNL     1      -8.280   5.297  76.165  1.00  0.00    -0.392 OA
ATOM     32  H   UNL     1      -7.995   4.992  75.269  1.00  0.00     0.210 HD
ENDBRANCH  25  31
BRANCH  18  33
ATOM     33  C   UNL     1      -2.007   9.266  82.491  1.00  0.00     0.165 C 
BRANCH  33  34
ATOM     34  O   UNL     1      -1.641  10.618  82.451  1.00  0.00    -0.396 OA
ATOM     35  H   UNL     1      -0.720  10.649  82.083  1.00  0.00     0.210 HD
ENDBRANCH  33  34
ENDBRANCH  18  33
BRANCH  17  36
ATOM     36  O   UNL     1       0.625   8.671  81.740  1.00  0.00    -0.392 OA
ATOM     37  H   UNL     1       0.597   8.511  82.723  1.00  0.00     0.210 HD
ENDBRANCH  17  36
TORSDOF 4
ENDMDL
MODEL 6
REMARK VINA RESULT:    -6.054      1.662      8.036
REMARK INTER + INTRA:          -7.210
REMARK INTER:                  -6.941
REMARK INTRA:                  -0.269
REMARK UNBOUND:                -0.271
REMARK SMILES CC1(C)CC[C@@]23CO[C@]4(C=C[C@@H]5[C@@]6(C)CC[C@H](O)[C@](C)(CO)[C@@H]6CC[C@]5(C)[C@]4(C)C[C@@H]2O)[C@@H]3C1
REMARK SMILES IDX 1 1 2 2 4 3 5 4 6 5 7 6 8 7 9 8 33 9 34 10 10 11 11 12 12 13
REMARK SMILES IDX 13 14 15 15 16 16 17 17 19 18 23 19 24 20 25 21 26 22 28 23
REMARK SMILES IDX 30 24 31 25 29 26 27 27 20 28 14 29 3 30 32 31 21 33 22 34
REMARK SMILES IDX 18 36
REMARK H PARENT 32 32 22 35 18 37
REMARK Flexibility Score: inf
ROOT
ATOM      1  C   UNL     1     -12.605   4.595  83.348  1.00  0.00     0.011 C 
ATOM      2  C   UNL     1     -12.038   5.325  82.113  1.00  0.00    -0.035 C 
ATOM      3  C   UNL     1     -12.946   5.026  80.898  1.00  0.00     0.007 C 
ATOM      4  C   UNL     1     -12.397   5.607  79.585  1.00  0.00     0.013 C 
ATOM      5  C   UNL     1     -10.898   5.279  79.301  1.00  0.00     0.026 C 
ATOM      6  C   UNL     1     -10.694   3.809  78.940  1.00  0.00     0.171 C 
ATOM      7  O   UNL     1      -9.357   3.485  79.225  1.00  0.00    -0.369 OA
ATOM      8  C   UNL     1      -8.789   4.551  79.983  1.00  0.00     0.096 C 
ATOM      9  C   UNL     1      -9.998   5.370  80.525  1.00  0.00     0.037 C 
ATOM     10  C   UNL     1     -10.621   4.785  81.823  1.00  0.00     0.014 C 
ATOM     11  C   UNL     1      -7.961   3.862  81.047  1.00  0.00     0.005 C 
ATOM     12  C   UNL     1      -6.625   3.934  81.126  1.00  0.00    -0.024 C 
ATOM     13  C   UNL     1      -5.746   5.012  80.481  1.00  0.00     0.024 C 
ATOM     14  C   UNL     1      -4.562   5.528  81.476  1.00  0.00    -0.022 C 
ATOM     15  C   UNL     1      -3.181   5.200  80.834  1.00  0.00     0.010 C 
ATOM     16  C   UNL     1      -1.988   5.778  81.611  1.00  0.00     0.033 C 
ATOM     17  C   UNL     1      -2.078   7.311  81.789  1.00  0.00     0.123 C 
ATOM     18  C   UNL     1      -3.416   7.788  82.454  1.00  0.00     0.020 C 
ATOM     19  C   UNL     1      -4.622   7.084  81.679  1.00  0.00     0.006 C 
ATOM     20  C   UNL     1      -6.058   7.524  82.036  1.00  0.00     0.005 C 
ATOM     21  C   UNL     1      -7.136   7.060  81.014  1.00  0.00     0.008 C 
ATOM     22  C   UNL     1      -6.653   6.139  79.827  1.00  0.00    -0.017 C 
ATOM     23  C   UNL     1      -7.891   5.445  79.024  1.00  0.00     0.009 C 
ATOM     24  C   UNL     1      -8.798   6.527  78.303  1.00  0.00     0.043 C 
ATOM     25  C   UNL     1     -10.305   6.165  78.129  1.00  0.00     0.124 C 
ATOM     26  C   UNL     1      -7.323   4.508  77.895  1.00  0.00     0.015 C 
ATOM     27  C   UNL     1      -5.840   7.016  78.800  1.00  0.00     0.013 C 
ATOM     28  C   UNL     1      -3.499   9.326  82.225  1.00  0.00     0.017 C 
ATOM     29  C   UNL     1      -4.626   4.791  82.855  1.00  0.00     0.012 C 
ATOM     30  C   UNL     1     -12.003   6.841  82.428  1.00  0.00     0.011 C 
ENDROOT
BRANCH  25  31
ATOM     31  O   UNL     1     -11.022   7.369  77.994  1.00  0.00    -0.392 OA
ATOM     32  H   UNL     1     -11.512   7.521  78.840  1.00  0.00     0.210 HD
ENDBRANCH  25  31
BRANCH  18  33
ATOM     33  C   UNL     1      -3.346   7.587  84.006  1.00  0.00     0.165 C 
BRANCH  33  34
ATOM     34  O   UNL     1      -2.691   8.646  84.649  1.00  0.00    -0.396 OA
ATOM     35  H   UNL     1      -3.307   9.422  84.611  1.00  0.00     0.210 HD
ENDBRANCH  33  34
ENDBRANCH  18  33
BRANCH  17  36
ATOM     36  O   UNL     1      -0.971   7.761  82.530  1.00  0.00    -0.392 OA
ATOM     37  H   UNL     1      -1.330   8.137  83.381  1.00  0.00     0.210 HD
ENDBRANCH  17  36
TORSDOF 4
ENDMDL
MODEL 7
REMARK VINA RESULT:    -5.988      2.127      2.916
REMARK INTER + INTRA:          -7.134
REMARK INTER:                  -6.864
REMARK INTRA:                  -0.270
REMARK UNBOUND:                -0.271
REMARK SMILES CC1(C)CC[C@@]23CO[C@]4(C=C[C@@H]5[C@@]6(C)CC[C@H](O)[C@](C)(CO)[C@@H]6CC[C@]5(C)[C@]4(C)C[C@@H]2O)[C@@H]3C1
REMARK SMILES IDX 1 1 2 2 4 3 5 4 6 5 7 6 8 7 9 8 33 9 34 10 10 11 11 12 12 13
REMARK SMILES IDX 13 14 15 15 16 16 17 17 19 18 23 19 24 20 25 21 26 22 28 23
REMARK SMILES IDX 30 24 31 25 29 26 27 27 20 28 14 29 3 30 32 31 21 33 22 34
REMARK SMILES IDX 18 36
REMARK H PARENT 32 32 22 35 18 37
REMARK Flexibility Score: inf
ROOT
ATOM      1  C   UNL     1       0.907   9.552  77.071  1.00  0.00     0.011 C 
ATOM      2  C   UNL     1      -0.003   9.868  78.276  1.00  0.00    -0.035 C 
ATOM      3  C   UNL     1       0.831  10.603  79.350  1.00  0.00     0.007 C 
ATOM      4  C   UNL     1       0.046  10.854  80.647  1.00  0.00     0.013 C 
ATOM      5  C   UNL     1      -0.688   9.601  81.220  1.00  0.00     0.026 C 
ATOM      6  C   UNL     1       0.291   8.583  81.802  1.00  0.00     0.171 C 
ATOM      7  O   UNL     1      -0.345   7.331  81.790  1.00  0.00    -0.369 OA
ATOM      8  C   UNL     1      -1.530   7.436  81.004  1.00  0.00     0.096 C 
ATOM      9  C   UNL     1      -1.359   8.737  80.162  1.00  0.00     0.037 C 
ATOM     10  C   UNL     1      -0.523   8.541  78.868  1.00  0.00     0.014 C 
ATOM     11  C   UNL     1      -1.564   6.157  80.195  1.00  0.00     0.005 C 
ATOM     12  C   UNL     1      -2.497   5.204  80.332  1.00  0.00    -0.024 C 
ATOM     13  C   UNL     1      -3.880   5.388  80.967  1.00  0.00     0.024 C 
ATOM     14  C   UNL     1      -5.056   4.636  80.125  1.00  0.00    -0.022 C 
ATOM     15  C   UNL     1      -5.710   3.547  81.028  1.00  0.00     0.010 C 
ATOM     16  C   UNL     1      -6.937   2.875  80.392  1.00  0.00     0.033 C 
ATOM     17  C   UNL     1      -8.036   3.890  79.999  1.00  0.00     0.123 C 
ATOM     18  C   UNL     1      -7.523   5.038  79.061  1.00  0.00     0.020 C 
ATOM     19  C   UNL     1      -6.193   5.638  79.710  1.00  0.00     0.006 C 
ATOM     20  C   UNL     1      -5.586   6.900  79.061  1.00  0.00     0.005 C 
ATOM     21  C   UNL     1      -4.518   7.613  79.940  1.00  0.00     0.008 C 
ATOM     22  C   UNL     1      -4.128   6.920  81.303  1.00  0.00    -0.017 C 
ATOM     23  C   UNL     1      -2.784   7.556  81.972  1.00  0.00     0.009 C 
ATOM     24  C   UNL     1      -2.997   9.073  82.381  1.00  0.00     0.043 C 
ATOM     25  C   UNL     1      -1.734   9.985  82.346  1.00  0.00     0.124 C 
ATOM     26  C   UNL     1      -2.439   6.777  83.295  1.00  0.00     0.015 C 
ATOM     27  C   UNL     1      -5.313   7.106  82.326  1.00  0.00     0.013 C 
ATOM     28  C   UNL     1      -8.627   6.136  79.066  1.00  0.00     0.017 C 
ATOM     29  C   UNL     1      -4.472   3.915  78.865  1.00  0.00     0.012 C 
ATOM     30  C   UNL     1      -1.172  10.750  77.772  1.00  0.00     0.011 C 
ENDROOT
BRANCH  25  31
ATOM     31  O   UNL     1      -2.169  11.316  82.198  1.00  0.00    -0.392 OA
ATOM     32  H   UNL     1      -1.602  11.741  81.508  1.00  0.00     0.210 HD
ENDBRANCH  25  31
BRANCH  18  33
ATOM     33  C   UNL     1      -7.433   4.525  77.584  1.00  0.00     0.165 C 
BRANCH  33  34
ATOM     34  O   UNL     1      -8.664   4.610  76.917  1.00  0.00    -0.396 OA
ATOM     35  H   UNL     1      -8.765   5.555  76.634  1.00  0.00     0.210 HD
ENDBRANCH  33  34
ENDBRANCH  18  33
BRANCH  17  36
ATOM     36  O   UNL     1      -9.109   3.206  79.400  1.00  0.00    -0.392 OA
ATOM     37  H   UNL     1      -8.984   3.282  78.414  1.00  0.00     0.210 HD
ENDBRANCH  17  36
TORSDOF 4
ENDMDL
MODEL 8
REMARK VINA RESULT:    -5.930      2.489      4.798
REMARK INTER + INTRA:          -7.067
REMARK INTER:                  -6.796
REMARK INTRA:                  -0.272
REMARK UNBOUND:                -0.271
REMARK SMILES CC1(C)CC[C@@]23CO[C@]4(C=C[C@@H]5[C@@]6(C)CC[C@H](O)[C@](C)(CO)[C@@H]6CC[C@]5(C)[C@]4(C)C[C@@H]2O)[C@@H]3C1
REMARK SMILES IDX 1 1 2 2 4 3 5 4 6 5 7 6 8 7 9 8 33 9 34 10 10 11 11 12 12 13
REMARK SMILES IDX 13 14 15 15 16 16 17 17 19 18 23 19 24 20 25 21 26 22 28 23
REMARK SMILES IDX 30 24 31 25 29 26 27 27 20 28 14 29 3 30 32 31 21 33 22 34
REMARK SMILES IDX 18 36
REMARK H PARENT 32 32 22 35 18 37
REMARK Flexibility Score: inf
ROOT
ATOM      1  C   UNL     1      -1.164   2.875  77.164  1.00  0.00     0.011 C 
ATOM      2  C   UNL     1      -1.645   4.288  77.552  1.00  0.00    -0.035 C 
ATOM      3  C   UNL     1      -0.415   5.153  77.908  1.00  0.00     0.007 C 
ATOM      4  C   UNL     1      -0.796   6.547  78.430  1.00  0.00     0.013 C 
ATOM      5  C   UNL     1      -1.872   6.550  79.561  1.00  0.00     0.026 C 
ATOM      6  C   UNL     1      -1.315   6.016  80.880  1.00  0.00     0.171 C 
ATOM      7  O   UNL     1      -2.402   5.556  81.642  1.00  0.00    -0.369 OA
ATOM      8  C   UNL     1      -3.553   5.511  80.801  1.00  0.00     0.096 C 
ATOM      9  C   UNL     1      -3.007   5.561  79.342  1.00  0.00     0.037 C 
ATOM     10  C   UNL     1      -2.557   4.179  78.793  1.00  0.00     0.014 C 
ATOM     11  C   UNL     1      -4.247   4.218  81.175  1.00  0.00     0.005 C 
ATOM     12  C   UNL     1      -5.451   4.151  81.760  1.00  0.00    -0.024 C 
ATOM     13  C   UNL     1      -6.507   5.262  81.766  1.00  0.00     0.024 C 
ATOM     14  C   UNL     1      -8.012   4.692  81.506  1.00  0.00    -0.022 C 
ATOM     15  C   UNL     1      -8.892   4.996  82.755  1.00  0.00     0.010 C 
ATOM     16  C   UNL     1     -10.375   4.640  82.564  1.00  0.00     0.033 C 
ATOM     17  C   UNL     1     -11.009   5.358  81.350  1.00  0.00     0.123 C 
ATOM     18  C   UNL     1     -10.236   5.118  80.006  1.00  0.00     0.020 C 
ATOM     19  C   UNL     1      -8.688   5.401  80.278  1.00  0.00     0.006 C 
ATOM     20  C   UNL     1      -7.734   5.398  79.064  1.00  0.00     0.005 C 
ATOM     21  C   UNL     1      -6.336   6.016  79.355  1.00  0.00     0.008 C 
ATOM     22  C   UNL     1      -6.042   6.464  80.839  1.00  0.00    -0.017 C 
ATOM     23  C   UNL     1      -4.464   6.777  81.102  1.00  0.00     0.009 C 
ATOM     24  C   UNL     1      -3.962   8.010  80.241  1.00  0.00     0.043 C 
ATOM     25  C   UNL     1      -2.460   7.998  79.821  1.00  0.00     0.124 C 
ATOM     26  C   UNL     1      -4.252   7.166  82.612  1.00  0.00     0.015 C 
ATOM     27  C   UNL     1      -6.855   7.781  81.144  1.00  0.00     0.013 C 
ATOM     28  C   UNL     1     -10.772   6.174  78.995  1.00  0.00     0.017 C 
ATOM     29  C   UNL     1      -7.998   3.140  81.306  1.00  0.00     0.012 C 
ATOM     30  C   UNL     1      -2.415   4.878  76.344  1.00  0.00     0.011 C 
ENDROOT
BRANCH  25  31
ATOM     31  O   UNL     1      -2.329   8.809  78.677  1.00  0.00    -0.392 OA
ATOM     32  H   UNL     1      -2.425   8.225  77.885  1.00  0.00     0.210 HD
ENDBRANCH  25  31
BRANCH  18  33
ATOM     33  C   UNL     1     -10.616   3.720  79.410  1.00  0.00     0.165 C 
BRANCH  33  34
ATOM     34  O   UNL     1     -11.762   3.780  78.606  1.00  0.00    -0.396 OA
ATOM     35  H   UNL     1     -12.519   3.991  79.211  1.00  0.00     0.210 HD
ENDBRANCH  33  34
ENDBRANCH  18  33
BRANCH  17  36
ATOM     36  O   UNL     1     -12.353   4.963  81.223  1.00  0.00    -0.392 OA
ATOM     37  H   UNL     1     -12.532   4.867  80.247  1.00  0.00     0.210 HD
ENDBRANCH  17  36
TORSDOF 4
ENDMDL
MODEL 9
REMARK VINA RESULT:    -5.690      1.497      2.181
REMARK INTER + INTRA:          -6.793
REMARK INTER:                  -6.526
REMARK INTRA:                  -0.267
REMARK UNBOUND:                -0.271
REMARK SMILES CC1(C)CC[C@@]23CO[C@]4(C=C[C@@H]5[C@@]6(C)CC[C@H](O)[C@](C)(CO)[C@@H]6CC[C@]5(C)[C@]4(C)C[C@@H]2O)[C@@H]3C1
REMARK SMILES IDX 1 1 2 2 4 3 5 4 6 5 7 6 8 7 9 8 33 9 34 10 10 11 11 12 12 13
REMARK SMILES IDX 13 14 15 15 16 16 17 17 19 18 23 19 24 20 25 21 26 22 28 23
REMARK SMILES IDX 30 24 31 25 29 26 27 27 20 28 14 29 3 30 32 31 21 33 22 34
REMARK SMILES IDX 18 36
REMARK H PARENT 32 32 22 35 18 37
REMARK Flexibility Score: inf
ROOT
ATOM      1  C   UNL     1      -2.554  11.416  80.002  1.00  0.00     0.011 C 
ATOM      2  C   UNL     1      -2.851  10.241  80.956  1.00  0.00    -0.035 C 
ATOM      3  C   UNL     1      -1.517   9.739  81.555  1.00  0.00     0.007 C 
ATOM      4  C   UNL     1      -1.690   8.484  82.427  1.00  0.00     0.013 C 
ATOM      5  C   UNL     1      -2.513   7.336  81.765  1.00  0.00     0.026 C 
ATOM      6  C   UNL     1      -1.741   6.659  80.634  1.00  0.00     0.171 C 
ATOM      7  O   UNL     1      -2.682   6.058  79.780  1.00  0.00    -0.369 OA
ATOM      8  C   UNL     1      -3.978   6.534  80.135  1.00  0.00     0.096 C 
ATOM      9  C   UNL     1      -3.735   7.813  80.992  1.00  0.00     0.037 C 
ATOM     10  C   UNL     1      -3.499   9.097  80.149  1.00  0.00     0.014 C 
ATOM     11  C   UNL     1      -4.669   6.779  78.811  1.00  0.00     0.005 C 
ATOM     12  C   UNL     1      -5.733   6.089  78.377  1.00  0.00    -0.024 C 
ATOM     13  C   UNL     1      -6.688   5.269  79.252  1.00  0.00     0.024 C 
ATOM     14  C   UNL     1      -8.249   5.478  78.835  1.00  0.00    -0.022 C 
ATOM     15  C   UNL     1      -8.838   4.112  78.371  1.00  0.00     0.010 C 
ATOM     16  C   UNL     1     -10.350   4.154  78.099  1.00  0.00     0.033 C 
ATOM     17  C   UNL     1     -11.164   4.632  79.323  1.00  0.00     0.123 C 
ATOM     18  C   UNL     1     -10.695   6.019  79.885  1.00  0.00     0.020 C 
ATOM     19  C   UNL     1      -9.109   5.963  80.058  1.00  0.00     0.006 C 
ATOM     20  C   UNL     1      -8.421   7.155  80.758  1.00  0.00     0.005 C 
ATOM     21  C   UNL     1      -6.954   6.873  81.194  1.00  0.00     0.008 C 
ATOM     22  C   UNL     1      -6.337   5.478  80.787  1.00  0.00    -0.017 C 
ATOM     23  C   UNL     1      -4.721   5.420  80.990  1.00  0.00     0.009 C 
ATOM     24  C   UNL     1      -4.319   5.566  82.517  1.00  0.00     0.043 C 
ATOM     25  C   UNL     1      -2.937   6.225  82.811  1.00  0.00     0.124 C 
ATOM     26  C   UNL     1      -4.184   4.019  80.515  1.00  0.00     0.015 C 
ATOM     27  C   UNL     1      -6.980   4.355  81.687  1.00  0.00     0.013 C 
ATOM     28  C   UNL     1     -11.350   6.169  81.290  1.00  0.00     0.017 C 
ATOM     29  C   UNL     1      -8.382   6.478  77.639  1.00  0.00     0.012 C 
ATOM     30  C   UNL     1      -3.806  10.754  82.063  1.00  0.00     0.011 C 
ENDROOT
BRANCH  25  31
ATOM     31  O   UNL     1      -2.983   6.753  84.116  1.00  0.00    -0.392 OA
ATOM     32  H   UNL     1      -2.135   6.513  84.565  1.00  0.00     0.210 HD
ENDBRANCH  25  31
BRANCH  18  33
ATOM     33  C   UNL     1     -11.282   7.179  79.011  1.00  0.00     0.165 C 
BRANCH  33  34
ATOM     34  O   UNL     1     -12.599   7.500  79.369  1.00  0.00    -0.396 OA
ATOM     35  H   UNL     1     -12.820   8.344  78.899  1.00  0.00     0.210 HD
ENDBRANCH  33  34
ENDBRANCH  18  33
BRANCH  17  36
ATOM     36  O   UNL     1     -12.530   4.671  78.989  1.00  0.00    -0.392 OA
ATOM     37  H   UNL     1     -12.593   5.102  78.093  1.00  0.00     0.210 HD
ENDBRANCH  17  36
TORSDOF 4
ENDMDL
