MODEL 1
REMARK VINA RESULT:    11.750      0.000      0.000
REMARK INTER + INTRA:          28.768
REMARK INTER:                  29.609
REMARK INTRA:                  -0.841
REMARK UNBOUND:                -0.841
REMARK SMILES CCCCCCCCCCCCCCCCCCCCCCCCCCCC(=O)[O-]
REMARK SMILES IDX 15 1 16 2 17 3 18 4 19 5 20 6 21 7 22 8 23 9 24 10 25 11
REMARK SMILES IDX 26 12 27 13 28 14 29 15 30 16 14 17 13 18 12 19 11 20 10 21
REMARK SMILES IDX 9 22 8 23 7 24 6 25 5 26 4 27 3 28 2 29 1 30
REMARK H PARENT
REMARK Flexibility Score: inf
ROOT
ATOM      1  C   UNL     1      32.036  18.864  38.875  1.00  0.00     0.000 C 
ENDROOT
BRANCH   1   2
ATOM      2  C   UNL     1      33.423  18.203  38.945  1.00  0.00     0.000 C 
BRANCH   2   3
ATOM      3  C   UNL     1      33.716  17.606  40.332  1.00  0.00     0.000 C 
BRANCH   3   4
ATOM      4  C   UNL     1      32.894  18.266  41.450  1.00  0.00     0.000 C 
BRANCH   4   5
ATOM      5  C   UNL     1      32.966  17.489  42.775  1.00  0.00     0.000 C 
BRANCH   5   6
ATOM      6  C   UNL     1      34.171  17.935  43.612  1.00  0.00     0.000 C 
BRANCH   6   7
ATOM      7  C   UNL     1      35.118  16.757  43.895  1.00  0.00     0.000 C 
BRANCH   7   8
ATOM      8  C   UNL     1      34.593  15.425  43.339  1.00  0.00     0.000 C 
BRANCH   8   9
ATOM      9  C   UNL     1      35.648  14.656  42.530  1.00  0.00     0.000 C 
BRANCH   9  10
ATOM     10  C   UNL     1      35.701  13.184  42.962  1.00  0.00     0.000 C 
BRANCH  10  11
ATOM     11  C   UNL     1      34.766  12.278  42.140  1.00  0.00     0.000 C 
BRANCH  11  12
ATOM     12  C   UNL     1      34.738  12.568  40.628  1.00  0.00     0.006 C 
BRANCH  12  13
ATOM     13  C   UNL     1      33.486  12.020  39.933  1.00  0.00     0.053 C 
BRANCH  13  14
ATOM     14  C   UNL     1      32.942  10.842  40.678  1.00  0.00     0.041 C 
ATOM     15  O   UNL     1      32.447  10.990  41.827  1.00  0.00    -0.550 OA
ATOM     16  O   UNL     1      32.965   9.580  40.098  1.00  0.00    -0.550 OA
ENDBRANCH  13  14
ENDBRANCH  12  13
ENDBRANCH  11  12
ENDBRANCH  10  11
ENDBRANCH   9  10
ENDBRANCH   8   9
ENDBRANCH   7   8
ENDBRANCH   6   7
ENDBRANCH   5   6
ENDBRANCH   4   5
ENDBRANCH   3   4
ENDBRANCH   2   3
ENDBRANCH   1   2
BRANCH   1  17
ATOM     17  C   UNL     1      31.791  19.575  37.532  1.00  0.00     0.000 C 
BRANCH  17  18
ATOM     18  C   UNL     1      31.103  20.939  37.698  1.00  0.00     0.000 C 
BRANCH  18  19
ATOM     19  C   UNL     1      32.105  22.097  37.812  1.00  0.00     0.000 C 
BRANCH  19  20
ATOM     20  C   UNL     1      31.445  23.431  37.427  1.00  0.00     0.000 C 
BRANCH  20  21
ATOM     21  C   UNL     1      32.048  24.046  36.151  1.00  0.00     0.000 C 
BRANCH  21  22
ATOM     22  C   UNL     1      31.106  24.051  34.930  1.00  0.00    -0.000 C 
BRANCH  22  23
ATOM     23  C   UNL     1      31.849  23.976  33.579  1.00  0.00    -0.000 C 
BRANCH  23  24
ATOM     24  C   UNL     1      30.942  23.464  32.446  1.00  0.00    -0.000 C 
BRANCH  24  25
ATOM     25  C   UNL     1      31.259  24.125  31.095  1.00  0.00    -0.000 C 
BRANCH  25  26
ATOM     26  C   UNL     1      30.233  23.758  30.009  1.00  0.00    -0.000 C 
BRANCH  26  27
ATOM     27  C   UNL     1      30.843  23.730  28.596  1.00  0.00    -0.000 C 
BRANCH  27  28
ATOM     28  C   UNL     1      32.064  22.801  28.432  1.00  0.00    -0.000 C 
BRANCH  28  29
ATOM     29  C   UNL     1      31.871  21.637  27.444  1.00  0.00    -0.003 C 
ATOM     30  C   UNL     1      30.411  21.434  27.038  1.00  0.00     0.004 C 
ENDBRANCH  28  29
ENDBRANCH  27  28
ENDBRANCH  26  27
ENDBRANCH  25  26
ENDBRANCH  24  25
ENDBRANCH  23  24
ENDBRANCH  22  23
ENDBRANCH  21  22
ENDBRANCH  20  21
ENDBRANCH  19  20
ENDBRANCH  18  19
ENDBRANCH  17  18
ENDBRANCH   1  17
TORSDOF 26
ENDMDL
MODEL 2
REMARK VINA RESULT:    13.389      7.763     10.727
REMARK INTER + INTRA:          32.899
REMARK INTER:                  33.986
REMARK INTRA:                  -1.087
REMARK UNBOUND:                -0.841
REMARK SMILES CCCCCCCCCCCCCCCCCCCCCCCCCCCC(=O)[O-]
REMARK SMILES IDX 15 1 16 2 17 3 18 4 19 5 20 6 21 7 22 8 23 9 24 10 25 11
REMARK SMILES IDX 26 12 27 13 28 14 29 15 30 16 14 17 13 18 12 19 11 20 10 21
REMARK SMILES IDX 9 22 8 23 7 24 6 25 5 26 4 27 3 28 2 29 1 30
REMARK H PARENT
REMARK Flexibility Score: inf
ROOT
ATOM      1  C   UNL     1      31.098  19.556  42.719  1.00  0.00     0.000 C 
ENDROOT
BRANCH   1   2
ATOM      2  C   UNL     1      32.583  19.249  42.972  1.00  0.00     0.000 C 
BRANCH   2   3
ATOM      3  C   UNL     1      32.913  17.759  42.781  1.00  0.00     0.000 C 
BRANCH   3   4
ATOM      4  C   UNL     1      34.411  17.456  42.938  1.00  0.00     0.000 C 
BRANCH   4   5
ATOM      5  C   UNL     1      34.679  16.258  43.865  1.00  0.00     0.000 C 
BRANCH   5   6
ATOM      6  C   UNL     1      36.179  15.950  43.950  1.00  0.00     0.000 C 
BRANCH   6   7
ATOM      7  C   UNL     1      36.449  14.448  43.764  1.00  0.00     0.000 C 
BRANCH   7   8
ATOM      8  C   UNL     1      35.277  13.710  43.100  1.00  0.00     0.000 C 
BRANCH   8   9
ATOM      9  C   UNL     1      35.596  13.240  41.674  1.00  0.00     0.000 C 
BRANCH   9  10
ATOM     10  C   UNL     1      34.726  13.980  40.647  1.00  0.00     0.000 C 
BRANCH  10  11
ATOM     11  C   UNL     1      33.672  13.076  39.984  1.00  0.00     0.000 C 
BRANCH  11  12
ATOM     12  C   UNL     1      33.685  11.608  40.449  1.00  0.00     0.006 C 
BRANCH  12  13
ATOM     13  C   UNL     1      32.629  10.745  39.747  1.00  0.00     0.053 C 
BRANCH  13  14
ATOM     14  C   UNL     1      32.748   9.315  40.170  1.00  0.00     0.041 C 
ATOM     15  O   UNL     1      31.725   8.668  40.520  1.00  0.00    -0.550 OA
ATOM     16  O   UNL     1      33.988   8.689  40.163  1.00  0.00    -0.550 OA
ENDBRANCH  13  14
ENDBRANCH  12  13
ENDBRANCH  11  12
ENDBRANCH  10  11
ENDBRANCH   9  10
ENDBRANCH   8   9
ENDBRANCH   7   8
ENDBRANCH   6   7
ENDBRANCH   5   6
ENDBRANCH   4   5
ENDBRANCH   3   4
ENDBRANCH   2   3
ENDBRANCH   1   2
BRANCH   1  17
ATOM     17  C   UNL     1      30.379  20.066  43.981  1.00  0.00     0.000 C 
BRANCH  17  18
ATOM     18  C   UNL     1      30.021  21.558  43.900  1.00  0.00     0.000 C 
BRANCH  18  19
ATOM     19  C   UNL     1      29.614  22.143  45.261  1.00  0.00     0.000 C 
BRANCH  19  20
ATOM     20  C   UNL     1      28.811  23.440  45.080  1.00  0.00     0.000 C 
BRANCH  20  21
ATOM     21  C   UNL     1      27.722  23.620  46.152  1.00  0.00     0.000 C 
BRANCH  21  22
ATOM     22  C   UNL     1      26.285  23.724  45.602  1.00  0.00    -0.000 C 
BRANCH  22  23
ATOM     23  C   UNL     1      25.398  22.514  45.965  1.00  0.00    -0.000 C 
BRANCH  23  24
ATOM     24  C   UNL     1      24.090  22.939  46.656  1.00  0.00    -0.000 C 
BRANCH  24  25
ATOM     25  C   UNL     1      22.913  23.038  45.674  1.00  0.00    -0.000 C 
BRANCH  25  26
ATOM     26  C   UNL     1      22.068  21.752  45.640  1.00  0.00    -0.000 C 
BRANCH  26  27
ATOM     27  C   UNL     1      21.019  21.697  46.763  1.00  0.00    -0.000 C 
BRANCH  27  28
ATOM     28  C   UNL     1      19.773  22.579  46.536  1.00  0.00    -0.000 C 
BRANCH  28  29
ATOM     29  C   UNL     1      19.724  23.302  45.178  1.00  0.00    -0.003 C 
ATOM     30  C   UNL     1      18.299  23.552  44.685  1.00  0.00     0.004 C 
ENDBRANCH  28  29
ENDBRANCH  27  28
ENDBRANCH  26  27
ENDBRANCH  25  26
ENDBRANCH  24  25
ENDBRANCH  23  24
ENDBRANCH  22  23
ENDBRANCH  21  22
ENDBRANCH  20  21
ENDBRANCH  19  20
ENDBRANCH  18  19
ENDBRANCH  17  18
ENDBRANCH   1  17
TORSDOF 26
ENDMDL
MODEL 3
REMARK VINA RESULT:    14.102      5.647     13.389
REMARK INTER + INTRA:          34.696
REMARK INTER:                  36.749
REMARK INTRA:                  -2.053
REMARK UNBOUND:                -0.841
REMARK SMILES CCCCCCCCCCCCCCCCCCCCCCCCCCCC(=O)[O-]
REMARK SMILES IDX 15 1 16 2 17 3 18 4 19 5 20 6 21 7 22 8 23 9 24 10 25 11
REMARK SMILES IDX 26 12 27 13 28 14 29 15 30 16 14 17 13 18 12 19 11 20 10 21
REMARK SMILES IDX 9 22 8 23 7 24 6 25 5 26 4 27 3 28 2 29 1 30
REMARK H PARENT
REMARK Flexibility Score: inf
ROOT
ATOM      1  C   UNL     1      33.363  12.622  40.091  1.00  0.00     0.000 C 
ENDROOT
BRANCH   1   2
ATOM      2  C   UNL     1      34.673  13.408  40.266  1.00  0.00     0.000 C 
BRANCH   2   3
ATOM      3  C   UNL     1      35.493  12.917  41.471  1.00  0.00     0.000 C 
BRANCH   3   4
ATOM      4  C   UNL     1      35.101  13.616  42.783  1.00  0.00     0.000 C 
BRANCH   4   5
ATOM      5  C   UNL     1      36.322  14.046  43.612  1.00  0.00     0.000 C 
BRANCH   5   6
ATOM      6  C   UNL     1      36.168  15.487  44.115  1.00  0.00     0.000 C 
BRANCH   6   7
ATOM      7  C   UNL     1      34.752  16.022  43.843  1.00  0.00     0.000 C 
BRANCH   7   8
ATOM      8  C   UNL     1      34.751  17.280  42.960  1.00  0.00     0.000 C 
BRANCH   8   9
ATOM      9  C   UNL     1      33.598  17.299  41.947  1.00  0.00     0.000 C 
BRANCH   9  10
ATOM     10  C   UNL     1      34.080  16.847  40.561  1.00  0.00     0.000 C 
BRANCH  10  11
ATOM     11  C   UNL     1      34.294  18.016  39.584  1.00  0.00     0.000 C 
BRANCH  11  12
ATOM     12  C   UNL     1      33.023  18.806  39.223  1.00  0.00     0.006 C 
BRANCH  12  13
ATOM     13  C   UNL     1      32.245  18.193  38.052  1.00  0.00     0.053 C 
BRANCH  13  14
ATOM     14  C   UNL     1      31.118  19.086  37.641  1.00  0.00     0.041 C 
ATOM     15  O   UNL     1      31.273  20.336  37.621  1.00  0.00    -0.550 OA
ATOM     16  O   UNL     1      29.898  18.539  37.264  1.00  0.00    -0.550 OA
ENDBRANCH  13  14
ENDBRANCH  12  13
ENDBRANCH  11  12
ENDBRANCH  10  11
ENDBRANCH   9  10
ENDBRANCH   8   9
ENDBRANCH   7   8
ENDBRANCH   6   7
ENDBRANCH   5   6
ENDBRANCH   4   5
ENDBRANCH   3   4
ENDBRANCH   2   3
ENDBRANCH   1   2
BRANCH   1  17
ATOM     17  C   UNL     1      32.947  11.881  41.374  1.00  0.00     0.000 C 
BRANCH  17  18
ATOM     18  C   UNL     1      32.765  10.371  41.157  1.00  0.00     0.000 C 
BRANCH  18  19
ATOM     19  C   UNL     1      32.971   9.954  39.693  1.00  0.00     0.000 C 
BRANCH  19  20
ATOM     20  C   UNL     1      34.126   8.948  39.567  1.00  0.00     0.000 C 
BRANCH  20  21
ATOM     21  C   UNL     1      35.237   9.187  40.604  1.00  0.00     0.000 C 
BRANCH  21  22
ATOM     22  C   UNL     1      35.223   8.216  41.802  1.00  0.00    -0.000 C 
BRANCH  22  23
ATOM     23  C   UNL     1      36.064   6.942  41.572  1.00  0.00    -0.000 C 
BRANCH  23  24
ATOM     24  C   UNL     1      35.224   5.660  41.706  1.00  0.00    -0.000 C 
BRANCH  24  25
ATOM     25  C   UNL     1      33.860   5.776  41.008  1.00  0.00    -0.000 C 
BRANCH  25  26
ATOM     26  C   UNL     1      32.733   5.099  41.808  1.00  0.00    -0.000 C 
BRANCH  26  27
ATOM     27  C   UNL     1      31.359   5.224  41.127  1.00  0.00    -0.000 C 
BRANCH  27  28
ATOM     28  C   UNL     1      30.162   4.765  41.986  1.00  0.00    -0.000 C 
BRANCH  28  29
ATOM     29  C   UNL     1      29.102   5.846  42.261  1.00  0.00    -0.003 C 
ATOM     30  C   UNL     1      29.355   7.141  41.489  1.00  0.00     0.004 C 
ENDBRANCH  28  29
ENDBRANCH  27  28
ENDBRANCH  26  27
ENDBRANCH  25  26
ENDBRANCH  24  25
ENDBRANCH  23  24
ENDBRANCH  22  23
ENDBRANCH  21  22
ENDBRANCH  20  21
ENDBRANCH  19  20
ENDBRANCH  18  19
ENDBRANCH  17  18
ENDBRANCH   1  17
TORSDOF 26
ENDMDL
MODEL 4
REMARK VINA RESULT:    14.180      5.191     10.624
REMARK INTER + INTRA:          34.892
REMARK INTER:                  36.890
REMARK INTRA:                  -1.998
REMARK UNBOUND:                -0.841
REMARK SMILES CCCCCCCCCCCCCCCCCCCCCCCCCCCC(=O)[O-]
REMARK SMILES IDX 15 1 16 2 17 3 18 4 19 5 20 6 21 7 22 8 23 9 24 10 25 11
REMARK SMILES IDX 26 12 27 13 28 14 29 15 30 16 14 17 13 18 12 19 11 20 10 21
REMARK SMILES IDX 9 22 8 23 7 24 6 25 5 26 4 27 3 28 2 29 1 30
REMARK H PARENT
REMARK Flexibility Score: inf
ROOT
ATOM      1  C   UNL     1      33.267  11.181  40.918  1.00  0.00     0.000 C 
ENDROOT
BRANCH   1   2
ATOM      2  C   UNL     1      33.385   9.949  40.004  1.00  0.00     0.000 C 
BRANCH   2   3
ATOM      3  C   UNL     1      32.063   9.169  39.902  1.00  0.00     0.000 C 
BRANCH   3   4
ATOM      4  C   UNL     1      31.287   9.479  38.613  1.00  0.00     0.000 C 
BRANCH   4   5
ATOM      5  C   UNL     1      29.934   8.750  38.546  1.00  0.00     0.000 C 
BRANCH   5   6
ATOM      6  C   UNL     1      29.008   9.398  37.509  1.00  0.00     0.000 C 
BRANCH   6   7
ATOM      7  C   UNL     1      27.914   8.419  37.052  1.00  0.00     0.000 C 
BRANCH   7   8
ATOM      8  C   UNL     1      28.486   7.138  36.425  1.00  0.00     0.000 C 
BRANCH   8   9
ATOM      9  C   UNL     1      27.456   6.003  36.337  1.00  0.00     0.000 C 
BRANCH   9  10
ATOM     10  C   UNL     1      27.963   4.747  37.062  1.00  0.00     0.000 C 
BRANCH  10  11
ATOM     11  C   UNL     1      27.627   4.739  38.564  1.00  0.00     0.000 C 
BRANCH  11  12
ATOM     12  C   UNL     1      28.635   5.478  39.463  1.00  0.00     0.006 C 
BRANCH  12  13
ATOM     13  C   UNL     1      28.263   5.430  40.950  1.00  0.00     0.053 C 
BRANCH  13  14
ATOM     14  C   UNL     1      29.324   6.079  41.781  1.00  0.00     0.041 C 
ATOM     15  O   UNL     1      29.433   7.334  41.806  1.00  0.00    -0.550 OA
ATOM     16  O   UNL     1      30.185   5.300  42.543  1.00  0.00    -0.550 OA
ENDBRANCH  13  14
ENDBRANCH  12  13
ENDBRANCH  11  12
ENDBRANCH  10  11
ENDBRANCH   9  10
ENDBRANCH   8   9
ENDBRANCH   7   8
ENDBRANCH   6   7
ENDBRANCH   5   6
ENDBRANCH   4   5
ENDBRANCH   3   4
ENDBRANCH   2   3
ENDBRANCH   1   2
BRANCH   1  17
ATOM     17  C   UNL     1      33.524  12.498  40.164  1.00  0.00     0.000 C 
BRANCH  17  18
ATOM     18  C   UNL     1      34.702  13.296  40.743  1.00  0.00     0.000 C 
BRANCH  18  19
ATOM     19  C   UNL     1      34.757  13.241  42.277  1.00  0.00     0.000 C 
BRANCH  19  20
ATOM     20  C   UNL     1      36.158  13.612  42.788  1.00  0.00     0.000 C 
BRANCH  20  21
ATOM     21  C   UNL     1      36.132  14.757  43.816  1.00  0.00     0.000 C 
BRANCH  21  22
ATOM     22  C   UNL     1      34.782  15.492  43.930  1.00  0.00    -0.000 C 
BRANCH  22  23
ATOM     23  C   UNL     1      34.823  16.941  43.398  1.00  0.00    -0.000 C 
BRANCH  23  24
ATOM     24  C   UNL     1      33.708  17.215  42.373  1.00  0.00    -0.000 C 
BRANCH  24  25
ATOM     25  C   UNL     1      34.160  16.952  40.928  1.00  0.00    -0.000 C 
BRANCH  25  26
ATOM     26  C   UNL     1      34.006  18.193  40.032  1.00  0.00    -0.000 C 
BRANCH  26  27
ATOM     27  C   UNL     1      32.918  18.023  38.958  1.00  0.00    -0.000 C 
BRANCH  27  28
ATOM     28  C   UNL     1      32.288  19.339  38.454  1.00  0.00    -0.000 C 
BRANCH  28  29
ATOM     29  C   UNL     1      30.947  19.180  37.716  1.00  0.00    -0.003 C 
ATOM     30  C   UNL     1      30.756  17.788  37.114  1.00  0.00     0.004 C 
ENDBRANCH  28  29
ENDBRANCH  27  28
ENDBRANCH  26  27
ENDBRANCH  25  26
ENDBRANCH  24  25
ENDBRANCH  23  24
ENDBRANCH  22  23
ENDBRANCH  21  22
ENDBRANCH  20  21
ENDBRANCH  19  20
ENDBRANCH  18  19
ENDBRANCH  17  18
ENDBRANCH   1  17
TORSDOF 26
ENDMDL
MODEL 5
REMARK VINA RESULT:    14.475      5.646     12.846
REMARK INTER + INTRA:          35.637
REMARK INTER:                  37.897
REMARK INTRA:                  -2.260
REMARK UNBOUND:                -0.841
REMARK SMILES CCCCCCCCCCCCCCCCCCCCCCCCCCCC(=O)[O-]
REMARK SMILES IDX 15 1 16 2 17 3 18 4 19 5 20 6 21 7 22 8 23 9 24 10 25 11
REMARK SMILES IDX 26 12 27 13 28 14 29 15 30 16 14 17 13 18 12 19 11 20 10 21
REMARK SMILES IDX 9 22 8 23 7 24 6 25 5 26 4 27 3 28 2 29 1 30
REMARK H PARENT
REMARK Flexibility Score: inf
ROOT
ATOM      1  C   UNL     1      33.170  11.398  41.222  1.00  0.00     0.000 C 
ENDROOT
BRANCH   1   2
ATOM      2  C   UNL     1      33.420  12.322  40.018  1.00  0.00     0.000 C 
BRANCH   2   3
ATOM      3  C   UNL     1      34.446  13.424  40.331  1.00  0.00     0.000 C 
BRANCH   3   4
ATOM      4  C   UNL     1      35.431  13.024  41.441  1.00  0.00     0.000 C 
BRANCH   4   5
ATOM      5  C   UNL     1      35.014  13.554  42.822  1.00  0.00     0.000 C 
BRANCH   5   6
ATOM      6  C   UNL     1      36.224  14.091  43.596  1.00  0.00     0.000 C 
BRANCH   6   7
ATOM      7  C   UNL     1      36.083  15.597  43.872  1.00  0.00     0.000 C 
BRANCH   7   8
ATOM      8  C   UNL     1      34.627  16.082  43.804  1.00  0.00     0.000 C 
BRANCH   8   9
ATOM      9  C   UNL     1      34.453  17.338  42.939  1.00  0.00     0.000 C 
BRANCH   9  10
ATOM     10  C   UNL     1      33.796  16.989  41.595  1.00  0.00     0.000 C 
BRANCH  10  11
ATOM     11  C   UNL     1      34.044  18.049  40.507  1.00  0.00     0.000 C 
BRANCH  11  12
ATOM     12  C   UNL     1      33.201  17.883  39.229  1.00  0.00     0.006 C 
BRANCH  12  13
ATOM     13  C   UNL     1      32.133  18.971  39.068  1.00  0.00     0.053 C 
BRANCH  13  14
ATOM     14  C   UNL     1      31.442  18.841  37.747  1.00  0.00     0.041 C 
ATOM     15  O   UNL     1      31.271  19.854  37.017  1.00  0.00    -0.550 OA
ATOM     16  O   UNL     1      31.001  17.599  37.311  1.00  0.00    -0.550 OA
ENDBRANCH  13  14
ENDBRANCH  12  13
ENDBRANCH  11  12
ENDBRANCH  10  11
ENDBRANCH   9  10
ENDBRANCH   8   9
ENDBRANCH   7   8
ENDBRANCH   6   7
ENDBRANCH   5   6
ENDBRANCH   4   5
ENDBRANCH   3   4
ENDBRANCH   2   3
ENDBRANCH   1   2
BRANCH   1  17
ATOM     17  C   UNL     1      32.446  10.099  40.825  1.00  0.00     0.000 C 
BRANCH  17  18
ATOM     18  C   UNL     1      33.026   9.457  39.555  1.00  0.00     0.000 C 
BRANCH  18  19
ATOM     19  C   UNL     1      34.314   8.667  39.828  1.00  0.00     0.000 C 
BRANCH  19  20
ATOM     20  C   UNL     1      34.110   7.670  40.981  1.00  0.00     0.000 C 
BRANCH  20  21
ATOM     21  C   UNL     1      33.719   6.265  40.490  1.00  0.00     0.000 C 
BRANCH  21  22
ATOM     22  C   UNL     1      32.971   5.404  41.527  1.00  0.00    -0.000 C 
BRANCH  22  23
ATOM     23  C   UNL     1      31.502   5.120  41.146  1.00  0.00    -0.000 C 
BRANCH  23  24
ATOM     24  C   UNL     1      30.524   5.533  42.261  1.00  0.00    -0.000 C 
BRANCH  24  25
ATOM     25  C   UNL     1      29.312   6.309  41.721  1.00  0.00    -0.000 C 
BRANCH  25  26
ATOM     26  C   UNL     1      29.723   7.448  40.771  1.00  0.00    -0.000 C 
BRANCH  26  27
ATOM     27  C   UNL     1      29.000   7.383  39.414  1.00  0.00    -0.000 C 
BRANCH  27  28
ATOM     28  C   UNL     1      29.085   8.672  38.568  1.00  0.00    -0.000 C 
BRANCH  28  29
ATOM     29  C   UNL     1      28.601   8.532  37.114  1.00  0.00    -0.003 C 
ATOM     30  C   UNL     1      28.294   7.087  36.723  1.00  0.00     0.004 C 
ENDBRANCH  28  29
ENDBRANCH  27  28
ENDBRANCH  26  27
ENDBRANCH  25  26
ENDBRANCH  24  25
ENDBRANCH  23  24
ENDBRANCH  22  23
ENDBRANCH  21  22
ENDBRANCH  20  21
ENDBRANCH  19  20
ENDBRANCH  18  19
ENDBRANCH  17  18
ENDBRANCH   1  17
TORSDOF 26
ENDMDL
MODEL 6
REMARK VINA RESULT:    14.488      5.396     10.410
REMARK INTER + INTRA:          35.667
REMARK INTER:                  37.556
REMARK INTRA:                  -1.888
REMARK UNBOUND:                -0.841
REMARK SMILES CCCCCCCCCCCCCCCCCCCCCCCCCCCC(=O)[O-]
REMARK SMILES IDX 15 1 16 2 17 3 18 4 19 5 20 6 21 7 22 8 23 9 24 10 25 11
REMARK SMILES IDX 26 12 27 13 28 14 29 15 30 16 14 17 13 18 12 19 11 20 10 21
REMARK SMILES IDX 9 22 8 23 7 24 6 25 5 26 4 27 3 28 2 29 1 30
REMARK H PARENT
REMARK Flexibility Score: inf
ROOT
ATOM      1  C   UNL     1      32.985  11.050  41.140  1.00  0.00     0.000 C 
ENDROOT
BRANCH   1   2
ATOM      2  C   UNL     1      32.733   9.847  40.216  1.00  0.00     0.000 C 
BRANCH   2   3
ATOM      3  C   UNL     1      34.040   9.186  39.747  1.00  0.00     0.000 C 
BRANCH   3   4
ATOM      4  C   UNL     1      34.503   8.053  40.676  1.00  0.00     0.000 C 
BRANCH   4   5
ATOM      5  C   UNL     1      34.136   6.660  40.139  1.00  0.00     0.000 C 
BRANCH   5   6
ATOM      6  C   UNL     1      33.865   5.679  41.286  1.00  0.00     0.000 C 
BRANCH   6   7
ATOM      7  C   UNL     1      32.455   5.075  41.180  1.00  0.00     0.000 C 
BRANCH   7   8
ATOM      8  C   UNL     1      31.451   5.736  42.137  1.00  0.00     0.000 C 
BRANCH   8   9
ATOM      9  C   UNL     1      30.086   5.033  42.152  1.00  0.00     0.000 C 
BRANCH   9  10
ATOM     10  C   UNL     1      28.947   6.048  41.980  1.00  0.00     0.000 C 
BRANCH  10  11
ATOM     11  C   UNL     1      29.355   7.281  41.153  1.00  0.00     0.000 C 
BRANCH  11  12
ATOM     12  C   UNL     1      28.939   7.239  39.671  1.00  0.00     0.006 C 
BRANCH  12  13
ATOM     13  C   UNL     1      29.515   8.401  38.852  1.00  0.00     0.053 C 
BRANCH  13  14
ATOM     14  C   UNL     1      28.713   8.618  37.608  1.00  0.00     0.041 C 
ATOM     15  O   UNL     1      28.604   7.698  36.754  1.00  0.00    -0.550 OA
ATOM     16  O   UNL     1      28.071   9.832  37.396  1.00  0.00    -0.550 OA
ENDBRANCH  13  14
ENDBRANCH  12  13
ENDBRANCH  11  12
ENDBRANCH  10  11
ENDBRANCH   9  10
ENDBRANCH   8   9
ENDBRANCH   7   8
ENDBRANCH   6   7
ENDBRANCH   5   6
ENDBRANCH   4   5
ENDBRANCH   3   4
ENDBRANCH   2   3
ENDBRANCH   1   2
BRANCH   1  17
ATOM     17  C   UNL     1      33.325  12.331  40.357  1.00  0.00     0.000 C 
BRANCH  17  18
ATOM     18  C   UNL     1      34.727  12.870  40.676  1.00  0.00     0.000 C 
BRANCH  18  19
ATOM     19  C   UNL     1      34.971  13.028  42.185  1.00  0.00     0.000 C 
BRANCH  19  20
ATOM     20  C   UNL     1      36.172  13.950  42.451  1.00  0.00     0.000 C 
BRANCH  20  21
ATOM     21  C   UNL     1      36.267  14.392  43.922  1.00  0.00     0.000 C 
BRANCH  21  22
ATOM     22  C   UNL     1      35.513  15.696  44.254  1.00  0.00    -0.000 C 
BRANCH  22  23
ATOM     23  C   UNL     1      34.337  15.987  43.298  1.00  0.00    -0.000 C 
BRANCH  23  24
ATOM     24  C   UNL     1      34.249  17.478  42.924  1.00  0.00    -0.000 C 
BRANCH  24  25
ATOM     25  C   UNL     1      33.445  17.714  41.636  1.00  0.00    -0.000 C 
BRANCH  25  26
ATOM     26  C   UNL     1      34.192  17.225  40.383  1.00  0.00    -0.000 C 
BRANCH  26  27
ATOM     27  C   UNL     1      33.533  17.695  39.074  1.00  0.00    -0.000 C 
BRANCH  27  28
ATOM     28  C   UNL     1      32.446  18.777  39.243  1.00  0.00    -0.000 C 
BRANCH  28  29
ATOM     29  C   UNL     1      31.640  19.098  37.972  1.00  0.00    -0.003 C 
ATOM     30  C   UNL     1      31.038  17.856  37.317  1.00  0.00     0.004 C 
ENDBRANCH  28  29
ENDBRANCH  27  28
ENDBRANCH  26  27
ENDBRANCH  25  26
ENDBRANCH  24  25
ENDBRANCH  23  24
ENDBRANCH  22  23
ENDBRANCH  21  22
ENDBRANCH  20  21
ENDBRANCH  19  20
ENDBRANCH  18  19
ENDBRANCH  17  18
ENDBRANCH   1  17
TORSDOF 26
ENDMDL
MODEL 7
REMARK VINA RESULT:    14.530      4.573      8.851
REMARK INTER + INTRA:          35.773
REMARK INTER:                  36.520
REMARK INTRA:                  -0.747
REMARK UNBOUND:                -0.841
REMARK SMILES CCCCCCCCCCCCCCCCCCCCCCCCCCCC(=O)[O-]
REMARK SMILES IDX 15 1 16 2 17 3 18 4 19 5 20 6 21 7 22 8 23 9 24 10 25 11
REMARK SMILES IDX 26 12 27 13 28 14 29 15 30 16 14 17 13 18 12 19 11 20 10 21
REMARK SMILES IDX 9 22 8 23 7 24 6 25 5 26 4 27 3 28 2 29 1 30
REMARK H PARENT
REMARK Flexibility Score: inf
ROOT
ATOM      1  C   UNL     1      35.102  13.374  41.242  1.00  0.00     0.000 C 
ENDROOT
BRANCH   1   2
ATOM      2  C   UNL     1      33.915  12.537  40.737  1.00  0.00     0.000 C 
BRANCH   2   3
ATOM      3  C   UNL     1      33.310  11.654  41.841  1.00  0.00     0.000 C 
BRANCH   3   4
ATOM      4  C   UNL     1      32.357  10.582  41.292  1.00  0.00     0.000 C 
BRANCH   4   5
ATOM      5  C   UNL     1      32.837   9.991  39.955  1.00  0.00     0.000 C 
BRANCH   5   6
ATOM      6  C   UNL     1      34.360   9.813  39.946  1.00  0.00     0.000 C 
BRANCH   6   7
ATOM      7  C   UNL     1      34.781   8.578  40.760  1.00  0.00     0.000 C 
BRANCH   7   8
ATOM      8  C   UNL     1      34.009   7.311  40.360  1.00  0.00     0.000 C 
BRANCH   8   9
ATOM      9  C   UNL     1      34.646   6.025  40.906  1.00  0.00     0.000 C 
BRANCH   9  10
ATOM     10  C   UNL     1      33.569   5.047  41.398  1.00  0.00     0.000 C 
BRANCH  10  11
ATOM     11  C   UNL     1      32.168   5.679  41.473  1.00  0.00     0.000 C 
BRANCH  11  12
ATOM     12  C   UNL     1      30.997   4.680  41.429  1.00  0.00     0.006 C 
BRANCH  12  13
ATOM     13  C   UNL     1      29.951   4.930  42.522  1.00  0.00     0.053 C 
BRANCH  13  14
ATOM     14  C   UNL     1      28.950   5.947  42.071  1.00  0.00     0.041 C 
ATOM     15  O   UNL     1      27.718   5.682  42.101  1.00  0.00    -0.550 OA
ATOM     16  O   UNL     1      29.374   7.195  41.634  1.00  0.00    -0.550 OA
ENDBRANCH  13  14
ENDBRANCH  12  13
ENDBRANCH  11  12
ENDBRANCH  10  11
ENDBRANCH   9  10
ENDBRANCH   8   9
ENDBRANCH   7   8
ENDBRANCH   6   7
ENDBRANCH   5   6
ENDBRANCH   4   5
ENDBRANCH   3   4
ENDBRANCH   2   3
ENDBRANCH   1   2
BRANCH   1  17
ATOM     17  C   UNL     1      35.248  13.323  42.773  1.00  0.00     0.000 C 
BRANCH  17  18
ATOM     18  C   UNL     1      36.521  14.023  43.274  1.00  0.00     0.000 C 
BRANCH  18  19
ATOM     19  C   UNL     1      36.236  15.406  43.877  1.00  0.00     0.000 C 
BRANCH  19  20
ATOM     20  C   UNL     1      34.735  15.729  43.821  1.00  0.00     0.000 C 
BRANCH  20  21
ATOM     21  C   UNL     1      34.452  17.167  43.351  1.00  0.00     0.000 C 
BRANCH  21  22
ATOM     22  C   UNL     1      33.505  17.276  42.139  1.00  0.00    -0.000 C 
BRANCH  22  23
ATOM     23  C   UNL     1      34.137  17.993  40.927  1.00  0.00    -0.000 C 
BRANCH  23  24
ATOM     24  C   UNL     1      33.631  17.425  39.589  1.00  0.00    -0.000 C 
BRANCH  24  25
ATOM     25  C   UNL     1      33.146  18.524  38.630  1.00  0.00    -0.000 C 
BRANCH  25  26
ATOM     26  C   UNL     1      32.065  18.019  37.659  1.00  0.00    -0.000 C 
BRANCH  26  27
ATOM     27  C   UNL     1      30.817  18.919  37.634  1.00  0.00    -0.000 C 
BRANCH  27  28
ATOM     28  C   UNL     1      30.977  20.275  38.353  1.00  0.00    -0.000 C 
BRANCH  28  29
ATOM     29  C   UNL     1      31.936  21.267  37.670  1.00  0.00    -0.003 C 
ATOM     30  C   UNL     1      31.465  22.717  37.769  1.00  0.00     0.004 C 
ENDBRANCH  28  29
ENDBRANCH  27  28
ENDBRANCH  26  27
ENDBRANCH  25  26
ENDBRANCH  24  25
ENDBRANCH  23  24
ENDBRANCH  22  23
ENDBRANCH  21  22
ENDBRANCH  20  21
ENDBRANCH  19  20
ENDBRANCH  18  19
ENDBRANCH  17  18
ENDBRANCH   1  17
TORSDOF 26
ENDMDL
