MODEL 1
REMARK VINA RESULT:    -8.087      0.000      0.000
REMARK INTER + INTRA:          -9.987
REMARK INTER:                  -9.741
REMARK INTRA:                  -0.245
REMARK UNBOUND:                -0.245
REMARK SMILES Oc1cc(O)c2c(c1)O[C@@H](c1ccc(O)c(O)c1)[C@H](O)C2
REMARK SMILES IDX 21 1 19 2 10 3 9 4 7 5 8 6 2 7 3 8 4 9 6 10 20 11 11 13
REMARK SMILES IDX 18 14 12 15 16 16 13 17 14 18 17 19 15 21 5 23 1 25
REMARK H PARENT 20 12 17 20 15 22 5 24 1 26
REMARK Flexibility Score: inf
ROOT
ATOM      1  C   UNL     1      20.763   3.023  24.856  1.00  0.00     0.079 C 
ATOM      2  C   UNL     1      21.667   3.713  25.895  1.00  0.00     0.164 C 
ATOM      3  C   UNL     1      20.929   3.820  27.241  1.00  0.00     0.232 C 
ATOM      4  O   UNL     1      20.519   2.523  27.673  1.00  0.00    -0.482 OA
ATOM      5  C   UNL     1      20.039   1.556  26.783  1.00  0.00     0.131 A 
ATOM      6  C   UNL     1      19.479   0.382  27.294  1.00  0.00     0.093 A 
ATOM      7  C   UNL     1      18.978  -0.593  26.431  1.00  0.00     0.122 A 
ATOM      8  C   UNL     1      19.026  -0.389  25.047  1.00  0.00     0.092 A 
ATOM      9  C   UNL     1      19.581   0.781  24.518  1.00  0.00     0.126 A 
ATOM     10  C   UNL     1      20.131   1.753  25.388  1.00  0.00     0.039 A 
ENDROOT
BRANCH   2  11
ATOM     11  O   UNL     1      22.017   4.995  25.443  1.00  0.00    -0.389 OA
ATOM     12  H   UNL     1      22.051   5.580  26.244  1.00  0.00     0.211 HD
ENDBRANCH   2  11
BRANCH   3  13
ATOM     13  C   UNL     1      21.805   4.453  28.296  1.00  0.00    -0.001 A 
ATOM     14  C   UNL     1      22.660   3.657  29.077  1.00  0.00     0.057 A 
ATOM     15  C   UNL     1      21.740   5.834  28.543  1.00  0.00     0.012 A 
ATOM     16  C   UNL     1      23.456   4.235  30.078  1.00  0.00     0.157 A 
ATOM     17  C   UNL     1      22.532   6.412  29.539  1.00  0.00     0.050 A 
ATOM     18  C   UNL     1      23.391   5.621  30.307  1.00  0.00     0.157 A 
BRANCH  16  19
ATOM     19  O   UNL     1      24.305   3.440  30.844  1.00  0.00    -0.504 OA
ATOM     20  H   UNL     1      23.953   2.849  31.588  1.00  0.00     0.293 HD
ENDBRANCH  16  19
BRANCH  18  21
ATOM     21  O   UNL     1      24.170   6.225  31.293  1.00  0.00    -0.504 OA
ATOM     22  H   UNL     1      25.151   6.004  31.414  1.00  0.00     0.293 HD
ENDBRANCH  18  21
ENDBRANCH   3  13
BRANCH   9  23
ATOM     23  O   UNL     1      19.560   0.950  23.131  1.00  0.00    -0.507 OA
ATOM     24  H   UNL     1      20.387   0.897  22.552  1.00  0.00     0.293 HD
ENDBRANCH   9  23
BRANCH   7  25
ATOM     25  O   UNL     1      18.425  -1.759  26.958  1.00  0.00    -0.508 OA
ATOM     26  H   UNL     1      17.960  -1.765  27.858  1.00  0.00     0.293 HD
ENDBRANCH   7  25
TORSDOF 6
ENDMDL
MODEL 2
REMARK VINA RESULT:    -7.863      1.682      2.088
REMARK INTER + INTRA:          -9.718
REMARK INTER:                  -9.741
REMARK INTRA:                   0.023
REMARK UNBOUND:                -0.245
REMARK SMILES Oc1cc(O)c2c(c1)O[C@@H](c1ccc(O)c(O)c1)[C@H](O)C2
REMARK SMILES IDX 21 1 19 2 10 3 9 4 7 5 8 6 2 7 3 8 4 9 6 10 20 11 11 13
REMARK SMILES IDX 18 14 12 15 16 16 13 17 14 18 17 19 15 21 5 23 1 25
REMARK H PARENT 20 12 17 20 15 22 5 24 1 26
REMARK Flexibility Score: inf
ROOT
ATOM      1  C   UNL     1      21.283   0.201  26.354  1.00  0.00     0.079 C 
ATOM      2  C   UNL     1      22.047   1.176  27.269  1.00  0.00     0.164 C 
ATOM      3  C   UNL     1      21.350   2.548  27.268  1.00  0.00     0.232 C 
ATOM      4  O   UNL     1      19.989   2.400  27.670  1.00  0.00    -0.482 OA
ATOM      5  C   UNL     1      19.206   1.312  27.270  1.00  0.00     0.131 A 
ATOM      6  C   UNL     1      17.835   1.327  27.541  1.00  0.00     0.093 A 
ATOM      7  C   UNL     1      17.026   0.262  27.140  1.00  0.00     0.122 A 
ATOM      8  C   UNL     1      17.589  -0.819  26.453  1.00  0.00     0.092 A 
ATOM      9  C   UNL     1      18.959  -0.850  26.172  1.00  0.00     0.126 A 
ATOM     10  C   UNL     1      19.791   0.206  26.616  1.00  0.00     0.039 A 
ENDROOT
BRANCH   2  11
ATOM     11  O   UNL     1      23.369   1.316  26.817  1.00  0.00    -0.389 OA
ATOM     12  H   UNL     1      23.807   1.976  27.414  1.00  0.00     0.211 HD
ENDBRANCH   2  11
BRANCH   3  13
ATOM     13  C   UNL     1      22.050   3.517  28.192  1.00  0.00    -0.001 A 
ATOM     14  C   UNL     1      22.942   3.045  29.169  1.00  0.00     0.057 A 
ATOM     15  C   UNL     1      21.779   4.894  28.119  1.00  0.00     0.012 A 
ATOM     16  C   UNL     1      23.573   3.938  30.049  1.00  0.00     0.157 A 
ATOM     17  C   UNL     1      22.406   5.784  28.995  1.00  0.00     0.050 A 
ATOM     18  C   UNL     1      23.304   5.314  29.958  1.00  0.00     0.157 A 
BRANCH  16  19
ATOM     19  O   UNL     1      24.462   3.462  31.010  1.00  0.00    -0.504 OA
ATOM     20  H   UNL     1      24.331   2.560  31.455  1.00  0.00     0.293 HD
ENDBRANCH  16  19
BRANCH  18  21
ATOM     21  O   UNL     1      23.916   6.227  30.817  1.00  0.00    -0.504 OA
ATOM     22  H   UNL     1      23.973   7.215  30.600  1.00  0.00     0.293 HD
ENDBRANCH  18  21
ENDBRANCH   3  13
BRANCH   9  23
ATOM     23  O   UNL     1      19.457  -1.934  25.444  1.00  0.00    -0.507 OA
ATOM     24  H   UNL     1      20.272  -1.876  24.848  1.00  0.00     0.293 HD
ENDBRANCH   9  23
BRANCH   7  25
ATOM     25  O   UNL     1      15.661   0.293  27.420  1.00  0.00    -0.508 OA
ATOM     26  H   UNL     1      15.061   1.021  27.052  1.00  0.00     0.293 HD
ENDBRANCH   7  25
TORSDOF 6
ENDMDL
MODEL 3
REMARK VINA RESULT:    -7.467     13.664     15.291
REMARK INTER + INTRA:          -9.240
REMARK INTER:                  -9.089
REMARK INTRA:                  -0.151
REMARK UNBOUND:                -0.245
REMARK SMILES Oc1cc(O)c2c(c1)O[C@@H](c1ccc(O)c(O)c1)[C@H](O)C2
REMARK SMILES IDX 21 1 19 2 10 3 9 4 7 5 8 6 2 7 3 8 4 9 6 10 20 11 11 13
REMARK SMILES IDX 18 14 12 15 16 16 13 17 14 18 17 19 15 21 5 23 1 25
REMARK H PARENT 20 12 17 20 15 22 5 24 1 26
REMARK Flexibility Score: inf
ROOT
ATOM      1  C   UNL     1       9.855   5.614  30.133  1.00  0.00     0.079 C 
ATOM      2  C   UNL     1       9.529   6.128  28.718  1.00  0.00     0.164 C 
ATOM      3  C   UNL     1       8.006   6.142  28.505  1.00  0.00     0.232 C 
ATOM      4  O   UNL     1       7.384   6.937  29.513  1.00  0.00    -0.482 OA
ATOM      5  C   UNL     1       7.818   6.933  30.843  1.00  0.00     0.131 A 
ATOM      6  C   UNL     1       7.049   7.584  31.810  1.00  0.00     0.093 A 
ATOM      7  C   UNL     1       7.450   7.584  33.147  1.00  0.00     0.122 A 
ATOM      8  C   UNL     1       8.622   6.917  33.521  1.00  0.00     0.092 A 
ATOM      9  C   UNL     1       9.404   6.258  32.567  1.00  0.00     0.126 A 
ATOM     10  C   UNL     1       9.025   6.294  31.203  1.00  0.00     0.039 A 
ENDROOT
BRANCH   2  11
ATOM     11  O   UNL     1      10.135   5.297  27.761  1.00  0.00    -0.389 OA
ATOM     12  H   UNL     1      10.107   5.789  26.899  1.00  0.00     0.211 HD
ENDBRANCH   2  11
BRANCH   3  13
ATOM     13  C   UNL     1       7.650   6.683  27.140  1.00  0.00    -0.001 A 
ATOM     14  C   UNL     1       6.516   6.205  26.463  1.00  0.00     0.057 A 
ATOM     15  C   UNL     1       8.474   7.632  26.512  1.00  0.00     0.012 A 
ATOM     16  C   UNL     1       6.196   6.684  25.183  1.00  0.00     0.157 A 
ATOM     17  C   UNL     1       8.157   8.110  25.237  1.00  0.00     0.050 A 
ATOM     18  C   UNL     1       7.021   7.643  24.570  1.00  0.00     0.157 A 
BRANCH  16  19
ATOM     19  O   UNL     1       5.066   6.209  24.520  1.00  0.00    -0.504 OA
ATOM     20  H   UNL     1       4.133   6.510  24.779  1.00  0.00     0.293 HD
ENDBRANCH  16  19
BRANCH  18  21
ATOM     21  O   UNL     1       6.730   8.138  23.300  1.00  0.00    -0.504 OA
ATOM     22  H   UNL     1       7.321   8.821  22.840  1.00  0.00     0.293 HD
ENDBRANCH  18  21
ENDBRANCH   3  13
BRANCH   9  23
ATOM     23  O   UNL     1      10.539   5.572  33.006  1.00  0.00    -0.507 OA
ATOM     24  H   UNL     1      10.865   5.591  33.963  1.00  0.00     0.293 HD
ENDBRANCH   9  23
BRANCH   7  25
ATOM     25  O   UNL     1       6.672   8.240  34.098  1.00  0.00    -0.508 OA
ATOM     26  H   UNL     1       6.101   9.041  33.854  1.00  0.00     0.293 HD
ENDBRANCH   7  25
TORSDOF 6
ENDMDL
MODEL 4
REMARK VINA RESULT:    -7.396      1.625      6.781
REMARK INTER + INTRA:          -9.155
REMARK INTER:                  -8.798
REMARK INTRA:                  -0.356
REMARK UNBOUND:                -0.245
REMARK SMILES Oc1cc(O)c2c(c1)O[C@@H](c1ccc(O)c(O)c1)[C@H](O)C2
REMARK SMILES IDX 21 1 19 2 10 3 9 4 7 5 8 6 2 7 3 8 4 9 6 10 20 11 11 13
REMARK SMILES IDX 18 14 12 15 16 16 13 17 14 18 17 19 15 21 5 23 1 25
REMARK H PARENT 20 12 17 20 15 22 5 24 1 26
REMARK Flexibility Score: inf
ROOT
ATOM      1  C   UNL     1      21.359   4.437  25.911  1.00  0.00     0.079 C 
ATOM      2  C   UNL     1      20.704   3.109  25.489  1.00  0.00     0.164 C 
ATOM      3  C   UNL     1      21.692   1.948  25.699  1.00  0.00     0.232 C 
ATOM      4  O   UNL     1      22.122   1.919  27.059  1.00  0.00    -0.482 OA
ATOM      5  C   UNL     1      22.380   3.086  27.787  1.00  0.00     0.131 A 
ATOM      6  C   UNL     1      22.978   2.982  29.046  1.00  0.00     0.093 A 
ATOM      7  C   UNL     1      23.261   4.129  29.788  1.00  0.00     0.122 A 
ATOM      8  C   UNL     1      22.955   5.390  29.264  1.00  0.00     0.092 A 
ATOM      9  C   UNL     1      22.358   5.513  28.005  1.00  0.00     0.126 A 
ATOM     10  C   UNL     1      22.028   4.351  27.268  1.00  0.00     0.039 A 
ENDROOT
BRANCH   2  11
ATOM     11  O   UNL     1      20.327   3.173  24.138  1.00  0.00    -0.389 OA
ATOM     12  H   UNL     1      20.127   2.243  23.853  1.00  0.00     0.211 HD
ENDBRANCH   2  11
BRANCH   3  13
ATOM     13  C   UNL     1      21.064   0.623  25.336  1.00  0.00    -0.001 A 
ATOM     14  C   UNL     1      20.093   0.048  26.173  1.00  0.00     0.057 A 
ATOM     15  C   UNL     1      21.478  -0.071  24.187  1.00  0.00     0.012 A 
ATOM     16  C   UNL     1      19.527  -1.196  25.856  1.00  0.00     0.157 A 
ATOM     17  C   UNL     1      20.915  -1.311  23.870  1.00  0.00     0.050 A 
ATOM     18  C   UNL     1      19.940  -1.876  24.697  1.00  0.00     0.157 A 
BRANCH  16  19
ATOM     19  O   UNL     1      18.560  -1.757  26.687  1.00  0.00    -0.504 OA
ATOM     20  H   UNL     1      18.170  -1.244  27.470  1.00  0.00     0.293 HD
ENDBRANCH  16  19
BRANCH  18  21
ATOM     21  O   UNL     1      19.395  -3.113  24.354  1.00  0.00    -0.504 OA
ATOM     22  H   UNL     1      18.397  -3.283  24.367  1.00  0.00     0.293 HD
ENDBRANCH  18  21
ENDBRANCH   3  13
BRANCH   9  23
ATOM     23  O   UNL     1      22.118   6.799  27.514  1.00  0.00    -0.507 OA
ATOM     24  H   UNL     1      22.294   7.070  26.556  1.00  0.00     0.293 HD
ENDBRANCH   9  23
BRANCH   7  25
ATOM     25  O   UNL     1      23.855   4.007  31.043  1.00  0.00    -0.508 OA
ATOM     26  H   UNL     1      24.569   4.654  31.356  1.00  0.00     0.293 HD
ENDBRANCH   7  25
TORSDOF 6
ENDMDL
MODEL 5
REMARK VINA RESULT:    -7.227      1.687      3.027
REMARK INTER + INTRA:          -8.951
REMARK INTER:                  -8.707
REMARK INTRA:                  -0.244
REMARK UNBOUND:                -0.245
REMARK SMILES Oc1cc(O)c2c(c1)O[C@@H](c1ccc(O)c(O)c1)[C@H](O)C2
REMARK SMILES IDX 21 1 19 2 10 3 9 4 7 5 8 6 2 7 3 8 4 9 6 10 20 11 11 13
REMARK SMILES IDX 18 14 12 15 16 16 13 17 14 18 17 19 15 21 5 23 1 25
REMARK H PARENT 20 12 17 20 15 22 5 24 1 26
REMARK Flexibility Score: inf
ROOT
ATOM      1  C   UNL     1      19.690   2.300  26.045  1.00  0.00     0.079 C 
ATOM      2  C   UNL     1      20.234   3.270  27.111  1.00  0.00     0.164 C 
ATOM      3  C   UNL     1      21.740   3.030  27.316  1.00  0.00     0.232 C 
ATOM      4  O   UNL     1      22.426   3.171  26.073  1.00  0.00    -0.482 OA
ATOM      5  C   UNL     1      21.888   2.711  24.866  1.00  0.00     0.131 A 
ATOM      6  C   UNL     1      22.691   2.710  23.722  1.00  0.00     0.093 A 
ATOM      7  C   UNL     1      22.186   2.242  22.508  1.00  0.00     0.122 A 
ATOM      8  C   UNL     1      20.874   1.761  22.438  1.00  0.00     0.092 A 
ATOM      9  C   UNL     1      20.057   1.753  23.574  1.00  0.00     0.126 A 
ATOM     10  C   UNL     1      20.549   2.268  24.797  1.00  0.00     0.039 A 
ENDROOT
BRANCH   2  11
ATOM     11  O   UNL     1      19.553   3.072  28.323  1.00  0.00    -0.389 OA
ATOM     12  H   UNL     1      18.598   3.278  28.151  1.00  0.00     0.211 HD
ENDBRANCH   2  11
BRANCH   3  13
ATOM     13  C   UNL     1      22.315   3.996  28.325  1.00  0.00    -0.001 A 
ATOM     14  C   UNL     1      23.253   3.555  29.273  1.00  0.00     0.057 A 
ATOM     15  C   UNL     1      21.883   5.332  28.359  1.00  0.00     0.012 A 
ATOM     16  C   UNL     1      23.769   4.441  30.231  1.00  0.00     0.157 A 
ATOM     17  C   UNL     1      22.395   6.217  29.313  1.00  0.00     0.050 A 
ATOM     18  C   UNL     1      23.338   5.779  30.247  1.00  0.00     0.157 A 
BRANCH  16  19
ATOM     19  O   UNL     1      24.704   3.997  31.164  1.00  0.00    -0.504 OA
ATOM     20  H   UNL     1      25.662   4.329  31.156  1.00  0.00     0.293 HD
ENDBRANCH  16  19
BRANCH  18  21
ATOM     21  O   UNL     1      23.833   6.684  31.185  1.00  0.00    -0.504 OA
ATOM     22  H   UNL     1      23.818   7.685  31.027  1.00  0.00     0.293 HD
ENDBRANCH  18  21
ENDBRANCH   3  13
BRANCH   9  23
ATOM     23  O   UNL     1      18.771   1.219  23.455  1.00  0.00    -0.507 OA
ATOM     24  H   UNL     1      18.243   1.229  22.593  1.00  0.00     0.293 HD
ENDBRANCH   9  23
BRANCH   7  25
ATOM     25  O   UNL     1      23.000   2.250  21.376  1.00  0.00    -0.508 OA
ATOM     26  H   UNL     1      24.011   2.268  21.451  1.00  0.00     0.293 HD
ENDBRANCH   7  25
TORSDOF 6
ENDMDL
MODEL 6
REMARK VINA RESULT:    -7.219     12.906     14.581
REMARK INTER + INTRA:          -8.942
REMARK INTER:                  -8.989
REMARK INTRA:                   0.047
REMARK UNBOUND:                -0.245
REMARK SMILES Oc1cc(O)c2c(c1)O[C@@H](c1ccc(O)c(O)c1)[C@H](O)C2
REMARK SMILES IDX 21 1 19 2 10 3 9 4 7 5 8 6 2 7 3 8 4 9 6 10 20 11 11 13
REMARK SMILES IDX 18 14 12 15 16 16 13 17 14 18 17 19 15 21 5 23 1 25
REMARK H PARENT 20 12 17 20 15 22 5 24 1 26
REMARK Flexibility Score: inf
ROOT
ATOM      1  C   UNL     1       9.478   4.981  30.021  1.00  0.00     0.079 C 
ATOM      2  C   UNL     1       9.016   5.937  28.905  1.00  0.00     0.164 C 
ATOM      3  C   UNL     1       8.640   5.131  27.649  1.00  0.00     0.232 C 
ATOM      4  O   UNL     1       7.636   4.171  27.974  1.00  0.00    -0.482 OA
ATOM      5  C   UNL     1       7.641   3.462  29.180  1.00  0.00     0.131 A 
ATOM      6  C   UNL     1       6.742   2.406  29.351  1.00  0.00     0.093 A 
ATOM      7  C   UNL     1       6.735   1.672  30.538  1.00  0.00     0.122 A 
ATOM      8  C   UNL     1       7.640   1.988  31.557  1.00  0.00     0.092 A 
ATOM      9  C   UNL     1       8.548   3.041  31.403  1.00  0.00     0.126 A 
ATOM     10  C   UNL     1       8.529   3.817  30.219  1.00  0.00     0.039 A 
ENDROOT
BRANCH   2  11
ATOM     11  O   UNL     1      10.046   6.841  28.598  1.00  0.00    -0.389 OA
ATOM     12  H   UNL     1       9.616   7.722  28.448  1.00  0.00     0.211 HD
ENDBRANCH   2  11
BRANCH   3  13
ATOM     13  C   UNL     1       8.139   6.037  26.549  1.00  0.00    -0.001 A 
ATOM     14  C   UNL     1       6.791   5.994  26.156  1.00  0.00     0.057 A 
ATOM     15  C   UNL     1       9.023   6.895  25.874  1.00  0.00     0.012 A 
ATOM     16  C   UNL     1       6.327   6.813  25.115  1.00  0.00     0.157 A 
ATOM     17  C   UNL     1       8.563   7.711  24.837  1.00  0.00     0.050 A 
ATOM     18  C   UNL     1       7.218   7.677  24.455  1.00  0.00     0.157 A 
BRANCH  16  19
ATOM     19  O   UNL     1       4.987   6.769  24.735  1.00  0.00    -0.504 OA
ATOM     20  H   UNL     1       4.472   5.896  24.703  1.00  0.00     0.293 HD
ENDBRANCH  16  19
BRANCH  18  21
ATOM     21  O   UNL     1       6.787   8.503  23.418  1.00  0.00    -0.504 OA
ATOM     22  H   UNL     1       7.210   8.477  22.498  1.00  0.00     0.293 HD
ENDBRANCH  18  21
ENDBRANCH   3  13
BRANCH   9  23
ATOM     23  O   UNL     1       9.458   3.281  32.436  1.00  0.00    -0.507 OA
ATOM     24  H   UNL     1       9.843   2.549  33.018  1.00  0.00     0.293 HD
ENDBRANCH   9  23
BRANCH   7  25
ATOM     25  O   UNL     1       5.830   0.623  30.691  1.00  0.00    -0.508 OA
ATOM     26  H   UNL     1       6.011  -0.144  31.328  1.00  0.00     0.293 HD
ENDBRANCH   7  25
TORSDOF 6
ENDMDL
MODEL 7
REMARK VINA RESULT:    -7.168     13.314     14.156
REMARK INTER + INTRA:          -8.881
REMARK INTER:                  -8.646
REMARK INTRA:                  -0.234
REMARK UNBOUND:                -0.245
REMARK SMILES Oc1cc(O)c2c(c1)O[C@@H](c1ccc(O)c(O)c1)[C@H](O)C2
REMARK SMILES IDX 21 1 19 2 10 3 9 4 7 5 8 6 2 7 3 8 4 9 6 10 20 11 11 13
REMARK SMILES IDX 18 14 12 15 16 16 13 17 14 18 17 19 15 21 5 23 1 25
REMARK H PARENT 20 12 17 20 15 22 5 24 1 26
REMARK Flexibility Score: inf
ROOT
ATOM      1  C   UNL     1       6.338   5.174  27.668  1.00  0.00     0.079 C 
ATOM      2  C   UNL     1       6.787   5.370  29.128  1.00  0.00     0.164 C 
ATOM      3  C   UNL     1       8.311   5.581  29.181  1.00  0.00     0.232 C 
ATOM      4  O   UNL     1       8.674   6.691  28.361  1.00  0.00    -0.482 OA
ATOM      5  C   UNL     1       8.062   6.942  27.129  1.00  0.00     0.131 A 
ATOM      6  C   UNL     1       8.594   7.928  26.295  1.00  0.00     0.093 A 
ATOM      7  C   UNL     1       8.014   8.190  25.053  1.00  0.00     0.122 A 
ATOM      8  C   UNL     1       6.899   7.453  24.636  1.00  0.00     0.092 A 
ATOM      9  C   UNL     1       6.354   6.460  25.458  1.00  0.00     0.126 A 
ATOM     10  C   UNL     1       6.912   6.222  26.736  1.00  0.00     0.039 A 
ENDROOT
BRANCH   2  11
ATOM     11  O   UNL     1       6.438   4.243  29.888  1.00  0.00    -0.389 OA
ATOM     12  H   UNL     1       7.251   3.677  29.949  1.00  0.00     0.211 HD
ENDBRANCH   2  11
BRANCH   3  13
ATOM     13  C   UNL     1       8.779   5.822  30.597  1.00  0.00    -0.001 A 
ATOM     14  C   UNL     1       9.236   4.751  31.383  1.00  0.00     0.057 A 
ATOM     15  C   UNL     1       8.718   7.108  31.160  1.00  0.00     0.012 A 
ATOM     16  C   UNL     1       9.645   4.964  32.709  1.00  0.00     0.157 A 
ATOM     17  C   UNL     1       9.125   7.322  32.480  1.00  0.00     0.050 A 
ATOM     18  C   UNL     1       9.591   6.257  33.257  1.00  0.00     0.157 A 
BRANCH  16  19
ATOM     19  O   UNL     1      10.103   3.897  33.480  1.00  0.00    -0.504 OA
ATOM     20  H   UNL     1      10.029   2.938  33.158  1.00  0.00     0.293 HD
ENDBRANCH  16  19
BRANCH  18  21
ATOM     21  O   UNL     1       9.993   6.501  34.569  1.00  0.00    -0.504 OA
ATOM     22  H   UNL     1       9.335   6.508  35.340  1.00  0.00     0.293 HD
ENDBRANCH  18  21
ENDBRANCH   3  13
BRANCH   9  23
ATOM     23  O   UNL     1       5.270   5.726  24.970  1.00  0.00    -0.507 OA
ATOM     24  H   UNL     1       5.226   5.358  24.029  1.00  0.00     0.293 HD
ENDBRANCH   9  23
BRANCH   7  25
ATOM     25  O   UNL     1       8.557   9.179  24.235  1.00  0.00    -0.508 OA
ATOM     26  H   UNL     1       8.263  10.146  24.306  1.00  0.00     0.293 HD
ENDBRANCH   7  25
TORSDOF 6
ENDMDL
MODEL 8
REMARK VINA RESULT:    -7.139      1.388      7.111
REMARK INTER + INTRA:          -8.845
REMARK INTER:                  -8.594
REMARK INTRA:                  -0.251
REMARK UNBOUND:                -0.245
REMARK SMILES Oc1cc(O)c2c(c1)O[C@@H](c1ccc(O)c(O)c1)[C@H](O)C2
REMARK SMILES IDX 21 1 19 2 10 3 9 4 7 5 8 6 2 7 3 8 4 9 6 10 20 11 11 13
REMARK SMILES IDX 18 14 12 15 16 16 13 17 14 18 17 19 15 21 5 23 1 25
REMARK H PARENT 20 12 17 20 15 22 5 24 1 26
REMARK Flexibility Score: inf
ROOT
ATOM      1  C   UNL     1      23.182   2.410  29.033  1.00  0.00     0.079 C 
ATOM      2  C   UNL     1      22.606   2.018  27.659  1.00  0.00     0.164 C 
ATOM      3  C   UNL     1      21.223   2.664  27.469  1.00  0.00     0.232 C 
ATOM      4  O   UNL     1      21.326   4.079  27.616  1.00  0.00    -0.482 OA
ATOM      5  C   UNL     1      22.155   4.673  28.574  1.00  0.00     0.131 A 
ATOM      6  C   UNL     1      22.064   6.051  28.789  1.00  0.00     0.093 A 
ATOM      7  C   UNL     1      22.868   6.668  29.749  1.00  0.00     0.122 A 
ATOM      8  C   UNL     1      23.762   5.902  30.505  1.00  0.00     0.092 A 
ATOM      9  C   UNL     1      23.866   4.521  30.304  1.00  0.00     0.126 A 
ATOM     10  C   UNL     1      23.084   3.898  29.301  1.00  0.00     0.039 A 
ENDROOT
BRANCH   2  11
ATOM     11  O   UNL     1      22.493   0.621  27.573  1.00  0.00    -0.389 OA
ATOM     12  H   UNL     1      21.615   0.381  27.969  1.00  0.00     0.211 HD
ENDBRANCH   2  11
BRANCH   3  13
ATOM     13  C   UNL     1      20.648   2.335  26.112  1.00  0.00    -0.001 A 
ATOM     14  C   UNL     1      19.759   1.258  25.961  1.00  0.00     0.057 A 
ATOM     15  C   UNL     1      21.033   3.070  24.978  1.00  0.00     0.012 A 
ATOM     16  C   UNL     1      19.244   0.930  24.697  1.00  0.00     0.157 A 
ATOM     17  C   UNL     1      20.521   2.745  23.718  1.00  0.00     0.050 A 
ATOM     18  C   UNL     1      19.627   1.680  23.572  1.00  0.00     0.157 A 
BRANCH  16  19
ATOM     19  O   UNL     1      18.358  -0.136  24.558  1.00  0.00    -0.504 OA
ATOM     20  H   UNL     1      18.607  -0.969  24.035  1.00  0.00     0.293 HD
ENDBRANCH  16  19
BRANCH  18  21
ATOM     21  O   UNL     1      19.132   1.380  22.304  1.00  0.00    -0.504 OA
ATOM     22  H   UNL     1      19.684   0.883  21.614  1.00  0.00     0.293 HD
ENDBRANCH  18  21
ENDBRANCH   3  13
BRANCH   9  23
ATOM     23  O   UNL     1      24.742   3.802  31.119  1.00  0.00    -0.507 OA
ATOM     24  H   UNL     1      25.710   3.633  30.883  1.00  0.00     0.293 HD
ENDBRANCH   9  23
BRANCH   7  25
ATOM     25  O   UNL     1      22.766   8.044  29.949  1.00  0.00    -0.508 OA
ATOM     26  H   UNL     1      23.200   8.705  29.317  1.00  0.00     0.293 HD
ENDBRANCH   7  25
TORSDOF 6
ENDMDL
