MODEL 1
REMARK VINA RESULT:    -2.768      0.000      0.000
REMARK INTER + INTRA:          -3.011
REMARK INTER:                  -3.011
REMARK INTRA:                   0.000
REMARK UNBOUND:                 0.000
REMARK SMILES Oc1cccc(O)c1O
REMARK SMILES IDX 4 1 5 2 6 3 8 4 2 5 3 6 7 7 1 9 9 11
REMARK H PARENT 7 8 1 10 9 12
REMARK Flexibility Score: inf
ROOT
ATOM      1  C   UNL     1       0.082  -8.737   8.378  1.00  0.00     0.008 A 
ATOM      2  C   UNL     1      -1.283  -9.025   8.356  1.00  0.00     0.050 A 
ATOM      3  C   UNL     1      -2.210  -8.124   8.896  1.00  0.00     0.161 A 
ATOM      4  C   UNL     1      -1.752  -6.911   9.466  1.00  0.00     0.200 A 
ATOM      5  C   UNL     1      -0.376  -6.630   9.483  1.00  0.00     0.161 A 
ATOM      6  C   UNL     1       0.536  -7.543   8.938  1.00  0.00     0.050 A 
ENDROOT
BRANCH   3   7
ATOM      7  O   UNL     1      -3.562  -8.472   8.844  1.00  0.00    -0.504 OA
ATOM      8  H   UNL     1      -3.902  -9.422   8.859  1.00  0.00     0.293 HD
ENDBRANCH   3   7
BRANCH   5   9
ATOM      9  O   UNL     1       0.077  -5.437  10.043  1.00  0.00    -0.504 OA
ATOM     10  H   UNL     1       0.462  -5.403  10.979  1.00  0.00     0.293 HD
ENDBRANCH   5   9
BRANCH   4  11
ATOM     11  O   UNL     1      -2.621  -5.967  10.020  1.00  0.00    -0.502 OA
ATOM     12  H   UNL     1      -3.342  -6.189  10.692  1.00  0.00     0.293 HD
ENDBRANCH   4  11
TORSDOF 3
ENDMDL
MODEL 2
REMARK VINA RESULT:    -2.689      8.527      8.910
REMARK INTER + INTRA:          -2.925
REMARK INTER:                  -2.925
REMARK INTRA:                   0.000
REMARK UNBOUND:                 0.000
REMARK SMILES Oc1cccc(O)c1O
REMARK SMILES IDX 4 1 5 2 6 3 8 4 2 5 3 6 7 7 1 9 9 11
REMARK H PARENT 7 8 1 10 9 12
REMARK Flexibility Score: inf
ROOT
ATOM      1  C   UNL     1      -9.657  -9.466   9.895  1.00  0.00     0.008 A 
ATOM      2  C   UNL     1      -9.931  -8.097   9.882  1.00  0.00     0.050 A 
ATOM      3  C   UNL     1      -9.832  -7.361   8.694  1.00  0.00     0.161 A 
ATOM      4  C   UNL     1      -9.450  -8.018   7.498  1.00  0.00     0.200 A 
ATOM      5  C   UNL     1      -9.177  -9.395   7.521  1.00  0.00     0.161 A 
ATOM      6  C   UNL     1      -9.282 -10.114   8.718  1.00  0.00     0.050 A 
ENDROOT
BRANCH   3   7
ATOM      7  O   UNL     1     -10.118  -5.995   8.749  1.00  0.00    -0.504 OA
ATOM      8  H   UNL     1      -9.453  -5.290   9.029  1.00  0.00     0.293 HD
ENDBRANCH   3   7
BRANCH   5   9
ATOM      9  O   UNL     1      -8.802 -10.042   6.345  1.00  0.00    -0.504 OA
ATOM     10  H   UNL     1      -8.887  -9.593   5.441  1.00  0.00     0.293 HD
ENDBRANCH   5   9
BRANCH   4  11
ATOM     11  O   UNL     1      -9.332  -7.345   6.279  1.00  0.00    -0.502 OA
ATOM     12  H   UNL     1      -9.571  -6.373   6.144  1.00  0.00     0.293 HD
ENDBRANCH   4  11
TORSDOF 3
ENDMDL
MODEL 3
REMARK VINA RESULT:    -2.629     13.707     14.633
REMARK INTER + INTRA:          -2.860
REMARK INTER:                  -2.860
REMARK INTRA:                   0.000
REMARK UNBOUND:                 0.000
REMARK SMILES Oc1cccc(O)c1O
REMARK SMILES IDX 4 1 5 2 6 3 8 4 2 5 3 6 7 7 1 9 9 11
REMARK H PARENT 7 8 1 10 9 12
REMARK Flexibility Score: inf
ROOT
ATOM      1  C   UNL     1       9.588  -8.440   0.117  1.00  0.00     0.008 A 
ATOM      2  C   UNL     1       8.347  -9.009   0.404  1.00  0.00     0.050 A 
ATOM      3  C   UNL     1       7.567  -9.572  -0.615  1.00  0.00     0.161 A 
ATOM      4  C   UNL     1       8.050  -9.560  -1.948  1.00  0.00     0.200 A 
ATOM      5  C   UNL     1       9.299  -8.985  -2.226  1.00  0.00     0.161 A 
ATOM      6  C   UNL     1      10.065  -8.428  -1.194  1.00  0.00     0.050 A 
ENDROOT
BRANCH   3   7
ATOM      7  O   UNL     1       6.335 -10.125  -0.262  1.00  0.00    -0.504 OA
ATOM      8  H   UNL     1       6.120 -10.488   0.655  1.00  0.00     0.293 HD
ENDBRANCH   3   7
BRANCH   5   9
ATOM      9  O   UNL     1       9.776  -8.973  -3.537  1.00  0.00    -0.504 OA
ATOM     10  H   UNL     1      10.378  -9.707  -3.889  1.00  0.00     0.293 HD
ENDBRANCH   5   9
BRANCH   4  11
ATOM     11  O   UNL     1       7.325 -10.104  -3.012  1.00  0.00    -0.502 OA
ATOM     12  H   UNL     1       7.564  -9.973  -3.984  1.00  0.00     0.293 HD
ENDBRANCH   4  11
TORSDOF 3
ENDMDL
MODEL 4
REMARK VINA RESULT:    -2.601      1.840      3.319
REMARK INTER + INTRA:          -2.829
REMARK INTER:                  -2.829
REMARK INTRA:                   0.000
REMARK UNBOUND:                 0.000
REMARK SMILES Oc1cccc(O)c1O
REMARK SMILES IDX 4 1 5 2 6 3 8 4 2 5 3 6 7 7 1 9 9 11
REMARK H PARENT 7 8 1 10 9 12
REMARK Flexibility Score: inf
ROOT
ATOM      1  C   UNL     1      -0.933  -6.277   9.638  1.00  0.00     0.008 A 
ATOM      2  C   UNL     1      -0.070  -7.148   8.971  1.00  0.00     0.050 A 
ATOM      3  C   UNL     1      -0.534  -8.378   8.486  1.00  0.00     0.161 A 
ATOM      4  C   UNL     1      -1.892  -8.735   8.678  1.00  0.00     0.200 A 
ATOM      5  C   UNL     1      -2.751  -7.852   9.350  1.00  0.00     0.161 A 
ATOM      6  C   UNL     1      -2.269  -6.627   9.827  1.00  0.00     0.050 A 
ENDROOT
BRANCH   3   7
ATOM      7  O   UNL     1       0.379  -9.204   7.828  1.00  0.00    -0.504 OA
ATOM      8  H   UNL     1       0.869  -9.969   8.269  1.00  0.00     0.293 HD
ENDBRANCH   3   7
BRANCH   5   9
ATOM      9  O   UNL     1      -4.087  -8.202   9.540  1.00  0.00    -0.504 OA
ATOM     10  H   UNL     1      -4.433  -8.510  10.441  1.00  0.00     0.293 HD
ENDBRANCH   5   9
BRANCH   4  11
ATOM     11  O   UNL     1      -2.421  -9.945   8.220  1.00  0.00    -0.502 OA
ATOM     12  H   UNL     1      -1.927 -10.826   8.253  1.00  0.00     0.293 HD
ENDBRANCH   4  11
TORSDOF 3
ENDMDL
MODEL 5
REMARK VINA RESULT:    -2.590     13.716     14.774
REMARK INTER + INTRA:          -2.817
REMARK INTER:                  -2.817
REMARK INTRA:                   0.000
REMARK UNBOUND:                 0.000
REMARK SMILES Oc1cccc(O)c1O
REMARK SMILES IDX 4 1 5 2 6 3 8 4 2 5 3 6 7 7 1 9 9 11
REMARK H PARENT 7 8 1 10 9 12
REMARK Flexibility Score: inf
ROOT
ATOM      1  C   UNL     1       9.510  -8.453   0.042  1.00  0.00     0.008 A 
ATOM      2  C   UNL     1       9.989  -8.442  -1.268  1.00  0.00     0.050 A 
ATOM      3  C   UNL     1       9.231  -8.991  -2.310  1.00  0.00     0.161 A 
ATOM      4  C   UNL     1       7.964  -9.560  -2.025  1.00  0.00     0.200 A 
ATOM      5  C   UNL     1       7.490  -9.566  -0.704  1.00  0.00     0.161 A 
ATOM      6  C   UNL     1       8.264  -9.012   0.325  1.00  0.00     0.050 A 
ENDROOT
BRANCH   3   7
ATOM      7  O   UNL     1       9.767  -8.949  -3.599  1.00  0.00    -0.504 OA
ATOM      8  H   UNL     1       9.567  -8.224  -4.271  1.00  0.00     0.293 HD
ENDBRANCH   3   7
BRANCH   5   9
ATOM      9  O   UNL     1       6.245 -10.125  -0.420  1.00  0.00    -0.504 OA
ATOM     10  H   UNL     1       6.090 -10.678   0.414  1.00  0.00     0.293 HD
ENDBRANCH   5   9
BRANCH   4  11
ATOM     11  O   UNL     1       7.155 -10.124  -3.015  1.00  0.00    -0.502 OA
ATOM     12  H   UNL     1       6.222  -9.805  -3.232  1.00  0.00     0.293 HD
ENDBRANCH   4  11
TORSDOF 3
ENDMDL
MODEL 6
REMARK VINA RESULT:    -2.569     22.663     23.064
REMARK INTER + INTRA:          -2.794
REMARK INTER:                  -2.794
REMARK INTRA:                   0.000
REMARK UNBOUND:                 0.000
REMARK SMILES Oc1cccc(O)c1O
REMARK SMILES IDX 4 1 5 2 6 3 8 4 2 5 3 6 7 7 1 9 9 11
REMARK H PARENT 7 8 1 10 9 12
REMARK Flexibility Score: inf
ROOT
ATOM      1  C   UNL     1      -9.996   4.510  -6.017  1.00  0.00     0.008 A 
ATOM      2  C   UNL     1      -9.783   3.716  -7.145  1.00  0.00     0.050 A 
ATOM      3  C   UNL     1      -9.682   4.297  -8.416  1.00  0.00     0.161 A 
ATOM      4  C   UNL     1      -9.797   5.703  -8.551  1.00  0.00     0.200 A 
ATOM      5  C   UNL     1     -10.011   6.492  -7.410  1.00  0.00     0.161 A 
ATOM      6  C   UNL     1     -10.109   5.893  -6.148  1.00  0.00     0.050 A 
ENDROOT
BRANCH   3   7
ATOM      7  O   UNL     1      -9.469   3.448  -9.505  1.00  0.00    -0.504 OA
ATOM      8  H   UNL     1      -9.635   3.710 -10.466  1.00  0.00     0.293 HD
ENDBRANCH   3   7
BRANCH   5   9
ATOM      9  O   UNL     1     -10.125   7.875  -7.540  1.00  0.00    -0.504 OA
ATOM     10  H   UNL     1     -10.549   8.444  -6.816  1.00  0.00     0.293 HD
ENDBRANCH   5   9
BRANCH   4  11
ATOM     11  O   UNL     1      -9.706   6.348  -9.788  1.00  0.00    -0.502 OA
ATOM     12  H   UNL     1      -9.902   7.328  -9.930  1.00  0.00     0.293 HD
ENDBRANCH   4  11
TORSDOF 3
ENDMDL
MODEL 7
REMARK VINA RESULT:    -2.556     24.193     24.579
REMARK INTER + INTRA:          -2.780
REMARK INTER:                  -2.780
REMARK INTRA:                   0.000
REMARK UNBOUND:                 0.000
REMARK SMILES Oc1cccc(O)c1O
REMARK SMILES IDX 4 1 5 2 6 3 8 4 2 5 3 6 7 7 1 9 9 11
REMARK H PARENT 7 8 1 10 9 12
REMARK Flexibility Score: inf
ROOT
ATOM      1  C   UNL     1       0.511   9.897  -9.120  1.00  0.00     0.008 A 
ATOM      2  C   UNL     1      -0.879  10.013  -9.120  1.00  0.00     0.050 A 
ATOM      3  C   UNL     1      -1.688   8.907  -9.412  1.00  0.00     0.161 A 
ATOM      4  C   UNL     1      -1.081   7.660  -9.709  1.00  0.00     0.200 A 
ATOM      5  C   UNL     1       0.318   7.554  -9.706  1.00  0.00     0.161 A 
ATOM      6  C   UNL     1       1.110   8.671  -9.411  1.00  0.00     0.050 A 
ENDROOT
BRANCH   3   7
ATOM      7  O   UNL     1      -3.072   9.089  -9.396  1.00  0.00    -0.504 OA
ATOM      8  H   UNL     1      -3.736   8.353  -9.205  1.00  0.00     0.293 HD
ENDBRANCH   3   7
BRANCH   5   9
ATOM      9  O   UNL     1       0.917   6.329  -9.998  1.00  0.00    -0.504 OA
ATOM     10  H   UNL     1       1.062   6.023 -10.953  1.00  0.00     0.293 HD
ENDBRANCH   5   9
BRANCH   4  11
ATOM     11  O   UNL     1      -1.827   6.517 -10.008  1.00  0.00    -0.502 OA
ATOM     12  H   UNL     1      -1.485   5.573  -9.893  1.00  0.00     0.293 HD
ENDBRANCH   4  11
TORSDOF 3
ENDMDL
