MODEL 1
REMARK VINA RESULT:    -4.837      0.000      0.000
REMARK INTER + INTRA:          -5.902
REMARK INTER:                  -5.686
REMARK INTRA:                  -0.216
REMARK UNBOUND:                -0.216
REMARK SMILES O=C([O-])C=Cc1ccc(O)c(O)c1
REMARK SMILES IDX 6 1 13 2 7 3 11 4 8 5 9 6 5 7 4 8 2 9 1 10 3 11 12 12 10 14
REMARK H PARENT 12 13 10 15
REMARK Flexibility Score: inf
ROOT
ATOM      1  C   UNL     1     -36.862 -14.876  -7.940  1.00  0.00    -0.022 A 
ATOM      2  C   UNL     1     -37.757 -14.556  -6.908  1.00  0.00     0.058 A 
ATOM      3  C   UNL     1     -36.914 -16.153  -8.525  1.00  0.00     0.012 A 
ATOM      4  C   UNL     1     -38.730 -15.481  -6.499  1.00  0.00     0.157 A 
ATOM      5  C   UNL     1     -37.883 -17.075  -8.119  1.00  0.00     0.051 A 
ATOM      6  C   UNL     1     -38.795 -16.741  -7.109  1.00  0.00     0.157 A 
ENDROOT
BRANCH   1   7
ATOM      7  C   UNL     1     -35.815 -13.904  -8.315  1.00  0.00     0.010 C 
ATOM      8  C   UNL     1     -35.920 -12.985  -9.288  1.00  0.00     0.025 C 
BRANCH   8   9
ATOM      9  C   UNL     1     -37.156 -12.655 -10.021  1.00  0.00     0.064 C 
ATOM     10  O   UNL     1     -37.181 -12.783 -11.273  1.00  0.00    -0.545 OA
ATOM     11  O   UNL     1     -38.270 -12.137  -9.371  1.00  0.00    -0.545 OA
ENDBRANCH   8   9
ENDBRANCH   1   7
BRANCH   4  12
ATOM     12  O   UNL     1     -39.631 -15.156  -5.487  1.00  0.00    -0.504 OA
ATOM     13  H   UNL     1     -40.139 -14.278  -5.491  1.00  0.00     0.293 HD
ENDBRANCH   4  12
BRANCH   6  14
ATOM     14  O   UNL     1     -39.764 -17.656  -6.702  1.00  0.00    -0.504 OA
ATOM     15  H   UNL     1     -40.743 -17.529  -6.929  1.00  0.00     0.293 HD
ENDBRANCH   6  14
TORSDOF 4
ENDMDL
MODEL 2
REMARK VINA RESULT:    -4.581     12.140     13.280
REMARK INTER + INTRA:          -5.600
REMARK INTER:                  -5.343
REMARK INTRA:                  -0.257
REMARK UNBOUND:                -0.216
REMARK SMILES O=C([O-])C=Cc1ccc(O)c(O)c1
REMARK SMILES IDX 6 1 13 2 7 3 11 4 8 5 9 6 5 7 4 8 2 9 1 10 3 11 12 12 10 14
REMARK H PARENT 12 13 10 15
REMARK Flexibility Score: inf
ROOT
ATOM      1  C   UNL     1     -26.962 -12.155  -0.886  1.00  0.00    -0.022 A 
ATOM      2  C   UNL     1     -27.722 -11.028  -0.539  1.00  0.00     0.058 A 
ATOM      3  C   UNL     1     -26.315 -12.886   0.124  1.00  0.00     0.012 A 
ATOM      4  C   UNL     1     -27.881 -10.666   0.807  1.00  0.00     0.157 A 
ATOM      5  C   UNL     1     -26.472 -12.526   1.465  1.00  0.00     0.051 A 
ATOM      6  C   UNL     1     -27.258 -11.419   1.811  1.00  0.00     0.157 A 
ENDROOT
BRANCH   1   7
ATOM      7  C   UNL     1     -26.768 -12.484  -2.313  1.00  0.00     0.010 C 
ATOM      8  C   UNL     1     -27.606 -13.219  -3.061  1.00  0.00     0.025 C 
BRANCH   8   9
ATOM      9  C   UNL     1     -28.951 -13.664  -2.652  1.00  0.00     0.064 C 
ATOM     10  O   UNL     1     -29.942 -12.926  -2.888  1.00  0.00    -0.545 OA
ATOM     11  O   UNL     1     -29.140 -14.847  -1.946  1.00  0.00    -0.545 OA
ENDBRANCH   8   9
ENDBRANCH   1   7
BRANCH   4  12
ATOM     12  O   UNL     1     -28.653  -9.558   1.153  1.00  0.00    -0.504 OA
ATOM     13  H   UNL     1     -28.264  -8.784   1.680  1.00  0.00     0.293 HD
ENDBRANCH   4  12
BRANCH   6  14
ATOM     14  O   UNL     1     -27.419 -11.057   3.147  1.00  0.00    -0.504 OA
ATOM     15  H   UNL     1     -27.110 -10.156   3.493  1.00  0.00     0.293 HD
ENDBRANCH   6  14
TORSDOF 4
ENDMDL
MODEL 3
REMARK VINA RESULT:    -4.565      8.317      9.104
REMARK INTER + INTRA:          -5.582
REMARK INTER:                  -5.380
REMARK INTRA:                  -0.201
REMARK UNBOUND:                -0.216
REMARK SMILES O=C([O-])C=Cc1ccc(O)c(O)c1
REMARK SMILES IDX 6 1 13 2 7 3 11 4 8 5 9 6 5 7 4 8 2 9 1 10 3 11 12 12 10 14
REMARK H PARENT 12 13 10 15
REMARK Flexibility Score: inf
ROOT
ATOM      1  C   UNL     1     -28.745 -17.732  -7.208  1.00  0.00    -0.022 A 
ATOM      2  C   UNL     1     -29.240 -18.823  -6.478  1.00  0.00     0.058 A 
ATOM      3  C   UNL     1     -28.816 -17.754  -8.611  1.00  0.00     0.012 A 
ATOM      4  C   UNL     1     -29.849 -19.902  -7.137  1.00  0.00     0.157 A 
ATOM      5  C   UNL     1     -29.422 -18.828  -9.269  1.00  0.00     0.051 A 
ATOM      6  C   UNL     1     -29.944 -19.902  -8.535  1.00  0.00     0.157 A 
ENDROOT
BRANCH   1   7
ATOM      7  C   UNL     1     -28.062 -16.635  -6.493  1.00  0.00     0.010 C 
ATOM      8  C   UNL     1     -28.481 -15.360  -6.446  1.00  0.00     0.025 C 
BRANCH   8   9
ATOM      9  C   UNL     1     -29.784 -14.870  -6.931  1.00  0.00     0.064 C 
ATOM     10  O   UNL     1     -30.799 -14.990  -6.197  1.00  0.00    -0.545 OA
ATOM     11  O   UNL     1     -29.931 -14.344  -8.209  1.00  0.00    -0.545 OA
ENDBRANCH   8   9
ENDBRANCH   1   7
BRANCH   4  12
ATOM     12  O   UNL     1     -30.358 -20.976  -6.411  1.00  0.00    -0.504 OA
ATOM     13  H   UNL     1     -30.897 -21.710  -6.856  1.00  0.00     0.293 HD
ENDBRANCH   4  12
BRANCH   6  14
ATOM     14  O   UNL     1     -30.550 -20.973  -9.187  1.00  0.00    -0.504 OA
ATOM     15  H   UNL     1     -31.177 -20.832  -9.970  1.00  0.00     0.293 HD
ENDBRANCH   6  14
TORSDOF 4
ENDMDL
MODEL 4
REMARK VINA RESULT:    -4.528      2.617      4.165
REMARK INTER + INTRA:          -5.539
REMARK INTER:                  -5.353
REMARK INTRA:                  -0.186
REMARK UNBOUND:                -0.216
REMARK SMILES O=C([O-])C=Cc1ccc(O)c(O)c1
REMARK SMILES IDX 6 1 13 2 7 3 11 4 8 5 9 6 5 7 4 8 2 9 1 10 3 11 12 12 10 14
REMARK H PARENT 12 13 10 15
REMARK Flexibility Score: inf
ROOT
ATOM      1  C   UNL     1     -37.103 -16.320  -8.652  1.00  0.00    -0.022 A 
ATOM      2  C   UNL     1     -38.060 -17.177  -8.088  1.00  0.00     0.058 A 
ATOM      3  C   UNL     1     -36.965 -15.016  -8.148  1.00  0.00     0.012 A 
ATOM      4  C   UNL     1     -38.835 -16.755  -6.996  1.00  0.00     0.157 A 
ATOM      5  C   UNL     1     -37.736 -14.594  -7.062  1.00  0.00     0.051 A 
ATOM      6  C   UNL     1     -38.669 -15.463  -6.480  1.00  0.00     0.157 A 
ENDROOT
BRANCH   1   7
ATOM      7  C   UNL     1     -36.337 -16.770  -9.832  1.00  0.00     0.010 C 
ATOM      8  C   UNL     1     -35.289 -17.608  -9.804  1.00  0.00     0.025 C 
BRANCH   8   9
ATOM      9  C   UNL     1     -34.836 -18.373  -8.628  1.00  0.00     0.064 C 
ATOM     10  O   UNL     1     -33.853 -17.954  -7.963  1.00  0.00    -0.545 OA
ATOM     11  O   UNL     1     -35.424 -19.583  -8.278  1.00  0.00    -0.545 OA
ENDBRANCH   8   9
ENDBRANCH   1   7
BRANCH   4  12
ATOM     12  O   UNL     1     -39.772 -17.613  -6.424  1.00  0.00    -0.504 OA
ATOM     13  H   UNL     1     -40.486 -18.068  -6.982  1.00  0.00     0.293 HD
ENDBRANCH   4  12
BRANCH   6  14
ATOM     14  O   UNL     1     -39.439 -15.048  -5.396  1.00  0.00    -0.504 OA
ATOM     15  H   UNL     1     -39.552 -14.067  -5.170  1.00  0.00     0.293 HD
ENDBRANCH   6  14
TORSDOF 4
ENDMDL
MODEL 5
REMARK VINA RESULT:    -4.511     13.006     14.202
REMARK INTER + INTRA:          -5.519
REMARK INTER:                  -5.238
REMARK INTRA:                  -0.281
REMARK UNBOUND:                -0.216
REMARK SMILES O=C([O-])C=Cc1ccc(O)c(O)c1
REMARK SMILES IDX 6 1 13 2 7 3 11 4 8 5 9 6 5 7 4 8 2 9 1 10 3 11 12 12 10 14
REMARK H PARENT 12 13 10 15
REMARK Flexibility Score: inf
ROOT
ATOM      1  C   UNL     1     -26.275 -11.954  -0.478  1.00  0.00    -0.022 A 
ATOM      2  C   UNL     1     -26.266 -11.760   0.911  1.00  0.00     0.058 A 
ATOM      3  C   UNL     1     -27.419 -11.604  -1.215  1.00  0.00     0.012 A 
ATOM      4  C   UNL     1     -27.366 -11.172   1.553  1.00  0.00     0.157 A 
ATOM      5  C   UNL     1     -28.516 -11.019  -0.577  1.00  0.00     0.051 A 
ATOM      6  C   UNL     1     -28.491 -10.797   0.807  1.00  0.00     0.157 A 
ENDROOT
BRANCH   1   7
ATOM      7  C   UNL     1     -25.125 -12.623  -1.121  1.00  0.00     0.010 C 
ATOM      8  C   UNL     1     -24.975 -13.950  -1.256  1.00  0.00     0.025 C 
BRANCH   8   9
ATOM      9  C   UNL     1     -26.007 -14.962  -0.963  1.00  0.00     0.064 C 
ATOM     10  O   UNL     1     -26.744 -15.377  -1.895  1.00  0.00    -0.545 OA
ATOM     11  O   UNL     1     -26.234 -15.414   0.331  1.00  0.00    -0.545 OA
ENDBRANCH   8   9
ENDBRANCH   1   7
BRANCH   4  12
ATOM     12  O   UNL     1     -27.350 -10.962   2.931  1.00  0.00    -0.504 OA
ATOM     13  H   UNL     1     -28.022 -11.410   3.544  1.00  0.00     0.293 HD
ENDBRANCH   4  12
BRANCH   6  14
ATOM     14  O   UNL     1     -29.582 -10.212   1.447  1.00  0.00    -0.504 OA
ATOM     15  H   UNL     1     -30.525 -10.555   1.308  1.00  0.00     0.293 HD
ENDBRANCH   6  14
TORSDOF 4
ENDMDL
MODEL 6
REMARK VINA RESULT:    -4.490     11.785     12.963
REMARK INTER + INTRA:          -5.494
REMARK INTER:                  -5.216
REMARK INTRA:                  -0.278
REMARK UNBOUND:                -0.216
REMARK SMILES O=C([O-])C=Cc1ccc(O)c(O)c1
REMARK SMILES IDX 6 1 13 2 7 3 11 4 8 5 9 6 5 7 4 8 2 9 1 10 3 11 12 12 10 14
REMARK H PARENT 12 13 10 15
REMARK Flexibility Score: inf
ROOT
ATOM      1  C   UNL     1     -26.543 -13.183  -2.690  1.00  0.00    -0.022 A 
ATOM      2  C   UNL     1     -26.901 -12.000  -2.026  1.00  0.00     0.058 A 
ATOM      3  C   UNL     1     -25.657 -14.080  -2.069  1.00  0.00     0.012 A 
ATOM      4  C   UNL     1     -26.424 -11.739  -0.733  1.00  0.00     0.157 A 
ATOM      5  C   UNL     1     -25.181 -13.821  -0.781  1.00  0.00     0.051 A 
ATOM      6  C   UNL     1     -25.566 -12.654  -0.108  1.00  0.00     0.157 A 
ENDROOT
BRANCH   1   7
ATOM      7  C   UNL     1     -27.017 -13.407  -4.071  1.00  0.00     0.010 C 
ATOM      8  C   UNL     1     -28.162 -14.021  -4.409  1.00  0.00     0.025 C 
BRANCH   8   9
ATOM      9  C   UNL     1     -29.234 -14.405  -3.472  1.00  0.00     0.064 C 
ATOM     10  O   UNL     1     -30.186 -13.608  -3.265  1.00  0.00    -0.545 OA
ATOM     11  O   UNL     1     -29.182 -15.596  -2.757  1.00  0.00    -0.545 OA
ENDBRANCH   8   9
ENDBRANCH   1   7
BRANCH   4  12
ATOM     12  O   UNL     1     -26.795 -10.574  -0.065  1.00  0.00    -0.504 OA
ATOM     13  H   UNL     1     -26.921  -9.697  -0.559  1.00  0.00     0.293 HD
ENDBRANCH   4  12
BRANCH   6  14
ATOM     14  O   UNL     1     -25.095 -12.393   1.177  1.00  0.00    -0.504 OA
ATOM     15  H   UNL     1     -24.457 -13.025   1.647  1.00  0.00     0.293 HD
ENDBRANCH   6  14
TORSDOF 4
ENDMDL
MODEL 7
REMARK VINA RESULT:    -4.469      2.462      4.790
REMARK INTER + INTRA:          -5.469
REMARK INTER:                  -5.195
REMARK INTRA:                  -0.274
REMARK UNBOUND:                -0.216
REMARK SMILES O=C([O-])C=Cc1ccc(O)c(O)c1
REMARK SMILES IDX 6 1 13 2 7 3 11 4 8 5 9 6 5 7 4 8 2 9 1 10 3 11 12 12 10 14
REMARK H PARENT 12 13 10 15
REMARK Flexibility Score: inf
ROOT
ATOM      1  C   UNL     1     -37.806 -17.004  -7.504  1.00  0.00    -0.022 A 
ATOM      2  C   UNL     1     -38.585 -16.619  -6.403  1.00  0.00     0.058 A 
ATOM      3  C   UNL     1     -37.174 -16.017  -8.279  1.00  0.00     0.012 A 
ATOM      4  C   UNL     1     -38.690 -15.267  -6.045  1.00  0.00     0.157 A 
ATOM      5  C   UNL     1     -37.278 -14.669  -7.924  1.00  0.00     0.051 A 
ATOM      6  C   UNL     1     -38.031 -14.291  -6.805  1.00  0.00     0.157 A 
ENDROOT
BRANCH   1   7
ATOM      7  C   UNL     1     -37.755 -18.429  -7.890  1.00  0.00     0.010 C 
ATOM      8  C   UNL     1     -36.739 -19.268  -7.631  1.00  0.00     0.025 C 
BRANCH   8   9
ATOM      9  C   UNL     1     -35.589 -18.973  -6.757  1.00  0.00     0.064 C 
ATOM     10  O   UNL     1     -34.446 -18.843  -7.268  1.00  0.00    -0.545 OA
ATOM     11  O   UNL     1     -35.724 -18.908  -5.376  1.00  0.00    -0.545 OA
ENDBRANCH   8   9
ENDBRANCH   1   7
BRANCH   4  12
ATOM     12  O   UNL     1     -39.448 -14.886  -4.940  1.00  0.00    -0.504 OA
ATOM     13  H   UNL     1     -40.331 -15.335  -4.722  1.00  0.00     0.293 HD
ENDBRANCH   4  12
BRANCH   6  14
ATOM     14  O   UNL     1     -38.136 -12.948  -6.446  1.00  0.00    -0.504 OA
ATOM     15  H   UNL     1     -37.598 -12.560  -5.680  1.00  0.00     0.293 HD
ENDBRANCH   6  14
TORSDOF 4
ENDMDL
MODEL 8
REMARK VINA RESULT:    -4.461     12.710     13.854
REMARK INTER + INTRA:          -5.460
REMARK INTER:                  -5.182
REMARK INTRA:                  -0.278
REMARK UNBOUND:                -0.216
REMARK SMILES O=C([O-])C=Cc1ccc(O)c(O)c1
REMARK SMILES IDX 6 1 13 2 7 3 11 4 8 5 9 6 5 7 4 8 2 9 1 10 3 11 12 12 10 14
REMARK H PARENT 12 13 10 15
REMARK Flexibility Score: inf
ROOT
ATOM      1  C   UNL     1     -28.542 -11.745  -0.188  1.00  0.00    -0.022 A 
ATOM      2  C   UNL     1     -27.355 -11.019  -0.365  1.00  0.00     0.058 A 
ATOM      3  C   UNL     1     -28.526 -12.909   0.599  1.00  0.00     0.012 A 
ATOM      4  C   UNL     1     -26.175 -11.418   0.280  1.00  0.00     0.157 A 
ATOM      5  C   UNL     1     -27.352 -13.308   1.242  1.00  0.00     0.051 A 
ATOM      6  C   UNL     1     -26.175 -12.562   1.089  1.00  0.00     0.157 A 
ENDROOT
BRANCH   1   7
ATOM      7  C   UNL     1     -29.757 -11.333  -0.921  1.00  0.00     0.010 C 
ATOM      8  C   UNL     1     -30.758 -10.598  -0.412  1.00  0.00     0.025 C 
BRANCH   8   9
ATOM      9  C   UNL     1     -30.739  -9.914   0.895  1.00  0.00     0.064 C 
ATOM     10  O   UNL     1     -30.479  -8.684   0.941  1.00  0.00    -0.545 OA
ATOM     11  O   UNL     1     -30.930 -10.611   2.082  1.00  0.00    -0.545 OA
ENDBRANCH   8   9
ENDBRANCH   1   7
BRANCH   4  12
ATOM     12  O   UNL     1     -25.000 -10.686   0.120  1.00  0.00    -0.504 OA
ATOM     13  H   UNL     1     -24.750 -10.273  -0.772  1.00  0.00     0.293 HD
ENDBRANCH   4  12
BRANCH   6  14
ATOM     14  O   UNL     1     -25.002 -12.956   1.730  1.00  0.00    -0.504 OA
ATOM     15  H   UNL     1     -24.839 -13.921   1.991  1.00  0.00     0.293 HD
ENDBRANCH   6  14
TORSDOF 4
ENDMDL
MODEL 9
REMARK VINA RESULT:    -4.456      2.014      5.120
REMARK INTER + INTRA:          -5.454
REMARK INTER:                  -5.162
REMARK INTRA:                  -0.292
REMARK UNBOUND:                -0.216
REMARK SMILES O=C([O-])C=Cc1ccc(O)c(O)c1
REMARK SMILES IDX 6 1 13 2 7 3 11 4 8 5 9 6 5 7 4 8 2 9 1 10 3 11 12 12 10 14
REMARK H PARENT 12 13 10 15
REMARK Flexibility Score: inf
ROOT
ATOM      1  C   UNL     1     -38.268 -16.218  -7.502  1.00  0.00    -0.022 A 
ATOM      2  C   UNL     1     -38.624 -15.082  -6.760  1.00  0.00     0.058 A 
ATOM      3  C   UNL     1     -37.174 -16.150  -8.382  1.00  0.00     0.012 A 
ATOM      4  C   UNL     1     -37.864 -13.907  -6.853  1.00  0.00     0.157 A 
ATOM      5  C   UNL     1     -36.417 -14.980  -8.476  1.00  0.00     0.051 A 
ATOM      6  C   UNL     1     -36.756 -13.857  -7.709  1.00  0.00     0.157 A 
ENDROOT
BRANCH   1   7
ATOM      7  C   UNL     1     -39.115 -17.426  -7.425  1.00  0.00     0.010 C 
ATOM      8  C   UNL     1     -38.916 -18.462  -6.595  1.00  0.00     0.025 C 
BRANCH   8   9
ATOM      9  C   UNL     1     -37.940 -18.498  -5.490  1.00  0.00     0.064 C 
ATOM     10  O   UNL     1     -38.301 -18.139  -4.339  1.00  0.00    -0.545 OA
ATOM     11  O   UNL     1     -36.613 -18.849  -5.705  1.00  0.00    -0.545 OA
ENDBRANCH   8   9
ENDBRANCH   1   7
BRANCH   4  12
ATOM     12  O   UNL     1     -38.206 -12.784  -6.100  1.00  0.00    -0.504 OA
ATOM     13  H   UNL     1     -37.950 -12.703  -5.123  1.00  0.00     0.293 HD
ENDBRANCH   4  12
BRANCH   6  14
ATOM     14  O   UNL     1     -36.003 -12.688  -7.798  1.00  0.00    -0.504 OA
ATOM     15  H   UNL     1     -36.442 -11.780  -7.894  1.00  0.00     0.293 HD
ENDBRANCH   6  14
TORSDOF 4
ENDMDL
