MODEL 1
REMARK VINA RESULT:    -4.733      0.000      0.000
REMARK INTER + INTRA:          -8.122
REMARK INTER:                  -7.500
REMARK INTRA:                  -0.622
REMARK UNBOUND:                -0.622
REMARK SMILES CCCCCCCCCCCC(=O)[O-]
REMARK SMILES IDX 7 1 8 2 9 3 10 4 11 5 12 6 13 7 14 8 6 9 5 10 4 11 3 12 2 13
REMARK SMILES IDX 1 14
REMARK H PARENT
REMARK Flexibility Score: inf
ROOT
ATOM      1  C   UNL     1       7.163  27.916 -13.136  1.00  0.00     0.000 C 
ENDROOT
BRANCH   1   2
ATOM      2  C   UNL     1       8.252  29.008 -13.073  1.00  0.00     0.000 C 
BRANCH   2   3
ATOM      3  C   UNL     1       7.700  30.411 -12.771  1.00  0.00     0.000 C 
BRANCH   3   4
ATOM      4  C   UNL     1       7.765  31.352 -13.984  1.00  0.00     0.006 C 
BRANCH   4   5
ATOM      5  C   UNL     1       6.375  31.654 -14.559  1.00  0.00     0.053 C 
BRANCH   5   6
ATOM      6  C   UNL     1       6.162  30.979 -15.878  1.00  0.00     0.041 C 
ATOM      7  O   UNL     1       6.333  29.736 -15.990  1.00  0.00    -0.550 OA
ATOM      8  O   UNL     1       5.809  31.727 -16.995  1.00  0.00    -0.550 OA
ENDBRANCH   5   6
ENDBRANCH   4   5
ENDBRANCH   3   4
ENDBRANCH   2   3
ENDBRANCH   1   2
BRANCH   1   9
ATOM      9  C   UNL     1       7.746  26.503 -12.958  1.00  0.00     0.000 C 
BRANCH   9  10
ATOM     10  C   UNL     1       9.280  26.504 -12.850  1.00  0.00    -0.000 C 
BRANCH  10  11
ATOM     11  C   UNL     1       9.814  25.340 -12.003  1.00  0.00    -0.000 C 
BRANCH  11  12
ATOM     12  C   UNL     1       8.704  24.321 -11.706  1.00  0.00    -0.000 C 
BRANCH  12  13
ATOM     13  C   UNL     1       8.554  24.030 -10.205  1.00  0.00    -0.003 C 
ATOM     14  C   UNL     1       7.687  22.802  -9.925  1.00  0.00     0.004 C 
ENDBRANCH  12  13
ENDBRANCH  11  12
ENDBRANCH  10  11
ENDBRANCH   9  10
ENDBRANCH   1   9
TORSDOF 10
ENDMDL
MODEL 2
REMARK VINA RESULT:    -4.664      1.340      1.702
REMARK INTER + INTRA:          -8.013
REMARK INTER:                  -7.381
REMARK INTRA:                  -0.632
REMARK UNBOUND:                -0.622
REMARK SMILES CCCCCCCCCCCC(=O)[O-]
REMARK SMILES IDX 7 1 8 2 9 3 10 4 11 5 12 6 13 7 14 8 6 9 5 10 4 11 3 12 2 13
REMARK SMILES IDX 1 14
REMARK H PARENT
REMARK Flexibility Score: inf
ROOT
ATOM      1  C   UNL     1       8.742  28.111 -13.195  1.00  0.00     0.000 C 
ENDROOT
BRANCH   1   2
ATOM      2  C   UNL     1       8.750  29.602 -12.798  1.00  0.00     0.000 C 
BRANCH   2   3
ATOM      3  C   UNL     1       7.407  30.311 -13.044  1.00  0.00     0.000 C 
BRANCH   3   4
ATOM      4  C   UNL     1       7.265  30.839 -14.481  1.00  0.00     0.006 C 
BRANCH   4   5
ATOM      5  C   UNL     1       5.859  30.602 -15.049  1.00  0.00     0.053 C 
BRANCH   5   6
ATOM      6  C   UNL     1       5.007  31.829 -14.950  1.00  0.00     0.041 C 
ATOM      7  O   UNL     1       5.087  32.729 -15.828  1.00  0.00    -0.550 OA
ATOM      8  O   UNL     1       4.150  31.997 -13.870  1.00  0.00    -0.550 OA
ENDBRANCH   5   6
ENDBRANCH   4   5
ENDBRANCH   3   4
ENDBRANCH   2   3
ENDBRANCH   1   2
BRANCH   1   9
ATOM      9  C   UNL     1       7.343  27.483 -13.060  1.00  0.00     0.000 C 
BRANCH   9  10
ATOM     10  C   UNL     1       7.390  25.952 -12.928  1.00  0.00    -0.000 C 
BRANCH  10  11
ATOM     11  C   UNL     1       8.823  25.411 -12.815  1.00  0.00    -0.000 C 
BRANCH  11  12
ATOM     12  C   UNL     1       8.854  24.103 -12.011  1.00  0.00    -0.000 C 
BRANCH  12  13
ATOM     13  C   UNL     1       7.586  23.897 -11.167  1.00  0.00    -0.003 C 
ATOM     14  C   UNL     1       7.824  23.003  -9.950  1.00  0.00     0.004 C 
ENDBRANCH  12  13
ENDBRANCH  11  12
ENDBRANCH  10  11
ENDBRANCH   9  10
ENDBRANCH   1   9
TORSDOF 10
ENDMDL
MODEL 3
REMARK VINA RESULT:    -4.635      1.622      2.242
REMARK INTER + INTRA:          -7.967
REMARK INTER:                  -7.077
REMARK INTRA:                  -0.890
REMARK UNBOUND:                -0.622
REMARK SMILES CCCCCCCCCCCC(=O)[O-]
REMARK SMILES IDX 7 1 8 2 9 3 10 4 11 5 12 6 13 7 14 8 6 9 5 10 4 11 3 12 2 13
REMARK SMILES IDX 1 14
REMARK H PARENT
REMARK Flexibility Score: inf
ROOT
ATOM      1  C   UNL     1      10.361  26.934 -14.189  1.00  0.00     0.000 C 
ENDROOT
BRANCH   1   2
ATOM      2  C   UNL     1       9.696  28.298 -14.473  1.00  0.00     0.000 C 
BRANCH   2   3
ATOM      3  C   UNL     1       9.272  29.052 -13.201  1.00  0.00     0.000 C 
BRANCH   3   4
ATOM      4  C   UNL     1       7.759  28.975 -12.938  1.00  0.00     0.006 C 
BRANCH   4   5
ATOM      5  C   UNL     1       7.017  28.209 -14.041  1.00  0.00     0.053 C 
BRANCH   5   6
ATOM      6  C   UNL     1       6.390  29.137 -15.035  1.00  0.00     0.041 C 
ATOM      7  O   UNL     1       5.914  30.241 -14.660  1.00  0.00    -0.550 OA
ATOM      8  O   UNL     1       6.299  28.768 -16.372  1.00  0.00    -0.550 OA
ENDBRANCH   5   6
ENDBRANCH   4   5
ENDBRANCH   3   4
ENDBRANCH   2   3
ENDBRANCH   1   2
BRANCH   1   9
ATOM      9  C   UNL     1      10.874  26.830 -12.741  1.00  0.00     0.000 C 
BRANCH   9  10
ATOM     10  C   UNL     1      10.181  25.712 -11.945  1.00  0.00    -0.000 C 
BRANCH  10  11
ATOM     11  C   UNL     1       9.104  24.984 -12.762  1.00  0.00    -0.000 C 
BRANCH  11  12
ATOM     12  C   UNL     1       8.035  24.375 -11.841  1.00  0.00    -0.000 C 
BRANCH  12  13
ATOM     13  C   UNL     1       8.604  23.937 -10.483  1.00  0.00    -0.003 C 
ATOM     14  C   UNL     1       7.701  22.940  -9.757  1.00  0.00     0.004 C 
ENDBRANCH  12  13
ENDBRANCH  11  12
ENDBRANCH  10  11
ENDBRANCH   9  10
ENDBRANCH   1   9
TORSDOF 10
ENDMDL
MODEL 4
REMARK VINA RESULT:    -4.612      3.458      7.229
REMARK INTER + INTRA:          -7.930
REMARK INTER:                  -7.116
REMARK INTRA:                  -0.814
REMARK UNBOUND:                -0.622
REMARK SMILES CCCCCCCCCCCC(=O)[O-]
REMARK SMILES IDX 7 1 8 2 9 3 10 4 11 5 12 6 13 7 14 8 6 9 5 10 4 11 3 12 2 13
REMARK SMILES IDX 1 14
REMARK H PARENT
REMARK Flexibility Score: inf
ROOT
ATOM      1  C   UNL     1       7.492  28.037 -13.073  1.00  0.00     0.000 C 
ENDROOT
BRANCH   1   2
ATOM      2  C   UNL     1       7.601  26.497 -13.057  1.00  0.00     0.000 C 
BRANCH   2   3
ATOM      3  C   UNL     1       9.012  25.984 -12.720  1.00  0.00     0.000 C 
BRANCH   3   4
ATOM      4  C   UNL     1       9.023  24.513 -12.277  1.00  0.00     0.006 C 
BRANCH   4   5
ATOM      5  C   UNL     1       8.950  24.366 -10.751  1.00  0.00     0.053 C 
BRANCH   5   6
ATOM      6  C   UNL     1       7.727  23.615 -10.324  1.00  0.00     0.041 C 
ATOM      7  O   UNL     1       7.757  22.883  -9.299  1.00  0.00    -0.550 OA
ATOM      8  O   UNL     1       6.562  23.694 -11.077  1.00  0.00    -0.550 OA
ENDBRANCH   5   6
ENDBRANCH   4   5
ENDBRANCH   3   4
ENDBRANCH   2   3
ENDBRANCH   1   2
BRANCH   1   9
ATOM      9  C   UNL     1       8.860  28.713 -13.269  1.00  0.00     0.000 C 
BRANCH   9  10
ATOM     10  C   UNL     1       8.820  30.224 -12.994  1.00  0.00    -0.000 C 
BRANCH  10  11
ATOM     11  C   UNL     1       7.412  30.726 -12.642  1.00  0.00    -0.000 C 
BRANCH  11  12
ATOM     12  C   UNL     1       7.053  31.975 -13.461  1.00  0.00    -0.000 C 
BRANCH  12  13
ATOM     13  C   UNL     1       6.948  31.685 -14.966  1.00  0.00    -0.003 C 
ATOM     14  C   UNL     1       5.913  30.609 -15.291  1.00  0.00     0.004 C 
ENDBRANCH  12  13
ENDBRANCH  11  12
ENDBRANCH  10  11
ENDBRANCH   9  10
ENDBRANCH   1   9
TORSDOF 10
ENDMDL
MODEL 5
REMARK VINA RESULT:    -4.595      1.411      2.037
REMARK INTER + INTRA:          -7.903
REMARK INTER:                  -7.032
REMARK INTRA:                  -0.871
REMARK UNBOUND:                -0.622
REMARK SMILES CCCCCCCCCCCC(=O)[O-]
REMARK SMILES IDX 7 1 8 2 9 3 10 4 11 5 12 6 13 7 14 8 6 9 5 10 4 11 3 12 2 13
REMARK SMILES IDX 1 14
REMARK H PARENT
REMARK Flexibility Score: inf
ROOT
ATOM      1  C   UNL     1       9.930  27.280 -13.925  1.00  0.00     0.000 C 
ENDROOT
BRANCH   1   2
ATOM      2  C   UNL     1       9.104  28.533 -13.562  1.00  0.00     0.000 C 
BRANCH   2   3
ATOM      3  C   UNL     1       7.686  28.210 -13.062  1.00  0.00     0.000 C 
BRANCH   3   4
ATOM      4  C   UNL     1       6.653  28.137 -14.198  1.00  0.00     0.006 C 
BRANCH   4   5
ATOM      5  C   UNL     1       6.957  29.137 -15.322  1.00  0.00     0.053 C 
BRANCH   5   6
ATOM      6  C   UNL     1       6.395  30.492 -15.025  1.00  0.00     0.041 C 
ATOM      7  O   UNL     1       5.153  30.649 -14.894  1.00  0.00    -0.550 OA
ATOM      8  O   UNL     1       7.240  31.591 -14.930  1.00  0.00    -0.550 OA
ENDBRANCH   5   6
ENDBRANCH   4   5
ENDBRANCH   3   4
ENDBRANCH   2   3
ENDBRANCH   1   2
BRANCH   1   9
ATOM      9  C   UNL     1      10.843  26.834 -12.770  1.00  0.00     0.000 C 
BRANCH   9  10
ATOM     10  C   UNL     1      10.217  25.720 -11.915  1.00  0.00    -0.000 C 
BRANCH  10  11
ATOM     11  C   UNL     1       9.269  24.819 -12.719  1.00  0.00    -0.000 C 
BRANCH  11  12
ATOM     12  C   UNL     1       8.095  24.343 -11.849  1.00  0.00    -0.000 C 
BRANCH  12  13
ATOM     13  C   UNL     1       8.510  24.062 -10.397  1.00  0.00    -0.003 C 
ATOM     14  C   UNL     1       7.729  22.907  -9.771  1.00  0.00     0.004 C 
ENDBRANCH  12  13
ENDBRANCH  11  12
ENDBRANCH  10  11
ENDBRANCH   9  10
ENDBRANCH   1   9
TORSDOF 10
ENDMDL
MODEL 6
REMARK VINA RESULT:    -4.523     10.210     11.597
REMARK INTER + INTRA:          -7.789
REMARK INTER:                  -6.452
REMARK INTRA:                  -1.337
REMARK UNBOUND:                -0.622
REMARK SMILES CCCCCCCCCCCC(=O)[O-]
REMARK SMILES IDX 7 1 8 2 9 3 10 4 11 5 12 6 13 7 14 8 6 9 5 10 4 11 3 12 2 13
REMARK SMILES IDX 1 14
REMARK H PARENT
REMARK Flexibility Score: inf
ROOT
ATOM      1  C   UNL     1       1.898  21.558  -8.043  1.00  0.00     0.000 C 
ENDROOT
BRANCH   1   2
ATOM      2  C   UNL     1       3.200  20.792  -8.359  1.00  0.00     0.000 C 
BRANCH   2   3
ATOM      3  C   UNL     1       2.968  19.328  -8.772  1.00  0.00     0.000 C 
BRANCH   3   4
ATOM      4  C   UNL     1       3.339  19.055 -10.239  1.00  0.00     0.006 C 
BRANCH   4   5
ATOM      5  C   UNL     1       2.101  18.850 -11.122  1.00  0.00     0.053 C 
BRANCH   5   6
ATOM      6  C   UNL     1       1.798  20.064 -11.943  1.00  0.00     0.041 C 
ATOM      7  O   UNL     1       1.137  21.015 -11.449  1.00  0.00    -0.550 OA
ATOM      8  O   UNL     1       2.214  20.132 -13.267  1.00  0.00    -0.550 OA
ENDBRANCH   5   6
ENDBRANCH   4   5
ENDBRANCH   3   4
ENDBRANCH   2   3
ENDBRANCH   1   2
BRANCH   1   9
ATOM      9  C   UNL     1       0.723  20.607  -7.750  1.00  0.00     0.000 C 
BRANCH   9  10
ATOM     10  C   UNL     1       0.013  20.932  -6.426  1.00  0.00    -0.000 C 
BRANCH  10  11
ATOM     11  C   UNL     1       0.949  20.840  -5.213  1.00  0.00    -0.000 C 
BRANCH  11  12
ATOM     12  C   UNL     1       1.270  19.376  -4.876  1.00  0.00    -0.000 C 
BRANCH  12  13
ATOM     13  C   UNL     1       2.767  19.054  -5.003  1.00  0.00    -0.003 C 
ATOM     14  C   UNL     1       3.028  17.608  -5.424  1.00  0.00     0.004 C 
ENDBRANCH  12  13
ENDBRANCH  11  12
ENDBRANCH  10  11
ENDBRANCH   9  10
ENDBRANCH   1   9
TORSDOF 10
ENDMDL
MODEL 7
REMARK VINA RESULT:    -4.508      1.311      1.812
REMARK INTER + INTRA:          -7.765
REMARK INTER:                  -6.911
REMARK INTRA:                  -0.855
REMARK UNBOUND:                -0.622
REMARK SMILES CCCCCCCCCCCC(=O)[O-]
REMARK SMILES IDX 7 1 8 2 9 3 10 4 11 5 12 6 13 7 14 8 6 9 5 10 4 11 3 12 2 13
REMARK SMILES IDX 1 14
REMARK H PARENT
REMARK Flexibility Score: inf
ROOT
ATOM      1  C   UNL     1       9.477  28.423 -13.337  1.00  0.00     0.000 C 
ENDROOT
BRANCH   1   2
ATOM      2  C   UNL     1       8.062  28.929 -12.988  1.00  0.00     0.000 C 
BRANCH   2   3
ATOM      3  C   UNL     1       6.944  28.214 -13.766  1.00  0.00     0.000 C 
BRANCH   3   4
ATOM      4  C   UNL     1       6.647  28.869 -15.124  1.00  0.00     0.006 C 
BRANCH   4   5
ATOM      5  C   UNL     1       5.771  30.121 -14.985  1.00  0.00     0.053 C 
BRANCH   5   6
ATOM      6  C   UNL     1       6.366  31.296 -15.696  1.00  0.00     0.041 C 
ATOM      7  O   UNL     1       7.233  32.010 -15.127  1.00  0.00    -0.550 OA
ATOM      8  O   UNL     1       5.938  31.626 -16.976  1.00  0.00    -0.550 OA
ENDBRANCH   5   6
ENDBRANCH   4   5
ENDBRANCH   3   4
ENDBRANCH   2   3
ENDBRANCH   1   2
BRANCH   1   9
ATOM      9  C   UNL     1       9.787  27.068 -12.677  1.00  0.00     0.000 C 
BRANCH   9  10
ATOM     10  C   UNL     1       9.860  25.916 -13.691  1.00  0.00    -0.000 C 
BRANCH  10  11
ATOM     11  C   UNL     1       9.279  24.604 -13.141  1.00  0.00    -0.000 C 
BRANCH  11  12
ATOM     12  C   UNL     1       7.814  24.788 -12.717  1.00  0.00    -0.000 C 
BRANCH  12  13
ATOM     13  C   UNL     1       7.443  23.942 -11.490  1.00  0.00    -0.003 C 
ATOM     14  C   UNL     1       8.493  24.015 -10.381  1.00  0.00     0.004 C 
ENDBRANCH  12  13
ENDBRANCH  11  12
ENDBRANCH  10  11
ENDBRANCH   9  10
ENDBRANCH   1   9
TORSDOF 10
ENDMDL
MODEL 8
REMARK VINA RESULT:    -4.491      3.425      6.649
REMARK INTER + INTRA:          -7.739
REMARK INTER:                  -6.704
REMARK INTRA:                  -1.035
REMARK UNBOUND:                -0.622
REMARK SMILES CCCCCCCCCCCC(=O)[O-]
REMARK SMILES IDX 7 1 8 2 9 3 10 4 11 5 12 6 13 7 14 8 6 9 5 10 4 11 3 12 2 13
REMARK SMILES IDX 1 14
REMARK H PARENT
REMARK Flexibility Score: inf
ROOT
ATOM      1  C   UNL     1      10.414  27.365 -14.381  1.00  0.00     0.000 C 
ENDROOT
BRANCH   1   2
ATOM      2  C   UNL     1      10.869  25.928 -14.047  1.00  0.00     0.000 C 
BRANCH   2   3
ATOM      3  C   UNL     1       9.945  24.841 -14.621  1.00  0.00     0.000 C 
BRANCH   3   4
ATOM      4  C   UNL     1       9.224  24.033 -13.530  1.00  0.00     0.006 C 
BRANCH   4   5
ATOM      5  C   UNL     1       9.314  24.707 -12.155  1.00  0.00     0.053 C 
BRANCH   5   6
ATOM      6  C   UNL     1       8.254  24.208 -11.222  1.00  0.00     0.041 C 
ATOM      7  O   UNL     1       8.548  23.891 -10.039  1.00  0.00    -0.550 OA
ATOM      8  O   UNL     1       6.947  24.059 -11.669  1.00  0.00    -0.550 OA
ENDBRANCH   5   6
ENDBRANCH   4   5
ENDBRANCH   3   4
ENDBRANCH   2   3
ENDBRANCH   1   2
BRANCH   1   9
ATOM      9  C   UNL     1      10.172  28.205 -13.115  1.00  0.00     0.000 C 
BRANCH   9  10
ATOM     10  C   UNL     1       8.797  28.891 -13.112  1.00  0.00    -0.000 C 
BRANCH  10  11
ATOM     11  C   UNL     1       7.633  27.888 -13.123  1.00  0.00    -0.000 C 
BRANCH  11  12
ATOM     12  C   UNL     1       6.675  28.173 -14.290  1.00  0.00    -0.000 C 
BRANCH  12  13
ATOM     13  C   UNL     1       6.946  29.527 -14.961  1.00  0.00    -0.003 C 
ATOM     14  C   UNL     1       5.700  30.410 -15.037  1.00  0.00     0.004 C 
ENDBRANCH  12  13
ENDBRANCH  11  12
ENDBRANCH  10  11
ENDBRANCH   9  10
ENDBRANCH   1   9
TORSDOF 10
ENDMDL
MODEL 9
REMARK VINA RESULT:    -4.413     12.613     15.607
REMARK INTER + INTRA:          -7.615
REMARK INTER:                  -6.368
REMARK INTRA:                  -1.248
REMARK UNBOUND:                -0.622
REMARK SMILES CCCCCCCCCCCC(=O)[O-]
REMARK SMILES IDX 7 1 8 2 9 3 10 4 11 5 12 6 13 7 14 8 6 9 5 10 4 11 3 12 2 13
REMARK SMILES IDX 1 14
REMARK H PARENT
REMARK Flexibility Score: inf
ROOT
ATOM      1  C   UNL     1      -7.397  32.486 -16.228  1.00  0.00     0.000 C 
ENDROOT
BRANCH   1   2
ATOM      2  C   UNL     1      -6.267  31.652 -16.867  1.00  0.00     0.000 C 
BRANCH   2   3
ATOM      3  C   UNL     1      -6.084  31.915 -18.372  1.00  0.00     0.000 C 
BRANCH   3   4
ATOM      4  C   UNL     1      -4.703  31.485 -18.891  1.00  0.00     0.006 C 
BRANCH   4   5
ATOM      5  C   UNL     1      -3.730  32.667 -18.995  1.00  0.00     0.053 C 
BRANCH   5   6
ATOM      6  C   UNL     1      -2.533  32.480 -18.116  1.00  0.00     0.041 C 
ATOM      7  O   UNL     1      -1.376  32.465 -18.614  1.00  0.00    -0.550 OA
ATOM      8  O   UNL     1      -2.695  32.285 -16.750  1.00  0.00    -0.550 OA
ENDBRANCH   5   6
ENDBRANCH   4   5
ENDBRANCH   3   4
ENDBRANCH   2   3
ENDBRANCH   1   2
BRANCH   1   9
ATOM      9  C   UNL     1      -8.049  33.448 -17.237  1.00  0.00     0.000 C 
BRANCH   9  10
ATOM     10  C   UNL     1      -7.918  34.922 -16.823  1.00  0.00    -0.000 C 
BRANCH  10  11
ATOM     11  C   UNL     1      -7.044  35.734 -17.790  1.00  0.00    -0.000 C 
BRANCH  11  12
ATOM     12  C   UNL     1      -5.552  35.509 -17.502  1.00  0.00    -0.000 C 
BRANCH  12  13
ATOM     13  C   UNL     1      -5.252  35.383 -16.000  1.00  0.00    -0.003 C 
ATOM     14  C   UNL     1      -3.908  35.999 -15.611  1.00  0.00     0.004 C 
ENDBRANCH  12  13
ENDBRANCH  11  12
ENDBRANCH  10  11
ENDBRANCH   9  10
ENDBRANCH   1   9
TORSDOF 10
ENDMDL
