MODEL 1
REMARK VINA RESULT:    -5.830      0.000      0.000
REMARK INTER + INTRA:         -10.609
REMARK INTER:                  -9.919
REMARK INTRA:                  -0.690
REMARK UNBOUND:                -0.690
REMARK SMILES CCCCCCCCCCCCCC(=O)[O-]
REMARK SMILES IDX 8 1 9 2 10 3 11 4 12 5 13 6 14 7 15 8 16 9 7 10 6 11 5 12
REMARK SMILES IDX 4 13 3 14 2 15 1 16
REMARK H PARENT
REMARK Flexibility Score: inf
ROOT
ATOM      1  C   UNL     1      -0.779  44.315   0.580  1.00  0.00     0.000 C 
ENDROOT
BRANCH   1   2
ATOM      2  C   UNL     1      -1.716  43.491   1.471  1.00  0.00     0.000 C 
BRANCH   2   3
ATOM      3  C   UNL     1      -2.489  44.396   2.442  1.00  0.00     0.000 C 
BRANCH   3   4
ATOM      4  C   UNL     1      -2.740  43.736   3.810  1.00  0.00     0.000 C 
BRANCH   4   5
ATOM      5  C   UNL     1      -3.169  44.702   4.929  1.00  0.00     0.006 C 
BRANCH   5   6
ATOM      6  C   UNL     1      -2.008  45.549   5.465  1.00  0.00     0.053 C 
BRANCH   6   7
ATOM      7  C   UNL     1      -2.299  46.012   6.858  1.00  0.00     0.041 C 
ATOM      8  O   UNL     1      -3.488  46.172   7.236  1.00  0.00    -0.550 OA
ATOM      9  O   UNL     1      -1.258  46.221   7.753  1.00  0.00    -0.550 OA
ENDBRANCH   6   7
ENDBRANCH   5   6
ENDBRANCH   4   5
ENDBRANCH   3   4
ENDBRANCH   2   3
ENDBRANCH   1   2
BRANCH   1  10
ATOM     10  C   UNL     1       0.406  44.862   1.384  1.00  0.00     0.000 C 
BRANCH  10  11
ATOM     11  C   UNL     1       1.741  44.428   0.761  1.00  0.00    -0.000 C 
BRANCH  11  12
ATOM     12  C   UNL     1       2.950  44.777   1.643  1.00  0.00    -0.000 C 
BRANCH  12  13
ATOM     13  C   UNL     1       2.552  45.532   2.923  1.00  0.00    -0.000 C 
BRANCH  13  14
ATOM     14  C   UNL     1       3.735  46.320   3.525  1.00  0.00    -0.000 C 
BRANCH  14  15
ATOM     15  C   UNL     1       4.759  45.432   4.251  1.00  0.00    -0.003 C 
ATOM     16  C   UNL     1       4.117  44.467   5.244  1.00  0.00     0.004 C 
ENDBRANCH  14  15
ENDBRANCH  13  14
ENDBRANCH  12  13
ENDBRANCH  11  12
ENDBRANCH  10  11
ENDBRANCH   1  10
TORSDOF 12
ENDMDL
MODEL 2
REMARK VINA RESULT:    -5.690      5.848      8.278
REMARK INTER + INTRA:         -10.372
REMARK INTER:                  -9.323
REMARK INTRA:                  -1.049
REMARK UNBOUND:                -0.690
REMARK SMILES CCCCCCCCCCCCCC(=O)[O-]
REMARK SMILES IDX 8 1 9 2 10 3 11 4 12 5 13 6 14 7 15 8 16 9 7 10 6 11 5 12
REMARK SMILES IDX 4 13 3 14 2 15 1 16
REMARK H PARENT
REMARK Flexibility Score: inf
ROOT
ATOM      1  C   UNL     1       0.113  44.882  -1.847  1.00  0.00     0.000 C 
ENDROOT
BRANCH   1   2
ATOM      2  C   UNL     1       0.607  44.898  -3.299  1.00  0.00     0.000 C 
BRANCH   2   3
ATOM      3  C   UNL     1       1.827  43.982  -3.475  1.00  0.00     0.000 C 
BRANCH   3   4
ATOM      4  C   UNL     1       2.784  44.017  -2.269  1.00  0.00     0.000 C 
BRANCH   4   5
ATOM      5  C   UNL     1       4.005  43.086  -2.382  1.00  0.00     0.006 C 
BRANCH   5   6
ATOM      6  C   UNL     1       5.334  43.849  -2.438  1.00  0.00     0.053 C 
BRANCH   6   7
ATOM      7  C   UNL     1       5.639  44.264  -3.844  1.00  0.00     0.041 C 
ATOM      8  O   UNL     1       6.431  43.584  -4.547  1.00  0.00    -0.550 OA
ATOM      9  O   UNL     1       5.011  45.374  -4.393  1.00  0.00    -0.550 OA
ENDBRANCH   6   7
ENDBRANCH   5   6
ENDBRANCH   4   5
ENDBRANCH   3   4
ENDBRANCH   2   3
ENDBRANCH   1   2
BRANCH   1  10
ATOM     10  C   UNL     1      -1.340  45.363  -1.754  1.00  0.00     0.000 C 
BRANCH  10  11
ATOM     11  C   UNL     1      -1.915  45.109  -0.353  1.00  0.00    -0.000 C 
BRANCH  11  12
ATOM     12  C   UNL     1      -0.921  44.395   0.577  1.00  0.00    -0.000 C 
BRANCH  12  13
ATOM     13  C   UNL     1      -0.763  45.103   1.933  1.00  0.00    -0.000 C 
BRANCH  13  14
ATOM     14  C   UNL     1       0.713  45.412   2.260  1.00  0.00    -0.000 C 
BRANCH  14  15
ATOM     15  C   UNL     1       1.711  44.675   1.353  1.00  0.00    -0.003 C 
ATOM     16  C   UNL     1       3.155  44.785   1.836  1.00  0.00     0.004 C 
ENDBRANCH  14  15
ENDBRANCH  13  14
ENDBRANCH  12  13
ENDBRANCH  11  12
ENDBRANCH  10  11
ENDBRANCH   1  10
TORSDOF 12
ENDMDL
MODEL 3
REMARK VINA RESULT:    -5.677      2.341      4.521
REMARK INTER + INTRA:         -10.350
REMARK INTER:                  -9.322
REMARK INTRA:                  -1.028
REMARK UNBOUND:                -0.690
REMARK SMILES CCCCCCCCCCCCCC(=O)[O-]
REMARK SMILES IDX 8 1 9 2 10 3 11 4 12 5 13 6 14 7 15 8 16 9 7 10 6 11 5 12
REMARK SMILES IDX 4 13 3 14 2 15 1 16
REMARK H PARENT
REMARK Flexibility Score: inf
ROOT
ATOM      1  C   UNL     1      -2.630  45.017   4.882  1.00  0.00     0.000 C 
ENDROOT
BRANCH   1   2
ATOM      2  C   UNL     1      -3.128  44.900   6.327  1.00  0.00     0.000 C 
BRANCH   2   3
ATOM      3  C   UNL     1      -2.964  46.232   7.075  1.00  0.00     0.000 C 
BRANCH   3   4
ATOM      4  C   UNL     1      -1.635  46.327   7.847  1.00  0.00     0.000 C 
BRANCH   4   5
ATOM      5  C   UNL     1      -0.522  47.115   7.130  1.00  0.00     0.006 C 
BRANCH   5   6
ATOM      6  C   UNL     1       0.196  48.107   8.053  1.00  0.00     0.053 C 
BRANCH   6   7
ATOM      7  C   UNL     1       0.643  47.423   9.307  1.00  0.00     0.041 C 
ATOM      8  O   UNL     1       1.523  46.525   9.260  1.00  0.00    -0.550 OA
ATOM      9  O   UNL     1       0.123  47.813  10.534  1.00  0.00    -0.550 OA
ENDBRANCH   6   7
ENDBRANCH   5   6
ENDBRANCH   4   5
ENDBRANCH   3   4
ENDBRANCH   2   3
ENDBRANCH   1   2
BRANCH   1  10
ATOM     10  C   UNL     1      -2.877  43.717   4.107  1.00  0.00     0.000 C 
BRANCH  10  11
ATOM     11  C   UNL     1      -2.229  43.774   2.716  1.00  0.00    -0.000 C 
BRANCH  11  12
ATOM     12  C   UNL     1      -2.451  45.122   2.012  1.00  0.00    -0.000 C 
BRANCH  12  13
ATOM     13  C   UNL     1      -1.161  45.688   1.393  1.00  0.00    -0.000 C 
BRANCH  13  14
ATOM     14  C   UNL     1       0.082  45.371   2.250  1.00  0.00    -0.000 C 
BRANCH  14  15
ATOM     15  C   UNL     1       0.305  46.364   3.402  1.00  0.00    -0.003 C 
ATOM     16  C   UNL     1       1.765  46.454   3.842  1.00  0.00     0.004 C 
ENDBRANCH  14  15
ENDBRANCH  13  14
ENDBRANCH  12  13
ENDBRANCH  11  12
ENDBRANCH  10  11
ENDBRANCH   1  10
TORSDOF 12
ENDMDL
MODEL 4
REMARK VINA RESULT:    -5.613      2.301      5.816
REMARK INTER + INTRA:         -10.240
REMARK INTER:                  -9.457
REMARK INTRA:                  -0.782
REMARK UNBOUND:                -0.690
REMARK SMILES CCCCCCCCCCCCCC(=O)[O-]
REMARK SMILES IDX 8 1 9 2 10 3 11 4 12 5 13 6 14 7 15 8 16 9 7 10 6 11 5 12
REMARK SMILES IDX 4 13 3 14 2 15 1 16
REMARK H PARENT
REMARK Flexibility Score: inf
ROOT
ATOM      1  C   UNL     1       0.705  44.747   1.697  1.00  0.00     0.000 C 
ENDROOT
BRANCH   1   2
ATOM      2  C   UNL     1       2.024  44.530   0.946  1.00  0.00     0.000 C 
BRANCH   2   3
ATOM      3  C   UNL     1       3.228  44.803   1.859  1.00  0.00     0.000 C 
BRANCH   3   4
ATOM      4  C   UNL     1       3.026  46.029   2.769  1.00  0.00     0.000 C 
BRANCH   4   5
ATOM      5  C   UNL     1       3.827  46.000   4.084  1.00  0.00     0.006 C 
BRANCH   5   6
ATOM      6  C   UNL     1       4.091  44.577   4.591  1.00  0.00     0.053 C 
BRANCH   6   7
ATOM      7  C   UNL     1       4.368  44.590   6.062  1.00  0.00     0.041 C 
ATOM      8  O   UNL     1       3.417  44.655   6.884  1.00  0.00    -0.550 OA
ATOM      9  O   UNL     1       5.672  44.482   6.525  1.00  0.00    -0.550 OA
ENDBRANCH   6   7
ENDBRANCH   5   6
ENDBRANCH   4   5
ENDBRANCH   3   4
ENDBRANCH   2   3
ENDBRANCH   1   2
BRANCH   1  10
ATOM     10  C   UNL     1      -0.498  44.432   0.800  1.00  0.00     0.000 C 
BRANCH  10  11
ATOM     11  C   UNL     1      -1.497  43.515   1.521  1.00  0.00    -0.000 C 
BRANCH  11  12
ATOM     12  C   UNL     1      -2.715  44.276   2.067  1.00  0.00    -0.000 C 
BRANCH  12  13
ATOM     13  C   UNL     1      -2.728  44.352   3.604  1.00  0.00    -0.000 C 
BRANCH  13  14
ATOM     14  C   UNL     1      -1.884  45.529   4.135  1.00  0.00    -0.000 C 
BRANCH  14  15
ATOM     15  C   UNL     1      -1.976  45.712   5.659  1.00  0.00    -0.003 C 
ATOM     16  C   UNL     1      -3.136  44.942   6.285  1.00  0.00     0.004 C 
ENDBRANCH  14  15
ENDBRANCH  13  14
ENDBRANCH  12  13
ENDBRANCH  11  12
ENDBRANCH  10  11
ENDBRANCH   1  10
TORSDOF 12
ENDMDL
MODEL 5
REMARK VINA RESULT:    -5.580      5.426      8.421
REMARK INTER + INTRA:         -10.185
REMARK INTER:                  -9.609
REMARK INTRA:                  -0.576
REMARK UNBOUND:                -0.690
REMARK SMILES CCCCCCCCCCCCCC(=O)[O-]
REMARK SMILES IDX 8 1 9 2 10 3 11 4 12 5 13 6 14 7 15 8 16 9 7 10 6 11 5 12
REMARK SMILES IDX 4 13 3 14 2 15 1 16
REMARK H PARENT
REMARK Flexibility Score: inf
ROOT
ATOM      1  C   UNL     1       0.740  45.232   1.830  1.00  0.00     0.000 C 
ENDROOT
BRANCH   1   2
ATOM      2  C   UNL     1       1.956  44.495   1.256  1.00  0.00     0.000 C 
BRANCH   2   3
ATOM      3  C   UNL     1       1.911  44.473  -0.279  1.00  0.00     0.000 C 
BRANCH   3   4
ATOM      4  C   UNL     1       3.311  44.470  -0.921  1.00  0.00     0.000 C 
BRANCH   4   5
ATOM      5  C   UNL     1       3.401  43.748  -2.278  1.00  0.00     0.006 C 
BRANCH   5   6
ATOM      6  C   UNL     1       4.832  43.330  -2.638  1.00  0.00     0.053 C 
BRANCH   6   7
ATOM      7  C   UNL     1       5.310  44.086  -3.838  1.00  0.00     0.041 C 
ATOM      8  O   UNL     1       6.398  43.777  -4.390  1.00  0.00    -0.550 OA
ATOM      9  O   UNL     1       4.529  45.101  -4.377  1.00  0.00    -0.550 OA
ENDBRANCH   6   7
ENDBRANCH   5   6
ENDBRANCH   4   5
ENDBRANCH   3   4
ENDBRANCH   2   3
ENDBRANCH   1   2
BRANCH   1  10
ATOM     10  C   UNL     1      -0.528  44.908   1.033  1.00  0.00     0.000 C 
BRANCH  10  11
ATOM     11  C   UNL     1      -1.247  43.682   1.616  1.00  0.00    -0.000 C 
BRANCH  11  12
ATOM     12  C   UNL     1      -2.577  44.041   2.297  1.00  0.00    -0.000 C 
BRANCH  12  13
ATOM     13  C   UNL     1      -2.593  43.686   3.793  1.00  0.00    -0.000 C 
BRANCH  13  14
ATOM     14  C   UNL     1      -3.143  44.838   4.660  1.00  0.00    -0.000 C 
BRANCH  14  15
ATOM     15  C   UNL     1      -2.046  45.679   5.333  1.00  0.00    -0.003 C 
ATOM     16  C   UNL     1      -2.398  46.089   6.761  1.00  0.00     0.004 C 
ENDBRANCH  14  15
ENDBRANCH  13  14
ENDBRANCH  12  13
ENDBRANCH  11  12
ENDBRANCH  10  11
ENDBRANCH   1  10
TORSDOF 12
ENDMDL
MODEL 6
REMARK VINA RESULT:    -5.570      1.661      2.414
REMARK INTER + INTRA:         -10.168
REMARK INTER:                  -9.406
REMARK INTRA:                  -0.762
REMARK UNBOUND:                -0.690
REMARK SMILES CCCCCCCCCCCCCC(=O)[O-]
REMARK SMILES IDX 8 1 9 2 10 3 11 4 12 5 13 6 14 7 15 8 16 9 7 10 6 11 5 12
REMARK SMILES IDX 4 13 3 14 2 15 1 16
REMARK H PARENT
REMARK Flexibility Score: inf
ROOT
ATOM      1  C   UNL     1       0.837  44.882   1.557  1.00  0.00     0.000 C 
ENDROOT
BRANCH   1   2
ATOM      2  C   UNL     1       0.151  44.775   0.190  1.00  0.00     0.000 C 
BRANCH   2   3
ATOM      3  C   UNL     1      -1.367  44.608   0.348  1.00  0.00     0.000 C 
BRANCH   3   4
ATOM      4  C   UNL     1      -1.964  45.527   1.430  1.00  0.00     0.000 C 
BRANCH   4   5
ATOM      5  C   UNL     1      -2.871  44.820   2.455  1.00  0.00     0.006 C 
BRANCH   5   6
ATOM      6  C   UNL     1      -2.328  44.898   3.887  1.00  0.00     0.053 C 
BRANCH   6   7
ATOM      7  C   UNL     1      -3.358  44.422   4.862  1.00  0.00     0.041 C 
ATOM      8  O   UNL     1      -4.537  44.858   4.801  1.00  0.00    -0.550 OA
ATOM      9  O   UNL     1      -3.028  43.460   5.808  1.00  0.00    -0.550 OA
ENDBRANCH   6   7
ENDBRANCH   5   6
ENDBRANCH   4   5
ENDBRANCH   3   4
ENDBRANCH   2   3
ENDBRANCH   1   2
BRANCH   1  10
ATOM     10  C   UNL     1       2.330  44.547   1.451  1.00  0.00     0.000 C 
BRANCH  10  11
ATOM     11  C   UNL     1       3.187  45.645   2.099  1.00  0.00    -0.000 C 
BRANCH  11  12
ATOM     12  C   UNL     1       2.561  46.206   3.385  1.00  0.00    -0.000 C 
BRANCH  12  13
ATOM     13  C   UNL     1       3.158  45.580   4.658  1.00  0.00    -0.000 C 
BRANCH  13  14
ATOM     14  C   UNL     1       4.465  44.812   4.370  1.00  0.00    -0.000 C 
BRANCH  14  15
ATOM     15  C   UNL     1       5.256  44.448   5.637  1.00  0.00    -0.003 C 
ATOM     16  C   UNL     1       4.487  43.521   6.577  1.00  0.00     0.004 C 
ENDBRANCH  14  15
ENDBRANCH  13  14
ENDBRANCH  12  13
ENDBRANCH  11  12
ENDBRANCH  10  11
ENDBRANCH   1  10
TORSDOF 12
ENDMDL
MODEL 7
REMARK VINA RESULT:    -5.530      3.642      4.520
REMARK INTER + INTRA:         -10.099
REMARK INTER:                  -9.542
REMARK INTRA:                  -0.557
REMARK UNBOUND:                -0.690
REMARK SMILES CCCCCCCCCCCCCC(=O)[O-]
REMARK SMILES IDX 8 1 9 2 10 3 11 4 12 5 13 6 14 7 15 8 16 9 7 10 6 11 5 12
REMARK SMILES IDX 4 13 3 14 2 15 1 16
REMARK H PARENT
REMARK Flexibility Score: inf
ROOT
ATOM      1  C   UNL     1      -1.108  45.234  -1.032  1.00  0.00     0.000 C 
ENDROOT
BRANCH   1   2
ATOM      2  C   UNL     1      -1.770  46.191  -0.034  1.00  0.00     0.000 C 
BRANCH   2   3
ATOM      3  C   UNL     1      -2.708  45.433   0.917  1.00  0.00     0.000 C 
BRANCH   3   4
ATOM      4  C   UNL     1      -2.172  44.043   1.308  1.00  0.00     0.000 C 
BRANCH   4   5
ATOM      5  C   UNL     1      -2.260  43.712   2.810  1.00  0.00     0.006 C 
BRANCH   5   6
ATOM      6  C   UNL     1      -2.599  44.934   3.671  1.00  0.00     0.053 C 
BRANCH   6   7
ATOM      7  C   UNL     1      -3.151  44.503   4.994  1.00  0.00     0.041 C 
ATOM      8  O   UNL     1      -3.727  45.336   5.742  1.00  0.00    -0.550 OA
ATOM      9  O   UNL     1      -3.074  43.171   5.379  1.00  0.00    -0.550 OA
ENDBRANCH   6   7
ENDBRANCH   5   6
ENDBRANCH   4   5
ENDBRANCH   3   4
ENDBRANCH   2   3
ENDBRANCH   1   2
BRANCH   1  10
ATOM     10  C   UNL     1      -0.845  45.930  -2.372  1.00  0.00     0.000 C 
BRANCH  10  11
ATOM     11  C   UNL     1       0.214  45.173  -3.188  1.00  0.00    -0.000 C 
BRANCH  11  12
ATOM     12  C   UNL     1       1.243  44.454  -2.302  1.00  0.00    -0.000 C 
BRANCH  12  13
ATOM     13  C   UNL     1       2.589  44.234  -3.015  1.00  0.00    -0.000 C 
BRANCH  13  14
ATOM     14  C   UNL     1       3.736  43.958  -2.020  1.00  0.00    -0.000 C 
BRANCH  14  15
ATOM     15  C   UNL     1       5.081  43.659  -2.702  1.00  0.00    -0.003 C 
ATOM     16  C   UNL     1       5.272  44.424  -4.010  1.00  0.00     0.004 C 
ENDBRANCH  14  15
ENDBRANCH  13  14
ENDBRANCH  12  13
ENDBRANCH  11  12
ENDBRANCH  10  11
ENDBRANCH   1  10
TORSDOF 12
ENDMDL
MODEL 8
REMARK VINA RESULT:    -5.513      1.673      2.814
REMARK INTER + INTRA:         -10.071
REMARK INTER:                  -9.089
REMARK INTRA:                  -0.982
REMARK UNBOUND:                -0.690
REMARK SMILES CCCCCCCCCCCCCC(=O)[O-]
REMARK SMILES IDX 8 1 9 2 10 3 11 4 12 5 13 6 14 7 15 8 16 9 7 10 6 11 5 12
REMARK SMILES IDX 4 13 3 14 2 15 1 16
REMARK H PARENT
REMARK Flexibility Score: inf
ROOT
ATOM      1  C   UNL     1      -2.445  43.848   3.040  1.00  0.00     0.000 C 
ENDROOT
BRANCH   1   2
ATOM      2  C   UNL     1      -3.138  44.490   4.247  1.00  0.00     0.000 C 
BRANCH   2   3
ATOM      3  C   UNL     1      -2.187  45.446   4.983  1.00  0.00     0.000 C 
BRANCH   3   4
ATOM      4  C   UNL     1      -2.554  45.635   6.466  1.00  0.00     0.000 C 
BRANCH   4   5
ATOM      5  C   UNL     1      -1.773  46.745   7.193  1.00  0.00     0.006 C 
BRANCH   5   6
ATOM      6  C   UNL     1      -0.307  46.831   6.750  1.00  0.00     0.053 C 
BRANCH   6   7
ATOM      7  C   UNL     1       0.531  47.430   7.835  1.00  0.00     0.041 C 
ATOM      8  O   UNL     1       0.331  48.616   8.209  1.00  0.00    -0.550 OA
ATOM      9  O   UNL     1       1.501  46.664   8.469  1.00  0.00    -0.550 OA
ENDBRANCH   6   7
ENDBRANCH   5   6
ENDBRANCH   4   5
ENDBRANCH   3   4
ENDBRANCH   2   3
ENDBRANCH   1   2
BRANCH   1  10
ATOM     10  C   UNL     1      -1.810  44.913   2.138  1.00  0.00     0.000 C 
BRANCH  10  11
ATOM     11  C   UNL     1      -0.552  44.368   1.445  1.00  0.00    -0.000 C 
BRANCH  11  12
ATOM     12  C   UNL     1       0.699  45.212   1.735  1.00  0.00    -0.000 C 
BRANCH  12  13
ATOM     13  C   UNL     1       0.539  46.103   2.978  1.00  0.00    -0.000 C 
BRANCH  13  14
ATOM     14  C   UNL     1       1.868  46.282   3.741  1.00  0.00    -0.000 C 
BRANCH  14  15
ATOM     15  C   UNL     1       3.059  45.574   3.075  1.00  0.00    -0.003 C 
ATOM     16  C   UNL     1       4.070  45.028   4.080  1.00  0.00     0.004 C 
ENDBRANCH  14  15
ENDBRANCH  13  14
ENDBRANCH  12  13
ENDBRANCH  11  12
ENDBRANCH  10  11
ENDBRANCH   1  10
TORSDOF 12
ENDMDL
MODEL 9
REMARK VINA RESULT:    -5.509      5.348      7.393
REMARK INTER + INTRA:         -10.064
REMARK INTER:                  -9.342
REMARK INTRA:                  -0.723
REMARK UNBOUND:                -0.690
REMARK SMILES CCCCCCCCCCCCCC(=O)[O-]
REMARK SMILES IDX 8 1 9 2 10 3 11 4 12 5 13 6 14 7 15 8 16 9 7 10 6 11 5 12
REMARK SMILES IDX 4 13 3 14 2 15 1 16
REMARK H PARENT
REMARK Flexibility Score: inf
ROOT
ATOM      1  C   UNL     1      -1.304  45.883  -1.016  1.00  0.00     0.000 C 
ENDROOT
BRANCH   1   2
ATOM      2  C   UNL     1      -0.847  44.948  -2.141  1.00  0.00     0.000 C 
BRANCH   2   3
ATOM      3  C   UNL     1       0.685  44.855  -2.192  1.00  0.00     0.000 C 
BRANCH   3   4
ATOM      4  C   UNL     1       1.218  44.472  -3.585  1.00  0.00     0.000 C 
BRANCH   4   5
ATOM      5  C   UNL     1       2.753  44.456  -3.711  1.00  0.00     0.006 C 
BRANCH   5   6
ATOM      6  C   UNL     1       3.445  43.817  -2.500  1.00  0.00     0.053 C 
BRANCH   6   7
ATOM      7  C   UNL     1       4.928  43.802  -2.695  1.00  0.00     0.041 C 
ATOM      8  O   UNL     1       5.608  42.817  -2.307  1.00  0.00    -0.550 OA
ATOM      9  O   UNL     1       5.554  44.856  -3.348  1.00  0.00    -0.550 OA
ENDBRANCH   6   7
ENDBRANCH   5   6
ENDBRANCH   4   5
ENDBRANCH   3   4
ENDBRANCH   2   3
ENDBRANCH   1   2
BRANCH   1  10
ATOM     10  C   UNL     1      -1.798  45.086   0.197  1.00  0.00     0.000 C 
BRANCH  10  11
ATOM     11  C   UNL     1      -0.707  44.136   0.713  1.00  0.00    -0.000 C 
BRANCH  11  12
ATOM     12  C   UNL     1       0.378  44.863   1.523  1.00  0.00    -0.000 C 
BRANCH  12  13
ATOM     13  C   UNL     1       1.796  44.365   1.195  1.00  0.00    -0.000 C 
BRANCH  13  14
ATOM     14  C   UNL     1       2.881  45.377   1.620  1.00  0.00    -0.000 C 
BRANCH  14  15
ATOM     15  C   UNL     1       3.291  45.255   3.097  1.00  0.00    -0.003 C 
ATOM     16  C   UNL     1       2.638  46.310   3.988  1.00  0.00     0.004 C 
ENDBRANCH  14  15
ENDBRANCH  13  14
ENDBRANCH  12  13
ENDBRANCH  11  12
ENDBRANCH  10  11
ENDBRANCH   1  10
TORSDOF 12
ENDMDL
