MODEL 1
REMARK VINA RESULT:    -3.437      0.000      0.000
REMARK INTER + INTRA:          -4.143
REMARK INTER:                  -4.140
REMARK INTRA:                  -0.003
REMARK UNBOUND:                -0.003
REMARK SMILES OCC(O)CO
REMARK SMILES IDX 3 1 5 2 6 3 2 5 1 6 4 8
REMARK H PARENT 6 4 1 7 4 9
REMARK Flexibility Score: inf
ROOT
ATOM      1  C   UNL     1      15.216  -2.440  20.355  1.00  0.00     0.165 C 
ENDROOT
BRANCH   1   2
ATOM      2  C   UNL     1      15.341  -3.424  21.528  1.00  0.00     0.190 C 
BRANCH   2   3
ATOM      3  O   UNL     1      14.199  -3.377  22.340  1.00  0.00    -0.394 OA
ATOM      4  H   UNL     1      14.134  -2.443  22.668  1.00  0.00     0.210 HD
ENDBRANCH   2   3
ENDBRANCH   1   2
BRANCH   1   5
ATOM      5  C   UNL     1      15.519  -3.114  19.004  1.00  0.00     0.190 C 
BRANCH   5   6
ATOM      6  O   UNL     1      15.489  -2.168  17.968  1.00  0.00    -0.394 OA
ATOM      7  H   UNL     1      15.644  -1.282  18.388  1.00  0.00     0.210 HD
ENDBRANCH   5   6
ENDBRANCH   1   5
BRANCH   1   8
ATOM      8  O   UNL     1      13.947  -1.833  20.345  1.00  0.00    -0.388 OA
ATOM      9  H   UNL     1      13.299  -2.493  19.985  1.00  0.00     0.211 HD
ENDBRANCH   1   8
TORSDOF 5
ENDMDL
MODEL 2
REMARK VINA RESULT:    -3.408      1.236      3.238
REMARK INTER + INTRA:          -4.108
REMARK INTER:                  -4.106
REMARK INTRA:                  -0.003
REMARK UNBOUND:                -0.003
REMARK SMILES OCC(O)CO
REMARK SMILES IDX 3 1 5 2 6 3 2 5 1 6 4 8
REMARK H PARENT 6 4 1 7 4 9
REMARK Flexibility Score: inf
ROOT
ATOM      1  C   UNL     1      15.057  -3.513  21.284  1.00  0.00     0.165 C 
ENDROOT
BRANCH   1   2
ATOM      2  C   UNL     1      15.634  -2.345  20.471  1.00  0.00     0.190 C 
BRANCH   2   3
ATOM      3  O   UNL     1      14.606  -1.566  19.923  1.00  0.00    -0.394 OA
ATOM      4  H   UNL     1      14.972  -0.648  19.838  1.00  0.00     0.210 HD
ENDBRANCH   2   3
ENDBRANCH   1   2
BRANCH   1   5
ATOM      5  C   UNL     1      16.059  -4.039  22.329  1.00  0.00     0.190 C 
BRANCH   5   6
ATOM      6  O   UNL     1      15.698  -5.328  22.749  1.00  0.00    -0.394 OA
ATOM      7  H   UNL     1      16.085  -5.450  23.655  1.00  0.00     0.210 HD
ENDBRANCH   5   6
ENDBRANCH   1   5
BRANCH   1   8
ATOM      8  O   UNL     1      13.840  -3.149  21.889  1.00  0.00    -0.388 OA
ATOM      9  H   UNL     1      13.987  -2.297  22.376  1.00  0.00     0.211 HD
ENDBRANCH   1   8
TORSDOF 5
ENDMDL
MODEL 3
REMARK VINA RESULT:    -3.405      1.154      2.972
REMARK INTER + INTRA:          -4.104
REMARK INTER:                  -3.884
REMARK INTRA:                  -0.221
REMARK UNBOUND:                -0.003
REMARK SMILES OCC(O)CO
REMARK SMILES IDX 3 1 5 2 6 3 2 5 1 6 4 8
REMARK H PARENT 6 4 1 7 4 9
REMARK Flexibility Score: inf
ROOT
ATOM      1  C   UNL     1      15.494  -2.791  20.649  1.00  0.00     0.165 C 
ENDROOT
BRANCH   1   2
ATOM      2  C   UNL     1      15.521  -3.245  19.181  1.00  0.00     0.190 C 
BRANCH   2   3
ATOM      3  O   UNL     1      15.396  -2.146  18.320  1.00  0.00    -0.394 OA
ATOM      4  H   UNL     1      14.581  -1.660  18.611  1.00  0.00     0.210 HD
ENDBRANCH   2   3
ENDBRANCH   1   2
BRANCH   1   5
ATOM      5  C   UNL     1      14.055  -2.651  21.182  1.00  0.00     0.190 C 
BRANCH   5   6
ATOM      6  O   UNL     1      13.366  -1.657  20.472  1.00  0.00    -0.394 OA
ATOM      7  H   UNL     1      14.020  -1.248  19.847  1.00  0.00     0.210 HD
ENDBRANCH   5   6
ENDBRANCH   1   5
BRANCH   1   8
ATOM      8  O   UNL     1      16.250  -3.660  21.455  1.00  0.00    -0.388 OA
ATOM      9  H   UNL     1      15.937  -4.585  21.280  1.00  0.00     0.211 HD
ENDBRANCH   1   8
TORSDOF 5
ENDMDL
MODEL 4
REMARK VINA RESULT:    -3.375     12.777     13.634
REMARK INTER + INTRA:          -4.068
REMARK INTER:                  -4.066
REMARK INTRA:                  -0.002
REMARK UNBOUND:                -0.003
REMARK SMILES OCC(O)CO
REMARK SMILES IDX 3 1 5 2 6 3 2 5 1 6 4 8
REMARK H PARENT 6 4 1 7 4 9
REMARK Flexibility Score: inf
ROOT
ATOM      1  C   UNL     1       8.824   9.071  20.100  1.00  0.00     0.165 C 
ENDROOT
BRANCH   1   2
ATOM      2  C   UNL     1       7.301   9.044  19.907  1.00  0.00     0.190 C 
BRANCH   2   3
ATOM      3  O   UNL     1       6.844  10.269  19.401  1.00  0.00    -0.394 OA
ATOM      4  H   UNL     1       6.396  10.729  20.158  1.00  0.00     0.210 HD
ENDBRANCH   2   3
ENDBRANCH   1   2
BRANCH   1   5
ATOM      5  C   UNL     1       9.220   8.911  21.580  1.00  0.00     0.190 C 
BRANCH   5   6
ATOM      6  O   UNL     1      10.615   8.857  21.711  1.00  0.00    -0.394 OA
ATOM      7  H   UNL     1      10.875   9.611  22.303  1.00  0.00     0.210 HD
ENDBRANCH   5   6
ENDBRANCH   1   5
BRANCH   1   8
ATOM      8  O   UNL     1       9.447   8.095  19.302  1.00  0.00    -0.388 OA
ATOM      9  H   UNL     1      10.065   8.561  18.680  1.00  0.00     0.211 HD
ENDBRANCH   1   8
TORSDOF 5
ENDMDL
MODEL 5
REMARK VINA RESULT:    -3.374     11.866     12.907
REMARK INTER + INTRA:          -4.067
REMARK INTER:                  -3.849
REMARK INTRA:                  -0.218
REMARK UNBOUND:                -0.003
REMARK SMILES OCC(O)CO
REMARK SMILES IDX 3 1 5 2 6 3 2 5 1 6 4 8
REMARK H PARENT 6 4 1 7 4 9
REMARK Flexibility Score: inf
ROOT
ATOM      1  C   UNL     1      10.725  -1.784  31.722  1.00  0.00     0.165 C 
ENDROOT
BRANCH   1   2
ATOM      2  C   UNL     1      11.487  -3.037  31.264  1.00  0.00     0.190 C 
BRANCH   2   3
ATOM      3  O   UNL     1      10.925  -4.192  31.824  1.00  0.00    -0.394 OA
ATOM      4  H   UNL     1      10.024  -3.930  32.148  1.00  0.00     0.210 HD
ENDBRANCH   2   3
ENDBRANCH   1   2
BRANCH   1   5
ATOM      5  C   UNL     1      10.234  -1.909  33.177  1.00  0.00     0.190 C 
BRANCH   5   6
ATOM      6  O   UNL     1       8.923  -2.405  33.209  1.00  0.00    -0.394 OA
ATOM      7  H   UNL     1       8.867  -3.108  32.510  1.00  0.00     0.210 HD
ENDBRANCH   5   6
ENDBRANCH   1   5
BRANCH   1   8
ATOM      8  O   UNL     1      11.511  -0.630  31.551  1.00  0.00    -0.388 OA
ATOM      9  H   UNL     1      11.735  -0.557  30.587  1.00  0.00     0.211 HD
ENDBRANCH   1   8
TORSDOF 5
ENDMDL
MODEL 6
REMARK VINA RESULT:    -3.302     12.458     13.480
REMARK INTER + INTRA:          -3.980
REMARK INTER:                  -3.974
REMARK INTRA:                  -0.007
REMARK UNBOUND:                -0.003
REMARK SMILES OCC(O)CO
REMARK SMILES IDX 3 1 5 2 6 3 2 5 1 6 4 8
REMARK H PARENT 6 4 1 7 4 9
REMARK Flexibility Score: inf
ROOT
ATOM      1  C   UNL     1      10.375  -2.489  33.276  1.00  0.00     0.165 C 
ENDROOT
BRANCH   1   2
ATOM      2  C   UNL     1      10.991  -2.918  31.936  1.00  0.00     0.190 C 
BRANCH   2   3
ATOM      3  O   UNL     1      10.976  -4.314  31.807  1.00  0.00    -0.394 OA
ATOM      4  H   UNL     1      10.792  -4.671  32.714  1.00  0.00     0.210 HD
ENDBRANCH   2   3
ENDBRANCH   1   2
BRANCH   1   5
ATOM      5  C   UNL     1      11.022  -1.202  33.822  1.00  0.00     0.190 C 
BRANCH   5   6
ATOM      6  O   UNL     1      11.406  -0.362  32.767  1.00  0.00    -0.394 OA
ATOM      7  H   UNL     1      12.065   0.280  33.140  1.00  0.00     0.210 HD
ENDBRANCH   5   6
ENDBRANCH   1   5
BRANCH   1   8
ATOM      8  O   UNL     1       8.980  -2.345  33.161  1.00  0.00    -0.388 OA
ATOM      9  H   UNL     1       8.624  -2.117  34.059  1.00  0.00     0.211 HD
ENDBRANCH   1   8
TORSDOF 5
ENDMDL
MODEL 7
REMARK VINA RESULT:    -3.287     12.055     12.915
REMARK INTER + INTRA:          -3.962
REMARK INTER:                  -3.740
REMARK INTRA:                  -0.222
REMARK UNBOUND:                -0.003
REMARK SMILES OCC(O)CO
REMARK SMILES IDX 3 1 5 2 6 3 2 5 1 6 4 8
REMARK H PARENT 6 4 1 7 4 9
REMARK Flexibility Score: inf
ROOT
ATOM      1  C   UNL     1      11.246  -1.894  32.329  1.00  0.00     0.165 C 
ENDROOT
BRANCH   1   2
ATOM      2  C   UNL     1      10.337  -2.246  33.517  1.00  0.00     0.190 C 
BRANCH   2   3
ATOM      3  O   UNL     1       9.002  -2.353  33.105  1.00  0.00    -0.394 OA
ATOM      4  H   UNL     1       8.917  -1.783  32.297  1.00  0.00     0.210 HD
ENDBRANCH   2   3
ENDBRANCH   1   2
BRANCH   1   5
ATOM      5  C   UNL     1      11.252  -3.003  31.261  1.00  0.00     0.190 C 
BRANCH   5   6
ATOM      6  O   UNL     1      10.934  -4.241  31.838  1.00  0.00    -0.394 OA
ATOM      7  H   UNL     1      11.129  -4.933  31.153  1.00  0.00     0.210 HD
ENDBRANCH   5   6
ENDBRANCH   1   5
BRANCH   1   8
ATOM      8  O   UNL     1      10.882  -0.655  31.771  1.00  0.00    -0.388 OA
ATOM      9  H   UNL     1      11.227   0.059  32.368  1.00  0.00     0.211 HD
ENDBRANCH   1   8
TORSDOF 5
ENDMDL
MODEL 8
REMARK VINA RESULT:    -3.258     12.400     12.702
REMARK INTER + INTRA:          -3.927
REMARK INTER:                  -3.909
REMARK INTRA:                  -0.018
REMARK UNBOUND:                -0.003
REMARK SMILES OCC(O)CO
REMARK SMILES IDX 3 1 5 2 6 3 2 5 1 6 4 8
REMARK H PARENT 6 4 1 7 4 9
REMARK Flexibility Score: inf
ROOT
ATOM      1  C   UNL     1       9.467   9.235  21.103  1.00  0.00     0.165 C 
ENDROOT
BRANCH   1   2
ATOM      2  C   UNL     1      10.977   9.187  20.826  1.00  0.00     0.190 C 
BRANCH   2   3
ATOM      3  O   UNL     1      11.684   8.850  21.989  1.00  0.00    -0.394 OA
ATOM      4  H   UNL     1      12.160   8.004  21.785  1.00  0.00     0.210 HD
ENDBRANCH   2   3
ENDBRANCH   1   2
BRANCH   1   5
ATOM      5  C   UNL     1       8.643   8.787  19.881  1.00  0.00     0.190 C 
BRANCH   5   6
ATOM      6  O   UNL     1       9.418   7.977  19.039  1.00  0.00    -0.394 OA
ATOM      7  H   UNL     1       9.682   8.542  18.266  1.00  0.00     0.210 HD
ENDBRANCH   5   6
ENDBRANCH   1   5
BRANCH   1   8
ATOM      8  O   UNL     1       9.143   8.473  22.240  1.00  0.00    -0.388 OA
ATOM      9  H   UNL     1       9.822   7.755  22.327  1.00  0.00     0.211 HD
ENDBRANCH   1   8
TORSDOF 5
ENDMDL
MODEL 9
REMARK VINA RESULT:    -3.230     12.086     13.171
REMARK INTER + INTRA:          -3.893
REMARK INTER:                  -3.676
REMARK INTRA:                  -0.217
REMARK UNBOUND:                -0.003
REMARK SMILES OCC(O)CO
REMARK SMILES IDX 3 1 5 2 6 3 2 5 1 6 4 8
REMARK H PARENT 6 4 1 7 4 9
REMARK Flexibility Score: inf
ROOT
ATOM      1  C   UNL     1      11.219  -2.900  32.400  1.00  0.00     0.165 C 
ENDROOT
BRANCH   1   2
ATOM      2  C   UNL     1      11.297  -1.850  31.280  1.00  0.00     0.190 C 
BRANCH   2   3
ATOM      3  O   UNL     1      11.035  -0.569  31.783  1.00  0.00    -0.394 OA
ATOM      4  H   UNL     1      10.096  -0.587  32.106  1.00  0.00     0.210 HD
ENDBRANCH   2   3
ENDBRANCH   1   2
BRANCH   1   5
ATOM      5  C   UNL     1      10.286  -2.455  33.542  1.00  0.00     0.190 C 
BRANCH   5   6
ATOM      6  O   UNL     1       8.964  -2.357  33.085  1.00  0.00    -0.394 OA
ATOM      7  H   UNL     1       8.596  -1.513  33.457  1.00  0.00     0.210 HD
ENDBRANCH   5   6
ENDBRANCH   1   5
BRANCH   1   8
ATOM      8  O   UNL     1      10.829  -4.150  31.887  1.00  0.00    -0.388 OA
ATOM      9  H   UNL     1      10.229  -3.987  31.114  1.00  0.00     0.211 HD
ENDBRANCH   1   8
TORSDOF 5
ENDMDL
