MODEL 1
REMARK VINA RESULT:    -0.760      0.000      0.000
REMARK INTER + INTRA:          -1.378
REMARK INTER:                  -1.159
REMARK INTRA:                  -0.219
REMARK UNBOUND:                -0.219
REMARK SMILES CC1=CCC[C@H](C)C(=O)C[C@@H](C(C)C)C(=O)C1
REMARK SMILES IDX 8 1 9 2 6 3 7 4 5 5 4 6 3 7 2 8 1 9 10 11 11 12 15 13 16 14
REMARK SMILES IDX 17 15 12 17 13 18 14 19
REMARK H PARENT
REMARK Flexibility Score: 70.00
ROOT
ATOM      1  C   UNL     1      93.834  30.852  13.886  1.00  0.00     0.136 C 
ATOM      2  O   UNL     1      94.608  31.719  13.500  1.00  0.00    -0.299 OA
ENDROOT
BRANCH   1   3
ATOM      3  C   UNL     1      93.493  30.736  15.361  1.00  0.00     0.053 C 
ATOM      4  C   UNL     1      94.735  30.486  16.229  1.00  0.00     0.016 C 
BRANCH   3   5
ATOM      5  C   UNL     1      92.690  31.959  15.851  1.00  0.00     0.015 C 
BRANCH   5   6
ATOM      6  C   UNL     1      91.161  31.752  15.832  1.00  0.00     0.028 C 
BRANCH   6   7
ATOM      7  C   UNL     1      90.798  30.339  16.209  1.00  0.00    -0.028 C 
ATOM      8  C   UNL     1      90.186  29.453  15.386  1.00  0.00    -0.070 CG0
ATOM      9  C   UNL     1      89.929  28.062  15.908  1.00  0.00     0.039 C 
ATOM     10  G   UNL     1      89.741  29.801  13.973  1.00  0.00     0.000 G0
ENDBRANCH   6   7
ENDBRANCH   5   6
ENDBRANCH   3   5
ENDBRANCH   1   3
BRANCH   1  11
ATOM     11  C   UNL     1      93.232  29.907  12.873  1.00  0.00     0.087 C 
BRANCH  11  12
ATOM     12  C   UNL     1      91.819  30.359  12.422  1.00  0.00     0.066 C 
BRANCH  12  13
ATOM     13  C   UNL     1      90.783  29.371  12.936  1.00  0.00     0.140 C 
ATOM     14  O   UNL     1      90.733  28.246  12.455  1.00  0.00    -0.299 OA
BRANCH  13  15
ATOM     15  C   UNL     1      89.752  29.798  13.950  1.00  0.00     0.106 CG0
ATOM     16  G   UNL     1      90.168  29.472  15.377  1.00  0.00     0.000 G0
ENDBRANCH  13  15
ENDBRANCH  12  13
BRANCH  12  17
ATOM     17  C   UNL     1      91.703  30.516  10.869  1.00  0.00    -0.006 C 
ATOM     18  C   UNL     1      92.624  31.623  10.322  1.00  0.00     0.008 C 
ATOM     19  C   UNL     1      90.254  30.825  10.448  1.00  0.00     0.008 C 
ENDBRANCH  12  17
ENDBRANCH  11  12
ENDBRANCH   1  11
TORSDOF 1
ENDMDL
MODEL 2
REMARK VINA RESULT:    -0.711      1.685      2.256
REMARK INTER + INTRA:          -1.304
REMARK INTER:                  -1.043
REMARK INTRA:                  -0.261
REMARK UNBOUND:                -0.219
REMARK SMILES CC1=CCC[C@H](C)C(=O)C[C@@H](C(C)C)C(=O)C1
REMARK SMILES IDX 8 1 9 2 6 3 7 4 5 5 4 6 3 7 2 8 1 9 10 11 11 12 15 13 16 14
REMARK SMILES IDX 17 15 12 17 13 18 14 19
REMARK H PARENT
REMARK Flexibility Score: 70.00
ROOT
ATOM      1  C   UNL     1      92.504  29.973  12.224  1.00  0.00     0.136 C 
ATOM      2  O   UNL     1      92.844  30.522  11.183  1.00  0.00    -0.299 OA
ENDROOT
BRANCH   1   3
ATOM      3  C   UNL     1      92.866  30.589  13.564  1.00  0.00     0.053 C 
ATOM      4  C   UNL     1      94.376  30.838  13.703  1.00  0.00     0.016 C 
BRANCH   3   5
ATOM      5  C   UNL     1      92.048  31.868  13.836  1.00  0.00     0.015 C 
BRANCH   5   6
ATOM      6  C   UNL     1      90.890  31.670  14.836  1.00  0.00     0.028 C 
BRANCH   6   7
ATOM      7  C   UNL     1      91.254  30.666  15.900  1.00  0.00    -0.028 C 
ATOM      8  C   UNL     1      90.692  29.440  16.029  1.00  0.00    -0.070 CG0
ATOM      9  C   UNL     1      91.202  28.539  17.126  1.00  0.00     0.039 C 
ATOM     10  G   UNL     1      89.573  28.939  15.129  1.00  0.00     0.000 G0
ENDBRANCH   6   7
ENDBRANCH   5   6
ENDBRANCH   3   5
ENDBRANCH   1   3
BRANCH   1  11
ATOM     11  C   UNL     1      91.724  28.682  12.147  1.00  0.00     0.087 C 
BRANCH  11  12
ATOM     12  C   UNL     1      90.250  28.865  12.593  1.00  0.00     0.066 C 
BRANCH  12  13
ATOM     13  C   UNL     1      90.035  28.172  13.930  1.00  0.00     0.140 C 
ATOM     14  O   UNL     1      90.174  26.958  14.007  1.00  0.00    -0.299 OA
BRANCH  13  15
ATOM     15  C   UNL     1      89.549  28.948  15.127  1.00  0.00     0.106 CG0
ATOM     16  G   UNL     1      90.690  29.436  16.008  1.00  0.00     0.000 G0
ENDBRANCH  13  15
ENDBRANCH  12  13
BRANCH  12  17
ATOM     17  C   UNL     1      89.229  28.336  11.531  1.00  0.00    -0.006 C 
ATOM     18  C   UNL     1      89.698  28.595  10.087  1.00  0.00     0.008 C 
ATOM     19  C   UNL     1      87.842  28.980  11.723  1.00  0.00     0.008 C 
ENDBRANCH  12  17
ENDBRANCH  11  12
ENDBRANCH   1  11
TORSDOF 1
ENDMDL
MODEL 3
REMARK VINA RESULT:    -0.649      2.786      5.719
REMARK INTER + INTRA:          -1.209
REMARK INTER:                  -0.952
REMARK INTRA:                  -0.256
REMARK UNBOUND:                -0.219
REMARK SMILES CC1=CCC[C@H](C)C(=O)C[C@@H](C(C)C)C(=O)C1
REMARK SMILES IDX 8 1 9 2 6 3 7 4 5 5 4 6 3 7 2 8 1 9 10 11 11 12 15 13 16 14
REMARK SMILES IDX 17 15 12 17 13 18 14 19
REMARK H PARENT
REMARK Flexibility Score: 70.00
ROOT
ATOM      1  C   UNL     1      92.027  28.206   9.230  1.00  0.00     0.136 C 
ATOM      2  O   UNL     1      91.658  27.114   8.818  1.00  0.00    -0.299 OA
ENDROOT
BRANCH   1   3
ATOM      3  C   UNL     1      91.879  29.440   8.358  1.00  0.00     0.053 C 
ATOM      4  C   UNL     1      92.415  29.216   6.936  1.00  0.00     0.016 C 
BRANCH   3   5
ATOM      5  C   UNL     1      90.424  29.952   8.346  1.00  0.00     0.015 C 
BRANCH   5   6
ATOM      6  C   UNL     1      90.180  31.164   9.268  1.00  0.00     0.028 C 
BRANCH   6   7
ATOM      7  C   UNL     1      91.443  31.963   9.464  1.00  0.00    -0.028 C 
ATOM      8  C   UNL     1      92.090  32.105  10.646  1.00  0.00    -0.070 CG0
ATOM      9  C   UNL     1      93.368  32.906  10.662  1.00  0.00     0.039 C 
ATOM     10  G   UNL     1      91.585  31.504  11.950  1.00  0.00     0.000 G0
ENDBRANCH   6   7
ENDBRANCH   5   6
ENDBRANCH   3   5
ENDBRANCH   1   3
BRANCH   1  11
ATOM     11  C   UNL     1      92.626  28.299  10.613  1.00  0.00     0.087 C 
BRANCH  11  12
ATOM     12  C   UNL     1      91.624  28.879  11.645  1.00  0.00     0.066 C 
BRANCH  12  13
ATOM     13  C   UNL     1      92.203  30.147  12.256  1.00  0.00     0.140 C 
ATOM     14  O   UNL     1      93.119  30.062  13.062  1.00  0.00    -0.299 OA
BRANCH  13  15
ATOM     15  C   UNL     1      91.589  31.491  11.959  1.00  0.00     0.106 CG0
ATOM     16  G   UNL     1      92.083  32.082  10.647  1.00  0.00     0.000 G0
ENDBRANCH  13  15
ENDBRANCH  12  13
BRANCH  12  17
ATOM     17  C   UNL     1      91.250  27.853  12.765  1.00  0.00    -0.006 C 
ATOM     18  C   UNL     1      91.020  26.435  12.209  1.00  0.00     0.008 C 
ATOM     19  C   UNL     1      89.986  28.296  13.526  1.00  0.00     0.008 C 
ENDBRANCH  12  17
ENDBRANCH  11  12
ENDBRANCH   1  11
TORSDOF 1
ENDMDL
MODEL 4
REMARK VINA RESULT:    -0.631      2.429      5.313
REMARK INTER + INTRA:          -1.182
REMARK INTER:                  -1.094
REMARK INTRA:                  -0.088
REMARK UNBOUND:                -0.219
REMARK SMILES CC1=CCC[C@H](C)C(=O)C[C@@H](C(C)C)C(=O)C1
REMARK SMILES IDX 8 1 9 2 6 3 7 4 5 5 4 6 3 7 2 8 1 9 10 11 11 12 15 13 16 14
REMARK SMILES IDX 17 15 12 17 13 18 14 19
REMARK H PARENT
REMARK Flexibility Score: 70.00
ROOT
ATOM      1  C   UNL     1      90.842  28.228  13.105  1.00  0.00     0.136 C 
ATOM      2  O   UNL     1      89.618  28.201  13.084  1.00  0.00    -0.299 OA
ENDROOT
BRANCH   1   3
ATOM      3  C   UNL     1      91.641  27.098  12.480  1.00  0.00     0.053 C 
ATOM      4  C   UNL     1      90.740  25.979  11.935  1.00  0.00     0.016 C 
BRANCH   3   5
ATOM      5  C   UNL     1      92.615  27.623  11.405  1.00  0.00     0.015 C 
BRANCH   5   6
ATOM      6  C   UNL     1      91.932  28.429  10.281  1.00  0.00     0.028 C 
BRANCH   6   7
ATOM      7  C   UNL     1      92.835  29.522   9.769  1.00  0.00    -0.028 C 
ATOM      8  C   UNL     1      92.682  30.841  10.040  1.00  0.00    -0.070 CG0
ATOM      9  C   UNL     1      93.701  31.802   9.480  1.00  0.00     0.039 C 
ATOM     10  G   UNL     1      91.530  31.392  10.868  1.00  0.00     0.000 G0
ENDBRANCH   6   7
ENDBRANCH   5   6
ENDBRANCH   3   5
ENDBRANCH   1   3
BRANCH   1  11
ATOM     11  C   UNL     1      91.534  29.401  13.758  1.00  0.00     0.087 C 
BRANCH  11  12
ATOM     12  C   UNL     1      90.907  30.756  13.340  1.00  0.00     0.066 C 
BRANCH  12  13
ATOM     13  C   UNL     1      91.822  31.451  12.342  1.00  0.00     0.140 C 
ATOM     14  O   UNL     1      92.755  32.129  12.752  1.00  0.00    -0.299 OA
BRANCH  13  15
ATOM     15  C   UNL     1      91.526  31.399  10.864  1.00  0.00     0.106 CG0
ATOM     16  G   UNL     1      92.686  30.837  10.056  1.00  0.00     0.000 G0
ENDBRANCH  13  15
ENDBRANCH  12  13
BRANCH  12  17
ATOM     17  C   UNL     1      90.619  31.690  14.561  1.00  0.00    -0.006 C 
ATOM     18  C   UNL     1      89.955  30.939  15.730  1.00  0.00     0.008 C 
ATOM     19  C   UNL     1      89.717  32.872  14.157  1.00  0.00     0.008 C 
ENDBRANCH  12  17
ENDBRANCH  11  12
ENDBRANCH   1  11
TORSDOF 1
ENDMDL
MODEL 5
REMARK VINA RESULT:    -0.602      2.944      5.572
REMARK INTER + INTRA:          -1.137
REMARK INTER:                  -0.873
REMARK INTRA:                  -0.264
REMARK UNBOUND:                -0.219
REMARK SMILES CC1=CCC[C@H](C)C(=O)C[C@@H](C(C)C)C(=O)C1
REMARK SMILES IDX 8 1 9 2 6 3 7 4 5 5 4 6 3 7 2 8 1 9 10 11 11 12 15 13 16 14
REMARK SMILES IDX 17 15 12 17 13 18 14 19
REMARK H PARENT
REMARK Flexibility Score: 70.00
ROOT
ATOM      1  C   UNL     1      90.403  31.015  11.026  1.00  0.00     0.136 C 
ATOM      2  O   UNL     1      90.161  31.980  11.740  1.00  0.00    -0.299 OA
ENDROOT
BRANCH   1   3
ATOM      3  C   UNL     1      91.195  31.194   9.743  1.00  0.00     0.053 C 
ATOM      4  C   UNL     1      90.471  32.095   8.732  1.00  0.00     0.016 C 
BRANCH   3   5
ATOM      5  C   UNL     1      92.627  31.691  10.030  1.00  0.00     0.015 C 
BRANCH   5   6
ATOM      6  C   UNL     1      93.661  30.558  10.201  1.00  0.00     0.028 C 
BRANCH   6   7
ATOM      7  C   UNL     1      93.449  29.469   9.182  1.00  0.00    -0.028 C 
ATOM      8  C   UNL     1      93.096  28.194   9.477  1.00  0.00    -0.070 CG0
ATOM      9  C   UNL     1      92.884  27.235   8.332  1.00  0.00     0.039 C 
ATOM     10  G   UNL     1      92.916  27.689  10.901  1.00  0.00     0.000 G0
ENDBRANCH   6   7
ENDBRANCH   5   6
ENDBRANCH   3   5
ENDBRANCH   1   3
BRANCH   1  11
ATOM     11  C   UNL     1      89.900  29.653  11.445  1.00  0.00     0.087 C 
BRANCH  11  12
ATOM     12  C   UNL     1      90.972  28.851  12.228  1.00  0.00     0.066 C 
BRANCH  12  13
ATOM     13  C   UNL     1      91.484  27.710  11.362  1.00  0.00     0.140 C 
ATOM     14  O   UNL     1      90.744  26.770  11.107  1.00  0.00    -0.299 OA
BRANCH  13  15
ATOM     15  C   UNL     1      92.921  27.677  10.907  1.00  0.00     0.106 CG0
ATOM     16  G   UNL     1      93.096  28.195   9.487  1.00  0.00     0.000 G0
ENDBRANCH  13  15
ENDBRANCH  12  13
BRANCH  12  17
ATOM     17  C   UNL     1      90.439  28.305  13.594  1.00  0.00    -0.006 C 
ATOM     18  C   UNL     1      88.901  28.339  13.679  1.00  0.00     0.008 C 
ATOM     19  C   UNL     1      91.016  29.106  14.777  1.00  0.00     0.008 C 
ENDBRANCH  12  17
ENDBRANCH  11  12
ENDBRANCH   1  11
TORSDOF 1
ENDMDL
MODEL 6
REMARK VINA RESULT:    -0.593      1.792      2.649
REMARK INTER + INTRA:          -1.123
REMARK INTER:                  -0.916
REMARK INTRA:                  -0.207
REMARK UNBOUND:                -0.219
REMARK SMILES CC1=CCC[C@H](C)C(=O)C[C@@H](C(C)C)C(=O)C1
REMARK SMILES IDX 8 1 9 2 6 3 7 4 5 5 4 6 3 7 2 8 1 9 10 11 11 12 15 13 16 14
REMARK SMILES IDX 17 15 12 17 13 18 14 19
REMARK H PARENT
REMARK Flexibility Score: 70.00
ROOT
ATOM      1  C   UNL     1      93.570  30.474  14.285  1.00  0.00     0.136 C 
ATOM      2  O   UNL     1      94.691  30.955  14.392  1.00  0.00    -0.299 OA
ENDROOT
BRANCH   1   3
ATOM      3  C   UNL     1      92.864  29.907  15.504  1.00  0.00     0.053 C 
ATOM      4  C   UNL     1      92.603  30.976  16.577  1.00  0.00     0.016 C 
BRANCH   3   5
ATOM      5  C   UNL     1      91.571  29.164  15.112  1.00  0.00     0.015 C 
BRANCH   5   6
ATOM      6  C   UNL     1      90.278  29.935  15.449  1.00  0.00     0.028 C 
BRANCH   6   7
ATOM      7  C   UNL     1      89.259  29.797  14.347  1.00  0.00    -0.028 C 
ATOM      8  C   UNL     1      89.115  30.665  13.316  1.00  0.00    -0.070 CG0
ATOM      9  C   UNL     1      88.071  30.357  12.272  1.00  0.00     0.039 C 
ATOM     10  G   UNL     1      89.948  31.930  13.171  1.00  0.00     0.000 G0
ENDBRANCH   6   7
ENDBRANCH   5   6
ENDBRANCH   3   5
ENDBRANCH   1   3
BRANCH   1  11
ATOM     11  C   UNL     1      92.909  30.458  12.927  1.00  0.00     0.087 C 
BRANCH  11  12
ATOM     12  C   UNL     1      92.469  31.875  12.476  1.00  0.00     0.066 C 
BRANCH  12  13
ATOM     13  C   UNL     1      90.994  31.853  12.105  1.00  0.00     0.140 C 
ATOM     14  O   UNL     1      90.670  31.844  10.925  1.00  0.00    -0.299 OA
BRANCH  13  15
ATOM     15  C   UNL     1      89.933  31.951  13.172  1.00  0.00     0.106 CG0
ATOM     16  G   UNL     1      89.129  30.667  13.315  1.00  0.00     0.000 G0
ENDBRANCH  13  15
ENDBRANCH  12  13
BRANCH  12  17
ATOM     17  C   UNL     1      93.325  32.421  11.285  1.00  0.00    -0.006 C 
ATOM     18  C   UNL     1      94.115  31.308  10.571  1.00  0.00     0.008 C 
ATOM     19  C   UNL     1      94.315  33.502  11.762  1.00  0.00     0.008 C 
ENDBRANCH  12  17
ENDBRANCH  11  12
ENDBRANCH   1  11
TORSDOF 1
ENDMDL
MODEL 7
REMARK VINA RESULT:    -0.588      2.395      4.279
REMARK INTER + INTRA:          -1.115
REMARK INTER:                  -0.800
REMARK INTRA:                  -0.315
REMARK UNBOUND:                -0.219
REMARK SMILES CC1=CCC[C@H](C)C(=O)C[C@@H](C(C)C)C(=O)C1
REMARK SMILES IDX 8 1 9 2 6 3 7 4 5 5 4 6 3 7 2 8 1 9 10 11 11 12 15 13 16 14
REMARK SMILES IDX 17 15 12 17 13 18 14 19
REMARK H PARENT
REMARK Flexibility Score: 70.00
ROOT
ATOM      1  C   UNL     1      90.339  28.660  10.799  1.00  0.00     0.136 C 
ATOM      2  O   UNL     1      90.111  28.700   9.597  1.00  0.00    -0.299 OA
ENDROOT
BRANCH   1   3
ATOM      3  C   UNL     1      91.729  28.312  11.301  1.00  0.00     0.053 C 
ATOM      4  C   UNL     1      92.153  26.890  10.903  1.00  0.00     0.016 C 
BRANCH   3   5
ATOM      5  C   UNL     1      92.768  29.363  10.861  1.00  0.00     0.015 C 
BRANCH   5   6
ATOM      6  C   UNL     1      92.875  30.574  11.811  1.00  0.00     0.028 C 
BRANCH   6   7
ATOM      7  C   UNL     1      92.739  30.150  13.251  1.00  0.00    -0.028 C 
ATOM      8  C   UNL     1      91.751  30.557  14.084  1.00  0.00    -0.070 CG0
ATOM      9  C   UNL     1      91.737  30.005  15.488  1.00  0.00     0.039 C 
ATOM     10  G   UNL     1      90.669  31.546  13.674  1.00  0.00     0.000 G0
ENDBRANCH   6   7
ENDBRANCH   5   6
ENDBRANCH   3   5
ENDBRANCH   1   3
BRANCH   1  11
ATOM     11  C   UNL     1      89.217  28.963  11.764  1.00  0.00     0.087 C 
BRANCH  11  12
ATOM     12  C   UNL     1      88.996  30.488  11.942  1.00  0.00     0.066 C 
BRANCH  12  13
ATOM     13  C   UNL     1      89.345  30.886  13.369  1.00  0.00     0.140 C 
ATOM     14  O   UNL     1      88.509  30.752  14.252  1.00  0.00    -0.299 OA
BRANCH  13  15
ATOM     15  C   UNL     1      90.665  31.544  13.681  1.00  0.00     0.106 CG0
ATOM     16  G   UNL     1      91.738  30.539  14.074  1.00  0.00     0.000 G0
ENDBRANCH  13  15
ENDBRANCH  12  13
BRANCH  12  17
ATOM     17  C   UNL     1      87.538  30.931  11.590  1.00  0.00    -0.006 C 
ATOM     18  C   UNL     1      86.613  29.732  11.305  1.00  0.00     0.008 C 
ATOM     19  C   UNL     1      87.521  31.870  10.369  1.00  0.00     0.008 C 
ENDBRANCH  12  17
ENDBRANCH  11  12
ENDBRANCH   1  11
TORSDOF 1
ENDMDL
MODEL 8
REMARK VINA RESULT:    -0.555      3.391      5.314
REMARK INTER + INTRA:          -1.065
REMARK INTER:                  -0.752
REMARK INTRA:                  -0.313
REMARK UNBOUND:                -0.219
REMARK SMILES CC1=CCC[C@H](C)C(=O)C[C@@H](C(C)C)C(=O)C1
REMARK SMILES IDX 8 1 9 2 6 3 7 4 5 5 4 6 3 7 2 8 1 9 10 11 11 12 15 13 16 14
REMARK SMILES IDX 17 15 12 17 13 18 14 19
REMARK H PARENT
REMARK Flexibility Score: 70.00
ROOT
ATOM      1  C   UNL     1      90.535  31.617  12.280  1.00  0.00     0.136 C 
ATOM      2  O   UNL     1      90.426  31.862  13.474  1.00  0.00    -0.299 OA
ENDROOT
BRANCH   1   3
ATOM      3  C   UNL     1      91.331  32.545  11.380  1.00  0.00     0.053 C 
ATOM      4  C   UNL     1      90.719  33.952  11.305  1.00  0.00     0.016 C 
BRANCH   3   5
ATOM      5  C   UNL     1      92.818  32.590  11.790  1.00  0.00     0.015 C 
BRANCH   5   6
ATOM      6  C   UNL     1      93.700  31.555  11.061  1.00  0.00     0.028 C 
BRANCH   6   7
ATOM      7  C   UNL     1      93.340  31.465   9.600  1.00  0.00    -0.028 C 
ATOM      8  C   UNL     1      92.830  30.363   8.997  1.00  0.00    -0.070 CG0
ATOM      9  C   UNL     1      92.485  30.454   7.532  1.00  0.00     0.039 C 
ATOM     10  G   UNL     1      92.601  29.047   9.726  1.00  0.00     0.000 G0
ENDBRANCH   6   7
ENDBRANCH   5   6
ENDBRANCH   3   5
ENDBRANCH   1   3
BRANCH   1  11
ATOM     11  C   UNL     1      89.866  30.382  11.724  1.00  0.00     0.087 C 
BRANCH  11  12
ATOM     12  C   UNL     1      90.835  29.172  11.664  1.00  0.00     0.066 C 
BRANCH  12  13
ATOM     13  C   UNL     1      91.188  28.877  10.214  1.00  0.00     0.140 C 
ATOM     14  O   UNL     1      90.331  28.425   9.466  1.00  0.00    -0.299 OA
BRANCH  13  15
ATOM     15  C   UNL     1      92.604  29.034   9.722  1.00  0.00     0.106 CG0
ATOM     16  G   UNL     1      92.830  30.358   9.006  1.00  0.00     0.000 G0
ENDBRANCH  13  15
ENDBRANCH  12  13
BRANCH  12  17
ATOM     17  C   UNL     1      90.250  27.896  12.355  1.00  0.00    -0.006 C 
ATOM     18  C   UNL     1      89.382  28.239  13.581  1.00  0.00     0.008 C 
ATOM     19  C   UNL     1      91.372  26.937  12.797  1.00  0.00     0.008 C 
ENDBRANCH  12  17
ENDBRANCH  11  12
ENDBRANCH   1  11
TORSDOF 1
ENDMDL
MODEL 9
REMARK VINA RESULT:    -0.453      2.740      4.913
REMARK INTER + INTRA:          -0.910
REMARK INTER:                  -0.588
REMARK INTRA:                  -0.323
REMARK UNBOUND:                -0.219
REMARK SMILES CC1=CCC[C@H](C)C(=O)C[C@@H](C(C)C)C(=O)C1
REMARK SMILES IDX 8 1 9 2 6 3 7 4 5 5 4 6 3 7 2 8 1 9 10 11 11 12 15 13 16 14
REMARK SMILES IDX 17 15 12 17 13 18 14 19
REMARK H PARENT
REMARK Flexibility Score: 70.00
ROOT
ATOM      1  C   UNL     1      90.711  27.507  15.309  1.00  0.00     0.136 C 
ATOM      2  O   UNL     1      91.780  27.300  15.869  1.00  0.00    -0.299 OA
ENDROOT
BRANCH   1   3
ATOM      3  C   UNL     1      89.523  26.600  15.575  1.00  0.00     0.053 C 
ATOM      4  C   UNL     1      88.685  27.071  16.773  1.00  0.00     0.016 C 
BRANCH   3   5
ATOM      5  C   UNL     1      88.659  26.418  14.310  1.00  0.00     0.015 C 
BRANCH   5   6
ATOM      6  C   UNL     1      87.247  27.029  14.422  1.00  0.00     0.028 C 
BRANCH   6   7
ATOM      7  C   UNL     1      86.872  27.768  13.163  1.00  0.00    -0.028 C 
ATOM      8  C   UNL     1      86.955  29.111  13.002  1.00  0.00    -0.070 CG0
ATOM      9  C   UNL     1      86.578  29.689  11.661  1.00  0.00     0.039 C 
ATOM     10  G   UNL     1      87.397  30.056  14.110  1.00  0.00     0.000 G0
ENDBRANCH   6   7
ENDBRANCH   5   6
ENDBRANCH   3   5
ENDBRANCH   1   3
BRANCH   1  11
ATOM     11  C   UNL     1      90.600  28.675  14.358  1.00  0.00     0.087 C 
BRANCH  11  12
ATOM     12  C   UNL     1      89.868  29.882  14.999  1.00  0.00     0.066 C 
BRANCH  12  13
ATOM     13  C   UNL     1      88.854  30.442  14.013  1.00  0.00     0.140 C 
ATOM     14  O   UNL     1      89.212  31.273  13.189  1.00  0.00    -0.299 OA
BRANCH  13  15
ATOM     15  C   UNL     1      87.398  30.065  14.112  1.00  0.00     0.106 CG0
ATOM     16  G   UNL     1      86.961  29.124  12.999  1.00  0.00     0.000 G0
ENDBRANCH  13  15
ENDBRANCH  12  13
BRANCH  12  17
ATOM     17  C   UNL     1      90.852  31.004  15.469  1.00  0.00    -0.006 C 
ATOM     18  C   UNL     1      92.215  30.924  14.756  1.00  0.00     0.008 C 
ATOM     19  C   UNL     1      91.086  30.938  16.991  1.00  0.00     0.008 C 
ENDBRANCH  12  17
ENDBRANCH  11  12
ENDBRANCH   1  11
TORSDOF 1
ENDMDL
