MODEL 1
REMARK VINA RESULT:    -5.592      0.000      0.000
REMARK INTER + INTRA:          -5.592
REMARK INTER:                  -5.592
REMARK INTRA:                   0.000
REMARK UNBOUND:                 0.000
REMARK SMILES CC(C)=C1CC[C@@H](C)CC1=O
REMARK SMILES IDX 8 1 7 2 6 3 5 4 4 5 2 6 1 7 3 8 10 9 11 10 9 11
REMARK H PARENT
REMARK Flexibility Score: inf
ROOT
ATOM      1  C   UNL     1     -14.329 -14.722  33.382  1.00  0.00     0.008 C 
ATOM      2  C   UNL     1     -13.500 -15.610  32.448  1.00  0.00    -0.006 C 
ATOM      3  C   UNL     1     -13.688 -15.180  30.984  1.00  0.00     0.008 C 
ATOM      4  C   UNL     1     -12.788 -15.991  30.043  1.00  0.00     0.039 C 
ATOM      5  C   UNL     1     -12.946 -17.493  30.236  1.00  0.00    -0.006 C 
ATOM      6  C   UNL     1     -12.793 -18.363  29.194  1.00  0.00    -0.070 C 
ATOM      7  C   UNL     1     -12.443 -17.871  27.808  1.00  0.00     0.039 C 
ATOM      8  C   UNL     1     -13.003 -19.850  29.361  1.00  0.00     0.039 C 
ATOM      9  C   UNL     1     -13.158 -17.956  31.640  1.00  0.00     0.159 C 
ATOM     10  O   UNL     1     -12.725 -19.071  32.035  1.00  0.00    -0.295 OA
ATOM     11  C   UNL     1     -13.895 -17.084  32.616  1.00  0.00     0.084 C 
ENDROOT
TORSDOF 0
ENDMDL
MODEL 2
REMARK VINA RESULT:    -5.544      2.455      4.890
REMARK INTER + INTRA:          -5.544
REMARK INTER:                  -5.544
REMARK INTRA:                   0.000
REMARK UNBOUND:                 0.000
REMARK SMILES CC(C)=C1CC[C@@H](C)CC1=O
REMARK SMILES IDX 8 1 7 2 6 3 5 4 4 5 2 6 1 7 3 8 10 9 11 10 9 11
REMARK H PARENT
REMARK Flexibility Score: inf
ROOT
ATOM      1  C   UNL     1     -11.227 -17.380  26.180  1.00  0.00     0.008 C 
ATOM      2  C   UNL     1     -11.402 -16.594  27.485  1.00  0.00    -0.006 C 
ATOM      3  C   UNL     1     -11.028 -17.465  28.695  1.00  0.00     0.008 C 
ATOM      4  C   UNL     1     -11.099 -16.664  30.002  1.00  0.00     0.039 C 
ATOM      5  C   UNL     1     -12.436 -15.958  30.181  1.00  0.00    -0.006 C 
ATOM      6  C   UNL     1     -12.970 -15.753  31.422  1.00  0.00    -0.070 C 
ATOM      7  C   UNL     1     -12.247 -16.203  32.670  1.00  0.00     0.039 C 
ATOM      8  C   UNL     1     -14.322 -15.104  31.609  1.00  0.00     0.039 C 
ATOM      9  C   UNL     1     -13.060 -15.408  28.941  1.00  0.00     0.159 C 
ATOM     10  O   UNL     1     -13.762 -14.362  28.968  1.00  0.00    -0.295 OA
ATOM     11  C   UNL     1     -12.849 -16.098  27.624  1.00  0.00     0.084 C 
ENDROOT
TORSDOF 0
ENDMDL
MODEL 3
REMARK VINA RESULT:    -5.317      1.873      4.055
REMARK INTER + INTRA:          -5.317
REMARK INTER:                  -5.317
REMARK INTRA:                   0.000
REMARK UNBOUND:                 0.000
REMARK SMILES CC(C)=C1CC[C@@H](C)CC1=O
REMARK SMILES IDX 8 1 7 2 6 3 5 4 4 5 2 6 1 7 3 8 10 9 11 10 9 11
REMARK H PARENT
REMARK Flexibility Score: inf
ROOT
ATOM      1  C   UNL     1     -12.919 -16.476  26.471  1.00  0.00     0.008 C 
ATOM      2  C   UNL     1     -12.900 -16.831  27.962  1.00  0.00    -0.006 C 
ATOM      3  C   UNL     1     -12.794 -15.560  28.820  1.00  0.00     0.008 C 
ATOM      4  C   UNL     1     -12.877 -15.889  30.316  1.00  0.00     0.039 C 
ATOM      5  C   UNL     1     -11.880 -16.961  30.735  1.00  0.00    -0.006 C 
ATOM      6  C   UNL     1     -11.325 -16.966  31.983  1.00  0.00    -0.070 C 
ATOM      7  C   UNL     1     -11.691 -15.917  33.007  1.00  0.00     0.039 C 
ATOM      8  C   UNL     1     -10.292 -17.992  32.391  1.00  0.00     0.039 C 
ATOM      9  C   UNL     1     -11.642 -18.057  29.748  1.00  0.00     0.159 C 
ATOM     10  O   UNL     1     -11.373 -19.229  30.123  1.00  0.00    -0.295 OA
ATOM     11  C   UNL     1     -11.729 -17.775  28.276  1.00  0.00     0.084 C 
ENDROOT
TORSDOF 0
ENDMDL
MODEL 4
REMARK VINA RESULT:    -5.261      1.687      4.452
REMARK INTER + INTRA:          -5.261
REMARK INTER:                  -5.261
REMARK INTRA:                   0.000
REMARK UNBOUND:                 0.000
REMARK SMILES CC(C)=C1CC[C@@H](C)CC1=O
REMARK SMILES IDX 8 1 7 2 6 3 5 4 4 5 2 6 1 7 3 8 10 9 11 10 9 11
REMARK H PARENT
REMARK Flexibility Score: inf
ROOT
ATOM      1  C   UNL     1     -12.207 -20.127  30.368  1.00  0.00     0.008 C 
ATOM      2  C   UNL     1     -12.308 -18.645  30.746  1.00  0.00    -0.006 C 
ATOM      3  C   UNL     1     -13.187 -18.463  31.994  1.00  0.00     0.008 C 
ATOM      4  C   UNL     1     -13.216 -16.998  32.447  1.00  0.00     0.039 C 
ATOM      5  C   UNL     1     -13.595 -16.046  31.321  1.00  0.00    -0.006 C 
ATOM      6  C   UNL     1     -14.283 -14.891  31.568  1.00  0.00    -0.070 C 
ATOM      7  C   UNL     1     -14.680 -14.502  32.974  1.00  0.00     0.039 C 
ATOM      8  C   UNL     1     -14.714 -13.967  30.453  1.00  0.00     0.039 C 
ATOM      9  C   UNL     1     -13.072 -16.391  29.965  1.00  0.00     0.159 C 
ATOM     10  O   UNL     1     -12.778 -15.496  29.129  1.00  0.00    -0.295 OA
ATOM     11  C   UNL     1     -12.880 -17.829  29.578  1.00  0.00     0.084 C 
ENDROOT
TORSDOF 0
ENDMDL
MODEL 5
REMARK VINA RESULT:    -5.250      2.474      2.873
REMARK INTER + INTRA:          -5.250
REMARK INTER:                  -5.250
REMARK INTRA:                   0.000
REMARK UNBOUND:                 0.000
REMARK SMILES CC(C)=C1CC[C@@H](C)CC1=O
REMARK SMILES IDX 8 1 7 2 6 3 5 4 4 5 2 6 1 7 3 8 10 9 11 10 9 11
REMARK H PARENT
REMARK Flexibility Score: inf
ROOT
ATOM      1  C   UNL     1     -12.038 -16.203  33.107  1.00  0.00     0.008 C 
ATOM      2  C   UNL     1     -11.932 -15.894  31.609  1.00  0.00    -0.006 C 
ATOM      3  C   UNL     1     -13.323 -15.905  30.954  1.00  0.00     0.008 C 
ATOM      4  C   UNL     1     -13.247 -15.497  29.478  1.00  0.00     0.039 C 
ATOM      5  C   UNL     1     -12.228 -16.315  28.698  1.00  0.00    -0.006 C 
ATOM      6  C   UNL     1     -12.410 -16.602  27.374  1.00  0.00    -0.070 C 
ATOM      7  C   UNL     1     -13.624 -16.104  26.625  1.00  0.00     0.039 C 
ATOM      8  C   UNL     1     -11.433 -17.460  26.604  1.00  0.00     0.039 C 
ATOM      9  C   UNL     1     -10.977 -16.678  29.430  1.00  0.00     0.159 C 
ATOM     10  O   UNL     1      -9.875 -16.788  28.831  1.00  0.00    -0.295 OA
ATOM     11  C   UNL     1     -11.017 -16.912  30.913  1.00  0.00     0.084 C 
ENDROOT
TORSDOF 0
ENDMDL
MODEL 6
REMARK VINA RESULT:    -5.249      1.728      3.887
REMARK INTER + INTRA:          -5.249
REMARK INTER:                  -5.249
REMARK INTRA:                   0.000
REMARK UNBOUND:                 0.000
REMARK SMILES CC(C)=C1CC[C@@H](C)CC1=O
REMARK SMILES IDX 8 1 7 2 6 3 5 4 4 5 2 6 1 7 3 8 10 9 11 10 9 11
REMARK H PARENT
REMARK Flexibility Score: inf
ROOT
ATOM      1  C   UNL     1      -9.897 -18.416  30.499  1.00  0.00     0.008 C 
ATOM      2  C   UNL     1     -11.315 -17.833  30.516  1.00  0.00    -0.006 C 
ATOM      3  C   UNL     1     -11.357 -16.491  29.766  1.00  0.00     0.008 C 
ATOM      4  C   UNL     1     -12.787 -15.943  29.684  1.00  0.00     0.039 C 
ATOM      5  C   UNL     1     -13.464 -15.872  31.047  1.00  0.00    -0.006 C 
ATOM      6  C   UNL     1     -14.383 -14.904  31.334  1.00  0.00    -0.070 C 
ATOM      7  C   UNL     1     -14.781 -13.871  30.304  1.00  0.00     0.039 C 
ATOM      8  C   UNL     1     -15.019 -14.789  32.700  1.00  0.00     0.039 C 
ATOM      9  C   UNL     1     -13.150 -16.984  31.994  1.00  0.00     0.159 C 
ATOM     10  O   UNL     1     -14.000 -17.394  32.828  1.00  0.00    -0.295 OA
ATOM     11  C   UNL     1     -11.800 -17.641  31.960  1.00  0.00     0.084 C 
ENDROOT
TORSDOF 0
ENDMDL
MODEL 7
REMARK VINA RESULT:    -5.248      2.841      4.675
REMARK INTER + INTRA:          -5.248
REMARK INTER:                  -5.248
REMARK INTRA:                   0.000
REMARK UNBOUND:                 0.000
REMARK SMILES CC(C)=C1CC[C@@H](C)CC1=O
REMARK SMILES IDX 8 1 7 2 6 3 5 4 4 5 2 6 1 7 3 8 10 9 11 10 9 11
REMARK H PARENT
REMARK Flexibility Score: inf
ROOT
ATOM      1  C   UNL     1     -14.000 -20.229  28.662  1.00  0.00     0.008 C 
ATOM      2  C   UNL     1     -12.756 -19.634  29.331  1.00  0.00    -0.006 C 
ATOM      3  C   UNL     1     -13.016 -19.374  30.823  1.00  0.00     0.008 C 
ATOM      4  C   UNL     1     -11.750 -18.874  31.532  1.00  0.00     0.039 C 
ATOM      5  C   UNL     1     -11.124 -17.676  30.830  1.00  0.00    -0.006 C 
ATOM      6  C   UNL     1     -10.457 -16.712  31.532  1.00  0.00    -0.070 C 
ATOM      7  C   UNL     1     -10.297 -16.804  33.032  1.00  0.00     0.039 C 
ATOM      8  C   UNL     1      -9.880 -15.490  30.854  1.00  0.00     0.039 C 
ATOM      9  C   UNL     1     -11.184 -17.684  29.338  1.00  0.00     0.159 C 
ATOM     10  O   UNL     1     -10.271 -17.163  28.643  1.00  0.00    -0.295 OA
ATOM     11  C   UNL     1     -12.344 -18.327  28.636  1.00  0.00     0.084 C 
ENDROOT
TORSDOF 0
ENDMDL
MODEL 8
REMARK VINA RESULT:    -5.224      1.937      4.601
REMARK INTER + INTRA:          -5.224
REMARK INTER:                  -5.224
REMARK INTRA:                   0.000
REMARK UNBOUND:                 0.000
REMARK SMILES CC(C)=C1CC[C@@H](C)CC1=O
REMARK SMILES IDX 8 1 7 2 6 3 5 4 4 5 2 6 1 7 3 8 10 9 11 10 9 11
REMARK H PARENT
REMARK Flexibility Score: inf
ROOT
ATOM      1  C   UNL     1     -11.398 -17.018  26.127  1.00  0.00     0.008 C 
ATOM      2  C   UNL     1     -11.419 -17.347  27.624  1.00  0.00    -0.006 C 
ATOM      3  C   UNL     1     -12.854 -17.633  28.095  1.00  0.00     0.008 C 
ATOM      4  C   UNL     1     -12.883 -18.065  29.567  1.00  0.00     0.039 C 
ATOM      5  C   UNL     1     -12.154 -17.085  30.476  1.00  0.00    -0.006 C 
ATOM      6  C   UNL     1     -12.554 -16.882  31.767  1.00  0.00    -0.070 C 
ATOM      7  C   UNL     1     -13.726 -17.635  32.351  1.00  0.00     0.039 C 
ATOM      8  C   UNL     1     -11.874 -15.871  32.661  1.00  0.00     0.039 C 
ATOM      9  C   UNL     1     -10.921 -16.458  29.913  1.00  0.00     0.159 C 
ATOM     10  O   UNL     1      -9.947 -16.150  30.649  1.00  0.00    -0.295 OA
ATOM     11  C   UNL     1     -10.821 -16.190  28.439  1.00  0.00     0.084 C 
ENDROOT
TORSDOF 0
ENDMDL
MODEL 9
REMARK VINA RESULT:    -5.214      2.128      3.698
REMARK INTER + INTRA:          -5.214
REMARK INTER:                  -5.214
REMARK INTRA:                   0.000
REMARK UNBOUND:                 0.000
REMARK SMILES CC(C)=C1CC[C@@H](C)CC1=O
REMARK SMILES IDX 8 1 7 2 6 3 5 4 4 5 2 6 1 7 3 8 10 9 11 10 9 11
REMARK H PARENT
REMARK Flexibility Score: inf
ROOT
ATOM      1  C   UNL     1     -12.448 -19.966  31.879  1.00  0.00     0.008 C 
ATOM      2  C   UNL     1     -12.217 -18.775  30.942  1.00  0.00    -0.006 C 
ATOM      3  C   UNL     1     -13.124 -17.597  31.331  1.00  0.00     0.008 C 
ATOM      4  C   UNL     1     -12.834 -16.362  30.469  1.00  0.00     0.039 C 
ATOM      5  C   UNL     1     -12.881 -16.667  28.978  1.00  0.00    -0.006 C 
ATOM      6  C   UNL     1     -13.287 -15.728  28.073  1.00  0.00    -0.070 C 
ATOM      7  C   UNL     1     -13.690 -14.339  28.513  1.00  0.00     0.039 C 
ATOM      8  C   UNL     1     -13.390 -16.036  26.597  1.00  0.00     0.039 C 
ATOM      9  C   UNL     1     -12.349 -18.000  28.564  1.00  0.00     0.159 C 
ATOM     10  O   UNL     1     -11.781 -18.162  27.451  1.00  0.00    -0.295 OA
ATOM     11  C   UNL     1     -12.480 -19.180  29.484  1.00  0.00     0.084 C 
ENDROOT
TORSDOF 0
ENDMDL
