MODEL 1
REMARK VINA RESULT:    -5.949      0.000      0.000
REMARK INTER + INTRA:          -7.462
REMARK INTER:                  -7.166
REMARK INTRA:                  -0.296
REMARK UNBOUND:                -0.296
REMARK SMILES O=c1c(O)c(-c2ccc(O)c(O)c2)oc2cc(O)cc(O)c12
REMARK SMILES IDX 5 1 3 2 2 3 1 4 22 5 20 6 19 7 17 8 16 9 15 10 14 11 6 12
REMARK SMILES IDX 7 13 8 14 9 15 13 16 11 17 10 18 12 20 4 22 21 24 18 26
REMARK H PARENT 10 19 12 21 4 23 21 25 18 27
REMARK Flexibility Score: inf
ROOT
ATOM      1  C   UNL     1      36.130  30.458  45.104  1.00  0.00     0.180 A 
ATOM      2  C   UNL     1      35.403  31.660  45.089  1.00  0.00     0.208 A 
ATOM      3  C   UNL     1      34.278  31.765  44.256  1.00  0.00     0.238 A 
ATOM      4  O   UNL     1      33.676  32.869  44.193  1.00  0.00    -0.285 OA
ATOM      5  C   UNL     1      33.860  30.650  43.491  1.00  0.00     0.111 A 
ATOM      6  C   UNL     1      32.709  30.629  42.646  1.00  0.00     0.134 A 
ATOM      7  C   UNL     1      32.454  29.502  41.855  1.00  0.00     0.093 A 
ATOM      8  C   UNL     1      33.268  28.374  41.923  1.00  0.00     0.123 A 
ATOM      9  C   UNL     1      34.365  28.362  42.786  1.00  0.00     0.094 A 
ATOM     10  C   UNL     1      34.668  29.484  43.560  1.00  0.00     0.146 A 
ATOM     11  O   UNL     1      35.733  29.439  44.351  1.00  0.00    -0.452 OA
ENDROOT
BRANCH   1  12
ATOM     12  C   UNL     1      37.335  30.275  45.945  1.00  0.00     0.025 A 
ATOM     13  C   UNL     1      37.253  29.496  47.110  1.00  0.00     0.016 A 
ATOM     14  C   UNL     1      38.382  29.293  47.907  1.00  0.00     0.051 A 
ATOM     15  C   UNL     1      39.612  29.851  47.546  1.00  0.00     0.157 A 
ATOM     16  C   UNL     1      38.578  30.818  45.573  1.00  0.00     0.062 A 
ATOM     17  C   UNL     1      39.714  30.614  46.371  1.00  0.00     0.158 A 
BRANCH  15  18
ATOM     18  O   UNL     1      40.721  29.633  48.363  1.00  0.00    -0.504 OA
ATOM     19  H   UNL     1      41.659  29.885  48.076  1.00  0.00     0.293 HD
ENDBRANCH  15  18
BRANCH  17  20
ATOM     20  O   UNL     1      40.939  31.161  45.998  1.00  0.00    -0.504 OA
ATOM     21  H   UNL     1      41.745  30.577  45.804  1.00  0.00     0.293 HD
ENDBRANCH  17  20
ENDBRANCH   1  12
BRANCH   2  22
ATOM     22  O   UNL     1      35.787  32.725  45.910  1.00  0.00    -0.502 OA
ATOM     23  H   UNL     1      36.339  33.502  45.570  1.00  0.00     0.293 HD
ENDBRANCH   2  22
BRANCH   6  24
ATOM     24  O   UNL     1      31.777  31.668  42.567  1.00  0.00    -0.507 OA
ATOM     25  H   UNL     1      31.608  32.350  43.291  1.00  0.00     0.293 HD
ENDBRANCH   6  24
BRANCH   8  26
ATOM     26  O   UNL     1      32.974  27.265  41.133  1.00  0.00    -0.508 OA
ATOM     27  H   UNL     1      33.362  27.159  40.202  1.00  0.00     0.293 HD
ENDBRANCH   8  26
TORSDOF 6
ENDMDL
MODEL 2
REMARK VINA RESULT:    -5.843      1.252      2.884
REMARK INTER + INTRA:          -7.334
REMARK INTER:                  -7.040
REMARK INTRA:                  -0.294
REMARK UNBOUND:                -0.296
REMARK SMILES O=c1c(O)c(-c2ccc(O)c(O)c2)oc2cc(O)cc(O)c12
REMARK SMILES IDX 5 1 3 2 2 3 1 4 22 5 20 6 19 7 17 8 16 9 15 10 14 11 6 12
REMARK SMILES IDX 7 13 8 14 9 15 13 16 11 17 10 18 12 20 4 22 21 24 18 26
REMARK H PARENT 10 19 12 21 4 23 21 25 18 27
REMARK Flexibility Score: inf
ROOT
ATOM      1  C   UNL     1      36.637  29.626  45.046  1.00  0.00     0.180 A 
ATOM      2  C   UNL     1      36.675  28.366  44.426  1.00  0.00     0.208 A 
ATOM      3  C   UNL     1      35.647  28.013  43.538  1.00  0.00     0.238 A 
ATOM      4  O   UNL     1      35.648  26.855  43.044  1.00  0.00    -0.285 OA
ATOM      5  C   UNL     1      34.623  28.944  43.238  1.00  0.00     0.111 A 
ATOM      6  C   UNL     1      33.555  28.709  42.319  1.00  0.00     0.134 A 
ATOM      7  C   UNL     1      32.540  29.665  42.183  1.00  0.00     0.093 A 
ATOM      8  C   UNL     1      32.585  30.870  42.881  1.00  0.00     0.123 A 
ATOM      9  C   UNL     1      33.653  31.132  43.740  1.00  0.00     0.094 A 
ATOM     10  C   UNL     1      34.661  30.184  43.927  1.00  0.00     0.146 A 
ATOM     11  O   UNL     1      35.647  30.466  44.770  1.00  0.00    -0.452 OA
ENDROOT
BRANCH   1  12
ATOM     12  C   UNL     1      37.677  30.065  46.004  1.00  0.00     0.025 A 
ATOM     13  C   UNL     1      37.438  29.953  47.383  1.00  0.00     0.016 A 
ATOM     14  C   UNL     1      38.413  30.341  48.305  1.00  0.00     0.051 A 
ATOM     15  C   UNL     1      39.646  30.832  47.865  1.00  0.00     0.157 A 
ATOM     16  C   UNL     1      38.927  30.539  45.564  1.00  0.00     0.062 A 
ATOM     17  C   UNL     1      39.908  30.927  46.488  1.00  0.00     0.158 A 
BRANCH  15  18
ATOM     18  O   UNL     1      40.600  31.213  48.809  1.00  0.00    -0.504 OA
ATOM     19  H   UNL     1      41.593  31.101  48.646  1.00  0.00     0.293 HD
ENDBRANCH  15  18
BRANCH  17  20
ATOM     20  O   UNL     1      41.140  31.401  46.043  1.00  0.00    -0.504 OA
ATOM     21  H   UNL     1      42.008  31.124  46.487  1.00  0.00     0.293 HD
ENDBRANCH  17  20
ENDBRANCH   1  12
BRANCH   2  22
ATOM     22  O   UNL     1      37.736  27.490  44.676  1.00  0.00    -0.502 OA
ATOM     23  H   UNL     1      38.203  27.445  45.573  1.00  0.00     0.293 HD
ENDBRANCH   2  22
BRANCH   6  24
ATOM     24  O   UNL     1      33.457  27.578  41.504  1.00  0.00    -0.507 OA
ATOM     25  H   UNL     1      34.152  26.849  41.440  1.00  0.00     0.293 HD
ENDBRANCH   6  24
BRANCH   8  26
ATOM     26  O   UNL     1      31.566  31.804  42.707  1.00  0.00    -0.508 OA
ATOM     27  H   UNL     1      30.827  31.661  42.029  1.00  0.00     0.293 HD
ENDBRANCH   8  26
TORSDOF 6
ENDMDL
MODEL 3
REMARK VINA RESULT:    -5.807      1.570      2.126
REMARK INTER + INTRA:          -7.291
REMARK INTER:                  -6.961
REMARK INTRA:                  -0.330
REMARK UNBOUND:                -0.296
REMARK SMILES O=c1c(O)c(-c2ccc(O)c(O)c2)oc2cc(O)cc(O)c12
REMARK SMILES IDX 5 1 3 2 2 3 1 4 22 5 20 6 19 7 17 8 16 9 15 10 14 11 6 12
REMARK SMILES IDX 7 13 8 14 9 15 13 16 11 17 10 18 12 20 4 22 21 24 18 26
REMARK H PARENT 10 19 12 21 4 23 21 25 18 27
REMARK Flexibility Score: inf
ROOT
ATOM      1  C   UNL     1      36.176  28.880  44.560  1.00  0.00     0.180 A 
ATOM      2  C   UNL     1      34.985  29.627  44.580  1.00  0.00     0.208 A 
ATOM      3  C   UNL     1      34.018  29.392  43.590  1.00  0.00     0.238 A 
ATOM      4  O   UNL     1      32.988  30.116  43.571  1.00  0.00    -0.285 OA
ATOM      5  C   UNL     1      34.227  28.377  42.626  1.00  0.00     0.111 A 
ATOM      6  C   UNL     1      33.294  28.023  41.603  1.00  0.00     0.134 A 
ATOM      7  C   UNL     1      33.656  27.073  40.640  1.00  0.00     0.093 A 
ATOM      8  C   UNL     1      34.885  26.419  40.696  1.00  0.00     0.123 A 
ATOM      9  C   UNL     1      35.781  26.718  41.723  1.00  0.00     0.094 A 
ATOM     10  C   UNL     1      35.467  27.688  42.677  1.00  0.00     0.146 A 
ATOM     11  O   UNL     1      36.358  27.956  43.624  1.00  0.00    -0.452 OA
ENDROOT
BRANCH   1  12
ATOM     12  C   UNL     1      37.248  29.079  45.561  1.00  0.00     0.025 A 
ATOM     13  C   UNL     1      37.247  28.312  46.737  1.00  0.00     0.016 A 
ATOM     14  C   UNL     1      38.261  28.468  47.685  1.00  0.00     0.051 A 
ATOM     15  C   UNL     1      39.299  29.380  47.468  1.00  0.00     0.157 A 
ATOM     16  C   UNL     1      38.304  29.981  45.335  1.00  0.00     0.062 A 
ATOM     17  C   UNL     1      39.324  30.138  46.285  1.00  0.00     0.158 A 
BRANCH  15  18
ATOM     18  O   UNL     1      40.295  29.516  48.433  1.00  0.00    -0.504 OA
ATOM     19  H   UNL     1      40.496  30.403  48.879  1.00  0.00     0.293 HD
ENDBRANCH  15  18
BRANCH  17  20
ATOM     20  O   UNL     1      40.362  31.038  46.056  1.00  0.00    -0.504 OA
ATOM     21  H   UNL     1      41.331  30.782  46.206  1.00  0.00     0.293 HD
ENDBRANCH  17  20
ENDBRANCH   1  12
BRANCH   2  22
ATOM     22  O   UNL     1      34.765  30.572  45.586  1.00  0.00    -0.502 OA
ATOM     23  H   UNL     1      33.836  30.867  45.860  1.00  0.00     0.293 HD
ENDBRANCH   2  22
BRANCH   6  24
ATOM     24  O   UNL     1      32.003  28.549  41.505  1.00  0.00    -0.507 OA
ATOM     25  H   UNL     1      31.154  28.004  41.512  1.00  0.00     0.293 HD
ENDBRANCH   6  24
BRANCH   8  26
ATOM     26  O   UNL     1      35.202  25.468  39.729  1.00  0.00    -0.508 OA
ATOM     27  H   UNL     1      34.923  25.582  38.762  1.00  0.00     0.293 HD
ENDBRANCH   8  26
TORSDOF 6
ENDMDL
MODEL 4
REMARK VINA RESULT:    -5.657      3.058      5.284
REMARK INTER + INTRA:          -7.110
REMARK INTER:                  -6.804
REMARK INTRA:                  -0.306
REMARK UNBOUND:                -0.296
REMARK SMILES O=c1c(O)c(-c2ccc(O)c(O)c2)oc2cc(O)cc(O)c12
REMARK SMILES IDX 5 1 3 2 2 3 1 4 22 5 20 6 19 7 17 8 16 9 15 10 14 11 6 12
REMARK SMILES IDX 7 13 8 14 9 15 13 16 11 17 10 18 12 20 4 22 21 24 18 26
REMARK H PARENT 10 19 12 21 4 23 21 25 18 27
REMARK Flexibility Score: inf
ROOT
ATOM      1  C   UNL     1      39.375  30.063  47.197  1.00  0.00     0.180 A 
ATOM      2  C   UNL     1      39.570  28.875  47.921  1.00  0.00     0.208 A 
ATOM      3  C   UNL     1      38.860  27.724  47.543  1.00  0.00     0.238 A 
ATOM      4  O   UNL     1      38.983  26.684  48.241  1.00  0.00    -0.285 OA
ATOM      5  C   UNL     1      38.008  27.760  46.413  1.00  0.00     0.111 A 
ATOM      6  C   UNL     1      37.274  26.641  45.913  1.00  0.00     0.134 A 
ATOM      7  C   UNL     1      36.379  26.823  44.850  1.00  0.00     0.093 A 
ATOM      8  C   UNL     1      36.239  28.062  44.229  1.00  0.00     0.123 A 
ATOM      9  C   UNL     1      36.991  29.149  44.675  1.00  0.00     0.094 A 
ATOM     10  C   UNL     1      37.864  29.010  45.756  1.00  0.00     0.146 A 
ATOM     11  O   UNL     1      38.545  30.076  46.161  1.00  0.00    -0.452 OA
ENDROOT
BRANCH   1  12
ATOM     12  C   UNL     1      40.076  31.321  47.543  1.00  0.00     0.025 A 
ATOM     13  C   UNL     1      39.434  32.268  48.357  1.00  0.00     0.016 A 
ATOM     14  C   UNL     1      40.085  33.452  48.714  1.00  0.00     0.051 A 
ATOM     15  C   UNL     1      41.389  33.701  48.277  1.00  0.00     0.157 A 
ATOM     16  C   UNL     1      41.396  31.565  47.123  1.00  0.00     0.062 A 
ATOM     17  C   UNL     1      42.052  32.752  47.481  1.00  0.00     0.158 A 
BRANCH  15  18
ATOM     18  O   UNL     1      42.012  34.893  48.647  1.00  0.00    -0.504 OA
ATOM     19  H   UNL     1      42.981  34.926  48.939  1.00  0.00     0.293 HD
ENDBRANCH  15  18
BRANCH  17  20
ATOM     20  O   UNL     1      43.357  32.987  47.054  1.00  0.00    -0.504 OA
ATOM     21  H   UNL     1      43.608  33.832  46.553  1.00  0.00     0.293 HD
ENDBRANCH  17  20
ENDBRANCH   1  12
BRANCH   2  22
ATOM     22  O   UNL     1      40.474  28.840  48.986  1.00  0.00    -0.502 OA
ATOM     23  H   UNL     1      40.195  28.594  49.928  1.00  0.00     0.293 HD
ENDBRANCH   2  22
BRANCH   6  24
ATOM     24  O   UNL     1      37.404  25.338  46.401  1.00  0.00    -0.507 OA
ATOM     25  H   UNL     1      36.843  24.552  46.108  1.00  0.00     0.293 HD
ENDBRANCH   6  24
BRANCH   8  26
ATOM     26  O   UNL     1      35.351  28.200  43.164  1.00  0.00    -0.508 OA
ATOM     27  H   UNL     1      35.426  27.624  42.333  1.00  0.00     0.293 HD
ENDBRANCH   8  26
TORSDOF 6
ENDMDL
MODEL 5
REMARK VINA RESULT:    -5.633      2.308      4.339
REMARK INTER + INTRA:          -7.082
REMARK INTER:                  -6.765
REMARK INTRA:                  -0.317
REMARK UNBOUND:                -0.296
REMARK SMILES O=c1c(O)c(-c2ccc(O)c(O)c2)oc2cc(O)cc(O)c12
REMARK SMILES IDX 5 1 3 2 2 3 1 4 22 5 20 6 19 7 17 8 16 9 15 10 14 11 6 12
REMARK SMILES IDX 7 13 8 14 9 15 13 16 11 17 10 18 12 20 4 22 21 24 18 26
REMARK H PARENT 10 19 12 21 4 23 21 25 18 27
REMARK Flexibility Score: inf
ROOT
ATOM      1  C   UNL     1      39.070  30.953  46.525  1.00  0.00     0.180 A 
ATOM      2  C   UNL     1      38.807  29.577  46.635  1.00  0.00     0.208 A 
ATOM      3  C   UNL     1      37.667  29.050  46.008  1.00  0.00     0.238 A 
ATOM      4  O   UNL     1      37.398  27.832  46.173  1.00  0.00    -0.285 OA
ATOM      5  C   UNL     1      36.834  29.893  45.233  1.00  0.00     0.111 A 
ATOM      6  C   UNL     1      35.676  29.457  44.519  1.00  0.00     0.134 A 
ATOM      7  C   UNL     1      34.869  30.402  43.872  1.00  0.00     0.093 A 
ATOM      8  C   UNL     1      35.208  31.753  43.860  1.00  0.00     0.123 A 
ATOM      9  C   UNL     1      36.366  32.182  44.510  1.00  0.00     0.094 A 
ATOM     10  C   UNL     1      37.173  31.271  45.196  1.00  0.00     0.146 A 
ATOM     11  O   UNL     1      38.253  31.726  45.818  1.00  0.00    -0.452 OA
ENDROOT
BRANCH   1  12
ATOM     12  C   UNL     1      40.244  31.585  47.168  1.00  0.00     0.025 A 
ATOM     13  C   UNL     1      40.165  31.982  48.513  1.00  0.00     0.016 A 
ATOM     14  C   UNL     1      41.267  32.561  49.147  1.00  0.00     0.051 A 
ATOM     15  C   UNL     1      42.468  32.739  48.454  1.00  0.00     0.157 A 
ATOM     16  C   UNL     1      41.460  31.746  46.479  1.00  0.00     0.062 A 
ATOM     17  C   UNL     1      42.568  32.326  47.114  1.00  0.00     0.158 A 
BRANCH  15  18
ATOM     18  O   UNL     1      43.551  33.322  49.111  1.00  0.00    -0.504 OA
ATOM     19  H   UNL     1      44.106  34.056  48.689  1.00  0.00     0.293 HD
ENDBRANCH  15  18
BRANCH  17  20
ATOM     20  O   UNL     1      43.766  32.488  46.422  1.00  0.00    -0.504 OA
ATOM     21  H   UNL     1      44.225  31.708  45.963  1.00  0.00     0.293 HD
ENDBRANCH  17  20
ENDBRANCH   1  12
BRANCH   2  22
ATOM     22  O   UNL     1      39.684  28.748  47.340  1.00  0.00    -0.502 OA
ATOM     23  H   UNL     1      40.591  29.063  47.661  1.00  0.00     0.293 HD
ENDBRANCH   2  22
BRANCH   6  24
ATOM     24  O   UNL     1      35.293  28.119  44.390  1.00  0.00    -0.507 OA
ATOM     25  H   UNL     1      34.395  27.746  44.659  1.00  0.00     0.293 HD
ENDBRANCH   6  24
BRANCH   8  26
ATOM     26  O   UNL     1      34.389  32.662  43.193  1.00  0.00    -0.508 OA
ATOM     27  H   UNL     1      33.419  32.794  43.456  1.00  0.00     0.293 HD
ENDBRANCH   8  26
TORSDOF 6
ENDMDL
MODEL 6
REMARK VINA RESULT:    -5.531      1.703      6.883
REMARK INTER + INTRA:          -6.958
REMARK INTER:                  -6.906
REMARK INTRA:                  -0.053
REMARK UNBOUND:                -0.296
REMARK SMILES O=c1c(O)c(-c2ccc(O)c(O)c2)oc2cc(O)cc(O)c12
REMARK SMILES IDX 5 1 3 2 2 3 1 4 22 5 20 6 19 7 17 8 16 9 15 10 14 11 6 12
REMARK SMILES IDX 7 13 8 14 9 15 13 16 11 17 10 18 12 20 4 22 21 24 18 26
REMARK H PARENT 10 19 12 21 4 23 21 25 18 27
REMARK Flexibility Score: inf
ROOT
ATOM      1  C   UNL     1      35.325  29.079  43.997  1.00  0.00     0.180 A 
ATOM      2  C   UNL     1      35.848  30.378  44.120  1.00  0.00     0.208 A 
ATOM      3  C   UNL     1      36.892  30.606  45.029  1.00  0.00     0.238 A 
ATOM      4  O   UNL     1      37.305  31.785  45.188  1.00  0.00    -0.285 OA
ATOM      5  C   UNL     1      37.440  29.526  45.763  1.00  0.00     0.111 A 
ATOM      6  C   UNL     1      38.530  29.635  46.679  1.00  0.00     0.134 A 
ATOM      7  C   UNL     1      38.916  28.516  47.428  1.00  0.00     0.093 A 
ATOM      8  C   UNL     1      38.298  27.281  47.249  1.00  0.00     0.123 A 
ATOM      9  C   UNL     1      37.268  27.150  46.317  1.00  0.00     0.094 A 
ATOM     10  C   UNL     1      36.834  28.255  45.582  1.00  0.00     0.146 A 
ATOM     11  O   UNL     1      35.836  28.091  44.722  1.00  0.00    -0.452 OA
ENDROOT
BRANCH   1  12
ATOM     12  C   UNL     1      34.214  28.761  43.071  1.00  0.00     0.025 A 
ATOM     13  C   UNL     1      33.009  29.475  43.167  1.00  0.00     0.016 A 
ATOM     14  C   UNL     1      31.955  29.207  42.290  1.00  0.00     0.051 A 
ATOM     15  C   UNL     1      32.093  28.234  41.295  1.00  0.00     0.157 A 
ATOM     16  C   UNL     1      34.358  27.798  42.056  1.00  0.00     0.062 A 
ATOM     17  C   UNL     1      33.302  27.528  41.173  1.00  0.00     0.158 A 
BRANCH  15  18
ATOM     18  O   UNL     1      31.024  27.987  40.435  1.00  0.00    -0.504 OA
ATOM     19  H   UNL     1      30.071  28.229  40.678  1.00  0.00     0.293 HD
ENDBRANCH  15  18
BRANCH  17  20
ATOM     20  O   UNL     1      33.451  26.568  40.175  1.00  0.00    -0.504 OA
ATOM     21  H   UNL     1      34.363  26.326  39.802  1.00  0.00     0.293 HD
ENDBRANCH  17  20
ENDBRANCH   1  12
BRANCH   2  22
ATOM     22  O   UNL     1      35.346  31.416  43.331  1.00  0.00    -0.502 OA
ATOM     23  H   UNL     1      35.887  31.848  42.593  1.00  0.00     0.293 HD
ENDBRANCH   2  22
BRANCH   6  24
ATOM     24  O   UNL     1      39.277  30.801  46.872  1.00  0.00    -0.507 OA
ATOM     25  H   UNL     1      40.258  30.827  47.106  1.00  0.00     0.293 HD
ENDBRANCH   6  24
BRANCH   8  26
ATOM     26  O   UNL     1      38.721  26.186  48.000  1.00  0.00    -0.508 OA
ATOM     27  H   UNL     1      38.632  25.238  47.651  1.00  0.00     0.293 HD
ENDBRANCH   8  26
TORSDOF 6
ENDMDL
MODEL 7
REMARK VINA RESULT:    -5.400      2.163      3.060
REMARK INTER + INTRA:          -6.801
REMARK INTER:                  -6.470
REMARK INTRA:                  -0.331
REMARK UNBOUND:                -0.296
REMARK SMILES O=c1c(O)c(-c2ccc(O)c(O)c2)oc2cc(O)cc(O)c12
REMARK SMILES IDX 5 1 3 2 2 3 1 4 22 5 20 6 19 7 17 8 16 9 15 10 14 11 6 12
REMARK SMILES IDX 7 13 8 14 9 15 13 16 11 17 10 18 12 20 4 22 21 24 18 26
REMARK H PARENT 10 19 12 21 4 23 21 25 18 27
REMARK Flexibility Score: inf
ROOT
ATOM      1  C   UNL     1      38.600  30.802  46.533  1.00  0.00     0.180 A 
ATOM      2  C   UNL     1      37.547  31.704  46.757  1.00  0.00     0.208 A 
ATOM      3  C   UNL     1      36.307  31.469  46.142  1.00  0.00     0.238 A 
ATOM      4  O   UNL     1      35.392  32.321  46.288  1.00  0.00    -0.285 OA
ATOM      5  C   UNL     1      36.118  30.307  45.357  1.00  0.00     0.111 A 
ATOM      6  C   UNL     1      34.890  29.945  44.722  1.00  0.00     0.134 A 
ATOM      7  C   UNL     1      34.852  28.825  43.882  1.00  0.00     0.093 A 
ATOM      8  C   UNL     1      35.974  28.019  43.702  1.00  0.00     0.123 A 
ATOM      9  C   UNL     1      37.164  28.333  44.360  1.00  0.00     0.094 A 
ATOM     10  C   UNL     1      37.246  29.464  45.175  1.00  0.00     0.146 A 
ATOM     11  O   UNL     1      38.404  29.737  45.765  1.00  0.00    -0.452 OA
ENDROOT
BRANCH   1  12
ATOM     12  C   UNL     1      39.940  30.989  47.135  1.00  0.00     0.025 A 
ATOM     13  C   UNL     1      40.235  30.381  48.366  1.00  0.00     0.016 A 
ATOM     14  C   UNL     1      41.500  30.527  48.942  1.00  0.00     0.051 A 
ATOM     15  C   UNL     1      42.492  31.266  48.292  1.00  0.00     0.157 A 
ATOM     16  C   UNL     1      40.947  31.715  46.473  1.00  0.00     0.062 A 
ATOM     17  C   UNL     1      42.218  31.861  47.049  1.00  0.00     0.158 A 
BRANCH  15  18
ATOM     18  O   UNL     1      43.744  31.396  48.893  1.00  0.00    -0.504 OA
ATOM     19  H   UNL     1      43.901  31.165  49.866  1.00  0.00     0.293 HD
ENDBRANCH  15  18
BRANCH  17  20
ATOM     20  O   UNL     1      43.206  32.587  46.389  1.00  0.00    -0.504 OA
ATOM     21  H   UNL     1      44.116  32.187  46.190  1.00  0.00     0.293 HD
ENDBRANCH  17  20
ENDBRANCH   1  12
BRANCH   2  22
ATOM     22  O   UNL     1      37.731  32.806  47.598  1.00  0.00    -0.502 OA
ATOM     23  H   UNL     1      38.648  33.124  47.884  1.00  0.00     0.293 HD
ENDBRANCH   2  22
BRANCH   6  24
ATOM     24  O   UNL     1      33.685  30.629  44.903  1.00  0.00    -0.507 OA
ATOM     25  H   UNL     1      33.005  30.424  45.619  1.00  0.00     0.293 HD
ENDBRANCH   6  24
BRANCH   8  26
ATOM     26  O   UNL     1      35.894  26.904  42.871  1.00  0.00    -0.508 OA
ATOM     27  H   UNL     1      36.491  26.804  42.059  1.00  0.00     0.293 HD
ENDBRANCH   8  26
TORSDOF 6
ENDMDL
MODEL 8
REMARK VINA RESULT:    -5.358      1.738      7.014
REMARK INTER + INTRA:          -6.750
REMARK INTER:                  -6.480
REMARK INTRA:                  -0.271
REMARK UNBOUND:                -0.296
REMARK SMILES O=c1c(O)c(-c2ccc(O)c(O)c2)oc2cc(O)cc(O)c12
REMARK SMILES IDX 5 1 3 2 2 3 1 4 22 5 20 6 19 7 17 8 16 9 15 10 14 11 6 12
REMARK SMILES IDX 7 13 8 14 9 15 13 16 11 17 10 18 12 20 4 22 21 24 18 26
REMARK H PARENT 10 19 12 21 4 23 21 25 18 27
REMARK Flexibility Score: inf
ROOT
ATOM      1  C   UNL     1      35.339  29.257  45.048  1.00  0.00     0.180 A 
ATOM      2  C   UNL     1      34.996  28.853  46.349  1.00  0.00     0.208 A 
ATOM      3  C   UNL     1      35.931  29.020  47.382  1.00  0.00     0.238 A 
ATOM      4  O   UNL     1      35.645  28.589  48.529  1.00  0.00    -0.285 OA
ATOM      5  C   UNL     1      37.175  29.641  47.115  1.00  0.00     0.111 A 
ATOM      6  C   UNL     1      38.181  29.902  48.095  1.00  0.00     0.134 A 
ATOM      7  C   UNL     1      39.416  30.425  47.692  1.00  0.00     0.093 A 
ATOM      8  C   UNL     1      39.661  30.756  46.361  1.00  0.00     0.123 A 
ATOM      9  C   UNL     1      38.666  30.555  45.404  1.00  0.00     0.094 A 
ATOM     10  C   UNL     1      37.436  30.000  45.766  1.00  0.00     0.146 A 
ATOM     11  O   UNL     1      36.526  29.806  44.820  1.00  0.00    -0.452 OA
ENDROOT
BRANCH   1  12
ATOM     12  C   UNL     1      34.413  29.100  43.903  1.00  0.00     0.025 A 
ATOM     13  C   UNL     1      33.347  30.002  43.748  1.00  0.00     0.016 A 
ATOM     14  C   UNL     1      32.473  29.886  42.665  1.00  0.00     0.051 A 
ATOM     15  C   UNL     1      32.658  28.879  41.712  1.00  0.00     0.157 A 
ATOM     16  C   UNL     1      34.608  28.101  42.933  1.00  0.00     0.062 A 
ATOM     17  C   UNL     1      33.733  27.983  41.843  1.00  0.00     0.158 A 
BRANCH  15  18
ATOM     18  O   UNL     1      31.768  28.786  40.642  1.00  0.00    -0.504 OA
ATOM     19  H   UNL     1      32.053  28.441  39.734  1.00  0.00     0.293 HD
ENDBRANCH  15  18
BRANCH  17  20
ATOM     20  O   UNL     1      33.931  26.987  40.890  1.00  0.00    -0.504 OA
ATOM     21  H   UNL     1      33.213  26.304  40.677  1.00  0.00     0.293 HD
ENDBRANCH  17  20
ENDBRANCH   1  12
BRANCH   2  22
ATOM     22  O   UNL     1      33.733  28.312  46.608  1.00  0.00    -0.502 OA
ATOM     23  H   UNL     1      32.893  28.877  46.621  1.00  0.00     0.293 HD
ENDBRANCH   2  22
BRANCH   6  24
ATOM     24  O   UNL     1      38.010  29.693  49.466  1.00  0.00    -0.507 OA
ATOM     25  H   UNL     1      38.688  29.258  50.074  1.00  0.00     0.293 HD
ENDBRANCH   6  24
BRANCH   8  26
ATOM     26  O   UNL     1      40.896  31.290  46.001  1.00  0.00    -0.508 OA
ATOM     27  H   UNL     1      41.763  30.805  46.206  1.00  0.00     0.293 HD
ENDBRANCH   8  26
TORSDOF 6
ENDMDL
MODEL 9
REMARK VINA RESULT:    -5.348      2.021      6.539
REMARK INTER + INTRA:          -6.737
REMARK INTER:                  -6.451
REMARK INTRA:                  -0.286
REMARK UNBOUND:                -0.296
REMARK SMILES O=c1c(O)c(-c2ccc(O)c(O)c2)oc2cc(O)cc(O)c12
REMARK SMILES IDX 5 1 3 2 2 3 1 4 22 5 20 6 19 7 17 8 16 9 15 10 14 11 6 12
REMARK SMILES IDX 7 13 8 14 9 15 13 16 11 17 10 18 12 20 4 22 21 24 18 26
REMARK H PARENT 10 19 12 21 4 23 21 25 18 27
REMARK Flexibility Score: inf
ROOT
ATOM      1  C   UNL     1      35.757  30.264  45.748  1.00  0.00     0.180 A 
ATOM      2  C   UNL     1      36.634  31.118  46.437  1.00  0.00     0.208 A 
ATOM      3  C   UNL     1      37.746  30.566  47.093  1.00  0.00     0.238 A 
ATOM      4  O   UNL     1      38.486  31.328  47.769  1.00  0.00    -0.285 OA
ATOM      5  C   UNL     1      37.999  29.176  47.005  1.00  0.00     0.111 A 
ATOM      6  C   UNL     1      39.121  28.515  47.593  1.00  0.00     0.134 A 
ATOM      7  C   UNL     1      39.210  27.119  47.529  1.00  0.00     0.093 A 
ATOM      8  C   UNL     1      38.256  26.366  46.847  1.00  0.00     0.123 A 
ATOM      9  C   UNL     1      37.185  27.006  46.223  1.00  0.00     0.094 A 
ATOM     10  C   UNL     1      37.047  28.394  46.300  1.00  0.00     0.146 A 
ATOM     11  O   UNL     1      36.001  28.960  45.710  1.00  0.00    -0.452 OA
ENDROOT
BRANCH   1  12
ATOM     12  C   UNL     1      34.555  30.769  45.045  1.00  0.00     0.025 A 
ATOM     13  C   UNL     1      33.408  31.096  45.785  1.00  0.00     0.016 A 
ATOM     14  C   UNL     1      32.270  31.593  45.145  1.00  0.00     0.051 A 
ATOM     15  C   UNL     1      32.265  31.787  43.761  1.00  0.00     0.157 A 
ATOM     16  C   UNL     1      34.555  30.984  43.655  1.00  0.00     0.062 A 
ATOM     17  C   UNL     1      33.415  31.486  43.010  1.00  0.00     0.158 A 
BRANCH  15  18
ATOM     18  O   UNL     1      31.115  32.283  43.149  1.00  0.00    -0.504 OA
ATOM     19  H   UNL     1      30.966  33.275  43.006  1.00  0.00     0.293 HD
ENDBRANCH  15  18
BRANCH  17  20
ATOM     20  O   UNL     1      33.422  31.690  41.632  1.00  0.00    -0.504 OA
ATOM     21  H   UNL     1      33.962  32.436  41.208  1.00  0.00     0.293 HD
ENDBRANCH  17  20
ENDBRANCH   1  12
BRANCH   2  22
ATOM     22  O   UNL     1      36.409  32.498  46.448  1.00  0.00    -0.502 OA
ATOM     23  H   UNL     1      37.052  33.157  46.027  1.00  0.00     0.293 HD
ENDBRANCH   2  22
BRANCH   6  24
ATOM     24  O   UNL     1      40.179  29.178  48.221  1.00  0.00    -0.507 OA
ATOM     25  H   UNL     1      40.995  29.541  47.752  1.00  0.00     0.293 HD
ENDBRANCH   6  24
BRANCH   8  26
ATOM     26  O   UNL     1      38.387  24.980  46.791  1.00  0.00    -0.508 OA
ATOM     27  H   UNL     1      37.622  24.388  46.488  1.00  0.00     0.293 HD
ENDBRANCH   8  26
TORSDOF 6
ENDMDL
