MODEL 1
REMARK VINA RESULT:    -1.785      0.000      0.000
REMARK INTER + INTRA:          -4.380
REMARK INTER:                  -2.828
REMARK INTRA:                  -1.552
REMARK UNBOUND:                -1.552
REMARK SMILES CCCCCCCCCCCC(=O)[O-]
REMARK SMILES IDX 7 1 8 2 9 3 10 4 11 5 12 6 13 7 14 8 6 9 5 10 4 11 3 12 2 13
REMARK SMILES IDX 1 14
REMARK H PARENT
REMARK Flexibility Score: inf
ROOT
ATOM      1  C   UNL     1     117.522  17.209  26.423  1.00  0.00     0.000 C 
ENDROOT
BRANCH   1   2
ATOM      2  C   UNL     1     116.588  16.592  25.363  1.00  0.00     0.000 C 
BRANCH   2   3
ATOM      3  C   UNL     1     116.973  15.176  24.891  1.00  0.00     0.000 C 
BRANCH   3   4
ATOM      4  C   UNL     1     115.789  14.210  24.702  1.00  0.00     0.006 C 
BRANCH   4   5
ATOM      5  C   UNL     1     116.213  12.736  24.730  1.00  0.00     0.053 C 
BRANCH   5   6
ATOM      6  C   UNL     1     116.210  12.166  23.348  1.00  0.00     0.041 C 
ATOM      7  O   UNL     1     117.296  11.949  22.748  1.00  0.00    -0.550 OA
ATOM      8  O   UNL     1     115.005  11.920  22.700  1.00  0.00    -0.550 OA
ENDBRANCH   5   6
ENDBRANCH   4   5
ENDBRANCH   3   4
ENDBRANCH   2   3
ENDBRANCH   1   2
BRANCH   1   9
ATOM      9  C   UNL     1     118.604  16.261  26.971  1.00  0.00     0.000 C 
BRANCH   9  10
ATOM     10  C   UNL     1     118.626  16.206  28.508  1.00  0.00    -0.000 C 
BRANCH  10  11
ATOM     11  C   UNL     1     117.389  15.504  29.091  1.00  0.00    -0.000 C 
BRANCH  11  12
ATOM     12  C   UNL     1     117.203  14.080  28.545  1.00  0.00    -0.000 C 
BRANCH  12  13
ATOM     13  C   UNL     1     115.718  13.772  28.316  1.00  0.00    -0.003 C 
ATOM     14  C   UNL     1     114.882  15.048  28.317  1.00  0.00     0.004 C 
ENDBRANCH  12  13
ENDBRANCH  11  12
ENDBRANCH  10  11
ENDBRANCH   9  10
ENDBRANCH   1   9
TORSDOF 10
ENDMDL
MODEL 2
REMARK VINA RESULT:    -1.747      1.654      3.287
REMARK INTER + INTRA:          -4.320
REMARK INTER:                  -2.881
REMARK INTRA:                  -1.439
REMARK UNBOUND:                -1.552
REMARK SMILES CCCCCCCCCCCC(=O)[O-]
REMARK SMILES IDX 7 1 8 2 9 3 10 4 11 5 12 6 13 7 14 8 6 9 5 10 4 11 3 12 2 13
REMARK SMILES IDX 1 14
REMARK H PARENT
REMARK Flexibility Score: inf
ROOT
ATOM      1  C   UNL     1     114.070  12.084  26.503  1.00  0.00     0.000 C 
ENDROOT
BRANCH   1   2
ATOM      2  C   UNL     1     113.781  13.351  25.673  1.00  0.00     0.000 C 
BRANCH   2   3
ATOM      3  C   UNL     1     114.868  13.728  24.646  1.00  0.00     0.000 C 
BRANCH   3   4
ATOM      4  C   UNL     1     116.232  13.051  24.869  1.00  0.00     0.006 C 
BRANCH   4   5
ATOM      5  C   UNL     1     116.535  11.965  23.828  1.00  0.00     0.053 C 
BRANCH   5   6
ATOM      6  C   UNL     1     116.835  12.586  22.501  1.00  0.00     0.041 C 
ATOM      7  O   UNL     1     117.547  13.623  22.432  1.00  0.00    -0.550 OA
ATOM      8  O   UNL     1     116.288  12.049  21.342  1.00  0.00    -0.550 OA
ENDBRANCH   5   6
ENDBRANCH   4   5
ENDBRANCH   3   4
ENDBRANCH   2   3
ENDBRANCH   1   2
BRANCH   1   9
ATOM      9  C   UNL     1     113.952  12.260  28.027  1.00  0.00     0.000 C 
BRANCH   9  10
ATOM     10  C   UNL     1     115.317  12.241  28.736  1.00  0.00    -0.000 C 
BRANCH  10  11
ATOM     11  C   UNL     1     115.800  13.648  29.125  1.00  0.00    -0.000 C 
BRANCH  11  12
ATOM     12  C   UNL     1     117.007  14.111  28.295  1.00  0.00    -0.000 C 
BRANCH  12  13
ATOM     13  C   UNL     1     116.762  15.505  27.703  1.00  0.00    -0.003 C 
ATOM     14  C   UNL     1     115.303  15.923  27.860  1.00  0.00     0.004 C 
ENDBRANCH  12  13
ENDBRANCH  11  12
ENDBRANCH  10  11
ENDBRANCH   9  10
ENDBRANCH   1   9
TORSDOF 10
ENDMDL
MODEL 3
REMARK VINA RESULT:    -1.640      2.904      4.921
REMARK INTER + INTRA:          -4.150
REMARK INTER:                  -3.242
REMARK INTRA:                  -0.907
REMARK UNBOUND:                -1.552
REMARK SMILES CCCCCCCCCCCC(=O)[O-]
REMARK SMILES IDX 7 1 8 2 9 3 10 4 11 5 12 6 13 7 14 8 6 9 5 10 4 11 3 12 2 13
REMARK SMILES IDX 1 14
REMARK H PARENT
REMARK Flexibility Score: inf
ROOT
ATOM      1  C   UNL     1     120.094  16.746  24.209  1.00  0.00     0.000 C 
ENDROOT
BRANCH   1   2
ATOM      2  C   UNL     1     118.875  17.120  25.075  1.00  0.00     0.000 C 
BRANCH   2   3
ATOM      3  C   UNL     1     118.955  16.677  26.550  1.00  0.00     0.000 C 
BRANCH   3   4
ATOM      4  C   UNL     1     117.605  16.309  27.191  1.00  0.00     0.006 C 
BRANCH   4   5
ATOM      5  C   UNL     1     116.924  15.120  26.500  1.00  0.00     0.053 C 
BRANCH   5   6
ATOM      6  C   UNL     1     116.467  14.121  27.515  1.00  0.00     0.041 C 
ATOM      7  O   UNL     1     117.175  13.874  28.526  1.00  0.00    -0.550 OA
ATOM      8  O   UNL     1     115.281  13.424  27.318  1.00  0.00    -0.550 OA
ENDBRANCH   5   6
ENDBRANCH   4   5
ENDBRANCH   3   4
ENDBRANCH   2   3
ENDBRANCH   1   2
BRANCH   1   9
ATOM      9  C   UNL     1     119.762  16.025  22.890  1.00  0.00     0.000 C 
BRANCH   9  10
ATOM     10  C   UNL     1     118.293  15.576  22.810  1.00  0.00    -0.000 C 
BRANCH  10  11
ATOM     11  C   UNL     1     118.013  14.688  21.587  1.00  0.00    -0.000 C 
BRANCH  11  12
ATOM     12  C   UNL     1     117.282  13.388  21.953  1.00  0.00    -0.000 C 
BRANCH  12  13
ATOM     13  C   UNL     1     116.566  13.523  23.303  1.00  0.00    -0.003 C 
ATOM     14  C   UNL     1     116.498  12.183  24.028  1.00  0.00     0.004 C 
ENDBRANCH  12  13
ENDBRANCH  11  12
ENDBRANCH  10  11
ENDBRANCH   9  10
ENDBRANCH   1   9
TORSDOF 10
ENDMDL
MODEL 4
REMARK VINA RESULT:    -1.630      2.118      3.835
REMARK INTER + INTRA:          -4.135
REMARK INTER:                  -2.725
REMARK INTRA:                  -1.410
REMARK UNBOUND:                -1.552
REMARK SMILES CCCCCCCCCCCC(=O)[O-]
REMARK SMILES IDX 7 1 8 2 9 3 10 4 11 5 12 6 13 7 14 8 6 9 5 10 4 11 3 12 2 13
REMARK SMILES IDX 1 14
REMARK H PARENT
REMARK Flexibility Score: inf
ROOT
ATOM      1  C   UNL     1     113.990  13.252  26.265  1.00  0.00     0.000 C 
ENDROOT
BRANCH   1   2
ATOM      2  C   UNL     1     115.056  12.570  25.384  1.00  0.00     0.000 C 
BRANCH   2   3
ATOM      3  C   UNL     1     116.332  13.400  25.134  1.00  0.00     0.000 C 
BRANCH   3   4
ATOM      4  C   UNL     1     116.085  14.824  24.606  1.00  0.00     0.006 C 
BRANCH   4   5
ATOM      5  C   UNL     1     117.383  15.617  24.403  1.00  0.00     0.053 C 
BRANCH   5   6
ATOM      6  C   UNL     1     117.696  15.738  22.945  1.00  0.00     0.041 C 
ATOM      7  O   UNL     1     117.617  16.856  22.371  1.00  0.00    -0.550 OA
ATOM      8  O   UNL     1     118.027  14.607  22.209  1.00  0.00    -0.550 OA
ENDBRANCH   5   6
ENDBRANCH   4   5
ENDBRANCH   3   4
ENDBRANCH   2   3
ENDBRANCH   1   2
BRANCH   1   9
ATOM      9  C   UNL     1     113.514  12.425  27.473  1.00  0.00     0.000 C 
BRANCH   9  10
ATOM     10  C   UNL     1     114.653  12.089  28.450  1.00  0.00    -0.000 C 
BRANCH  10  11
ATOM     11  C   UNL     1     115.241  13.339  29.125  1.00  0.00    -0.000 C 
BRANCH  11  12
ATOM     12  C   UNL     1     116.776  13.358  29.101  1.00  0.00    -0.000 C 
BRANCH  12  13
ATOM     13  C   UNL     1     117.297  14.630  28.421  1.00  0.00    -0.003 C 
ATOM     14  C   UNL     1     116.188  15.666  28.265  1.00  0.00     0.004 C 
ENDBRANCH  12  13
ENDBRANCH  11  12
ENDBRANCH  10  11
ENDBRANCH   9  10
ENDBRANCH   1   9
TORSDOF 10
ENDMDL
MODEL 5
REMARK VINA RESULT:    -1.602      2.384      3.791
REMARK INTER + INTRA:          -4.090
REMARK INTER:                  -2.720
REMARK INTRA:                  -1.370
REMARK UNBOUND:                -1.552
REMARK SMILES CCCCCCCCCCCC(=O)[O-]
REMARK SMILES IDX 7 1 8 2 9 3 10 4 11 5 12 6 13 7 14 8 6 9 5 10 4 11 3 12 2 13
REMARK SMILES IDX 1 14
REMARK H PARENT
REMARK Flexibility Score: inf
ROOT
ATOM      1  C   UNL     1     115.982  13.489  26.132  1.00  0.00     0.000 C 
ENDROOT
BRANCH   1   2
ATOM      2  C   UNL     1     116.441  14.017  24.758  1.00  0.00     0.000 C 
BRANCH   2   3
ATOM      3  C   UNL     1     116.139  15.505  24.490  1.00  0.00     0.000 C 
BRANCH   3   4
ATOM      4  C   UNL     1     117.202  16.244  23.658  1.00  0.00     0.006 C 
BRANCH   4   5
ATOM      5  C   UNL     1     117.923  15.324  22.663  1.00  0.00     0.053 C 
BRANCH   5   6
ATOM      6  C   UNL     1     119.336  15.774  22.466  1.00  0.00     0.041 C 
ATOM      7  O   UNL     1     119.930  15.542  21.381  1.00  0.00    -0.550 OA
ATOM      8  O   UNL     1     120.013  16.407  23.501  1.00  0.00    -0.550 OA
ENDBRANCH   5   6
ENDBRANCH   4   5
ENDBRANCH   3   4
ENDBRANCH   2   3
ENDBRANCH   1   2
BRANCH   1   9
ATOM      9  C   UNL     1     115.996  14.528  27.268  1.00  0.00     0.000 C 
BRANCH   9  10
ATOM     10  C   UNL     1     117.207  14.371  28.203  1.00  0.00    -0.000 C 
BRANCH  10  11
ATOM     11  C   UNL     1     117.974  15.689  28.401  1.00  0.00    -0.000 C 
BRANCH  11  12
ATOM     12  C   UNL     1     118.692  16.155  27.126  1.00  0.00    -0.000 C 
BRANCH  12  13
ATOM     13  C   UNL     1     118.494  17.659  26.904  1.00  0.00    -0.003 C 
ATOM     14  C   UNL     1     117.053  18.073  27.187  1.00  0.00     0.004 C 
ENDBRANCH  12  13
ENDBRANCH  11  12
ENDBRANCH  10  11
ENDBRANCH   9  10
ENDBRANCH   1   9
TORSDOF 10
ENDMDL
MODEL 6
REMARK VINA RESULT:    -1.594      3.153      5.828
REMARK INTER + INTRA:          -4.077
REMARK INTER:                  -2.480
REMARK INTRA:                  -1.597
REMARK UNBOUND:                -1.552
REMARK SMILES CCCCCCCCCCCC(=O)[O-]
REMARK SMILES IDX 7 1 8 2 9 3 10 4 11 5 12 6 13 7 14 8 6 9 5 10 4 11 3 12 2 13
REMARK SMILES IDX 1 14
REMARK H PARENT
REMARK Flexibility Score: inf
ROOT
ATOM      1  C   UNL     1     114.426  15.805  23.039  1.00  0.00     0.000 C 
ENDROOT
BRANCH   1   2
ATOM      2  C   UNL     1     114.988  15.871  24.474  1.00  0.00     0.000 C 
BRANCH   2   3
ATOM      3  C   UNL     1     114.948  14.543  25.257  1.00  0.00     0.000 C 
BRANCH   3   4
ATOM      4  C   UNL     1     116.272  14.152  25.938  1.00  0.00     0.006 C 
BRANCH   4   5
ATOM      5  C   UNL     1     117.130  15.368  26.310  1.00  0.00     0.053 C 
BRANCH   5   6
ATOM      6  C   UNL     1     117.693  15.206  27.687  1.00  0.00     0.041 C 
ATOM      7  O   UNL     1     117.206  14.352  28.474  1.00  0.00    -0.550 OA
ATOM      8  O   UNL     1     118.723  16.033  28.118  1.00  0.00    -0.550 OA
ENDBRANCH   5   6
ENDBRANCH   4   5
ENDBRANCH   3   4
ENDBRANCH   2   3
ENDBRANCH   1   2
BRANCH   1   9
ATOM      9  C   UNL     1     113.915  14.421  22.600  1.00  0.00     0.000 C 
BRANCH   9  10
ATOM     10  C   UNL     1     114.817  13.761  21.544  1.00  0.00    -0.000 C 
BRANCH  10  11
ATOM     11  C   UNL     1     115.629  12.585  22.113  1.00  0.00    -0.000 C 
BRANCH  11  12
ATOM     12  C   UNL     1     117.051  12.993  22.527  1.00  0.00    -0.000 C 
BRANCH  12  13
ATOM     13  C   UNL     1     117.559  14.158  21.669  1.00  0.00    -0.003 C 
ATOM     14  C   UNL     1     118.138  15.271  22.537  1.00  0.00     0.004 C 
ENDBRANCH  12  13
ENDBRANCH  11  12
ENDBRANCH  10  11
ENDBRANCH   9  10
ENDBRANCH   1   9
TORSDOF 10
ENDMDL
MODEL 7
REMARK VINA RESULT:    -1.573      3.234      5.990
REMARK INTER + INTRA:          -4.045
REMARK INTER:                  -2.936
REMARK INTRA:                  -1.109
REMARK UNBOUND:                -1.552
REMARK SMILES CCCCCCCCCCCC(=O)[O-]
REMARK SMILES IDX 7 1 8 2 9 3 10 4 11 5 12 6 13 7 14 8 6 9 5 10 4 11 3 12 2 13
REMARK SMILES IDX 1 14
REMARK H PARENT
REMARK Flexibility Score: inf
ROOT
ATOM      1  C   UNL     1     115.946  12.277  24.649  1.00  0.00     0.000 C 
ENDROOT
BRANCH   1   2
ATOM      2  C   UNL     1     115.897  13.365  25.741  1.00  0.00     0.000 C 
BRANCH   2   3
ATOM      3  C   UNL     1     115.534  14.779  25.244  1.00  0.00     0.000 C 
BRANCH   3   4
ATOM      4  C   UNL     1     116.128  15.930  26.075  1.00  0.00     0.006 C 
BRANCH   4   5
ATOM      5  C   UNL     1     117.612  15.721  26.405  1.00  0.00     0.053 C 
BRANCH   5   6
ATOM      6  C   UNL     1     117.814  15.674  27.887  1.00  0.00     0.041 C 
ATOM      7  O   UNL     1     116.891  15.267  28.640  1.00  0.00    -0.550 OA
ATOM      8  O   UNL     1     119.006  16.126  28.440  1.00  0.00    -0.550 OA
ENDBRANCH   5   6
ENDBRANCH   4   5
ENDBRANCH   3   4
ENDBRANCH   2   3
ENDBRANCH   1   2
BRANCH   1   9
ATOM      9  C   UNL     1     115.828  12.795  23.204  1.00  0.00     0.000 C 
BRANCH   9  10
ATOM     10  C   UNL     1     117.160  12.733  22.439  1.00  0.00    -0.000 C 
BRANCH  10  11
ATOM     11  C   UNL     1     117.212  13.723  21.263  1.00  0.00    -0.000 C 
BRANCH  11  12
ATOM     12  C   UNL     1     118.338  14.757  21.408  1.00  0.00    -0.000 C 
BRANCH  12  13
ATOM     13  C   UNL     1     118.053  15.718  22.569  1.00  0.00    -0.003 C 
ATOM     14  C   UNL     1     119.348  16.258  23.169  1.00  0.00     0.004 C 
ENDBRANCH  12  13
ENDBRANCH  11  12
ENDBRANCH  10  11
ENDBRANCH   9  10
ENDBRANCH   1   9
TORSDOF 10
ENDMDL
MODEL 8
REMARK VINA RESULT:    -1.514      3.318      5.082
REMARK INTER + INTRA:          -3.952
REMARK INTER:                  -2.269
REMARK INTRA:                  -1.682
REMARK UNBOUND:                -1.552
REMARK SMILES CCCCCCCCCCCC(=O)[O-]
REMARK SMILES IDX 7 1 8 2 9 3 10 4 11 5 12 6 13 7 14 8 6 9 5 10 4 11 3 12 2 13
REMARK SMILES IDX 1 14
REMARK H PARENT
REMARK Flexibility Score: inf
ROOT
ATOM      1  C   UNL     1     114.934  16.327  24.283  1.00  0.00     0.000 C 
ENDROOT
BRANCH   1   2
ATOM      2  C   UNL     1     115.487  16.807  25.641  1.00  0.00     0.000 C 
BRANCH   2   3
ATOM      3  C   UNL     1     115.413  15.773  26.783  1.00  0.00     0.000 C 
BRANCH   3   4
ATOM      4  C   UNL     1     116.765  15.159  27.189  1.00  0.00     0.006 C 
BRANCH   4   5
ATOM      5  C   UNL     1     117.964  15.930  26.621  1.00  0.00     0.053 C 
BRANCH   5   6
ATOM      6  C   UNL     1     118.684  16.651  27.715  1.00  0.00     0.041 C 
ATOM      7  O   UNL     1     119.091  17.830  27.537  1.00  0.00    -0.550 OA
ATOM      8  O   UNL     1     118.951  16.005  28.916  1.00  0.00    -0.550 OA
ENDBRANCH   5   6
ENDBRANCH   4   5
ENDBRANCH   3   4
ENDBRANCH   2   3
ENDBRANCH   1   2
BRANCH   1   9
ATOM      9  C   UNL     1     115.984  16.174  23.168  1.00  0.00     0.000 C 
BRANCH   9  10
ATOM     10  C   UNL     1     116.771  14.857  23.266  1.00  0.00    -0.000 C 
BRANCH  10  11
ATOM     11  C   UNL     1     115.853  13.629  23.394  1.00  0.00    -0.000 C 
BRANCH  11  12
ATOM     12  C   UNL     1     116.285  12.682  24.524  1.00  0.00    -0.000 C 
BRANCH  12  13
ATOM     13  C   UNL     1     115.092  12.314  25.415  1.00  0.00    -0.003 C 
ATOM     14  C   UNL     1     113.793  12.898  24.869  1.00  0.00     0.004 C 
ENDBRANCH  12  13
ENDBRANCH  11  12
ENDBRANCH  10  11
ENDBRANCH   9  10
ENDBRANCH   1   9
TORSDOF 10
ENDMDL
MODEL 9
REMARK VINA RESULT:    -1.508      2.979      4.951
REMARK INTER + INTRA:          -3.941
REMARK INTER:                  -2.432
REMARK INTRA:                  -1.509
REMARK UNBOUND:                -1.552
REMARK SMILES CCCCCCCCCCCC(=O)[O-]
REMARK SMILES IDX 7 1 8 2 9 3 10 4 11 5 12 6 13 7 14 8 6 9 5 10 4 11 3 12 2 13
REMARK SMILES IDX 1 14
REMARK H PARENT
REMARK Flexibility Score: inf
ROOT
ATOM      1  C   UNL     1     118.101  16.193  22.999  1.00  0.00     0.000 C 
ENDROOT
BRANCH   1   2
ATOM      2  C   UNL     1     117.253  17.230  23.763  1.00  0.00     0.000 C 
BRANCH   2   3
ATOM      3  C   UNL     1     117.196  17.034  25.291  1.00  0.00     0.000 C 
BRANCH   3   4
ATOM      4  C   UNL     1     118.274  16.098  25.866  1.00  0.00     0.006 C 
BRANCH   4   5
ATOM      5  C   UNL     1     118.545  16.348  27.356  1.00  0.00     0.053 C 
BRANCH   5   6
ATOM      6  C   UNL     1     117.561  15.599  28.197  1.00  0.00     0.041 C 
ATOM      7  O   UNL     1     117.403  14.360  28.038  1.00  0.00    -0.550 OA
ATOM      8  O   UNL     1     116.781  16.279  29.124  1.00  0.00    -0.550 OA
ENDBRANCH   5   6
ENDBRANCH   4   5
ENDBRANCH   3   4
ENDBRANCH   2   3
ENDBRANCH   1   2
BRANCH   1   9
ATOM      9  C   UNL     1     117.316  15.296  22.025  1.00  0.00     0.000 C 
BRANCH   9  10
ATOM     10  C   UNL     1     117.369  13.808  22.412  1.00  0.00    -0.000 C 
BRANCH  10  11
ATOM     11  C   UNL     1     116.111  13.348  23.165  1.00  0.00    -0.000 C 
BRANCH  11  12
ATOM     12  C   UNL     1     116.324  13.270  24.684  1.00  0.00    -0.000 C 
BRANCH  12  13
ATOM     13  C   UNL     1     115.122  13.854  25.437  1.00  0.00    -0.003 C 
ATOM     14  C   UNL     1     114.380  14.878  24.582  1.00  0.00     0.004 C 
ENDBRANCH  12  13
ENDBRANCH  11  12
ENDBRANCH  10  11
ENDBRANCH   9  10
ENDBRANCH   1   9
TORSDOF 10
ENDMDL
