MODEL 1
REMARK VINA RESULT:     3.008      0.000      0.000
REMARK INTER + INTRA:           7.147
REMARK INTER:                   4.414
REMARK INTRA:                   2.732
REMARK UNBOUND:                 2.732
REMARK SMILES O=c1c(O[C@H]2O[C@H](CO)[C@@H](O)[C@H](O)[C@H]2O)c(-c2ccc(O)c(O)c2)oc2cc(O)cc(O)c12
REMARK SMILES IDX 4 1 3 2 16 3 25 4 2 5 26 6 1 7 33 8 27 9 31 10 28 11 30 12
REMARK SMILES IDX 17 13 18 14 19 15 20 16 24 17 22 18 21 19 23 21 32 23 29 25
REMARK SMILES IDX 5 27 14 28 6 29 12 30 7 31 10 32 15 33 13 35 8 37 9 38 11 40
REMARK H PARENT 21 20 23 22 32 24 29 26 15 34 13 36 9 39 11 41
REMARK Flexibility Score: inf
ROOT
ATOM      1  O   UNL     1      13.781 -10.363  29.482  1.00  0.00    -0.454 OA
ENDROOT
BRANCH   1   2
ATOM      2  C   UNL     1      14.365 -11.429  28.776  1.00  0.00     0.214 A 
ATOM      3  C   UNL     1      14.841 -11.237  27.467  1.00  0.00     0.180 A 
ATOM      4  O   UNL     1      15.309 -12.262  26.762  1.00  0.00    -0.452 OA
ATOM      5  C   UNL     1      14.427 -12.725  29.319  1.00  0.00     0.239 A 
ATOM      6  C   UNL     1      15.379 -13.499  27.236  1.00  0.00     0.146 A 
ATOM      7  O   UNL     1      13.992 -12.934  30.481  1.00  0.00    -0.285 OA
ATOM      8  C   UNL     1      14.946 -13.788  28.550  1.00  0.00     0.111 A 
ATOM      9  C   UNL     1      15.890 -14.513  26.421  1.00  0.00     0.094 A 
ATOM     10  C   UNL     1      15.035 -15.119  29.026  1.00  0.00     0.134 A 
ATOM     11  C   UNL     1      15.975 -15.826  26.896  1.00  0.00     0.123 A 
ATOM     12  C   UNL     1      15.549 -16.123  28.192  1.00  0.00     0.093 A 
BRANCH   3  13
ATOM     13  C   UNL     1      14.873  -9.911  26.840  1.00  0.00     0.025 A 
ATOM     14  C   UNL     1      13.676  -9.222  26.610  1.00  0.00     0.016 A 
ATOM     15  C   UNL     1      13.705  -7.887  26.200  1.00  0.00     0.051 A 
ATOM     16  C   UNL     1      14.930  -7.238  25.985  1.00  0.00     0.157 A 
ATOM     17  C   UNL     1      16.099  -9.260  26.644  1.00  0.00     0.062 A 
ATOM     18  C   UNL     1      16.132  -7.932  26.205  1.00  0.00     0.158 A 
BRANCH  16  19
ATOM     19  O   UNL     1      14.954  -5.912  25.558  1.00  0.00    -0.504 OA
ATOM     20  H   UNL     1      14.890  -5.670  24.576  1.00  0.00     0.293 HD
ENDBRANCH  16  19
BRANCH  18  21
ATOM     21  O   UNL     1      17.368  -7.313  26.009  1.00  0.00    -0.504 OA
ATOM     22  H   UNL     1      18.103  -7.741  25.459  1.00  0.00     0.293 HD
ENDBRANCH  18  21
ENDBRANCH   3  13
BRANCH  10  23
ATOM     23  O   UNL     1      14.619 -15.450  30.317  1.00  0.00    -0.507 OA
ATOM     24  H   UNL     1      13.718 -15.880  30.492  1.00  0.00     0.293 HD
ENDBRANCH  10  23
BRANCH  11  25
ATOM     25  O   UNL     1      16.480 -16.842  26.088  1.00  0.00    -0.508 OA
ATOM     26  H   UNL     1      16.896 -17.676  26.486  1.00  0.00     0.293 HD
ENDBRANCH  11  25
ENDBRANCH   1   2
BRANCH   1  27
ATOM     27  C   UNL     1      12.439  -9.899  29.270  1.00  0.00     0.339 C 
ATOM     28  C   UNL     1      11.505 -10.250  30.451  1.00  0.00     0.214 C 
ATOM     29  O   UNL     1      11.915 -10.430  28.059  1.00  0.00    -0.332 OA
ATOM     30  C   UNL     1      11.393 -11.769  30.591  1.00  0.00     0.180 C 
ATOM     31  C   UNL     1      11.832 -11.854  28.086  1.00  0.00     0.179 C 
ATOM     32  C   UNL     1      10.936 -12.358  29.251  1.00  0.00     0.177 C 
BRANCH  28  33
ATOM     33  O   UNL     1      11.968  -9.700  31.653  1.00  0.00    -0.384 OA
ATOM     34  H   UNL     1      11.822 -10.386  32.355  1.00  0.00     0.211 HD
ENDBRANCH  28  33
BRANCH  30  35
ATOM     35  O   UNL     1      10.453 -12.095  31.582  1.00  0.00    -0.387 OA
ATOM     36  H   UNL     1      10.936 -12.092  32.450  1.00  0.00     0.211 HD
ENDBRANCH  30  35
BRANCH  31  37
ATOM     37  C   UNL     1      11.234 -12.332  26.752  1.00  0.00     0.191 C 
BRANCH  37  38
ATOM     38  O   UNL     1      11.604 -13.656  26.490  1.00  0.00    -0.394 OA
ATOM     39  H   UNL     1      10.758 -14.158  26.354  1.00  0.00     0.210 HD
ENDBRANCH  37  38
ENDBRANCH  31  37
BRANCH  32  40
ATOM     40  O   UNL     1      10.926 -13.764  29.312  1.00  0.00    -0.387 OA
ATOM     41  H   UNL     1      10.093 -14.039  29.778  1.00  0.00     0.211 HD
ENDBRANCH  32  40
ENDBRANCH   1  27
TORSDOF 12
ENDMDL
MODEL 2
REMARK VINA RESULT:     3.163      1.551      6.117
REMARK INTER + INTRA:           7.375
REMARK INTER:                   3.367
REMARK INTRA:                   4.009
REMARK UNBOUND:                 2.732
REMARK SMILES O=c1c(O[C@H]2O[C@H](CO)[C@@H](O)[C@H](O)[C@H]2O)c(-c2ccc(O)c(O)c2)oc2cc(O)cc(O)c12
REMARK SMILES IDX 4 1 3 2 16 3 25 4 2 5 26 6 1 7 33 8 27 9 31 10 28 11 30 12
REMARK SMILES IDX 17 13 18 14 19 15 20 16 24 17 22 18 21 19 23 21 32 23 29 25
REMARK SMILES IDX 5 27 14 28 6 29 12 30 7 31 10 32 15 33 13 35 8 37 9 38 11 40
REMARK H PARENT 21 20 23 22 32 24 29 26 15 34 13 36 9 39 11 41
REMARK Flexibility Score: inf
ROOT
ATOM      1  O   UNL     1      12.068 -12.508  28.604  1.00  0.00    -0.454 OA
ENDROOT
BRANCH   1   2
ATOM      2  C   UNL     1      13.068 -11.649  28.116  1.00  0.00     0.214 A 
ATOM      3  C   UNL     1      14.425 -11.987  28.262  1.00  0.00     0.180 A 
ATOM      4  O   UNL     1      15.375 -11.137  27.887  1.00  0.00    -0.452 OA
ATOM      5  C   UNL     1      12.753 -10.406  27.540  1.00  0.00     0.239 A 
ATOM      6  C   UNL     1      15.120  -9.954  27.345  1.00  0.00     0.146 A 
ATOM      7  O   UNL     1      11.549 -10.066  27.414  1.00  0.00    -0.285 OA
ATOM      8  C   UNL     1      13.786  -9.534  27.136  1.00  0.00     0.111 A 
ATOM      9  C   UNL     1      16.186  -9.127  26.977  1.00  0.00     0.094 A 
ATOM     10  C   UNL     1      13.548  -8.265  26.554  1.00  0.00     0.134 A 
ATOM     11  C   UNL     1      15.944  -7.875  26.403  1.00  0.00     0.123 A 
ATOM     12  C   UNL     1      14.631  -7.449  26.195  1.00  0.00     0.093 A 
BRANCH   3  13
ATOM     13  C   UNL     1      14.849 -13.286  28.795  1.00  0.00     0.025 A 
ATOM     14  C   UNL     1      14.927 -13.477  30.180  1.00  0.00     0.016 A 
ATOM     15  C   UNL     1      15.135 -14.756  30.699  1.00  0.00     0.051 A 
ATOM     16  C   UNL     1      15.299 -15.852  29.840  1.00  0.00     0.157 A 
ATOM     17  C   UNL     1      14.993 -14.382  27.933  1.00  0.00     0.062 A 
ATOM     18  C   UNL     1      15.230 -15.661  28.449  1.00  0.00     0.158 A 
BRANCH  16  19
ATOM     19  O   UNL     1      15.524 -17.125  30.362  1.00  0.00    -0.504 OA
ATOM     20  H   UNL     1      14.805 -17.623  30.873  1.00  0.00     0.293 HD
ENDBRANCH  16  19
BRANCH  18  21
ATOM     21  O   UNL     1      15.380 -16.732  27.566  1.00  0.00    -0.504 OA
ATOM     22  H   UNL     1      15.736 -16.608  26.626  1.00  0.00     0.293 HD
ENDBRANCH  18  21
ENDBRANCH   3  13
BRANCH  10  23
ATOM     23  O   UNL     1      12.247  -7.810  26.331  1.00  0.00    -0.507 OA
ATOM     24  H   UNL     1      11.592  -7.674  27.093  1.00  0.00     0.293 HD
ENDBRANCH  10  23
BRANCH  11  25
ATOM     25  O   UNL     1      17.002  -7.046  26.039  1.00  0.00    -0.508 OA
ATOM     26  H   UNL     1      17.921  -7.420  25.834  1.00  0.00     0.293 HD
ENDBRANCH  11  25
ENDBRANCH   1   2
BRANCH   1  27
ATOM     27  C   UNL     1      11.511 -12.425  29.926  1.00  0.00     0.339 C 
ATOM     28  C   UNL     1      10.388 -11.367  30.021  1.00  0.00     0.214 C 
ATOM     29  O   UNL     1      12.530 -12.143  30.876  1.00  0.00    -0.332 OA
ATOM     30  C   UNL     1      10.957  -9.978  29.731  1.00  0.00     0.180 C 
ATOM     31  C   UNL     1      13.154 -10.882  30.640  1.00  0.00     0.179 C 
ATOM     32  C   UNL     1      12.131  -9.714  30.682  1.00  0.00     0.177 C 
BRANCH  28  33
ATOM     33  O   UNL     1       9.344 -11.644  29.130  1.00  0.00    -0.384 OA
ATOM     34  H   UNL     1       9.762 -11.813  28.245  1.00  0.00     0.211 HD
ENDBRANCH  28  33
BRANCH  30  35
ATOM     35  O   UNL     1       9.970  -9.000  29.935  1.00  0.00    -0.387 OA
ATOM     36  H   UNL     1       9.108  -9.393  29.637  1.00  0.00     0.211 HD
ENDBRANCH  30  35
BRANCH  31  37
ATOM     37  C   UNL     1      14.218 -10.654  31.727  1.00  0.00     0.191 C 
BRANCH  37  38
ATOM     38  O   UNL     1      13.668  -9.985  32.827  1.00  0.00    -0.394 OA
ATOM     39  H   UNL     1      12.721 -10.282  32.885  1.00  0.00     0.210 HD
ENDBRANCH  37  38
ENDBRANCH  31  37
BRANCH  32  40
ATOM     40  O   UNL     1      12.747  -8.487  30.370  1.00  0.00    -0.387 OA
ATOM     41  H   UNL     1      12.928  -8.482  29.393  1.00  0.00     0.211 HD
ENDBRANCH  32  40
ENDBRANCH   1  27
TORSDOF 12
ENDMDL
MODEL 3
REMARK VINA RESULT:     4.600      5.368      9.903
REMARK INTER + INTRA:           9.484
REMARK INTER:                   8.340
REMARK INTRA:                   1.144
REMARK UNBOUND:                 2.732
REMARK SMILES O=c1c(O[C@H]2O[C@H](CO)[C@@H](O)[C@H](O)[C@H]2O)c(-c2ccc(O)c(O)c2)oc2cc(O)cc(O)c12
REMARK SMILES IDX 4 1 3 2 16 3 25 4 2 5 26 6 1 7 33 8 27 9 31 10 28 11 30 12
REMARK SMILES IDX 17 13 18 14 19 15 20 16 24 17 22 18 21 19 23 21 32 23 29 25
REMARK SMILES IDX 5 27 14 28 6 29 12 30 7 31 10 32 15 33 13 35 8 37 9 38 11 40
REMARK H PARENT 21 20 23 22 32 24 29 26 15 34 13 36 9 39 11 41
REMARK Flexibility Score: inf
ROOT
ATOM      1  O   UNL     1      17.881  -2.744  26.340  1.00  0.00    -0.454 OA
ENDROOT
BRANCH   1   2
ATOM      2  C   UNL     1      16.812  -3.656  26.300  1.00  0.00     0.214 A 
ATOM      3  C   UNL     1      15.486  -3.200  26.400  1.00  0.00     0.180 A 
ATOM      4  O   UNL     1      14.478  -4.064  26.455  1.00  0.00    -0.452 OA
ATOM      5  C   UNL     1      17.031  -5.044  26.233  1.00  0.00     0.239 A 
ATOM      6  C   UNL     1      14.643  -5.379  26.401  1.00  0.00     0.146 A 
ATOM      7  O   UNL     1      18.208  -5.485  26.163  1.00  0.00    -0.285 OA
ATOM      8  C   UNL     1      15.937  -5.934  26.277  1.00  0.00     0.111 A 
ATOM      9  C   UNL     1      13.522  -6.211  26.463  1.00  0.00     0.094 A 
ATOM     10  C   UNL     1      16.080  -7.342  26.220  1.00  0.00     0.134 A 
ATOM     11  C   UNL     1      13.668  -7.600  26.406  1.00  0.00     0.123 A 
ATOM     12  C   UNL     1      14.942  -8.159  26.286  1.00  0.00     0.093 A 
BRANCH   3  13
ATOM     13  C   UNL     1      15.156  -1.771  26.414  1.00  0.00     0.025 A 
ATOM     14  C   UNL     1      15.246  -1.048  27.610  1.00  0.00     0.016 A 
ATOM     15  C   UNL     1      15.128   0.343  27.596  1.00  0.00     0.051 A 
ATOM     16  C   UNL     1      14.888   1.023  26.394  1.00  0.00     0.157 A 
ATOM     17  C   UNL     1      14.935  -1.093  25.207  1.00  0.00     0.062 A 
ATOM     18  C   UNL     1      14.787   0.299  25.193  1.00  0.00     0.158 A 
BRANCH  16  19
ATOM     19  O   UNL     1      14.753   2.411  26.388  1.00  0.00    -0.504 OA
ATOM     20  H   UNL     1      15.519   3.016  26.117  1.00  0.00     0.293 HD
ENDBRANCH  16  19
BRANCH  18  21
ATOM     21  O   UNL     1      14.557   0.945  23.978  1.00  0.00    -0.504 OA
ATOM     22  H   UNL     1      15.215   0.897  23.210  1.00  0.00     0.293 HD
ENDBRANCH  18  21
ENDBRANCH   3  13
BRANCH  10  23
ATOM     23  O   UNL     1      17.339  -7.933  26.099  1.00  0.00    -0.507 OA
ATOM     24  H   UNL     1      17.866  -8.233  26.910  1.00  0.00     0.293 HD
ENDBRANCH  10  23
BRANCH  11  25
ATOM     25  O   UNL     1      12.555  -8.434  26.472  1.00  0.00    -0.508 OA
ATOM     26  H   UNL     1      12.194  -8.901  25.647  1.00  0.00     0.293 HD
ENDBRANCH  11  25
ENDBRANCH   1   2
BRANCH   1  27
ATOM     27  C   UNL     1      18.097  -1.807  27.407  1.00  0.00     0.339 C 
ATOM     28  C   UNL     1      19.601  -1.570  27.681  1.00  0.00     0.214 C 
ATOM     29  O   UNL     1      17.448  -2.247  28.594  1.00  0.00    -0.332 OA
ATOM     30  C   UNL     1      20.256  -2.873  28.144  1.00  0.00     0.180 C 
ATOM     31  C   UNL     1      17.965  -3.491  29.062  1.00  0.00     0.179 C 
ATOM     32  C   UNL     1      19.488  -3.410  29.358  1.00  0.00     0.177 C 
BRANCH  28  33
ATOM     33  O   UNL     1      20.261  -1.089  26.543  1.00  0.00    -0.384 OA
ATOM     34  H   UNL     1      20.898  -1.797  26.264  1.00  0.00     0.211 HD
ENDBRANCH  28  33
BRANCH  30  35
ATOM     35  O   UNL     1      21.591  -2.637  28.510  1.00  0.00    -0.387 OA
ATOM     36  H   UNL     1      21.794  -3.245  29.269  1.00  0.00     0.211 HD
ENDBRANCH  30  35
BRANCH  31  37
ATOM     37  C   UNL     1      17.223  -3.871  30.355  1.00  0.00     0.191 C 
BRANCH  37  38
ATOM     38  O   UNL     1      17.196  -2.791  31.245  1.00  0.00    -0.394 OA
ATOM     39  H   UNL     1      16.443  -2.212  30.955  1.00  0.00     0.210 HD
ENDBRANCH  37  38
ENDBRANCH  31  37
BRANCH  32  40
ATOM     40  O   UNL     1      19.998  -4.664  29.743  1.00  0.00    -0.387 OA
ATOM     41  H   UNL     1      20.360  -4.571  30.663  1.00  0.00     0.211 HD
ENDBRANCH  32  40
ENDBRANCH   1  27
TORSDOF 12
ENDMDL
MODEL 4
REMARK VINA RESULT:     5.421      1.356      2.793
REMARK INTER + INTRA:          10.689
REMARK INTER:                  10.985
REMARK INTRA:                  -0.296
REMARK UNBOUND:                 2.732
REMARK SMILES O=c1c(O[C@H]2O[C@H](CO)[C@@H](O)[C@H](O)[C@H]2O)c(-c2ccc(O)c(O)c2)oc2cc(O)cc(O)c12
REMARK SMILES IDX 4 1 3 2 16 3 25 4 2 5 26 6 1 7 33 8 27 9 31 10 28 11 30 12
REMARK SMILES IDX 17 13 18 14 19 15 20 16 24 17 22 18 21 19 23 21 32 23 29 25
REMARK SMILES IDX 5 27 14 28 6 29 12 30 7 31 10 32 15 33 13 35 8 37 9 38 11 40
REMARK H PARENT 21 20 23 22 32 24 29 26 15 34 13 36 9 39 11 41
REMARK Flexibility Score: inf
ROOT
ATOM      1  O   UNL     1      13.871 -11.179  29.703  1.00  0.00    -0.454 OA
ENDROOT
BRANCH   1   2
ATOM      2  C   UNL     1      14.439 -12.135  28.841  1.00  0.00     0.214 A 
ATOM      3  C   UNL     1      14.743 -11.798  27.511  1.00  0.00     0.180 A 
ATOM      4  O   UNL     1      15.193 -12.721  26.668  1.00  0.00    -0.452 OA
ATOM      5  C   UNL     1      14.650 -13.463  29.253  1.00  0.00     0.239 A 
ATOM      6  C   UNL     1      15.401 -13.984  27.016  1.00  0.00     0.146 A 
ATOM      7  O   UNL     1      14.369 -13.800  30.432  1.00  0.00    -0.285 OA
ATOM      8  C   UNL     1      15.146 -14.414  28.337  1.00  0.00     0.111 A 
ATOM      9  C   UNL     1      15.880 -14.885  26.060  1.00  0.00     0.094 A 
ATOM     10  C   UNL     1      15.379 -15.770  28.677  1.00  0.00     0.134 A 
ATOM     11  C   UNL     1      16.108 -16.221  26.400  1.00  0.00     0.123 A 
ATOM     12  C   UNL     1      15.858 -16.658  27.702  1.00  0.00     0.093 A 
BRANCH   3  13
ATOM     13  C   UNL     1      14.613 -10.426  27.009  1.00  0.00     0.025 A 
ATOM     14  C   UNL     1      13.366  -9.790  27.038  1.00  0.00     0.016 A 
ATOM     15  C   UNL     1      13.268  -8.427  26.750  1.00  0.00     0.051 A 
ATOM     16  C   UNL     1      14.410  -7.693  26.399  1.00  0.00     0.157 A 
ATOM     17  C   UNL     1      15.760  -9.691  26.677  1.00  0.00     0.062 A 
ATOM     18  C   UNL     1      15.662  -8.332  26.359  1.00  0.00     0.158 A 
BRANCH  16  19
ATOM     19  O   UNL     1      14.306  -6.337  26.095  1.00  0.00    -0.504 OA
ATOM     20  H   UNL     1      14.903  -5.903  25.401  1.00  0.00     0.293 HD
ENDBRANCH  16  19
BRANCH  18  21
ATOM     21  O   UNL     1      16.820  -7.628  26.022  1.00  0.00    -0.504 OA
ATOM     22  H   UNL     1      17.707  -8.093  25.873  1.00  0.00     0.293 HD
ENDBRANCH  18  21
ENDBRANCH   3  13
BRANCH  10  23
ATOM     23  O   UNL     1      15.140 -16.238  29.969  1.00  0.00    -0.507 OA
ATOM     24  H   UNL     1      15.842 -16.173  30.698  1.00  0.00     0.293 HD
ENDBRANCH  10  23
BRANCH  11  25
ATOM     25  O   UNL     1      16.581 -17.125  25.451  1.00  0.00    -0.508 OA
ATOM     26  H   UNL     1      15.949 -17.634  24.845  1.00  0.00     0.293 HD
ENDBRANCH  11  25
ENDBRANCH   1   2
BRANCH   1  27
ATOM     27  C   UNL     1      13.078 -11.506  30.854  1.00  0.00     0.339 C 
ATOM     28  C   UNL     1      11.583 -11.687  30.502  1.00  0.00     0.214 C 
ATOM     29  O   UNL     1      13.226 -10.511  31.859  1.00  0.00    -0.332 OA
ATOM     30  C   UNL     1      11.011 -10.370  29.975  1.00  0.00     0.180 C 
ATOM     31  C   UNL     1      12.766  -9.233  31.424  1.00  0.00     0.179 C 
ATOM     32  C   UNL     1      11.270  -9.267  31.009  1.00  0.00     0.177 C 
BRANCH  28  33
ATOM     33  O   UNL     1      11.397 -12.696  29.549  1.00  0.00    -0.384 OA
ATOM     34  H   UNL     1      11.341 -12.246  28.666  1.00  0.00     0.211 HD
ENDBRANCH  28  33
BRANCH  30  35
ATOM     35  O   UNL     1       9.627 -10.493  29.769  1.00  0.00    -0.387 OA
ATOM     36  H   UNL     1       9.278  -9.579  29.596  1.00  0.00     0.211 HD
ENDBRANCH  30  35
BRANCH  31  37
ATOM     37  C   UNL     1      12.943  -8.233  32.579  1.00  0.00     0.191 C 
BRANCH  37  38
ATOM     38  O   UNL     1      14.231  -8.322  33.119  1.00  0.00    -0.394 OA
ATOM     39  H   UNL     1      14.257  -9.172  33.633  1.00  0.00     0.210 HD
ENDBRANCH  37  38
ENDBRANCH  31  37
BRANCH  32  40
ATOM     40  O   UNL     1      10.852  -8.020  30.509  1.00  0.00    -0.387 OA
ATOM     41  H   UNL     1       9.993  -7.791  30.952  1.00  0.00     0.211 HD
ENDBRANCH  32  40
ENDBRANCH   1  27
TORSDOF 12
ENDMDL
MODEL 5
REMARK VINA RESULT:     5.544      6.085     11.875
REMARK INTER + INTRA:          10.870
REMARK INTER:                   7.780
REMARK INTRA:                   3.089
REMARK UNBOUND:                 2.732
REMARK SMILES O=c1c(O[C@H]2O[C@H](CO)[C@@H](O)[C@H](O)[C@H]2O)c(-c2ccc(O)c(O)c2)oc2cc(O)cc(O)c12
REMARK SMILES IDX 4 1 3 2 16 3 25 4 2 5 26 6 1 7 33 8 27 9 31 10 28 11 30 12
REMARK SMILES IDX 17 13 18 14 19 15 20 16 24 17 22 18 21 19 23 21 32 23 29 25
REMARK SMILES IDX 5 27 14 28 6 29 12 30 7 31 10 32 15 33 13 35 8 37 9 38 11 40
REMARK H PARENT 21 20 23 22 32 24 29 26 15 34 13 36 9 39 11 41
REMARK Flexibility Score: inf
ROOT
ATOM      1  O   UNL     1      16.931  -3.224  28.366  1.00  0.00    -0.454 OA
ENDROOT
BRANCH   1   2
ATOM      2  C   UNL     1      16.260  -2.354  27.489  1.00  0.00     0.214 A 
ATOM      3  C   UNL     1      15.633  -2.855  26.335  1.00  0.00     0.180 A 
ATOM      4  O   UNL     1      15.079  -2.028  25.456  1.00  0.00    -0.452 OA
ATOM      5  C   UNL     1      16.257  -0.962  27.693  1.00  0.00     0.239 A 
ATOM      6  C   UNL     1      15.058  -0.711  25.609  1.00  0.00     0.146 A 
ATOM      7  O   UNL     1      16.827  -0.481  28.705  1.00  0.00    -0.285 OA
ATOM      8  C   UNL     1      15.643  -0.113  26.748  1.00  0.00     0.111 A 
ATOM      9  C   UNL     1      14.448   0.081  24.631  1.00  0.00     0.094 A 
ATOM     10  C   UNL     1      15.604   1.297  26.882  1.00  0.00     0.134 A 
ATOM     11  C   UNL     1      14.412   1.472  24.768  1.00  0.00     0.123 A 
ATOM     12  C   UNL     1      14.989   2.073  25.889  1.00  0.00     0.093 A 
BRANCH   3  13
ATOM     13  C   UNL     1      15.534  -4.294  26.069  1.00  0.00     0.025 A 
ATOM     14  C   UNL     1      16.700  -5.055  25.915  1.00  0.00     0.016 A 
ATOM     15  C   UNL     1      16.623  -6.448  25.860  1.00  0.00     0.051 A 
ATOM     16  C   UNL     1      15.380  -7.094  25.926  1.00  0.00     0.157 A 
ATOM     17  C   UNL     1      14.291  -4.937  26.154  1.00  0.00     0.062 A 
ATOM     18  C   UNL     1      14.208  -6.331  26.070  1.00  0.00     0.158 A 
BRANCH  16  19
ATOM     19  O   UNL     1      15.307  -8.484  25.853  1.00  0.00    -0.504 OA
ATOM     20  H   UNL     1      14.707  -9.016  26.472  1.00  0.00     0.293 HD
ENDBRANCH  16  19
BRANCH  18  21
ATOM     21  O   UNL     1      12.955  -6.942  26.148  1.00  0.00    -0.504 OA
ATOM     22  H   UNL     1      12.758  -7.825  25.692  1.00  0.00     0.293 HD
ENDBRANCH  18  21
ENDBRANCH   3  13
BRANCH  10  23
ATOM     23  O   UNL     1      16.170   1.929  27.990  1.00  0.00    -0.507 OA
ATOM     24  H   UNL     1      15.750   2.753  28.405  1.00  0.00     0.293 HD
ENDBRANCH  10  23
BRANCH  11  25
ATOM     25  O   UNL     1      13.809   2.266  23.796  1.00  0.00    -0.508 OA
ATOM     26  H   UNL     1      12.835   2.537  23.864  1.00  0.00     0.293 HD
ENDBRANCH  11  25
ENDBRANCH   1   2
BRANCH   1  27
ATOM     27  C   UNL     1      18.066  -4.021  27.995  1.00  0.00     0.339 C 
ATOM     28  C   UNL     1      19.263  -3.816  28.953  1.00  0.00     0.214 C 
ATOM     29  O   UNL     1      18.457  -3.737  26.658  1.00  0.00    -0.332 OA
ATOM     30  C   UNL     1      19.743  -2.366  28.881  1.00  0.00     0.180 C 
ATOM     31  C   UNL     1      18.867  -2.381  26.493  1.00  0.00     0.179 C 
ATOM     32  C   UNL     1      20.060  -2.020  27.421  1.00  0.00     0.177 C 
BRANCH  28  33
ATOM     33  O   UNL     1      18.924  -4.136  30.274  1.00  0.00    -0.384 OA
ATOM     34  H   UNL     1      18.058  -3.688  30.461  1.00  0.00     0.211 HD
ENDBRANCH  28  33
BRANCH  30  35
ATOM     35  O   UNL     1      20.904  -2.204  29.656  1.00  0.00    -0.387 OA
ATOM     36  H   UNL     1      20.669  -1.594  30.404  1.00  0.00     0.211 HD
ENDBRANCH  30  35
BRANCH  31  37
ATOM     37  C   UNL     1      19.293  -2.176  25.029  1.00  0.00     0.191 C 
BRANCH  37  38
ATOM     38  O   UNL     1      19.070  -0.853  24.629  1.00  0.00    -0.394 OA
ATOM     39  H   UNL     1      18.112  -0.666  24.813  1.00  0.00     0.210 HD
ENDBRANCH  37  38
ENDBRANCH  31  37
BRANCH  32  40
ATOM     40  O   UNL     1      20.402  -0.660  27.304  1.00  0.00    -0.387 OA
ATOM     41  H   UNL     1      19.601  -0.127  27.551  1.00  0.00     0.211 HD
ENDBRANCH  32  40
ENDBRANCH   1  27
TORSDOF 12
ENDMDL
