MODEL 1
REMARK VINA RESULT:    -7.473      0.000      0.000
REMARK INTER + INTRA:          -8.224
REMARK INTER:                  -8.129
REMARK INTRA:                  -0.096
REMARK UNBOUND:                -0.096
REMARK SMILES CC(=O)[C@@H]1CC[C@H]2[C@@H]3CC=C4C[C@H](O)CC[C@@]4(C)[C@@H]3CC[C@@]12C
REMARK SMILES IDX 4 1 5 2 6 3 7 4 22 5 21 6 20 7 19 8 8 9 9 10 10 11 11 12
REMARK SMILES IDX 17 13 16 14 15 15 13 16 12 17 18 18 23 19 2 20 1 21 3 22
REMARK SMILES IDX 14 23
REMARK H PARENT 14 24
REMARK Flexibility Score: inf
ROOT
ATOM      1  C   UNL     1     173.409 176.861 173.625  1.00  0.00     0.062 C 
ATOM      2  C   UNL     1     174.409 176.075 172.786  1.00  0.00     0.012 C 
ATOM      3  C   UNL     1     174.923 174.986 173.714  1.00  0.00     0.005 C 
ATOM      4  C   UNL     1     173.843 174.756 174.802  1.00  0.00    -0.001 C 
ATOM      5  C   UNL     1     172.713 175.793 174.507  1.00  0.00    -0.020 C 
ATOM      6  C   UNL     1     172.141 176.430 175.801  1.00  0.00     0.008 C 
ATOM      7  C   UNL     1     171.978 175.388 176.907  1.00  0.00     0.005 C 
ATOM      8  C   UNL     1     173.349 174.839 177.386  1.00  0.00     0.003 C 
ATOM      9  C   UNL     1     174.441 174.856 176.245  1.00  0.00     0.000 C 
ATOM     10  C   UNL     1     175.571 173.802 176.440  1.00  0.00     0.031 C 
ATOM     11  C   UNL     1     175.750 173.373 177.863  1.00  0.00    -0.027 C 
ATOM     12  C   UNL     1     174.710 173.198 178.703  1.00  0.00    -0.065 C 
ATOM     13  C   UNL     1     173.277 173.483 178.197  1.00  0.00    -0.008 C 
ATOM     14  C   UNL     1     172.244 173.573 179.377  1.00  0.00     0.014 C 
ATOM     15  C   UNL     1     172.850 174.029 180.700  1.00  0.00     0.033 C 
ATOM     16  C   UNL     1     173.910 173.031 181.163  1.00  0.00     0.118 C 
ATOM     17  C   UNL     1     175.073 172.942 180.160  1.00  0.00     0.063 C 
ATOM     18  C   UNL     1     172.818 172.300 177.302  1.00  0.00     0.016 C 
ATOM     19  C   UNL     1     171.564 175.091 173.725  1.00  0.00     0.012 C 
ENDROOT
BRANCH   1  20
ATOM     20  C   UNL     1     172.464 177.760 172.841  1.00  0.00     0.133 C 
ATOM     21  C   UNL     1     172.318 177.677 171.348  1.00  0.00     0.088 C 
ATOM     22  O   UNL     1     171.806 178.591 173.448  1.00  0.00    -0.300 OA
ENDBRANCH   1  20
BRANCH  16  23
ATOM     23  O   UNL     1     173.343 171.770 181.433  1.00  0.00    -0.393 OA
ATOM     24  H   UNL     1     174.075 171.125 181.620  1.00  0.00     0.210 HD
ENDBRANCH  16  23
TORSDOF 2
ENDMDL
MODEL 2
REMARK VINA RESULT:    -7.465      3.591      5.402
REMARK INTER + INTRA:          -8.215
REMARK INTER:                  -8.117
REMARK INTRA:                  -0.099
REMARK UNBOUND:                -0.096
REMARK SMILES CC(=O)[C@@H]1CC[C@H]2[C@@H]3CC=C4C[C@H](O)CC[C@@]4(C)[C@@H]3CC[C@@]12C
REMARK SMILES IDX 4 1 5 2 6 3 7 4 22 5 21 6 20 7 19 8 8 9 9 10 10 11 11 12
REMARK SMILES IDX 17 13 16 14 15 15 13 16 12 17 18 18 23 19 2 20 1 21 3 22
REMARK SMILES IDX 14 23
REMARK H PARENT 14 24
REMARK Flexibility Score: inf
ROOT
ATOM      1  C   UNL     1     172.979 169.529 173.624  1.00  0.00     0.062 C 
ATOM      2  C   UNL     1     171.991 170.331 172.785  1.00  0.00     0.012 C 
ATOM      3  C   UNL     1     171.485 171.419 173.719  1.00  0.00     0.005 C 
ATOM      4  C   UNL     1     172.561 171.630 174.813  1.00  0.00    -0.001 C 
ATOM      5  C   UNL     1     173.682 170.583 174.516  1.00  0.00    -0.020 C 
ATOM      6  C   UNL     1     174.242 169.931 175.808  1.00  0.00     0.008 C 
ATOM      7  C   UNL     1     174.410 170.963 176.922  1.00  0.00     0.005 C 
ATOM      8  C   UNL     1     173.043 171.523 177.399  1.00  0.00     0.003 C 
ATOM      9  C   UNL     1     171.956 171.525 176.253  1.00  0.00     0.000 C 
ATOM     10  C   UNL     1     170.836 172.590 176.450  1.00  0.00     0.031 C 
ATOM     11  C   UNL     1     170.655 173.011 177.876  1.00  0.00    -0.027 C 
ATOM     12  C   UNL     1     171.693 173.169 178.721  1.00  0.00    -0.065 C 
ATOM     13  C   UNL     1     173.125 172.873 178.220  1.00  0.00    -0.008 C 
ATOM     14  C   UNL     1     174.152 172.763 179.404  1.00  0.00     0.014 C 
ATOM     15  C   UNL     1     173.535 172.304 180.721  1.00  0.00     0.033 C 
ATOM     16  C   UNL     1     172.484 173.310 181.186  1.00  0.00     0.118 C 
ATOM     17  C   UNL     1     171.326 173.419 180.178  1.00  0.00     0.063 C 
ATOM     18  C   UNL     1     173.601 174.057 177.336  1.00  0.00     0.016 C 
ATOM     19  C   UNL     1     174.843 171.278 173.744  1.00  0.00     0.012 C 
ENDROOT
BRANCH   1  20
ATOM     20  C   UNL     1     173.918 168.625 172.837  1.00  0.00     0.133 C 
ATOM     21  C   UNL     1     174.102 168.744 171.350  1.00  0.00     0.088 C 
ATOM     22  O   UNL     1     174.540 167.761 173.437  1.00  0.00    -0.300 OA
ENDBRANCH   1  20
BRANCH  16  23
ATOM     23  O   UNL     1     173.063 174.563 181.468  1.00  0.00    -0.393 OA
ATOM     24  H   UNL     1     173.121 175.083 180.624  1.00  0.00     0.210 HD
ENDBRANCH  16  23
TORSDOF 2
ENDMDL
MODEL 3
REMARK VINA RESULT:    -6.568      1.775      6.926
REMARK INTER + INTRA:          -7.240
REMARK INTER:                  -7.331
REMARK INTRA:                   0.091
REMARK UNBOUND:                -0.096
REMARK SMILES CC(=O)[C@@H]1CC[C@H]2[C@@H]3CC=C4C[C@H](O)CC[C@@]4(C)[C@@H]3CC[C@@]12C
REMARK SMILES IDX 4 1 5 2 6 3 7 4 22 5 21 6 20 7 19 8 8 9 9 10 10 11 11 12
REMARK SMILES IDX 17 13 16 14 15 15 13 16 12 17 18 18 23 19 2 20 1 21 3 22
REMARK SMILES IDX 14 23
REMARK H PARENT 14 24
REMARK Flexibility Score: inf
ROOT
ATOM      1  C   UNL     1     173.270 172.937 178.589  1.00  0.00     0.062 C 
ATOM      2  C   UNL     1     173.398 171.581 177.905  1.00  0.00     0.012 C 
ATOM      3  C   UNL     1     172.787 171.784 176.527  1.00  0.00     0.005 C 
ATOM      4  C   UNL     1     172.877 173.295 176.198  1.00  0.00    -0.001 C 
ATOM      5  C   UNL     1     173.505 173.970 177.459  1.00  0.00    -0.020 C 
ATOM      6  C   UNL     1     172.835 175.327 177.800  1.00  0.00     0.008 C 
ATOM      7  C   UNL     1     172.551 176.139 176.537  1.00  0.00     0.005 C 
ATOM      8  C   UNL     1     171.481 175.457 175.642  1.00  0.00     0.003 C 
ATOM      9  C   UNL     1     171.486 173.883 175.784  1.00  0.00     0.000 C 
ATOM     10  C   UNL     1     170.930 173.138 174.535  1.00  0.00     0.031 C 
ATOM     11  C   UNL     1     170.008 173.973 173.701  1.00  0.00    -0.027 C 
ATOM     12  C   UNL     1     170.216 175.287 173.487  1.00  0.00    -0.065 C 
ATOM     13  C   UNL     1     171.432 175.975 174.149  1.00  0.00    -0.008 C 
ATOM     14  C   UNL     1     171.325 177.542 174.088  1.00  0.00     0.014 C 
ATOM     15  C   UNL     1     169.895 178.066 174.042  1.00  0.00     0.033 C 
ATOM     16  C   UNL     1     169.190 177.562 172.784  1.00  0.00     0.118 C 
ATOM     17  C   UNL     1     169.091 176.026 172.774  1.00  0.00     0.063 C 
ATOM     18  C   UNL     1     172.714 175.592 173.363  1.00  0.00     0.016 C 
ATOM     19  C   UNL     1     175.028 174.192 177.217  1.00  0.00     0.012 C 
ENDROOT
BRANCH   1  20
ATOM     20  C   UNL     1     174.140 173.128 179.824  1.00  0.00     0.133 C 
ATOM     21  C   UNL     1     173.640 173.800 181.072  1.00  0.00     0.088 C 
ATOM     22  O   UNL     1     175.294 172.729 179.796  1.00  0.00    -0.300 OA
ENDBRANCH   1  20
BRANCH  16  23
ATOM     23  O   UNL     1     169.804 178.063 171.618  1.00  0.00    -0.393 OA
ATOM     24  H   UNL     1     170.761 178.239 171.813  1.00  0.00     0.210 HD
ENDBRANCH  16  23
TORSDOF 2
ENDMDL
MODEL 4
REMARK VINA RESULT:    -6.553      3.981      6.620
REMARK INTER + INTRA:          -7.223
REMARK INTER:                  -7.314
REMARK INTRA:                   0.091
REMARK UNBOUND:                -0.096
REMARK SMILES CC(=O)[C@@H]1CC[C@H]2[C@@H]3CC=C4C[C@H](O)CC[C@@]4(C)[C@@H]3CC[C@@]12C
REMARK SMILES IDX 4 1 5 2 6 3 7 4 22 5 21 6 20 7 19 8 8 9 9 10 10 11 11 12
REMARK SMILES IDX 17 13 16 14 15 15 13 16 12 17 18 18 23 19 2 20 1 21 3 22
REMARK SMILES IDX 14 23
REMARK H PARENT 14 24
REMARK Flexibility Score: inf
ROOT
ATOM      1  C   UNL     1     173.122 173.441 178.490  1.00  0.00     0.062 C 
ATOM      2  C   UNL     1     172.984 174.781 177.775  1.00  0.00     0.012 C 
ATOM      3  C   UNL     1     173.583 174.548 176.397  1.00  0.00     0.005 C 
ATOM      4  C   UNL     1     173.496 173.029 176.103  1.00  0.00    -0.001 C 
ATOM      5  C   UNL     1     172.880 172.382 177.385  1.00  0.00    -0.020 C 
ATOM      6  C   UNL     1     173.558 171.035 177.752  1.00  0.00     0.008 C 
ATOM      7  C   UNL     1     173.834 170.194 176.506  1.00  0.00     0.005 C 
ATOM      8  C   UNL     1     174.894 170.859 175.586  1.00  0.00     0.003 C 
ATOM      9  C   UNL     1     174.884 172.435 175.692  1.00  0.00     0.000 C 
ATOM     10  C   UNL     1     175.428 173.153 174.421  1.00  0.00     0.031 C 
ATOM     11  C   UNL     1     176.345 172.302 173.598  1.00  0.00    -0.027 C 
ATOM     12  C   UNL     1     176.139 170.982 173.416  1.00  0.00    -0.065 C 
ATOM     13  C   UNL     1     174.932 170.306 174.105  1.00  0.00    -0.008 C 
ATOM     14  C   UNL     1     175.042 168.738 174.080  1.00  0.00     0.014 C 
ATOM     15  C   UNL     1     176.474 168.217 174.034  1.00  0.00     0.033 C 
ATOM     16  C   UNL     1     177.166 168.694 172.758  1.00  0.00     0.118 C 
ATOM     17  C   UNL     1     177.260 170.230 172.711  1.00  0.00     0.063 C 
ATOM     18  C   UNL     1     173.641 170.667 173.322  1.00  0.00     0.016 C 
ATOM     19  C   UNL     1     171.357 172.149 177.162  1.00  0.00     0.012 C 
ENDROOT
BRANCH   1  20
ATOM     20  C   UNL     1     172.264 173.276 179.736  1.00  0.00     0.133 C 
ATOM     21  C   UNL     1     172.776 172.634 180.994  1.00  0.00     0.088 C 
ATOM     22  O   UNL     1     171.108 173.671 179.708  1.00  0.00    -0.300 OA
ENDBRANCH   1  20
BRANCH  16  23
ATOM     23  O   UNL     1     176.544 168.165 171.609  1.00  0.00    -0.393 OA
ATOM     24  H   UNL     1     176.633 167.176 171.627  1.00  0.00     0.210 HD
ENDBRANCH  16  23
TORSDOF 2
ENDMDL
MODEL 5
REMARK VINA RESULT:    -6.531      3.453      6.617
REMARK INTER + INTRA:          -7.199
REMARK INTER:                  -7.140
REMARK INTRA:                  -0.059
REMARK UNBOUND:                -0.096
REMARK SMILES CC(=O)[C@@H]1CC[C@H]2[C@@H]3CC=C4C[C@H](O)CC[C@@]4(C)[C@@H]3CC[C@@]12C
REMARK SMILES IDX 4 1 5 2 6 3 7 4 22 5 21 6 20 7 19 8 8 9 9 10 10 11 11 12
REMARK SMILES IDX 17 13 16 14 15 15 13 16 12 17 18 18 23 19 2 20 1 21 3 22
REMARK SMILES IDX 14 23
REMARK H PARENT 14 24
REMARK Flexibility Score: inf
ROOT
ATOM      1  C   UNL     1     173.321 173.012 179.758  1.00  0.00     0.062 C 
ATOM      2  C   UNL     1     174.817 173.305 179.787  1.00  0.00     0.012 C 
ATOM      3  C   UNL     1     175.337 172.797 178.451  1.00  0.00     0.005 C 
ATOM      4  C   UNL     1     174.146 172.791 177.461  1.00  0.00    -0.001 C 
ATOM      5  C   UNL     1     172.903 173.257 178.286  1.00  0.00    -0.020 C 
ATOM      6  C   UNL     1     171.624 172.454 177.932  1.00  0.00     0.008 C 
ATOM      7  C   UNL     1     171.518 172.212 176.427  1.00  0.00     0.005 C 
ATOM      8  C   UNL     1     172.647 171.278 175.914  1.00  0.00     0.003 C 
ATOM      9  C   UNL     1     173.969 171.398 176.771  1.00  0.00     0.000 C 
ATOM     10  C   UNL     1     175.260 171.009 175.992  1.00  0.00     0.031 C 
ATOM     11  C   UNL     1     175.008 170.095 174.832  1.00  0.00    -0.027 C 
ATOM     12  C   UNL     1     173.925 170.215 174.039  1.00  0.00    -0.065 C 
ATOM     13  C   UNL     1     172.880 171.312 174.350  1.00  0.00    -0.008 C 
ATOM     14  C   UNL     1     171.539 171.086 173.564  1.00  0.00     0.014 C 
ATOM     15  C   UNL     1     171.254 169.626 173.227  1.00  0.00     0.033 C 
ATOM     16  C   UNL     1     172.353 169.072 172.323  1.00  0.00     0.118 C 
ATOM     17  C   UNL     1     173.723 169.097 173.024  1.00  0.00     0.063 C 
ATOM     18  C   UNL     1     173.438 172.682 173.880  1.00  0.00     0.016 C 
ATOM     19  C   UNL     1     172.652 174.771 178.024  1.00  0.00     0.012 C 
ENDROOT
BRANCH   1  20
ATOM     20  C   UNL     1     172.491 173.758 180.793  1.00  0.00     0.133 C 
ATOM     21  C   UNL     1     171.066 173.395 181.104  1.00  0.00     0.088 C 
ATOM     22  O   UNL     1     172.999 174.696 181.386  1.00  0.00    -0.300 OA
ENDBRANCH   1  20
BRANCH  16  23
ATOM     23  O   UNL     1     172.380 169.738 171.081  1.00  0.00    -0.393 OA
ATOM     24  H   UNL     1     173.125 169.370 170.539  1.00  0.00     0.210 HD
ENDBRANCH  16  23
TORSDOF 2
ENDMDL
MODEL 6
REMARK VINA RESULT:    -6.392      1.494      7.043
REMARK INTER + INTRA:          -7.048
REMARK INTER:                  -7.056
REMARK INTRA:                   0.008
REMARK UNBOUND:                -0.096
REMARK SMILES CC(=O)[C@@H]1CC[C@H]2[C@@H]3CC=C4C[C@H](O)CC[C@@]4(C)[C@@H]3CC[C@@]12C
REMARK SMILES IDX 4 1 5 2 6 3 7 4 22 5 21 6 20 7 19 8 8 9 9 10 10 11 11 12
REMARK SMILES IDX 17 13 16 14 15 15 13 16 12 17 18 18 23 19 2 20 1 21 3 22
REMARK SMILES IDX 14 23
REMARK H PARENT 14 24
REMARK Flexibility Score: inf
ROOT
ATOM      1  C   UNL     1     173.142 173.566 179.242  1.00  0.00     0.062 C 
ATOM      2  C   UNL     1     171.649 173.266 179.287  1.00  0.00     0.012 C 
ATOM      3  C   UNL     1     171.109 173.786 177.963  1.00  0.00     0.005 C 
ATOM      4  C   UNL     1     172.288 173.807 176.958  1.00  0.00    -0.001 C 
ATOM      5  C   UNL     1     173.543 173.339 177.762  1.00  0.00    -0.020 C 
ATOM      6  C   UNL     1     174.815 174.151 177.402  1.00  0.00     0.008 C 
ATOM      7  C   UNL     1     174.901 174.411 175.898  1.00  0.00     0.005 C 
ATOM      8  C   UNL     1     173.761 175.345 175.409  1.00  0.00     0.003 C 
ATOM      9  C   UNL     1     172.450 175.210 176.281  1.00  0.00     0.000 C 
ATOM     10  C   UNL     1     171.148 175.601 175.522  1.00  0.00     0.031 C 
ATOM     11  C   UNL     1     171.381 176.528 174.370  1.00  0.00    -0.027 C 
ATOM     12  C   UNL     1     172.455 176.422 173.562  1.00  0.00    -0.065 C 
ATOM     13  C   UNL     1     173.508 175.327 173.848  1.00  0.00    -0.008 C 
ATOM     14  C   UNL     1     174.839 175.567 173.048  1.00  0.00     0.014 C 
ATOM     15  C   UNL     1     175.113 177.032 172.723  1.00  0.00     0.033 C 
ATOM     16  C   UNL     1     174.000 177.591 171.839  1.00  0.00     0.118 C 
ATOM     17  C   UNL     1     172.639 177.552 172.556  1.00  0.00     0.063 C 
ATOM     18  C   UNL     1     172.951 173.959 173.370  1.00  0.00     0.016 C 
ATOM     19  C   UNL     1     173.798 171.829 177.481  1.00  0.00     0.012 C 
ENDROOT
BRANCH   1  20
ATOM     20  C   UNL     1     173.989 172.813 180.258  1.00  0.00     0.133 C 
ATOM     21  C   UNL     1     173.398 171.859 181.258  1.00  0.00     0.088 C 
ATOM     22  O   UNL     1     175.196 172.999 180.269  1.00  0.00    -0.300 OA
ENDBRANCH   1  20
BRANCH  16  23
ATOM     23  O   UNL     1     173.961 176.938 170.591  1.00  0.00    -0.393 OA
ATOM     24  H   UNL     1     174.166 175.977 170.728  1.00  0.00     0.210 HD
ENDBRANCH  16  23
TORSDOF 2
ENDMDL
MODEL 7
REMARK VINA RESULT:    -6.317      1.940      6.948
REMARK INTER + INTRA:          -6.967
REMARK INTER:                  -6.950
REMARK INTRA:                  -0.017
REMARK UNBOUND:                -0.096
REMARK SMILES CC(=O)[C@@H]1CC[C@H]2[C@@H]3CC=C4C[C@H](O)CC[C@@]4(C)[C@@H]3CC[C@@]12C
REMARK SMILES IDX 4 1 5 2 6 3 7 4 22 5 21 6 20 7 19 8 8 9 9 10 10 11 11 12
REMARK SMILES IDX 17 13 16 14 15 15 13 16 12 17 18 18 23 19 2 20 1 21 3 22
REMARK SMILES IDX 14 23
REMARK H PARENT 14 24
REMARK Flexibility Score: inf
ROOT
ATOM      1  C   UNL     1     174.271 173.520 176.966  1.00  0.00     0.062 C 
ATOM      2  C   UNL     1     175.460 174.469 177.046  1.00  0.00     0.012 C 
ATOM      3  C   UNL     1     175.079 175.643 176.157  1.00  0.00     0.005 C 
ATOM      4  C   UNL     1     173.533 175.679 176.073  1.00  0.00    -0.001 C 
ATOM      5  C   UNL     1     173.032 174.448 176.895  1.00  0.00    -0.020 C 
ATOM      6  C   UNL     1     171.838 173.728 176.216  1.00  0.00     0.008 C 
ATOM      7  C   UNL     1     170.847 174.731 175.626  1.00  0.00     0.005 C 
ATOM      8  C   UNL     1     171.467 175.528 174.447  1.00  0.00     0.003 C 
ATOM      9  C   UNL     1     173.031 175.703 174.590  1.00  0.00     0.000 C 
ATOM     10  C   UNL     1     173.595 176.949 173.845  1.00  0.00     0.031 C 
ATOM     11  C   UNL     1     172.727 177.416 172.718  1.00  0.00    -0.027 C 
ATOM     12  C   UNL     1     171.381 177.402 172.787  1.00  0.00    -0.065 C 
ATOM     13  C   UNL     1     170.697 176.854 174.061  1.00  0.00    -0.008 C 
ATOM     14  C   UNL     1     169.165 176.584 173.836  1.00  0.00     0.014 C 
ATOM     15  C   UNL     1     168.797 176.259 172.393  1.00  0.00     0.033 C 
ATOM     16  C   UNL     1     169.139 177.440 171.485  1.00  0.00     0.118 C 
ATOM     17  C   UNL     1     170.650 177.734 171.493  1.00  0.00     0.063 C 
ATOM     18  C   UNL     1     170.794 177.924 175.181  1.00  0.00     0.016 C 
ATOM     19  C   UNL     1     172.609 174.920 178.318  1.00  0.00     0.012 C 
ENDROOT
BRANCH   1  20
ATOM     20  C   UNL     1     174.213 172.455 178.052  1.00  0.00     0.133 C 
ATOM     21  C   UNL     1     174.735 172.686 179.443  1.00  0.00     0.088 C 
ATOM     22  O   UNL     1     173.733 171.366 177.781  1.00  0.00    -0.300 OA
ENDBRANCH   1  20
BRANCH  16  23
ATOM     23  O   UNL     1     168.375 178.577 171.814  1.00  0.00    -0.393 OA
ATOM     24  H   UNL     1     168.842 179.077 172.533  1.00  0.00     0.210 HD
ENDBRANCH  16  23
TORSDOF 2
ENDMDL
MODEL 8
REMARK VINA RESULT:    -6.253      4.617      7.090
REMARK INTER + INTRA:          -6.897
REMARK INTER:                  -6.871
REMARK INTRA:                  -0.026
REMARK UNBOUND:                -0.096
REMARK SMILES CC(=O)[C@@H]1CC[C@H]2[C@@H]3CC=C4C[C@H](O)CC[C@@]4(C)[C@@H]3CC[C@@]12C
REMARK SMILES IDX 4 1 5 2 6 3 7 4 22 5 21 6 20 7 19 8 8 9 9 10 10 11 11 12
REMARK SMILES IDX 17 13 16 14 15 15 13 16 12 17 18 18 23 19 2 20 1 21 3 22
REMARK SMILES IDX 14 23
REMARK H PARENT 14 24
REMARK Flexibility Score: inf
ROOT
ATOM      1  C   UNL     1     172.115 172.888 176.947  1.00  0.00     0.062 C 
ATOM      2  C   UNL     1     170.932 171.929 177.003  1.00  0.00     0.012 C 
ATOM      3  C   UNL     1     171.341 170.758 176.122  1.00  0.00     0.005 C 
ATOM      4  C   UNL     1     172.889 170.735 176.070  1.00  0.00    -0.001 C 
ATOM      5  C   UNL     1     173.362 171.970 176.903  1.00  0.00    -0.020 C 
ATOM      6  C   UNL     1     174.564 172.700 176.248  1.00  0.00     0.008 C 
ATOM      7  C   UNL     1     175.576 171.706 175.680  1.00  0.00     0.005 C 
ATOM      8  C   UNL     1     174.986 170.903 174.488  1.00  0.00     0.003 C 
ATOM      9  C   UNL     1     173.422 170.715 174.598  1.00  0.00     0.000 C 
ATOM     10  C   UNL     1     172.884 169.465 173.842  1.00  0.00     0.031 C 
ATOM     11  C   UNL     1     173.779 169.004 172.733  1.00  0.00    -0.027 C 
ATOM     12  C   UNL     1     175.123 169.029 172.831  1.00  0.00    -0.065 C 
ATOM     13  C   UNL     1     175.776 169.583 174.118  1.00  0.00    -0.008 C 
ATOM     14  C   UNL     1     177.309 169.866 173.926  1.00  0.00     0.014 C 
ATOM     15  C   UNL     1     177.705 170.193 172.491  1.00  0.00     0.033 C 
ATOM     16  C   UNL     1     177.392 169.010 171.576  1.00  0.00     0.118 C 
ATOM     17  C   UNL     1     175.884 168.703 171.552  1.00  0.00     0.063 C 
ATOM     18  C   UNL     1     175.664 168.513 175.237  1.00  0.00     0.016 C 
ATOM     19  C   UNL     1     173.759 171.503 178.334  1.00  0.00     0.012 C 
ENDROOT
BRANCH   1  20
ATOM     20  C   UNL     1     172.141 173.954 178.034  1.00  0.00     0.133 C 
ATOM     21  C   UNL     1     171.577 173.725 179.408  1.00  0.00     0.088 C 
ATOM     22  O   UNL     1     172.630 175.043 177.776  1.00  0.00    -0.300 OA
ENDBRANCH   1  20
BRANCH  16  23
ATOM     23  O   UNL     1     178.159 167.879 171.921  1.00  0.00    -0.393 OA
ATOM     24  H   UNL     1     178.407 167.398 171.089  1.00  0.00     0.210 HD
ENDBRANCH  16  23
TORSDOF 2
ENDMDL
MODEL 9
REMARK VINA RESULT:    -6.217      1.159      1.376
REMARK INTER + INTRA:          -6.857
REMARK INTER:                  -6.775
REMARK INTRA:                  -0.082
REMARK UNBOUND:                -0.096
REMARK SMILES CC(=O)[C@@H]1CC[C@H]2[C@@H]3CC=C4C[C@H](O)CC[C@@]4(C)[C@@H]3CC[C@@]12C
REMARK SMILES IDX 4 1 5 2 6 3 7 4 22 5 21 6 20 7 19 8 8 9 9 10 10 11 11 12
REMARK SMILES IDX 17 13 16 14 15 15 13 16 12 17 18 18 23 19 2 20 1 21 3 22
REMARK SMILES IDX 14 23
REMARK H PARENT 14 24
REMARK Flexibility Score: inf
ROOT
ATOM      1  C   UNL     1     172.427 177.823 173.126  1.00  0.00     0.062 C 
ATOM      2  C   UNL     1     173.667 177.524 172.291  1.00  0.00     0.012 C 
ATOM      3  C   UNL     1     174.424 176.470 173.084  1.00  0.00     0.005 C 
ATOM      4  C   UNL     1     173.397 175.745 173.989  1.00  0.00    -0.001 C 
ATOM      5  C   UNL     1     172.029 176.456 173.737  1.00  0.00    -0.020 C 
ATOM      6  C   UNL     1     171.213 176.650 175.043  1.00  0.00     0.008 C 
ATOM      7  C   UNL     1     171.300 175.416 175.941  1.00  0.00     0.005 C 
ATOM      8  C   UNL     1     172.740 175.197 176.479  1.00  0.00     0.003 C 
ATOM      9  C   UNL     1     173.846 175.737 175.489  1.00  0.00     0.000 C 
ATOM     10  C   UNL     1     175.225 175.028 175.639  1.00  0.00     0.031 C 
ATOM     11  C   UNL     1     175.435 174.407 176.986  1.00  0.00    -0.027 C 
ATOM     12  C   UNL     1     174.444 173.791 177.661  1.00  0.00    -0.065 C 
ATOM     13  C   UNL     1     173.026 173.749 177.047  1.00  0.00    -0.008 C 
ATOM     14  C   UNL     1     171.941 173.320 178.100  1.00  0.00     0.014 C 
ATOM     15  C   UNL     1     172.300 173.671 179.539  1.00  0.00     0.033 C 
ATOM     16  C   UNL     1     173.579 172.945 179.954  1.00  0.00     0.118 C 
ATOM     17  C   UNL     1     174.776 173.379 179.090  1.00  0.00     0.063 C 
ATOM     18  C   UNL     1     172.998 172.675 175.926  1.00  0.00     0.016 C 
ATOM     19  C   UNL     1     171.193 175.617 172.726  1.00  0.00     0.012 C 
ENDROOT
BRANCH   1  20
ATOM     20  C   UNL     1     171.308 178.549 172.394  1.00  0.00     0.133 C 
ATOM     21  C   UNL     1     171.321 178.771 170.907  1.00  0.00     0.088 C 
ATOM     22  O   UNL     1     170.365 178.978 173.041  1.00  0.00    -0.300 OA
ENDBRANCH   1  20
BRANCH  16  23
ATOM     23  O   UNL     1     173.399 171.548 179.950  1.00  0.00    -0.393 OA
ATOM     24  H   UNL     1     173.119 171.261 180.858  1.00  0.00     0.210 HD
ENDBRANCH  16  23
TORSDOF 2
ENDMDL
