MODEL 1
REMARK VINA RESULT:    -7.047      0.000      0.000
REMARK INTER + INTRA:         -14.368
REMARK INTER:                 -13.226
REMARK INTRA:                  -1.142
REMARK UNBOUND:                -1.142
REMARK SMILES O=C([O-])CCCCCCCCCCCCCCC(=O)[O-]
REMARK SMILES IDX 10 1 9 2 8 3 7 4 6 5 5 6 4 7 2 8 1 9 3 10 11 11 12 12 13 13
REMARK SMILES IDX 14 14 15 15 16 16 17 17 18 18 19 19 20 20
REMARK H PARENT
REMARK Flexibility Score: inf
ROOT
ATOM      1  C   UNL     1      -7.875  -3.049 -19.716  1.00  0.00     0.000 C 
ENDROOT
BRANCH   1   2
ATOM      2  C   UNL     1      -7.022  -4.080 -18.955  1.00  0.00     0.000 C 
BRANCH   2   3
ATOM      3  C   UNL     1      -7.871  -5.149 -18.242  1.00  0.00     0.000 C 
BRANCH   3   4
ATOM      4  C   UNL     1      -9.149  -5.507 -19.019  1.00  0.00     0.000 C 
BRANCH   4   5
ATOM      5  C   UNL     1      -8.888  -6.484 -20.176  1.00  0.00     0.000 C 
BRANCH   5   6
ATOM      6  C   UNL     1      -7.889  -7.573 -19.764  1.00  0.00     0.006 C 
BRANCH   6   7
ATOM      7  C   UNL     1      -8.589  -8.926 -19.596  1.00  0.00     0.053 C 
BRANCH   7   8
ATOM      8  C   UNL     1      -8.153  -9.878 -20.663  1.00  0.00     0.041 C 
ATOM      9  O   UNL     1      -7.440 -10.875 -20.371  1.00  0.00    -0.550 OA
ATOM     10  O   UNL     1      -8.498  -9.643 -21.989  1.00  0.00    -0.550 OA
ENDBRANCH   7   8
ENDBRANCH   6   7
ENDBRANCH   5   6
ENDBRANCH   4   5
ENDBRANCH   3   4
ENDBRANCH   2   3
ENDBRANCH   1   2
BRANCH   1  11
ATOM     11  C   UNL     1      -7.117  -2.212 -20.763  1.00  0.00     0.000 C 
BRANCH  11  12
ATOM     12  C   UNL     1      -6.007  -3.005 -21.475  1.00  0.00     0.000 C 
BRANCH  12  13
ATOM     13  C   UNL     1      -4.597  -2.502 -21.120  1.00  0.00     0.000 C 
BRANCH  13  14
ATOM     14  C   UNL     1      -4.577  -1.642 -19.845  1.00  0.00     0.000 C 
BRANCH  14  15
ATOM     15  C   UNL     1      -3.735  -2.275 -18.723  1.00  0.00     0.000 C 
BRANCH  15  16
ATOM     16  C   UNL     1      -2.596  -1.354 -18.248  1.00  0.00     0.006 C 
BRANCH  16  17
ATOM     17  C   UNL     1      -2.853   0.115 -18.606  1.00  0.00     0.053 C 
BRANCH  17  18
ATOM     18  C   UNL     1      -3.203   0.928 -17.397  1.00  0.00     0.041 C 
ATOM     19  O   UNL     1      -2.653   2.045 -17.204  1.00  0.00    -0.550 OA
ATOM     20  O   UNL     1      -4.163   0.470 -16.504  1.00  0.00    -0.550 OA
ENDBRANCH  17  18
ENDBRANCH  16  17
ENDBRANCH  15  16
ENDBRANCH  14  15
ENDBRANCH  13  14
ENDBRANCH  12  13
ENDBRANCH  11  12
ENDBRANCH   1  11
TORSDOF 15
ENDMDL
MODEL 2
REMARK VINA RESULT:    -6.830      0.632      9.058
REMARK INTER + INTRA:         -13.961
REMARK INTER:                 -12.579
REMARK INTRA:                  -1.382
REMARK UNBOUND:                -1.142
REMARK SMILES O=C([O-])CCCCCCCCCCCCCCC(=O)[O-]
REMARK SMILES IDX 10 1 9 2 8 3 7 4 6 5 5 6 4 7 2 8 1 9 3 10 11 11 12 12 13 13
REMARK SMILES IDX 14 14 15 15 16 16 17 17 18 18 19 19 20 20
REMARK H PARENT
REMARK Flexibility Score: inf
ROOT
ATOM      1  C   UNL     1      -7.272  -2.526 -20.878  1.00  0.00     0.000 C 
ENDROOT
BRANCH   1   2
ATOM      2  C   UNL     1      -5.984  -3.230 -21.342  1.00  0.00     0.000 C 
BRANCH   2   3
ATOM      3  C   UNL     1      -4.733  -2.346 -21.191  1.00  0.00     0.000 C 
BRANCH   3   4
ATOM      4  C   UNL     1      -3.889  -2.716 -19.960  1.00  0.00     0.000 C 
BRANCH   4   5
ATOM      5  C   UNL     1      -4.289  -1.927 -18.704  1.00  0.00     0.000 C 
BRANCH   5   6
ATOM      6  C   UNL     1      -4.322  -0.420 -18.986  1.00  0.00     0.006 C 
BRANCH   6   7
ATOM      7  C   UNL     1      -3.016   0.250 -18.548  1.00  0.00     0.053 C 
BRANCH   7   8
ATOM      8  C   UNL     1      -3.220   1.025 -17.286  1.00  0.00     0.041 C 
ATOM      9  O   UNL     1      -2.615   2.115 -17.106  1.00  0.00    -0.550 OA
ATOM     10  O   UNL     1      -4.046   0.523 -16.287  1.00  0.00    -0.550 OA
ENDBRANCH   7   8
ENDBRANCH   6   7
ENDBRANCH   5   6
ENDBRANCH   4   5
ENDBRANCH   3   4
ENDBRANCH   2   3
ENDBRANCH   1   2
BRANCH   1  11
ATOM     11  C   UNL     1      -7.814  -2.980 -19.509  1.00  0.00     0.000 C 
BRANCH  11  12
ATOM     12  C   UNL     1      -7.079  -4.213 -18.954  1.00  0.00     0.000 C 
BRANCH  12  13
ATOM     13  C   UNL     1      -8.015  -5.169 -18.194  1.00  0.00     0.000 C 
BRANCH  13  14
ATOM     14  C   UNL     1      -9.248  -5.575 -19.021  1.00  0.00     0.000 C 
BRANCH  14  15
ATOM     15  C   UNL     1      -8.891  -6.513 -20.186  1.00  0.00     0.000 C 
BRANCH  15  16
ATOM     16  C   UNL     1      -8.601  -7.951 -19.720  1.00  0.00     0.006 C 
BRANCH  16  17
ATOM     17  C   UNL     1      -7.496  -8.617 -20.550  1.00  0.00     0.053 C 
BRANCH  17  18
ATOM     18  C   UNL     1      -7.924  -9.953 -21.075  1.00  0.00     0.041 C 
ATOM     19  O   UNL     1      -7.738 -10.992 -20.387  1.00  0.00    -0.550 OA
ATOM     20  O   UNL     1      -8.560 -10.047 -22.306  1.00  0.00    -0.550 OA
ENDBRANCH  17  18
ENDBRANCH  16  17
ENDBRANCH  15  16
ENDBRANCH  14  15
ENDBRANCH  13  14
ENDBRANCH  12  13
ENDBRANCH  11  12
ENDBRANCH   1  11
TORSDOF 15
ENDMDL
MODEL 3
REMARK VINA RESULT:    -6.530      2.023      3.078
REMARK INTER + INTRA:         -13.399
REMARK INTER:                 -12.705
REMARK INTRA:                  -0.694
REMARK UNBOUND:                -1.142
REMARK SMILES O=C([O-])CCCCCCCCCCCCCCC(=O)[O-]
REMARK SMILES IDX 10 1 9 2 8 3 7 4 6 5 5 6 4 7 2 8 1 9 3 10 11 11 12 12 13 13
REMARK SMILES IDX 14 14 15 15 16 16 17 17 18 18 19 19 20 20
REMARK H PARENT
REMARK Flexibility Score: inf
ROOT
ATOM      1  C   UNL     1      -7.425  -1.617 -19.389  1.00  0.00     0.000 C 
ENDROOT
BRANCH   1   2
ATOM      2  C   UNL     1      -7.400  -2.187 -20.820  1.00  0.00     0.000 C 
BRANCH   2   3
ATOM      3  C   UNL     1      -6.554  -3.468 -20.938  1.00  0.00     0.000 C 
BRANCH   3   4
ATOM      4  C   UNL     1      -6.745  -4.418 -19.744  1.00  0.00     0.000 C 
BRANCH   4   5
ATOM      5  C   UNL     1      -8.098  -5.147 -19.772  1.00  0.00     0.000 C 
BRANCH   5   6
ATOM      6  C   UNL     1      -7.949  -6.603 -19.314  1.00  0.00     0.006 C 
BRANCH   6   7
ATOM      7  C   UNL     1      -8.565  -7.565 -20.335  1.00  0.00     0.053 C 
BRANCH   7   8
ATOM      8  C   UNL     1      -8.303  -8.984 -19.944  1.00  0.00     0.041 C 
ATOM      9  O   UNL     1      -8.656  -9.405 -18.811  1.00  0.00    -0.550 OA
ATOM     10  O   UNL     1      -7.628  -9.833 -20.813  1.00  0.00    -0.550 OA
ENDBRANCH   7   8
ENDBRANCH   6   7
ENDBRANCH   5   6
ENDBRANCH   4   5
ENDBRANCH   3   4
ENDBRANCH   2   3
ENDBRANCH   1   2
BRANCH   1  11
ATOM     11  C   UNL     1      -6.488  -0.420 -19.141  1.00  0.00     0.000 C 
BRANCH  11  12
ATOM     12  C   UNL     1      -5.021  -0.840 -18.941  1.00  0.00     0.000 C 
BRANCH  12  13
ATOM     13  C   UNL     1      -4.265   0.090 -17.976  1.00  0.00     0.000 C 
BRANCH  13  14
ATOM     14  C   UNL     1      -2.738  -0.085 -18.057  1.00  0.00     0.000 C 
BRANCH  14  15
ATOM     15  C   UNL     1      -1.991   1.259 -18.024  1.00  0.00     0.000 C 
BRANCH  15  16
ATOM     16  C   UNL     1      -2.942   2.462 -17.890  1.00  0.00     0.006 C 
BRANCH  16  17
ATOM     17  C   UNL     1      -2.192   3.758 -17.553  1.00  0.00     0.053 C 
BRANCH  17  18
ATOM     18  C   UNL     1      -3.131   4.911 -17.372  1.00  0.00     0.041 C 
ATOM     19  O   UNL     1      -3.010   5.675 -16.377  1.00  0.00    -0.550 OA
ATOM     20  O   UNL     1      -4.113   5.166 -18.320  1.00  0.00    -0.550 OA
ENDBRANCH  17  18
ENDBRANCH  16  17
ENDBRANCH  15  16
ENDBRANCH  14  15
ENDBRANCH  13  14
ENDBRANCH  12  13
ENDBRANCH  11  12
ENDBRANCH   1  11
TORSDOF 15
ENDMDL
MODEL 4
REMARK VINA RESULT:    -6.449      3.500      5.551
REMARK INTER + INTRA:         -13.246
REMARK INTER:                 -12.480
REMARK INTRA:                  -0.767
REMARK UNBOUND:                -1.142
REMARK SMILES O=C([O-])CCCCCCCCCCCCCCC(=O)[O-]
REMARK SMILES IDX 10 1 9 2 8 3 7 4 6 5 5 6 4 7 2 8 1 9 3 10 11 11 12 12 13 13
REMARK SMILES IDX 14 14 15 15 16 16 17 17 18 18 19 19 20 20
REMARK H PARENT
REMARK Flexibility Score: inf
ROOT
ATOM      1  C   UNL     1      -4.238  -0.476 -18.115  1.00  0.00     0.000 C 
ENDROOT
BRANCH   1   2
ATOM      2  C   UNL     1      -5.120  -1.104 -19.211  1.00  0.00     0.000 C 
BRANCH   2   3
ATOM      3  C   UNL     1      -6.622  -0.862 -18.979  1.00  0.00     0.000 C 
BRANCH   3   4
ATOM      4  C   UNL     1      -7.508  -1.618 -19.984  1.00  0.00     0.000 C 
BRANCH   4   5
ATOM      5  C   UNL     1      -6.693  -2.402 -21.024  1.00  0.00     0.000 C 
BRANCH   5   6
ATOM      6  C   UNL     1      -7.161  -3.860 -21.107  1.00  0.00     0.006 C 
BRANCH   6   7
ATOM      7  C   UNL     1      -6.956  -4.580 -19.770  1.00  0.00     0.053 C 
BRANCH   7   8
ATOM      8  C   UNL     1      -8.116  -5.473 -19.471  1.00  0.00     0.041 C 
ATOM      9  O   UNL     1      -9.175  -4.995 -18.985  1.00  0.00    -0.550 OA
ATOM     10  O   UNL     1      -8.015  -6.842 -19.687  1.00  0.00    -0.550 OA
ENDBRANCH   7   8
ENDBRANCH   6   7
ENDBRANCH   5   6
ENDBRANCH   4   5
ENDBRANCH   3   4
ENDBRANCH   2   3
ENDBRANCH   1   2
BRANCH   1  11
ATOM     11  C   UNL     1      -3.153   0.494 -18.620  1.00  0.00     0.000 C 
BRANCH  11  12
ATOM     12  C   UNL     1      -2.233   1.000 -17.495  1.00  0.00     0.000 C 
BRANCH  12  13
ATOM     13  C   UNL     1      -1.875   2.489 -17.646  1.00  0.00     0.000 C 
BRANCH  13  14
ATOM     14  C   UNL     1      -3.102   3.410 -17.528  1.00  0.00     0.000 C 
BRANCH  14  15
ATOM     15  C   UNL     1      -2.753   4.887 -17.779  1.00  0.00     0.000 C 
BRANCH  15  16
ATOM     16  C   UNL     1      -3.138   5.795 -16.597  1.00  0.00     0.006 C 
BRANCH  16  17
ATOM     17  C   UNL     1      -4.641   6.106 -16.573  1.00  0.00     0.053 C 
BRANCH  17  18
ATOM     18  C   UNL     1      -5.155   6.251 -15.173  1.00  0.00     0.041 C 
ATOM     19  O   UNL     1      -5.164   7.380 -14.616  1.00  0.00    -0.550 OA
ATOM     20  O   UNL     1      -5.659   5.146 -14.498  1.00  0.00    -0.550 OA
ENDBRANCH  17  18
ENDBRANCH  16  17
ENDBRANCH  15  16
ENDBRANCH  14  15
ENDBRANCH  13  14
ENDBRANCH  12  13
ENDBRANCH  11  12
ENDBRANCH   1  11
TORSDOF 15
ENDMDL
MODEL 5
REMARK VINA RESULT:    -6.345      3.300      5.210
REMARK INTER + INTRA:         -13.050
REMARK INTER:                 -12.285
REMARK INTRA:                  -0.765
REMARK UNBOUND:                -1.142
REMARK SMILES O=C([O-])CCCCCCCCCCCCCCC(=O)[O-]
REMARK SMILES IDX 10 1 9 2 8 3 7 4 6 5 5 6 4 7 2 8 1 9 3 10 11 11 12 12 13 13
REMARK SMILES IDX 14 14 15 15 16 16 17 17 18 18 19 19 20 20
REMARK H PARENT
REMARK Flexibility Score: inf
ROOT
ATOM      1  C   UNL     1      -4.854  -0.357 -18.619  1.00  0.00     0.000 C 
ENDROOT
BRANCH   1   2
ATOM      2  C   UNL     1      -4.319  -1.560 -19.419  1.00  0.00     0.000 C 
BRANCH   2   3
ATOM      3  C   UNL     1      -4.472  -2.893 -18.665  1.00  0.00     0.000 C 
BRANCH   3   4
ATOM      4  C   UNL     1      -5.894  -3.470 -18.760  1.00  0.00     0.000 C 
BRANCH   4   5
ATOM      5  C   UNL     1      -6.672  -2.940 -19.974  1.00  0.00     0.000 C 
BRANCH   5   6
ATOM      6  C   UNL     1      -7.410  -4.076 -20.695  1.00  0.00     0.006 C 
BRANCH   6   7
ATOM      7  C   UNL     1      -7.018  -5.440 -20.117  1.00  0.00     0.053 C 
BRANCH   7   8
ATOM      8  C   UNL     1      -8.235  -6.211 -19.718  1.00  0.00     0.041 C 
ATOM      9  O   UNL     1      -9.291  -5.606 -19.394  1.00  0.00    -0.550 OA
ATOM     10  O   UNL     1      -8.192  -7.599 -19.660  1.00  0.00    -0.550 OA
ENDBRANCH   7   8
ENDBRANCH   6   7
ENDBRANCH   5   6
ENDBRANCH   4   5
ENDBRANCH   3   4
ENDBRANCH   2   3
ENDBRANCH   1   2
BRANCH   1  11
ATOM     11  C   UNL     1      -3.952   0.119 -17.465  1.00  0.00     0.000 C 
BRANCH  11  12
ATOM     12  C   UNL     1      -2.477   0.263 -17.878  1.00  0.00     0.000 C 
BRANCH  12  13
ATOM     13  C   UNL     1      -1.912   1.663 -17.585  1.00  0.00     0.000 C 
BRANCH  13  14
ATOM     14  C   UNL     1      -3.008   2.742 -17.511  1.00  0.00     0.000 C 
BRANCH  14  15
ATOM     15  C   UNL     1      -2.427   4.166 -17.477  1.00  0.00     0.000 C 
BRANCH  15  16
ATOM     16  C   UNL     1      -3.500   5.247 -17.699  1.00  0.00     0.006 C 
BRANCH  16  17
ATOM     17  C   UNL     1      -4.218   5.626 -16.397  1.00  0.00     0.053 C 
BRANCH  17  18
ATOM     18  C   UNL     1      -3.794   6.975 -15.901  1.00  0.00     0.041 C 
ATOM     19  O   UNL     1      -3.838   7.974 -16.668  1.00  0.00    -0.550 OA
ATOM     20  O   UNL     1      -3.385   7.137 -14.584  1.00  0.00    -0.550 OA
ENDBRANCH  17  18
ENDBRANCH  16  17
ENDBRANCH  15  16
ENDBRANCH  14  15
ENDBRANCH  13  14
ENDBRANCH  12  13
ENDBRANCH  11  12
ENDBRANCH   1  11
TORSDOF 15
ENDMDL
MODEL 6
REMARK VINA RESULT:    -6.331      3.910      6.474
REMARK INTER + INTRA:         -13.026
REMARK INTER:                 -11.966
REMARK INTRA:                  -1.060
REMARK UNBOUND:                -1.142
REMARK SMILES O=C([O-])CCCCCCCCCCCCCCC(=O)[O-]
REMARK SMILES IDX 10 1 9 2 8 3 7 4 6 5 5 6 4 7 2 8 1 9 3 10 11 11 12 12 13 13
REMARK SMILES IDX 14 14 15 15 16 16 17 17 18 18 19 19 20 20
REMARK H PARENT
REMARK Flexibility Score: inf
ROOT
ATOM      1  C   UNL     1      -3.765   0.101 -17.386  1.00  0.00     0.000 C 
ENDROOT
BRANCH   1   2
ATOM      2  C   UNL     1      -4.809  -0.410 -18.396  1.00  0.00     0.000 C 
BRANCH   2   3
ATOM      3  C   UNL     1      -4.216  -1.396 -19.420  1.00  0.00     0.000 C 
BRANCH   3   4
ATOM      4  C   UNL     1      -4.164  -2.840 -18.893  1.00  0.00     0.000 C 
BRANCH   4   5
ATOM      5  C   UNL     1      -5.508  -3.313 -18.318  1.00  0.00     0.000 C 
BRANCH   5   6
ATOM      6  C   UNL     1      -6.203  -4.290 -19.274  1.00  0.00     0.006 C 
BRANCH   6   7
ATOM      7  C   UNL     1      -7.584  -3.768 -19.686  1.00  0.00     0.053 C 
BRANCH   7   8
ATOM      8  C   UNL     1      -7.458  -2.752 -20.775  1.00  0.00     0.041 C 
ATOM      9  O   UNL     1      -7.202  -3.115 -21.954  1.00  0.00    -0.550 OA
ATOM     10  O   UNL     1      -7.579  -1.399 -20.483  1.00  0.00    -0.550 OA
ENDBRANCH   7   8
ENDBRANCH   6   7
ENDBRANCH   5   6
ENDBRANCH   4   5
ENDBRANCH   3   4
ENDBRANCH   2   3
ENDBRANCH   1   2
BRANCH   1  11
ATOM     11  C   UNL     1      -2.337   0.260 -17.939  1.00  0.00     0.000 C 
BRANCH  11  12
ATOM     12  C   UNL     1      -1.937   1.731 -18.151  1.00  0.00     0.000 C 
BRANCH  12  13
ATOM     13  C   UNL     1      -2.956   2.714 -17.552  1.00  0.00     0.000 C 
BRANCH  13  14
ATOM     14  C   UNL     1      -2.394   4.140 -17.409  1.00  0.00     0.000 C 
BRANCH  14  15
ATOM     15  C   UNL     1      -3.387   5.213 -17.888  1.00  0.00     0.000 C 
BRANCH  15  16
ATOM     16  C   UNL     1      -3.760   6.210 -16.776  1.00  0.00     0.006 C 
BRANCH  16  17
ATOM     17  C   UNL     1      -4.824   5.645 -15.826  1.00  0.00     0.053 C 
BRANCH  17  18
ATOM     18  C   UNL     1      -5.173   6.618 -14.741  1.00  0.00     0.041 C 
ATOM     19  O   UNL     1      -6.244   6.484 -14.092  1.00  0.00    -0.550 OA
ATOM     20  O   UNL     1      -4.298   7.648 -14.421  1.00  0.00    -0.550 OA
ENDBRANCH  17  18
ENDBRANCH  16  17
ENDBRANCH  15  16
ENDBRANCH  14  15
ENDBRANCH  13  14
ENDBRANCH  12  13
ENDBRANCH  11  12
ENDBRANCH   1  11
TORSDOF 15
ENDMDL
MODEL 7
REMARK VINA RESULT:    -6.221      4.383     11.131
REMARK INTER + INTRA:         -12.818
REMARK INTER:                 -12.076
REMARK INTRA:                  -0.742
REMARK UNBOUND:                -1.142
REMARK SMILES O=C([O-])CCCCCCCCCCCCCCC(=O)[O-]
REMARK SMILES IDX 10 1 9 2 8 3 7 4 6 5 5 6 4 7 2 8 1 9 3 10 11 11 12 12 13 13
REMARK SMILES IDX 14 14 15 15 16 16 17 17 18 18 19 19 20 20
REMARK H PARENT
REMARK Flexibility Score: inf
ROOT
ATOM      1  C   UNL     1      -2.952   2.291 -17.795  1.00  0.00     0.000 C 
ENDROOT
BRANCH   1   2
ATOM      2  C   UNL     1      -2.286   3.661 -17.570  1.00  0.00     0.000 C 
BRANCH   2   3
ATOM      3  C   UNL     1      -3.304   4.811 -17.470  1.00  0.00     0.000 C 
BRANCH   3   4
ATOM      4  C   UNL     1      -2.765   6.015 -16.680  1.00  0.00     0.000 C 
BRANCH   4   5
ATOM      5  C   UNL     1      -3.726   6.482 -15.576  1.00  0.00     0.000 C 
BRANCH   5   6
ATOM      6  C   UNL     1      -5.132   5.910 -15.790  1.00  0.00     0.006 C 
BRANCH   6   7
ATOM      7  C   UNL     1      -5.648   5.228 -14.518  1.00  0.00     0.053 C 
BRANCH   7   8
ATOM      8  C   UNL     1      -5.563   6.160 -13.352  1.00  0.00     0.041 C 
ATOM      9  O   UNL     1      -6.357   7.133 -13.259  1.00  0.00    -0.550 OA
ATOM     10  O   UNL     1      -4.579   5.979 -12.387  1.00  0.00    -0.550 OA
ENDBRANCH   7   8
ENDBRANCH   6   7
ENDBRANCH   5   6
ENDBRANCH   4   5
ENDBRANCH   3   4
ENDBRANCH   2   3
ENDBRANCH   1   2
BRANCH   1  11
ATOM     11  C   UNL     1      -1.982   1.115 -18.014  1.00  0.00     0.000 C 
BRANCH  11  12
ATOM     12  C   UNL     1      -2.677  -0.256 -17.943  1.00  0.00     0.000 C 
BRANCH  12  13
ATOM     13  C   UNL     1      -4.201  -0.139 -17.770  1.00  0.00     0.000 C 
BRANCH  13  14
ATOM     14  C   UNL     1      -4.981  -0.738 -18.954  1.00  0.00     0.000 C 
BRANCH  14  15
ATOM     15  C   UNL     1      -6.494  -0.479 -18.852  1.00  0.00     0.000 C 
BRANCH  15  16
ATOM     16  C   UNL     1      -7.306  -1.318 -19.854  1.00  0.00     0.006 C 
BRANCH  16  17
ATOM     17  C   UNL     1      -7.353  -2.801 -19.463  1.00  0.00     0.053 C 
BRANCH  17  18
ATOM     18  C   UNL     1      -7.136  -3.695 -20.646  1.00  0.00     0.041 C 
ATOM     19  O   UNL     1      -6.902  -4.921 -20.479  1.00  0.00    -0.550 OA
ATOM     20  O   UNL     1      -7.229  -3.181 -21.934  1.00  0.00    -0.550 OA
ENDBRANCH  17  18
ENDBRANCH  16  17
ENDBRANCH  15  16
ENDBRANCH  14  15
ENDBRANCH  13  14
ENDBRANCH  12  13
ENDBRANCH  11  12
ENDBRANCH   1  11
TORSDOF 15
ENDMDL
MODEL 8
REMARK VINA RESULT:    -6.206      3.997     10.454
REMARK INTER + INTRA:         -12.790
REMARK INTER:                 -11.794
REMARK INTRA:                  -0.995
REMARK UNBOUND:                -1.142
REMARK SMILES O=C([O-])CCCCCCCCCCCCCCC(=O)[O-]
REMARK SMILES IDX 10 1 9 2 8 3 7 4 6 5 5 6 4 7 2 8 1 9 3 10 11 11 12 12 13 13
REMARK SMILES IDX 14 14 15 15 16 16 17 17 18 18 19 19 20 20
REMARK H PARENT
REMARK Flexibility Score: inf
ROOT
ATOM      1  C   UNL     1      -2.378   0.257 -17.399  1.00  0.00     0.000 C 
ENDROOT
BRANCH   1   2
ATOM      2  C   UNL     1      -1.875   1.661 -17.781  1.00  0.00     0.000 C 
BRANCH   2   3
ATOM      3  C   UNL     1      -3.003   2.707 -17.828  1.00  0.00     0.000 C 
BRANCH   3   4
ATOM      4  C   UNL     1      -2.512   4.127 -17.499  1.00  0.00     0.000 C 
BRANCH   4   5
ATOM      5  C   UNL     1      -3.624   5.182 -17.600  1.00  0.00     0.000 C 
BRANCH   5   6
ATOM      6  C   UNL     1      -3.825   5.902 -16.262  1.00  0.00     0.006 C 
BRANCH   6   7
ATOM      7  C   UNL     1      -5.312   6.143 -15.984  1.00  0.00     0.053 C 
BRANCH   7   8
ATOM      8  C   UNL     1      -5.560   6.266 -14.515  1.00  0.00     0.041 C 
ATOM      9  O   UNL     1      -6.724   6.131 -14.054  1.00  0.00    -0.550 OA
ATOM     10  O   UNL     1      -4.511   6.574 -13.656  1.00  0.00    -0.550 OA
ENDBRANCH   7   8
ENDBRANCH   6   7
ENDBRANCH   5   6
ENDBRANCH   4   5
ENDBRANCH   3   4
ENDBRANCH   2   3
ENDBRANCH   1   2
BRANCH   1  11
ATOM     11  C   UNL     1      -3.894   0.147 -17.150  1.00  0.00     0.000 C 
BRANCH  11  12
ATOM     12  C   UNL     1      -4.672  -0.326 -18.391  1.00  0.00     0.000 C 
BRANCH  12  13
ATOM     13  C   UNL     1      -3.838  -1.246 -19.298  1.00  0.00     0.000 C 
BRANCH  13  14
ATOM     14  C   UNL     1      -3.814  -2.704 -18.807  1.00  0.00     0.000 C 
BRANCH  14  15
ATOM     15  C   UNL     1      -5.172  -3.155 -18.241  1.00  0.00     0.000 C 
BRANCH  15  16
ATOM     16  C   UNL     1      -6.009  -3.938 -19.267  1.00  0.00     0.006 C 
BRANCH  16  17
ATOM     17  C   UNL     1      -7.432  -3.379 -19.399  1.00  0.00     0.053 C 
BRANCH  17  18
ATOM     18  C   UNL     1      -7.500  -2.258 -20.390  1.00  0.00     0.041 C 
ATOM     19  O   UNL     1      -7.439  -2.500 -21.625  1.00  0.00    -0.550 OA
ATOM     20  O   UNL     1      -7.666  -0.950 -19.952  1.00  0.00    -0.550 OA
ENDBRANCH  17  18
ENDBRANCH  16  17
ENDBRANCH  15  16
ENDBRANCH  14  15
ENDBRANCH  13  14
ENDBRANCH  12  13
ENDBRANCH  11  12
ENDBRANCH   1  11
TORSDOF 15
ENDMDL
