MODEL 1
REMARK VINA RESULT:    -4.986      0.000      0.000
REMARK INTER + INTRA:          -6.585
REMARK INTER:                  -6.443
REMARK INTRA:                  -0.142
REMARK UNBOUND:                -0.142
REMARK SMILES CCCCCCC(=O)[O-]
REMARK SMILES IDX 5 1 6 2 7 3 8 4 9 5 4 6 3 7 2 8 1 9
REMARK H PARENT
REMARK Flexibility Score: inf
ROOT
ATOM      1  C   UNL     1       2.314   5.564  19.350  1.00  0.00     0.006 C 
ENDROOT
BRANCH   1   2
ATOM      2  C   UNL     1       2.695   4.368  18.471  1.00  0.00     0.053 C 
BRANCH   2   3
ATOM      3  C   UNL     1       2.638   3.099  19.261  1.00  0.00     0.041 C 
ATOM      4  O   UNL     1       1.659   2.867  20.019  1.00  0.00    -0.550 OA
ATOM      5  O   UNL     1       3.642   2.150  19.124  1.00  0.00    -0.550 OA
ENDBRANCH   2   3
ENDBRANCH   1   2
BRANCH   1   6
ATOM      6  C   UNL     1       2.260   6.857  18.527  1.00  0.00     0.000 C 
BRANCH   6   7
ATOM      7  C   UNL     1       2.046   8.077  19.431  1.00  0.00    -0.000 C 
BRANCH   7   8
ATOM      8  C   UNL     1       2.572   9.353  18.765  1.00  0.00    -0.003 C 
ATOM      9  C   UNL     1       3.180   9.050  17.399  1.00  0.00     0.004 C 
ENDBRANCH   7   8
ENDBRANCH   6   7
ENDBRANCH   1   6
TORSDOF 5
ENDMDL
MODEL 2
REMARK VINA RESULT:    -4.717      1.550      2.113
REMARK INTER + INTRA:          -6.238
REMARK INTER:                  -6.085
REMARK INTRA:                  -0.153
REMARK UNBOUND:                -0.142
REMARK SMILES CCCCCCC(=O)[O-]
REMARK SMILES IDX 5 1 6 2 7 3 8 4 9 5 4 6 3 7 2 8 1 9
REMARK H PARENT
REMARK Flexibility Score: inf
ROOT
ATOM      1  C   UNL     1       1.903   4.432  18.947  1.00  0.00     0.006 C 
ENDROOT
BRANCH   1   2
ATOM      2  C   UNL     1       3.031   3.401  18.830  1.00  0.00     0.053 C 
BRANCH   2   3
ATOM      3  C   UNL     1       3.299   3.078  17.395  1.00  0.00     0.041 C 
ATOM      4  O   UNL     1       3.748   1.946  17.072  1.00  0.00    -0.550 OA
ATOM      5  O   UNL     1       3.007   4.009  16.407  1.00  0.00    -0.550 OA
ENDBRANCH   2   3
ENDBRANCH   1   2
BRANCH   1   6
ATOM      6  C   UNL     1       2.414   5.738  19.565  1.00  0.00     0.000 C 
BRANCH   6   7
ATOM      7  C   UNL     1       2.215   6.917  18.605  1.00  0.00    -0.000 C 
BRANCH   7   8
ATOM      8  C   UNL     1       2.023   8.228  19.376  1.00  0.00    -0.003 C 
ATOM      9  C   UNL     1       2.458   9.427  18.539  1.00  0.00     0.004 C 
ENDBRANCH   7   8
ENDBRANCH   6   7
ENDBRANCH   1   6
TORSDOF 5
ENDMDL
MODEL 3
REMARK VINA RESULT:    -4.639      5.221      6.307
REMARK INTER + INTRA:          -6.138
REMARK INTER:                  -6.012
REMARK INTRA:                  -0.126
REMARK UNBOUND:                -0.142
REMARK SMILES CCCCCCC(=O)[O-]
REMARK SMILES IDX 5 1 6 2 7 3 8 4 9 5 4 6 3 7 2 8 1 9
REMARK H PARENT
REMARK Flexibility Score: inf
ROOT
ATOM      1  C   UNL     1       5.156   7.461  15.639  1.00  0.00     0.006 C 
ENDROOT
BRANCH   1   2
ATOM      2  C   UNL     1       5.184   7.440  14.107  1.00  0.00     0.053 C 
BRANCH   2   3
ATOM      3  C   UNL     1       6.131   8.473  13.587  1.00  0.00     0.041 C 
ATOM      4  O   UNL     1       7.374   8.321  13.723  1.00  0.00    -0.550 OA
ATOM      5  O   UNL     1       5.645   9.583  12.907  1.00  0.00    -0.550 OA
ENDBRANCH   2   3
ENDBRANCH   1   2
BRANCH   1   6
ATOM      6  C   UNL     1       4.271   8.602  16.157  1.00  0.00     0.000 C 
BRANCH   6   7
ATOM      7  C   UNL     1       3.328   8.109  17.262  1.00  0.00    -0.000 C 
BRANCH   7   8
ATOM      8  C   UNL     1       2.757   9.285  18.061  1.00  0.00    -0.003 C 
ATOM      9  C   UNL     1       2.084   8.804  19.343  1.00  0.00     0.004 C 
ENDBRANCH   7   8
ENDBRANCH   6   7
ENDBRANCH   1   6
TORSDOF 5
ENDMDL
MODEL 4
REMARK VINA RESULT:    -4.568      4.527      5.827
REMARK INTER + INTRA:          -6.046
REMARK INTER:                  -5.914
REMARK INTRA:                  -0.131
REMARK UNBOUND:                -0.142
REMARK SMILES CCCCCCC(=O)[O-]
REMARK SMILES IDX 5 1 6 2 7 3 8 4 9 5 4 6 3 7 2 8 1 9
REMARK H PARENT
REMARK Flexibility Score: inf
ROOT
ATOM      1  C   UNL     1       3.974   8.740  16.537  1.00  0.00     0.006 C 
ENDROOT
BRANCH   1   2
ATOM      2  C   UNL     1       3.038   8.372  17.694  1.00  0.00     0.053 C 
BRANCH   2   3
ATOM      3  C   UNL     1       2.711   9.583  18.508  1.00  0.00     0.041 C 
ATOM      4  O   UNL     1       1.539  10.047  18.512  1.00  0.00    -0.550 OA
ATOM      5  O   UNL     1       3.686  10.173  19.300  1.00  0.00    -0.550 OA
ENDBRANCH   2   3
ENDBRANCH   1   2
BRANCH   1   6
ATOM      6  C   UNL     1       4.509   7.483  15.842  1.00  0.00     0.000 C 
BRANCH   6   7
ATOM      7  C   UNL     1       5.876   7.750  15.198  1.00  0.00    -0.000 C 
BRANCH   7   8
ATOM      8  C   UNL     1       5.771   7.753  13.669  1.00  0.00    -0.003 C 
ATOM      9  C   UNL     1       5.418   9.142  13.144  1.00  0.00     0.004 C 
ENDBRANCH   7   8
ENDBRANCH   6   7
ENDBRANCH   1   6
TORSDOF 5
ENDMDL
MODEL 5
REMARK VINA RESULT:    -4.546      3.292      5.281
REMARK INTER + INTRA:          -6.017
REMARK INTER:                  -5.888
REMARK INTRA:                  -0.129
REMARK UNBOUND:                -0.142
REMARK SMILES CCCCCCC(=O)[O-]
REMARK SMILES IDX 5 1 6 2 7 3 8 4 9 5 4 6 3 7 2 8 1 9
REMARK H PARENT
REMARK Flexibility Score: inf
ROOT
ATOM      1  C   UNL     1       2.040   6.399  18.921  1.00  0.00     0.006 C 
ENDROOT
BRANCH   1   2
ATOM      2  C   UNL     1       2.610   7.620  18.192  1.00  0.00     0.053 C 
BRANCH   2   3
ATOM      3  C   UNL     1       2.280   8.875  18.936  1.00  0.00     0.041 C 
ATOM      4  O   UNL     1       1.938   9.913  18.309  1.00  0.00    -0.550 OA
ATOM      5  O   UNL     1       2.302   8.886  20.324  1.00  0.00    -0.550 OA
ENDBRANCH   2   3
ENDBRANCH   1   2
BRANCH   1   6
ATOM      6  C   UNL     1       2.605   5.098  18.339  1.00  0.00     0.000 C 
BRANCH   6   7
ATOM      7  C   UNL     1       2.743   4.023  19.424  1.00  0.00    -0.000 C 
BRANCH   7   8
ATOM      8  C   UNL     1       3.377   2.748  18.857  1.00  0.00    -0.003 C 
ATOM      9  C   UNL     1       3.294   2.723  17.333  1.00  0.00     0.004 C 
ENDBRANCH   7   8
ENDBRANCH   6   7
ENDBRANCH   1   6
TORSDOF 5
ENDMDL
MODEL 6
REMARK VINA RESULT:    -4.192      2.873      4.368
REMARK INTER + INTRA:          -5.560
REMARK INTER:                  -5.356
REMARK INTRA:                  -0.204
REMARK UNBOUND:                -0.142
REMARK SMILES CCCCCCC(=O)[O-]
REMARK SMILES IDX 5 1 6 2 7 3 8 4 9 5 4 6 3 7 2 8 1 9
REMARK H PARENT
REMARK Flexibility Score: inf
ROOT
ATOM      1  C   UNL     1       3.032   2.454  16.723  1.00  0.00     0.006 C 
ENDROOT
BRANCH   1   2
ATOM      2  C   UNL     1       4.245   2.441  15.787  1.00  0.00     0.053 C 
BRANCH   2   3
ATOM      3  C   UNL     1       5.118   1.262  16.078  1.00  0.00     0.041 C 
ATOM      4  O   UNL     1       5.335   0.911  17.269  1.00  0.00    -0.550 OA
ATOM      5  O   UNL     1       5.655   0.520  15.034  1.00  0.00    -0.550 OA
ENDBRANCH   2   3
ENDBRANCH   1   2
BRANCH   1   6
ATOM      6  C   UNL     1       3.017   3.721  17.587  1.00  0.00     0.000 C 
BRANCH   6   7
ATOM      7  C   UNL     1       3.078   3.371  19.079  1.00  0.00    -0.000 C 
BRANCH   7   8
ATOM      8  C   UNL     1       2.730   4.588  19.942  1.00  0.00    -0.003 C 
ATOM      9  C   UNL     1       2.247   5.753  19.083  1.00  0.00     0.004 C 
ENDBRANCH   7   8
ENDBRANCH   6   7
ENDBRANCH   1   6
TORSDOF 5
ENDMDL
MODEL 7
REMARK VINA RESULT:    -4.188      2.557      3.622
REMARK INTER + INTRA:          -5.555
REMARK INTER:                  -5.389
REMARK INTRA:                  -0.166
REMARK UNBOUND:                -0.142
REMARK SMILES CCCCCCC(=O)[O-]
REMARK SMILES IDX 5 1 6 2 7 3 8 4 9 5 4 6 3 7 2 8 1 9
REMARK H PARENT
REMARK Flexibility Score: inf
ROOT
ATOM      1  C   UNL     1       3.024   3.494  17.834  1.00  0.00     0.006 C 
ENDROOT
BRANCH   1   2
ATOM      2  C   UNL     1       3.762   2.230  17.383  1.00  0.00     0.053 C 
BRANCH   2   3
ATOM      3  C   UNL     1       4.170   2.346  15.949  1.00  0.00     0.041 C 
ATOM      4  O   UNL     1       4.547   1.327  15.312  1.00  0.00    -0.550 OA
ATOM      5  O   UNL     1       4.089   3.571  15.300  1.00  0.00    -0.550 OA
ENDBRANCH   2   3
ENDBRANCH   1   2
BRANCH   1   6
ATOM      6  C   UNL     1       2.989   3.595  19.364  1.00  0.00     0.000 C 
BRANCH   6   7
ATOM      7  C   UNL     1       2.581   5.003  19.814  1.00  0.00    -0.000 C 
BRANCH   7   8
ATOM      8  C   UNL     1       2.184   5.870  18.613  1.00  0.00    -0.003 C 
ATOM      9  C   UNL     1       2.166   7.350  18.985  1.00  0.00     0.004 C 
ENDBRANCH   7   8
ENDBRANCH   6   7
ENDBRANCH   1   6
TORSDOF 5
ENDMDL
MODEL 8
REMARK VINA RESULT:    -4.116      3.260      4.507
REMARK INTER + INTRA:          -5.461
REMARK INTER:                  -5.306
REMARK INTRA:                  -0.155
REMARK UNBOUND:                -0.142
REMARK SMILES CCCCCCC(=O)[O-]
REMARK SMILES IDX 5 1 6 2 7 3 8 4 9 5 4 6 3 7 2 8 1 9
REMARK H PARENT
REMARK Flexibility Score: inf
ROOT
ATOM      1  C   UNL     1       3.715   2.305  16.955  1.00  0.00     0.006 C 
ENDROOT
BRANCH   1   2
ATOM      2  C   UNL     1       3.492   2.353  15.440  1.00  0.00     0.053 C 
BRANCH   2   3
ATOM      3  C   UNL     1       2.796   1.114  14.974  1.00  0.00     0.041 C 
ATOM      4  O   UNL     1       1.573   0.943  15.219  1.00  0.00    -0.550 OA
ATOM      5  O   UNL     1       3.486   0.169  14.226  1.00  0.00    -0.550 OA
ENDBRANCH   2   3
ENDBRANCH   1   2
BRANCH   1   6
ATOM      6  C   UNL     1       3.019   3.481  17.651  1.00  0.00     0.000 C 
BRANCH   6   7
ATOM      7  C   UNL     1       3.106   3.347  19.177  1.00  0.00    -0.000 C 
BRANCH   7   8
ATOM      8  C   UNL     1       2.738   4.666  19.865  1.00  0.00    -0.003 C 
ATOM      9  C   UNL     1       2.279   5.707  18.849  1.00  0.00     0.004 C 
ENDBRANCH   7   8
ENDBRANCH   6   7
ENDBRANCH   1   6
TORSDOF 5
ENDMDL
MODEL 9
REMARK VINA RESULT:    -4.111      3.751      4.941
REMARK INTER + INTRA:          -5.455
REMARK INTER:                  -5.257
REMARK INTRA:                  -0.199
REMARK UNBOUND:                -0.142
REMARK SMILES CCCCCCC(=O)[O-]
REMARK SMILES IDX 5 1 6 2 7 3 8 4 9 5 4 6 3 7 2 8 1 9
REMARK H PARENT
REMARK Flexibility Score: inf
ROOT
ATOM      1  C   UNL     1       3.571   3.028  16.241  1.00  0.00     0.006 C 
ENDROOT
BRANCH   1   2
ATOM      2  C   UNL     1       3.049   3.868  15.071  1.00  0.00     0.053 C 
BRANCH   2   3
ATOM      3  C   UNL     1       4.063   3.924  13.973  1.00  0.00     0.041 C 
ATOM      4  O   UNL     1       4.482   2.861  13.442  1.00  0.00    -0.550 OA
ATOM      5  O   UNL     1       4.510   5.151  13.502  1.00  0.00    -0.550 OA
ENDBRANCH   2   3
ENDBRANCH   1   2
BRANCH   1   6
ATOM      6  C   UNL     1       3.016   3.537  17.576  1.00  0.00     0.000 C 
BRANCH   6   7
ATOM      7  C   UNL     1       2.637   5.020  17.485  1.00  0.00    -0.000 C 
BRANCH   7   8
ATOM      8  C   UNL     1       2.300   5.587  18.869  1.00  0.00    -0.003 C 
ATOM      9  C   UNL     1       2.691   4.610  19.974  1.00  0.00     0.004 C 
ENDBRANCH   7   8
ENDBRANCH   6   7
ENDBRANCH   1   6
TORSDOF 5
ENDMDL
