MODEL 1
REMARK VINA RESULT:    -3.229      0.000      0.000
REMARK INTER + INTRA:          -4.162
REMARK INTER:                  -4.079
REMARK INTRA:                  -0.083
REMARK UNBOUND:                -0.083
REMARK SMILES CCCCCCO
REMARK SMILES IDX 4 1 3 2 2 3 1 4 5 5 6 6 7 7
REMARK H PARENT 7 8
REMARK Flexibility Score: inf
ROOT
ATOM      1  C   UNL     1     177.017 176.411 180.826  1.00  0.00     0.002 C 
ENDROOT
BRANCH   1   2
ATOM      2  C   UNL     1     177.044 177.356 182.034  1.00  0.00    -0.000 C 
BRANCH   2   3
ATOM      3  C   UNL     1     176.385 176.706 183.256  1.00  0.00    -0.003 C 
ATOM      4  C   UNL     1     176.206 175.206 183.052  1.00  0.00     0.004 C 
ENDBRANCH   2   3
ENDBRANCH   1   2
BRANCH   1   5
ATOM      5  C   UNL     1     176.695 177.175 179.537  1.00  0.00     0.028 C 
BRANCH   5   6
ATOM      6  C   UNL     1     176.495 176.215 178.361  1.00  0.00     0.156 C 
BRANCH   6   7
ATOM      7  O   UNL     1     177.259 175.055 178.547  1.00  0.00    -0.396 OA
ATOM      8  H   UNL     1     176.892 174.371 177.928  1.00  0.00     0.210 HD
ENDBRANCH   6   7
ENDBRANCH   5   6
ENDBRANCH   1   5
TORSDOF 5
ENDMDL
MODEL 2
REMARK VINA RESULT:    -3.157      1.277      1.674
REMARK INTER + INTRA:          -4.070
REMARK INTER:                  -3.938
REMARK INTRA:                  -0.132
REMARK UNBOUND:                -0.083
REMARK SMILES CCCCCCO
REMARK SMILES IDX 4 1 3 2 2 3 1 4 5 5 6 6 7 7
REMARK H PARENT 7 8
REMARK Flexibility Score: inf
ROOT
ATOM      1  C   UNL     1     176.904 176.979 181.622  1.00  0.00     0.002 C 
ENDROOT
BRANCH   1   2
ATOM      2  C   UNL     1     176.298 176.726 183.008  1.00  0.00    -0.000 C 
BRANCH   2   3
ATOM      3  C   UNL     1     174.952 176.001 182.896  1.00  0.00    -0.003 C 
ATOM      4  C   UNL     1     173.838 176.964 182.497  1.00  0.00     0.004 C 
ENDBRANCH   2   3
ENDBRANCH   1   2
BRANCH   1   5
ATOM      5  C   UNL     1     176.984 175.680 180.811  1.00  0.00     0.028 C 
BRANCH   5   6
ATOM      6  C   UNL     1     176.531 175.903 179.366  1.00  0.00     0.156 C 
BRANCH   6   7
ATOM      7  O   UNL     1     177.277 175.098 178.494  1.00  0.00    -0.396 OA
ATOM      8  H   UNL     1     176.627 174.524 178.011  1.00  0.00     0.210 HD
ENDBRANCH   6   7
ENDBRANCH   5   6
ENDBRANCH   1   5
TORSDOF 5
ENDMDL
MODEL 3
REMARK VINA RESULT:    -3.074      2.344      3.393
REMARK INTER + INTRA:          -3.966
REMARK INTER:                  -3.884
REMARK INTRA:                  -0.083
REMARK UNBOUND:                -0.083
REMARK SMILES CCCCCCO
REMARK SMILES IDX 4 1 3 2 2 3 1 4 5 5 6 6 7 7
REMARK H PARENT 7 8
REMARK Flexibility Score: inf
ROOT
ATOM      1  C   UNL     1     176.922 174.726 182.078  1.00  0.00     0.002 C 
ENDROOT
BRANCH   1   2
ATOM      2  C   UNL     1     177.058 175.757 180.951  1.00  0.00    -0.000 C 
BRANCH   2   3
ATOM      3  C   UNL     1     176.640 177.153 181.428  1.00  0.00    -0.003 C 
ATOM      4  C   UNL     1     177.092 177.403 182.863  1.00  0.00     0.004 C 
ENDBRANCH   2   3
ENDBRANCH   1   2
BRANCH   1   5
ATOM      5  C   UNL     1     177.825 173.513 181.827  1.00  0.00     0.028 C 
BRANCH   5   6
ATOM      6  C   UNL     1     176.998 172.242 181.620  1.00  0.00     0.156 C 
BRANCH   6   7
ATOM      7  O   UNL     1     177.500 171.508 180.537  1.00  0.00    -0.396 OA
ATOM      8  H   UNL     1     178.449 171.304 180.747  1.00  0.00     0.210 HD
ENDBRANCH   6   7
ENDBRANCH   5   6
ENDBRANCH   1   5
TORSDOF 5
ENDMDL
MODEL 4
REMARK VINA RESULT:    -2.984      1.514      2.998
REMARK INTER + INTRA:          -3.852
REMARK INTER:                  -3.632
REMARK INTRA:                  -0.220
REMARK UNBOUND:                -0.083
REMARK SMILES CCCCCCO
REMARK SMILES IDX 4 1 3 2 2 3 1 4 5 5 6 6 7 7
REMARK H PARENT 7 8
REMARK Flexibility Score: inf
ROOT
ATOM      1  C   UNL     1     176.180 175.507 183.289  1.00  0.00     0.002 C 
ENDROOT
BRANCH   1   2
ATOM      2  C   UNL     1     175.823 176.837 182.613  1.00  0.00    -0.000 C 
BRANCH   2   3
ATOM      3  C   UNL     1     177.085 177.574 182.150  1.00  0.00    -0.003 C 
ATOM      4  C   UNL     1     177.141 177.667 180.629  1.00  0.00     0.004 C 
ENDBRANCH   2   3
ENDBRANCH   1   2
BRANCH   1   5
ATOM      5  C   UNL     1     176.011 174.333 182.317  1.00  0.00     0.028 C 
BRANCH   5   6
ATOM      6  C   UNL     1     177.360 173.898 181.737  1.00  0.00     0.156 C 
BRANCH   6   7
ATOM      7  O   UNL     1     177.387 174.119 180.354  1.00  0.00    -0.396 OA
ATOM      8  H   UNL     1     176.572 173.692 179.982  1.00  0.00     0.210 HD
ENDBRANCH   6   7
ENDBRANCH   5   6
ENDBRANCH   1   5
TORSDOF 5
ENDMDL
MODEL 5
REMARK VINA RESULT:    -2.977      3.181      3.867
REMARK INTER + INTRA:          -3.843
REMARK INTER:                  -3.727
REMARK INTRA:                  -0.116
REMARK UNBOUND:                -0.083
REMARK SMILES CCCCCCO
REMARK SMILES IDX 4 1 3 2 2 3 1 4 5 5 6 6 7 7
REMARK H PARENT 7 8
REMARK Flexibility Score: inf
ROOT
ATOM      1  C   UNL     1     174.908 176.040 182.548  1.00  0.00     0.002 C 
ENDROOT
BRANCH   1   2
ATOM      2  C   UNL     1     176.110 176.570 183.339  1.00  0.00    -0.000 C 
BRANCH   2   3
ATOM      3  C   UNL     1     177.001 177.455 182.459  1.00  0.00    -0.003 C 
ATOM      4  C   UNL     1     177.037 176.944 181.023  1.00  0.00     0.004 C 
ENDBRANCH   2   3
ENDBRANCH   1   2
BRANCH   1   5
ATOM      5  C   UNL     1     173.723 177.009 182.631  1.00  0.00     0.028 C 
BRANCH   5   6
ATOM      6  C   UNL     1     173.007 177.122 181.282  1.00  0.00     0.156 C 
BRANCH   6   7
ATOM      7  O   UNL     1     172.029 178.125 181.335  1.00  0.00    -0.396 OA
ATOM      8  H   UNL     1     172.166 178.697 180.535  1.00  0.00     0.210 HD
ENDBRANCH   6   7
ENDBRANCH   5   6
ENDBRANCH   1   5
TORSDOF 5
ENDMDL
MODEL 6
REMARK VINA RESULT:    -2.943      1.808      1.863
REMARK INTER + INTRA:          -3.800
REMARK INTER:                  -3.667
REMARK INTRA:                  -0.134
REMARK UNBOUND:                -0.083
REMARK SMILES CCCCCCO
REMARK SMILES IDX 4 1 3 2 2 3 1 4 5 5 6 6 7 7
REMARK H PARENT 7 8
REMARK Flexibility Score: inf
ROOT
ATOM      1  C   UNL     1     177.032 176.754 180.923  1.00  0.00     0.002 C 
ENDROOT
BRANCH   1   2
ATOM      2  C   UNL     1     177.012 177.445 182.292  1.00  0.00    -0.000 C 
BRANCH   2   3
ATOM      3  C   UNL     1     176.098 176.699 183.271  1.00  0.00    -0.003 C 
ATOM      4  C   UNL     1     176.199 175.190 183.079  1.00  0.00     0.004 C 
ENDBRANCH   2   3
ENDBRANCH   1   2
BRANCH   1   5
ATOM      5  C   UNL     1     176.326 177.609 179.864  1.00  0.00     0.028 C 
BRANCH   5   6
ATOM      6  C   UNL     1     174.849 177.227 179.741  1.00  0.00     0.156 C 
BRANCH   6   7
ATOM      7  O   UNL     1     174.227 178.005 178.755  1.00  0.00    -0.396 OA
ATOM      8  H   UNL     1     174.570 177.684 177.881  1.00  0.00     0.210 HD
ENDBRANCH   6   7
ENDBRANCH   5   6
ENDBRANCH   1   5
TORSDOF 5
ENDMDL
MODEL 7
REMARK VINA RESULT:    -2.864      1.535      2.467
REMARK INTER + INTRA:          -3.701
REMARK INTER:                  -3.494
REMARK INTRA:                  -0.207
REMARK UNBOUND:                -0.083
REMARK SMILES CCCCCCO
REMARK SMILES IDX 4 1 3 2 2 3 1 4 5 5 6 6 7 7
REMARK H PARENT 7 8
REMARK Flexibility Score: inf
ROOT
ATOM      1  C   UNL     1     176.581 176.463 182.917  1.00  0.00     0.002 C 
ENDROOT
BRANCH   1   2
ATOM      2  C   UNL     1     175.974 175.098 183.264  1.00  0.00    -0.000 C 
BRANCH   2   3
ATOM      3  C   UNL     1     176.106 174.122 182.089  1.00  0.00    -0.003 C 
ATOM      4  C   UNL     1     177.566 173.769 181.828  1.00  0.00     0.004 C 
ENDBRANCH   2   3
ENDBRANCH   1   2
BRANCH   1   5
ATOM      5  C   UNL     1     175.920 177.058 181.668  1.00  0.00     0.028 C 
BRANCH   5   6
ATOM      6  C   UNL     1     176.968 177.614 180.700  1.00  0.00     0.156 C 
BRANCH   6   7
ATOM      7  O   UNL     1     177.258 176.671 179.705  1.00  0.00    -0.396 OA
ATOM      8  H   UNL     1     177.916 176.038 180.096  1.00  0.00     0.210 HD
ENDBRANCH   6   7
ENDBRANCH   5   6
ENDBRANCH   1   5
TORSDOF 5
ENDMDL
MODEL 8
REMARK VINA RESULT:    -2.779      2.365      3.918
REMARK INTER + INTRA:          -3.593
REMARK INTER:                  -3.388
REMARK INTRA:                  -0.206
REMARK UNBOUND:                -0.083
REMARK SMILES CCCCCCO
REMARK SMILES IDX 4 1 3 2 2 3 1 4 5 5 6 6 7 7
REMARK H PARENT 7 8
REMARK Flexibility Score: inf
ROOT
ATOM      1  C   UNL     1     176.816 177.269 182.357  1.00  0.00     0.002 C 
ENDROOT
BRANCH   1   2
ATOM      2  C   UNL     1     177.096 176.545 181.034  1.00  0.00    -0.000 C 
BRANCH   2   3
ATOM      3  C   UNL     1     176.925 177.494 179.841  1.00  0.00    -0.003 C 
ATOM      4  C   UNL     1     175.473 177.541 179.378  1.00  0.00     0.004 C 
ENDBRANCH   2   3
ENDBRANCH   1   2
BRANCH   1   5
ATOM      5  C   UNL     1     175.983 176.391 183.298  1.00  0.00     0.028 C 
BRANCH   5   6
ATOM      6  C   UNL     1     174.616 176.069 182.688  1.00  0.00     0.156 C 
BRANCH   6   7
ATOM      7  O   UNL     1     173.831 177.228 182.618  1.00  0.00    -0.396 OA
ATOM      8  H   UNL     1     173.006 177.044 183.138  1.00  0.00     0.210 HD
ENDBRANCH   6   7
ENDBRANCH   5   6
ENDBRANCH   1   5
TORSDOF 5
ENDMDL
MODEL 9
REMARK VINA RESULT:    -2.774     16.764     17.209
REMARK INTER + INTRA:          -3.587
REMARK INTER:                  -3.415
REMARK INTRA:                  -0.172
REMARK UNBOUND:                -0.083
REMARK SMILES CCCCCCO
REMARK SMILES IDX 4 1 3 2 2 3 1 4 5 5 6 6 7 7
REMARK H PARENT 7 8
REMARK Flexibility Score: inf
ROOT
ATOM      1  C   UNL     1     160.739 173.240 181.579  1.00  0.00     0.002 C 
ENDROOT
BRANCH   1   2
ATOM      2  C   UNL     1     159.975 173.606 182.858  1.00  0.00    -0.000 C 
BRANCH   2   3
ATOM      3  C   UNL     1     159.621 175.098 182.879  1.00  0.00    -0.003 C 
ATOM      4  C   UNL     1     160.833 175.956 182.529  1.00  0.00     0.004 C 
ENDBRANCH   2   3
ENDBRANCH   1   2
BRANCH   1   5
ATOM      5  C   UNL     1     159.800 172.628 180.533  1.00  0.00     0.028 C 
BRANCH   5   6
ATOM      6  C   UNL     1     159.515 173.619 179.401  1.00  0.00     0.156 C 
BRANCH   6   7
ATOM      7  O   UNL     1     158.151 173.938 179.367  1.00  0.00    -0.396 OA
ATOM      8  H   UNL     1     157.764 173.621 180.224  1.00  0.00     0.210 HD
ENDBRANCH   6   7
ENDBRANCH   5   6
ENDBRANCH   1   5
TORSDOF 5
ENDMDL
