MODEL 1
REMARK VINA RESULT:    -6.613      0.000      0.000
REMARK INTER + INTRA:          -8.058
REMARK INTER:                  -7.773
REMARK INTRA:                  -0.285
REMARK UNBOUND:                -0.285
REMARK SMILES O=c1cc(-c2ccc(O)c(O)c2)oc2cc(O)cc(O)c12
REMARK SMILES IDX 4 1 3 2 2 3 1 4 21 5 19 6 18 7 16 8 15 9 14 10 13 11 5 12
REMARK SMILES IDX 6 13 7 14 8 15 12 16 10 17 9 18 11 20 20 22 17 24
REMARK H PARENT 9 19 11 21 20 23 17 25
REMARK Flexibility Score: inf
ROOT
ATOM      1  C   UNL     1       6.303  -5.524  26.460  1.00  0.00     0.138 A 
ATOM      2  C   UNL     1       6.264  -6.878  26.822  1.00  0.00     0.100 A 
ATOM      3  C   UNL     1       6.543  -7.856  25.867  1.00  0.00     0.197 A 
ATOM      4  O   UNL     1       6.439  -9.063  26.205  1.00  0.00    -0.289 OA
ATOM      5  C   UNL     1       6.893  -7.473  24.550  1.00  0.00     0.107 A 
ATOM      6  C   UNL     1       7.237  -8.382  23.505  1.00  0.00     0.134 A 
ATOM      7  C   UNL     1       7.452  -7.894  22.209  1.00  0.00     0.093 A 
ATOM      8  C   UNL     1       7.396  -6.525  21.937  1.00  0.00     0.123 A 
ATOM      9  C   UNL     1       7.114  -5.626  22.962  1.00  0.00     0.094 A 
ATOM     10  C   UNL     1       6.861  -6.084  24.257  1.00  0.00     0.146 A 
ATOM     11  O   UNL     1       6.581  -5.193  25.203  1.00  0.00    -0.456 OA
ENDROOT
BRANCH   1  12
ATOM     12  C   UNL     1       6.017  -4.442  27.437  1.00  0.00     0.021 A 
ATOM     13  C   UNL     1       5.377  -3.269  27.001  1.00  0.00     0.016 A 
ATOM     14  C   UNL     1       5.102  -2.235  27.898  1.00  0.00     0.051 A 
ATOM     15  C   UNL     1       5.471  -2.347  29.241  1.00  0.00     0.157 A 
ATOM     16  C   UNL     1       6.398  -4.546  28.789  1.00  0.00     0.062 A 
ATOM     17  C   UNL     1       6.126  -3.505  29.690  1.00  0.00     0.158 A 
BRANCH  15  18
ATOM     18  O   UNL     1       5.182  -1.297  30.114  1.00  0.00    -0.504 OA
ATOM     19  H   UNL     1       5.024  -1.448  31.103  1.00  0.00     0.293 HD
ENDBRANCH  15  18
BRANCH  17  20
ATOM     20  O   UNL     1       6.505  -3.619  31.026  1.00  0.00    -0.504 OA
ATOM     21  H   UNL     1       7.329  -4.142  31.302  1.00  0.00     0.293 HD
ENDBRANCH  17  20
ENDBRANCH   1  12
BRANCH   6  22
ATOM     22  O   UNL     1       7.403  -9.758  23.689  1.00  0.00    -0.507 OA
ATOM     23  H   UNL     1       8.253 -10.266  23.501  1.00  0.00     0.293 HD
ENDBRANCH   6  22
BRANCH   8  24
ATOM     24  O   UNL     1       7.626  -6.047  20.648  1.00  0.00    -0.508 OA
ATOM     25  H   UNL     1       8.071  -5.151  20.486  1.00  0.00     0.293 HD
ENDBRANCH   8  24
TORSDOF 5
ENDMDL
MODEL 2
REMARK VINA RESULT:    -6.357     14.533     15.774
REMARK INTER + INTRA:          -7.758
REMARK INTER:                  -7.495
REMARK INTRA:                  -0.263
REMARK UNBOUND:                -0.285
REMARK SMILES O=c1cc(-c2ccc(O)c(O)c2)oc2cc(O)cc(O)c12
REMARK SMILES IDX 4 1 3 2 2 3 1 4 21 5 19 6 18 7 16 8 15 9 14 10 13 11 5 12
REMARK SMILES IDX 6 13 7 14 8 15 12 16 10 17 9 18 11 20 20 22 17 24
REMARK H PARENT 9 19 11 21 20 23 17 25
REMARK Flexibility Score: inf
ROOT
ATOM      1  C   UNL     1      19.690 -14.105  25.386  1.00  0.00     0.138 A 
ATOM      2  C   UNL     1      21.011 -13.967  24.941  1.00  0.00     0.100 A 
ATOM      3  C   UNL     1      21.268 -13.807  23.579  1.00  0.00     0.197 A 
ATOM      4  O   UNL     1      22.466 -13.749  23.203  1.00  0.00    -0.289 OA
ATOM      5  C   UNL     1      20.191 -13.753  22.662  1.00  0.00     0.107 A 
ATOM      6  C   UNL     1      20.330 -13.552  21.256  1.00  0.00     0.134 A 
ATOM      7  C   UNL     1      19.200 -13.633  20.432  1.00  0.00     0.093 A 
ATOM      8  C   UNL     1      17.929 -13.847  20.971  1.00  0.00     0.123 A 
ATOM      9  C   UNL     1      17.776 -13.991  22.347  1.00  0.00     0.094 A 
ATOM     10  C   UNL     1      18.888 -13.949  23.193  1.00  0.00     0.146 A 
ATOM     11  O   UNL     1      18.699 -14.105  24.498  1.00  0.00    -0.456 OA
ENDROOT
BRANCH   1  12
ATOM     12  C   UNL     1      19.360 -14.277  26.824  1.00  0.00     0.021 A 
ATOM     13  C   UNL     1      19.028 -15.553  27.310  1.00  0.00     0.016 A 
ATOM     14  C   UNL     1      18.708 -15.740  28.656  1.00  0.00     0.051 A 
ATOM     15  C   UNL     1      18.701 -14.657  29.538  1.00  0.00     0.157 A 
ATOM     16  C   UNL     1      19.340 -13.186  27.714  1.00  0.00     0.062 A 
ATOM     17  C   UNL     1      19.015 -13.372  29.066  1.00  0.00     0.158 A 
BRANCH  15  18
ATOM     18  O   UNL     1      18.378 -14.875  30.878  1.00  0.00    -0.504 OA
ATOM     19  H   UNL     1      18.001 -15.757  31.203  1.00  0.00     0.293 HD
ENDBRANCH  15  18
BRANCH  17  20
ATOM     20  O   UNL     1      19.000 -12.285  29.939  1.00  0.00    -0.504 OA
ATOM     21  H   UNL     1      19.247 -11.352  29.630  1.00  0.00     0.293 HD
ENDBRANCH  17  20
ENDBRANCH   1  12
BRANCH   6  22
ATOM     22  O   UNL     1      21.541 -13.247  20.627  1.00  0.00    -0.507 OA
ATOM     23  H   UNL     1      21.629 -12.904  19.683  1.00  0.00     0.293 HD
ENDBRANCH   6  22
BRANCH   8  24
ATOM     24  O   UNL     1      16.809 -13.912  20.145  1.00  0.00    -0.508 OA
ATOM     25  H   UNL     1      15.872 -13.975  20.526  1.00  0.00     0.293 HD
ENDBRANCH   8  24
TORSDOF 5
ENDMDL
MODEL 3
REMARK VINA RESULT:    -6.313     14.600     16.056
REMARK INTER + INTRA:          -7.706
REMARK INTER:                  -7.433
REMARK INTRA:                  -0.273
REMARK UNBOUND:                -0.285
REMARK SMILES O=c1cc(-c2ccc(O)c(O)c2)oc2cc(O)cc(O)c12
REMARK SMILES IDX 4 1 3 2 2 3 1 4 21 5 19 6 18 7 16 8 15 9 14 10 13 11 5 12
REMARK SMILES IDX 6 13 7 14 8 15 12 16 10 17 9 18 11 20 20 22 17 24
REMARK H PARENT 9 19 11 21 20 23 17 25
REMARK Flexibility Score: inf
ROOT
ATOM      1  C   UNL     1      19.068 -14.196  24.294  1.00  0.00     0.138 A 
ATOM      2  C   UNL     1      18.573 -12.957  23.864  1.00  0.00     0.100 A 
ATOM      3  C   UNL     1      18.661 -12.609  22.516  1.00  0.00     0.197 A 
ATOM      4  O   UNL     1      18.266 -11.467  22.170  1.00  0.00    -0.289 OA
ATOM      5  C   UNL     1      19.219 -13.522  21.589  1.00  0.00     0.107 A 
ATOM      6  C   UNL     1      19.323 -13.292  20.184  1.00  0.00     0.134 A 
ATOM      7  C   UNL     1      20.000 -14.219  19.381  1.00  0.00     0.093 A 
ATOM      8  C   UNL     1      20.523 -15.395  19.924  1.00  0.00     0.123 A 
ATOM      9  C   UNL     1      20.380 -15.654  21.284  1.00  0.00     0.094 A 
ATOM     10  C   UNL     1      19.740 -14.733  22.118  1.00  0.00     0.146 A 
ATOM     11  O   UNL     1      19.637 -15.012  23.412  1.00  0.00    -0.456 OA
ENDROOT
BRANCH   1  12
ATOM     12  C   UNL     1      18.999 -14.617  25.716  1.00  0.00     0.021 A 
ATOM     13  C   UNL     1      18.451 -15.870  26.041  1.00  0.00     0.016 A 
ATOM     14  C   UNL     1      18.369 -16.286  27.372  1.00  0.00     0.051 A 
ATOM     15  C   UNL     1      18.821 -15.457  28.401  1.00  0.00     0.157 A 
ATOM     16  C   UNL     1      19.442 -13.780  26.759  1.00  0.00     0.062 A 
ATOM     17  C   UNL     1      19.357 -14.196  28.096  1.00  0.00     0.158 A 
BRANCH  15  18
ATOM     18  O   UNL     1      18.727 -15.902  29.721  1.00  0.00    -0.504 OA
ATOM     19  H   UNL     1      18.568 -16.875  29.950  1.00  0.00     0.293 HD
ENDBRANCH  15  18
BRANCH  17  20
ATOM     20  O   UNL     1      19.800 -13.360  29.119  1.00  0.00    -0.504 OA
ATOM     21  H   UNL     1      19.534 -12.382  29.159  1.00  0.00     0.293 HD
ENDBRANCH  17  20
ENDBRANCH   1  12
BRANCH   6  22
ATOM     22  O   UNL     1      18.761 -12.192  19.529  1.00  0.00    -0.507 OA
ATOM     23  H   UNL     1      19.029 -11.868  18.612  1.00  0.00     0.293 HD
ENDBRANCH   6  22
BRANCH   8  24
ATOM     24  O   UNL     1      21.183 -16.318  19.115  1.00  0.00    -0.508 OA
ATOM     25  H   UNL     1      22.170 -16.228  18.902  1.00  0.00     0.293 HD
ENDBRANCH   8  24
TORSDOF 5
ENDMDL
MODEL 4
REMARK VINA RESULT:    -6.297     14.452     16.588
REMARK INTER + INTRA:          -7.687
REMARK INTER:                  -7.424
REMARK INTRA:                  -0.264
REMARK UNBOUND:                -0.285
REMARK SMILES O=c1cc(-c2ccc(O)c(O)c2)oc2cc(O)cc(O)c12
REMARK SMILES IDX 4 1 3 2 2 3 1 4 21 5 19 6 18 7 16 8 15 9 14 10 13 11 5 12
REMARK SMILES IDX 6 13 7 14 8 15 12 16 10 17 9 18 11 20 20 22 17 24
REMARK H PARENT 9 19 11 21 20 23 17 25
REMARK Flexibility Score: inf
ROOT
ATOM      1  C   UNL     1      19.206 -14.376  26.399  1.00  0.00     0.138 A 
ATOM      2  C   UNL     1      19.100 -15.644  26.986  1.00  0.00     0.100 A 
ATOM      3  C   UNL     1      19.025 -15.758  28.374  1.00  0.00     0.197 A 
ATOM      4  O   UNL     1      18.994 -16.912  28.875  1.00  0.00    -0.289 OA
ATOM      5  C   UNL     1      19.026 -14.593  29.177  1.00  0.00     0.107 A 
ATOM      6  C   UNL     1      18.913 -14.586  30.600  1.00  0.00     0.134 A 
ATOM      7  C   UNL     1      19.043 -13.377  31.297  1.00  0.00     0.093 A 
ATOM      8  C   UNL     1      19.220 -12.169  30.617  1.00  0.00     0.123 A 
ATOM      9  C   UNL     1      19.277 -12.159  29.226  1.00  0.00     0.094 A 
ATOM     10  C   UNL     1      19.186 -13.352  28.504  1.00  0.00     0.146 A 
ATOM     11  O   UNL     1      19.260 -13.299  27.178  1.00  0.00    -0.456 OA
ENDROOT
BRANCH   1  12
ATOM     12  C   UNL     1      19.288 -14.196  24.927  1.00  0.00     0.021 A 
ATOM     13  C   UNL     1      20.519 -13.863  24.338  1.00  0.00     0.016 A 
ATOM     14  C   UNL     1      20.621 -13.683  22.957  1.00  0.00     0.051 A 
ATOM     15  C   UNL     1      19.494 -13.820  22.141  1.00  0.00     0.157 A 
ATOM     16  C   UNL     1      18.152 -14.321  24.103  1.00  0.00     0.062 A 
ATOM     17  C   UNL     1      18.253 -14.136  22.716  1.00  0.00     0.158 A 
BRANCH  15  18
ATOM     18  O   UNL     1      19.627 -13.634  20.765  1.00  0.00    -0.504 OA
ATOM     19  H   UNL     1      19.725 -12.714  20.353  1.00  0.00     0.293 HD
ENDBRANCH  15  18
BRANCH  17  20
ATOM     20  O   UNL     1      17.123 -14.263  21.908  1.00  0.00    -0.504 OA
ATOM     21  H   UNL     1      16.465 -15.024  22.032  1.00  0.00     0.293 HD
ENDBRANCH  17  20
ENDBRANCH   1  12
BRANCH   6  22
ATOM     22  O   UNL     1      18.651 -15.724  31.368  1.00  0.00    -0.507 OA
ATOM     23  H   UNL     1      17.785 -15.906  31.853  1.00  0.00     0.293 HD
ENDBRANCH   6  22
BRANCH   8  24
ATOM     24  O   UNL     1      19.333 -10.971  31.318  1.00  0.00    -0.508 OA
ATOM     25  H   UNL     1      18.988 -10.098  30.936  1.00  0.00     0.293 HD
ENDBRANCH   8  24
TORSDOF 5
ENDMDL
MODEL 5
REMARK VINA RESULT:    -6.140     14.304     16.838
REMARK INTER + INTRA:          -7.502
REMARK INTER:                  -7.238
REMARK INTRA:                  -0.264
REMARK UNBOUND:                -0.285
REMARK SMILES O=c1cc(-c2ccc(O)c(O)c2)oc2cc(O)cc(O)c12
REMARK SMILES IDX 4 1 3 2 2 3 1 4 21 5 19 6 18 7 16 8 15 9 14 10 13 11 5 12
REMARK SMILES IDX 6 13 7 14 8 15 12 16 10 17 9 18 11 20 20 22 17 24
REMARK H PARENT 9 19 11 21 20 23 17 25
REMARK Flexibility Score: inf
ROOT
ATOM      1  C   UNL     1      19.699 -13.989  26.950  1.00  0.00     0.138 A 
ATOM      2  C   UNL     1      20.832 -14.738  27.293  1.00  0.00     0.100 A 
ATOM      3  C   UNL     1      21.395 -14.596  28.562  1.00  0.00     0.197 A 
ATOM      4  O   UNL     1      22.447 -15.234  28.820  1.00  0.00    -0.289 OA
ATOM      5  C   UNL     1      20.800 -13.721  29.501  1.00  0.00     0.107 A 
ATOM      6  C   UNL     1      21.262 -13.527  30.837  1.00  0.00     0.134 A 
ATOM      7  C   UNL     1      20.663 -12.547  31.640  1.00  0.00     0.093 A 
ATOM      8  C   UNL     1      19.578 -11.799  31.174  1.00  0.00     0.123 A 
ATOM      9  C   UNL     1      19.085 -12.019  29.891  1.00  0.00     0.094 A 
ATOM     10  C   UNL     1      19.683 -12.964  29.054  1.00  0.00     0.146 A 
ATOM     11  O   UNL     1      19.191 -13.133  27.832  1.00  0.00    -0.456 OA
ENDROOT
BRANCH   1  12
ATOM     12  C   UNL     1      19.058 -14.102  25.614  1.00  0.00     0.021 A 
ATOM     13  C   UNL     1      19.217 -13.063  24.681  1.00  0.00     0.016 A 
ATOM     14  C   UNL     1      18.620 -13.143  23.421  1.00  0.00     0.051 A 
ATOM     15  C   UNL     1      17.845 -14.253  23.074  1.00  0.00     0.157 A 
ATOM     16  C   UNL     1      18.267 -15.213  25.265  1.00  0.00     0.062 A 
ATOM     17  C   UNL     1      17.664 -15.292  24.001  1.00  0.00     0.158 A 
BRANCH  15  18
ATOM     18  O   UNL     1      17.262 -14.304  21.808  1.00  0.00    -0.504 OA
ATOM     19  H   UNL     1      17.132 -13.474  21.242  1.00  0.00     0.293 HD
ENDBRANCH  15  18
BRANCH  17  20
ATOM     20  O   UNL     1      16.884 -16.398  23.664  1.00  0.00    -0.504 OA
ATOM     21  H   UNL     1      16.422 -16.468  22.765  1.00  0.00     0.293 HD
ENDBRANCH  17  20
ENDBRANCH   1  12
BRANCH   6  22
ATOM     22  O   UNL     1      22.281 -14.279  31.428  1.00  0.00    -0.507 OA
ATOM     23  H   UNL     1      22.201 -15.248  31.696  1.00  0.00     0.293 HD
ENDBRANCH   6  22
BRANCH   8  24
ATOM     24  O   UNL     1      18.979 -10.837  31.984  1.00  0.00    -0.508 OA
ATOM     25  H   UNL     1      18.868  -9.877  31.676  1.00  0.00     0.293 HD
ENDBRANCH   8  24
TORSDOF 5
ENDMDL
MODEL 6
REMARK VINA RESULT:    -6.107     14.441     16.469
REMARK INTER + INTRA:          -7.464
REMARK INTER:                  -7.160
REMARK INTRA:                  -0.304
REMARK UNBOUND:                -0.285
REMARK SMILES O=c1cc(-c2ccc(O)c(O)c2)oc2cc(O)cc(O)c12
REMARK SMILES IDX 4 1 3 2 2 3 1 4 21 5 19 6 18 7 16 8 15 9 14 10 13 11 5 12
REMARK SMILES IDX 6 13 7 14 8 15 12 16 10 17 9 18 11 20 20 22 17 24
REMARK H PARENT 9 19 11 21 20 23 17 25
REMARK Flexibility Score: inf
ROOT
ATOM      1  C   UNL     1      20.577 -14.221  25.526  1.00  0.00     0.138 A 
ATOM      2  C   UNL     1      21.678 -14.651  24.773  1.00  0.00     0.100 A 
ATOM      3  C   UNL     1      21.721 -14.388  23.403  1.00  0.00     0.197 A 
ATOM      4  O   UNL     1      22.691 -14.840  22.742  1.00  0.00    -0.289 OA
ATOM      5  C   UNL     1      20.669 -13.664  22.792  1.00  0.00     0.107 A 
ATOM      6  C   UNL     1      20.626 -13.303  21.412  1.00  0.00     0.134 A 
ATOM      7  C   UNL     1      19.478 -12.687  20.895  1.00  0.00     0.093 A 
ATOM      8  C   UNL     1      18.399 -12.366  21.723  1.00  0.00     0.123 A 
ATOM      9  C   UNL     1      18.454 -12.665  23.081  1.00  0.00     0.094 A 
ATOM     10  C   UNL     1      19.570 -13.311  23.620  1.00  0.00     0.146 A 
ATOM     11  O   UNL     1      19.576 -13.591  24.919  1.00  0.00    -0.456 OA
ENDROOT
BRANCH   1  12
ATOM     12  C   UNL     1      20.480 -14.473  26.987  1.00  0.00     0.021 A 
ATOM     13  C   UNL     1      21.652 -14.502  27.763  1.00  0.00     0.016 A 
ATOM     14  C   UNL     1      21.588 -14.743  29.137  1.00  0.00     0.051 A 
ATOM     15  C   UNL     1      20.358 -14.970  29.759  1.00  0.00     0.157 A 
ATOM     16  C   UNL     1      19.243 -14.714  27.616  1.00  0.00     0.062 A 
ATOM     17  C   UNL     1      19.179 -14.959  28.996  1.00  0.00     0.158 A 
BRANCH  15  18
ATOM     18  O   UNL     1      20.326 -15.206  31.134  1.00  0.00    -0.504 OA
ATOM     19  H   UNL     1      20.378 -16.141  31.520  1.00  0.00     0.293 HD
ENDBRANCH  15  18
BRANCH  17  20
ATOM     20  O   UNL     1      17.949 -15.195  29.609  1.00  0.00    -0.504 OA
ATOM     21  H   UNL     1      17.434 -16.054  29.452  1.00  0.00     0.293 HD
ENDBRANCH  17  20
ENDBRANCH   1  12
BRANCH   6  22
ATOM     22  O   UNL     1      21.683 -13.502  20.519  1.00  0.00    -0.507 OA
ATOM     23  H   UNL     1      22.136 -12.773  19.991  1.00  0.00     0.293 HD
ENDBRANCH   6  22
BRANCH   8  24
ATOM     24  O   UNL     1      17.268 -11.740  21.202  1.00  0.00    -0.508 OA
ATOM     25  H   UNL     1      16.672 -11.157  21.779  1.00  0.00     0.293 HD
ENDBRANCH   8  24
TORSDOF 5
ENDMDL
MODEL 7
REMARK VINA RESULT:    -6.028     14.173     15.412
REMARK INTER + INTRA:          -7.371
REMARK INTER:                  -7.054
REMARK INTRA:                  -0.316
REMARK UNBOUND:                -0.285
REMARK SMILES O=c1cc(-c2ccc(O)c(O)c2)oc2cc(O)cc(O)c12
REMARK SMILES IDX 4 1 3 2 2 3 1 4 21 5 19 6 18 7 16 8 15 9 14 10 13 11 5 12
REMARK SMILES IDX 6 13 7 14 8 15 12 16 10 17 9 18 11 20 20 22 17 24
REMARK H PARENT 9 19 11 21 20 23 17 25
REMARK Flexibility Score: inf
ROOT
ATOM      1  C   UNL     1      19.423 -14.186  26.524  1.00  0.00     0.138 A 
ATOM      2  C   UNL     1      19.624 -15.468  25.996  1.00  0.00     0.100 A 
ATOM      3  C   UNL     1      19.546 -15.666  24.617  1.00  0.00     0.197 A 
ATOM      4  O   UNL     1      19.669 -16.838  24.177  1.00  0.00    -0.289 OA
ATOM      5  C   UNL     1      19.295 -14.567  23.761  1.00  0.00     0.107 A 
ATOM      6  C   UNL     1      19.235 -14.643  22.338  1.00  0.00     0.134 A 
ATOM      7  C   UNL     1      18.864 -13.511  21.601  1.00  0.00     0.093 A 
ATOM      8  C   UNL     1      18.612 -12.291  22.234  1.00  0.00     0.123 A 
ATOM      9  C   UNL     1      18.721 -12.193  23.618  1.00  0.00     0.094 A 
ATOM     10  C   UNL     1      19.055 -13.313  24.384  1.00  0.00     0.146 A 
ATOM     11  O   UNL     1      19.135 -13.180  25.703  1.00  0.00    -0.456 OA
ENDROOT
BRANCH   1  12
ATOM     12  C   UNL     1      19.496 -13.918  27.983  1.00  0.00     0.021 A 
ATOM     13  C   UNL     1      19.995 -14.910  28.844  1.00  0.00     0.016 A 
ATOM     14  C   UNL     1      20.069 -14.685  30.221  1.00  0.00     0.051 A 
ATOM     15  C   UNL     1      19.634 -13.473  30.763  1.00  0.00     0.157 A 
ATOM     16  C   UNL     1      19.048 -12.702  28.536  1.00  0.00     0.062 A 
ATOM     17  C   UNL     1      19.118 -12.477  29.919  1.00  0.00     0.158 A 
BRANCH  15  18
ATOM     18  O   UNL     1      19.721 -13.277  32.142  1.00  0.00    -0.504 OA
ATOM     19  H   UNL     1      20.032 -12.400  32.542  1.00  0.00     0.293 HD
ENDBRANCH  15  18
BRANCH  17  20
ATOM     20  O   UNL     1      18.673 -11.269  30.455  1.00  0.00    -0.504 OA
ATOM     21  H   UNL     1      19.286 -10.466  30.535  1.00  0.00     0.293 HD
ENDBRANCH  17  20
ENDBRANCH   1  12
BRANCH   6  22
ATOM     22  O   UNL     1      19.550 -15.790  21.602  1.00  0.00    -0.507 OA
ATOM     23  H   UNL     1      19.076 -16.676  21.685  1.00  0.00     0.293 HD
ENDBRANCH   6  22
BRANCH   8  24
ATOM     24  O   UNL     1      18.258 -11.166  21.491  1.00  0.00    -0.508 OA
ATOM     25  H   UNL     1      18.193 -10.248  21.917  1.00  0.00     0.293 HD
ENDBRANCH   8  24
TORSDOF 5
ENDMDL
MODEL 8
REMARK VINA RESULT:    -6.009     14.445     17.255
REMARK INTER + INTRA:          -7.348
REMARK INTER:                  -7.046
REMARK INTRA:                  -0.302
REMARK UNBOUND:                -0.285
REMARK SMILES O=c1cc(-c2ccc(O)c(O)c2)oc2cc(O)cc(O)c12
REMARK SMILES IDX 4 1 3 2 2 3 1 4 21 5 19 6 18 7 16 8 15 9 14 10 13 11 5 12
REMARK SMILES IDX 6 13 7 14 8 15 12 16 10 17 9 18 11 20 20 22 17 24
REMARK H PARENT 9 19 11 21 20 23 17 25
REMARK Flexibility Score: inf
ROOT
ATOM      1  C   UNL     1      20.470 -13.861  24.319  1.00  0.00     0.138 A 
ATOM      2  C   UNL     1      21.840 -14.054  24.544  1.00  0.00     0.100 A 
ATOM      3  C   UNL     1      22.286 -14.419  25.814  1.00  0.00     0.197 A 
ATOM      4  O   UNL     1      23.525 -14.524  26.002  1.00  0.00    -0.289 OA
ATOM      5  C   UNL     1      21.351 -14.624  26.857  1.00  0.00     0.107 A 
ATOM      6  C   UNL     1      21.687 -15.038  28.180  1.00  0.00     0.134 A 
ATOM      7  C   UNL     1      20.687 -15.095  29.161  1.00  0.00     0.093 A 
ATOM      8  C   UNL     1      19.355 -14.812  28.848  1.00  0.00     0.123 A 
ATOM      9  C   UNL     1      19.009 -14.460  27.547  1.00  0.00     0.094 A 
ATOM     10  C   UNL     1      19.988 -14.360  26.554  1.00  0.00     0.146 A 
ATOM     11  O   UNL     1      19.617 -14.007  25.329  1.00  0.00    -0.456 OA
ENDROOT
BRANCH   1  12
ATOM     12  C   UNL     1      19.940 -13.473  22.987  1.00  0.00     0.021 A 
ATOM     13  C   UNL     1      20.563 -13.961  21.826  1.00  0.00     0.016 A 
ATOM     14  C   UNL     1      20.089 -13.606  20.562  1.00  0.00     0.051 A 
ATOM     15  C   UNL     1      18.992 -12.749  20.433  1.00  0.00     0.157 A 
ATOM     16  C   UNL     1      18.844 -12.600  22.853  1.00  0.00     0.062 A 
ATOM     17  C   UNL     1      18.368 -12.239  21.583  1.00  0.00     0.158 A 
BRANCH  15  18
ATOM     18  O   UNL     1      18.540 -12.413  19.157  1.00  0.00    -0.504 OA
ATOM     19  H   UNL     1      17.555 -12.313  18.944  1.00  0.00     0.293 HD
ENDBRANCH  15  18
BRANCH  17  20
ATOM     20  O   UNL     1      17.281 -11.375  21.461  1.00  0.00    -0.504 OA
ATOM     21  H   UNL     1      16.798 -11.012  22.275  1.00  0.00     0.293 HD
ENDBRANCH  17  20
ENDBRANCH   1  12
BRANCH   6  22
ATOM     22  O   UNL     1      22.971 -15.425  28.575  1.00  0.00    -0.507 OA
ATOM     23  H   UNL     1      23.699 -15.732  27.949  1.00  0.00     0.293 HD
ENDBRANCH   6  22
BRANCH   8  24
ATOM     24  O   UNL     1      18.366 -14.885  29.826  1.00  0.00    -0.508 OA
ATOM     25  H   UNL     1      18.509 -14.508  30.756  1.00  0.00     0.293 HD
ENDBRANCH   8  24
TORSDOF 5
ENDMDL
MODEL 9
REMARK VINA RESULT:    -5.943     14.507     16.847
REMARK INTER + INTRA:          -7.270
REMARK INTER:                  -6.992
REMARK INTRA:                  -0.279
REMARK UNBOUND:                -0.285
REMARK SMILES O=c1cc(-c2ccc(O)c(O)c2)oc2cc(O)cc(O)c12
REMARK SMILES IDX 4 1 3 2 2 3 1 4 21 5 19 6 18 7 16 8 15 9 14 10 13 11 5 12
REMARK SMILES IDX 6 13 7 14 8 15 12 16 10 17 9 18 11 20 20 22 17 24
REMARK H PARENT 9 19 11 21 20 23 17 25
REMARK Flexibility Score: inf
ROOT
ATOM      1  C   UNL     1      20.458 -13.843  24.554  1.00  0.00     0.138 A 
ATOM      2  C   UNL     1      19.497 -12.848  24.778  1.00  0.00     0.100 A 
ATOM      3  C   UNL     1      18.784 -12.323  23.700  1.00  0.00     0.197 A 
ATOM      4  O   UNL     1      17.973 -11.388  23.923  1.00  0.00    -0.289 OA
ATOM      5  C   UNL     1      19.014 -12.820  22.395  1.00  0.00     0.107 A 
ATOM      6  C   UNL     1      18.317 -12.389  21.227  1.00  0.00     0.134 A 
ATOM      7  C   UNL     1      18.711 -12.870  19.971  1.00  0.00     0.093 A 
ATOM      8  C   UNL     1      19.736 -13.811  19.850  1.00  0.00     0.123 A 
ATOM      9  C   UNL     1      20.386 -14.279  20.989  1.00  0.00     0.094 A 
ATOM     10  C   UNL     1      20.039 -13.793  22.253  1.00  0.00     0.146 A 
ATOM     11  O   UNL     1      20.694 -14.255  23.312  1.00  0.00    -0.456 OA
ENDROOT
BRANCH   1  12
ATOM     12  C   UNL     1      21.245 -14.438  25.665  1.00  0.00     0.021 A 
ATOM     13  C   UNL     1      22.628 -14.631  25.507  1.00  0.00     0.016 A 
ATOM     14  C   UNL     1      23.389 -15.194  26.534  1.00  0.00     0.051 A 
ATOM     15  C   UNL     1      22.782 -15.585  27.731  1.00  0.00     0.157 A 
ATOM     16  C   UNL     1      20.636 -14.845  26.868  1.00  0.00     0.062 A 
ATOM     17  C   UNL     1      21.399 -15.414  27.899  1.00  0.00     0.158 A 
BRANCH  15  18
ATOM     18  O   UNL     1      23.569 -16.144  28.739  1.00  0.00    -0.504 OA
ATOM     19  H   UNL     1      23.990 -15.580  29.467  1.00  0.00     0.293 HD
ENDBRANCH  15  18
BRANCH  17  20
ATOM     20  O   UNL     1      20.786 -15.812  29.086  1.00  0.00    -0.504 OA
ATOM     21  H   UNL     1      21.307 -16.273  29.824  1.00  0.00     0.293 HD
ENDBRANCH  17  20
ENDBRANCH   1  12
BRANCH   6  22
ATOM     22  O   UNL     1      17.224 -11.518  21.246  1.00  0.00    -0.507 OA
ATOM     23  H   UNL     1      17.265 -10.536  21.018  1.00  0.00     0.293 HD
ENDBRANCH   6  22
BRANCH   8  24
ATOM     24  O   UNL     1      20.112 -14.294  18.598  1.00  0.00    -0.508 OA
ATOM     25  H   UNL     1      21.062 -14.590  18.407  1.00  0.00     0.293 HD
ENDBRANCH   8  24
TORSDOF 5
ENDMDL
