MODEL 1
REMARK VINA RESULT:    -4.561      0.000      0.000
REMARK INTER + INTRA:          -7.664
REMARK INTER:                  -6.561
REMARK INTRA:                  -1.103
REMARK UNBOUND:                -1.103
REMARK SMILES O=C(CO)[C@@H](O)[C@@H](O)[C@@H](O)CO
REMARK SMILES IDX 7 1 9 2 11 3 12 4 10 6 5 8 2 9 1 10 3 11 4 12 6 14 8 16
REMARK H PARENT 12 5 10 7 4 13 6 15 8 17
REMARK Flexibility Score: inf
ROOT
ATOM      1  C   UNL     1     -11.540 -40.776 -15.824  1.00  0.00     0.181 C 
ENDROOT
BRANCH   1   2
ATOM      2  C   UNL     1     -11.118 -41.402 -14.462  1.00  0.00     0.171 C 
BRANCH   2   3
ATOM      3  C   UNL     1      -9.658 -41.877 -14.421  1.00  0.00     0.190 C 
BRANCH   3   4
ATOM      4  O   UNL     1      -8.810 -40.830 -14.038  1.00  0.00    -0.394 OA
ATOM      5  H   UNL     1      -9.064 -40.051 -14.597  1.00  0.00     0.210 HD
ENDBRANCH   3   4
ENDBRANCH   2   3
BRANCH   2   6
ATOM      6  O   UNL     1     -11.954 -42.484 -14.133  1.00  0.00    -0.388 OA
ATOM      7  H   UNL     1     -12.785 -42.105 -13.746  1.00  0.00     0.211 HD
ENDBRANCH   2   6
ENDBRANCH   1   2
BRANCH   1   8
ATOM      8  C   UNL     1     -12.941 -40.103 -15.808  1.00  0.00     0.214 C 
BRANCH   8   9
ATOM      9  C   UNL     1     -13.964 -40.967 -16.516  1.00  0.00     0.189 C 
ATOM     10  O   UNL     1     -13.834 -41.194 -17.710  1.00  0.00    -0.294 OA
BRANCH   9  11
ATOM     11  C   UNL     1     -15.134 -41.560 -15.778  1.00  0.00     0.234 C 
BRANCH  11  12
ATOM     12  O   UNL     1     -14.684 -42.472 -14.814  1.00  0.00    -0.388 OA
ATOM     13  H   UNL     1     -15.363 -42.480 -14.089  1.00  0.00     0.211 HD
ENDBRANCH  11  12
ENDBRANCH   9  11
ENDBRANCH   8   9
BRANCH   8  14
ATOM     14  O   UNL     1     -13.360 -39.890 -14.487  1.00  0.00    -0.382 OA
ATOM     15  H   UNL     1     -13.841 -40.711 -14.201  1.00  0.00     0.211 HD
ENDBRANCH   8  14
ENDBRANCH   1   8
BRANCH   1  16
ATOM     16  O   UNL     1     -10.552 -39.864 -16.240  1.00  0.00    -0.387 OA
ATOM     17  H   UNL     1     -10.918 -38.947 -16.127  1.00  0.00     0.211 HD
ENDBRANCH   1  16
TORSDOF 10
ENDMDL
MODEL 2
REMARK VINA RESULT:    -4.485      1.242      1.977
REMARK INTER + INTRA:          -7.555
REMARK INTER:                  -6.823
REMARK INTRA:                  -0.732
REMARK UNBOUND:                -1.103
REMARK SMILES O=C(CO)[C@@H](O)[C@@H](O)[C@@H](O)CO
REMARK SMILES IDX 7 1 9 2 11 3 12 4 10 6 5 8 2 9 1 10 3 11 4 12 6 14 8 16
REMARK H PARENT 12 5 10 7 4 13 6 15 8 17
REMARK Flexibility Score: inf
ROOT
ATOM      1  C   UNL     1     -12.089 -41.832 -15.768  1.00  0.00     0.181 C 
ENDROOT
BRANCH   1   2
ATOM      2  C   UNL     1     -10.592 -41.405 -15.759  1.00  0.00     0.171 C 
BRANCH   2   3
ATOM      3  C   UNL     1      -9.848 -41.772 -14.466  1.00  0.00     0.190 C 
BRANCH   3   4
ATOM      4  O   UNL     1      -8.913 -40.782 -14.138  1.00  0.00    -0.394 OA
ATOM      5  H   UNL     1      -9.110 -40.010 -14.729  1.00  0.00     0.210 HD
ENDBRANCH   3   4
ENDBRANCH   2   3
BRANCH   2   6
ATOM      6  O   UNL     1     -10.468 -40.021 -15.973  1.00  0.00    -0.388 OA
ATOM      7  H   UNL     1     -11.386 -39.645 -16.000  1.00  0.00     0.211 HD
ENDBRANCH   2   6
ENDBRANCH   1   2
BRANCH   1   8
ATOM      8  C   UNL     1     -13.088 -40.656 -15.578  1.00  0.00     0.214 C 
BRANCH   8   9
ATOM      9  C   UNL     1     -14.503 -41.169 -15.419  1.00  0.00     0.189 C 
ATOM     10  O   UNL     1     -14.715 -42.371 -15.467  1.00  0.00    -0.294 OA
BRANCH   9  11
ATOM     11  C   UNL     1     -15.657 -40.228 -15.192  1.00  0.00     0.234 C 
BRANCH  11  12
ATOM     12  O   UNL     1     -15.684 -39.812 -13.854  1.00  0.00    -0.388 OA
ATOM     13  H   UNL     1     -16.429 -40.302 -13.418  1.00  0.00     0.211 HD
ENDBRANCH  11  12
ENDBRANCH   9  11
ENDBRANCH   8   9
BRANCH   8  14
ATOM     14  O   UNL     1     -12.742 -39.908 -14.443  1.00  0.00    -0.382 OA
ATOM     15  H   UNL     1     -12.083 -39.225 -14.737  1.00  0.00     0.211 HD
ENDBRANCH   8  14
ENDBRANCH   1   8
BRANCH   1  16
ATOM     16  O   UNL     1     -12.364 -42.534 -16.958  1.00  0.00    -0.387 OA
ATOM     17  H   UNL     1     -13.348 -42.536 -17.088  1.00  0.00     0.211 HD
ENDBRANCH   1  16
TORSDOF 10
ENDMDL
MODEL 3
REMARK VINA RESULT:    -4.379      1.151      2.519
REMARK INTER + INTRA:          -7.402
REMARK INTER:                  -6.121
REMARK INTRA:                  -1.282
REMARK UNBOUND:                -1.103
REMARK SMILES O=C(CO)[C@@H](O)[C@@H](O)[C@@H](O)CO
REMARK SMILES IDX 7 1 9 2 11 3 12 4 10 6 5 8 2 9 1 10 3 11 4 12 6 14 8 16
REMARK H PARENT 12 5 10 7 4 13 6 15 8 17
REMARK Flexibility Score: inf
ROOT
ATOM      1  C   UNL     1     -12.875 -39.970 -15.645  1.00  0.00     0.181 C 
ENDROOT
BRANCH   1   2
ATOM      2  C   UNL     1     -11.561 -40.791 -15.786  1.00  0.00     0.171 C 
BRANCH   2   3
ATOM      3  C   UNL     1     -11.105 -41.466 -14.484  1.00  0.00     0.190 C 
BRANCH   3   4
ATOM      4  O   UNL     1     -11.970 -42.514 -14.143  1.00  0.00    -0.394 OA
ATOM      5  H   UNL     1     -11.517 -43.349 -14.426  1.00  0.00     0.210 HD
ENDBRANCH   3   4
ENDBRANCH   2   3
BRANCH   2   6
ATOM      6  O   UNL     1     -10.516 -39.979 -16.262  1.00  0.00    -0.388 OA
ATOM      7  H   UNL     1      -9.817 -39.957 -15.559  1.00  0.00     0.211 HD
ENDBRANCH   2   6
ENDBRANCH   1   2
BRANCH   1   8
ATOM      8  C   UNL     1     -14.071 -40.534 -16.463  1.00  0.00     0.214 C 
BRANCH   8   9
ATOM      9  C   UNL     1     -14.963 -41.395 -15.594  1.00  0.00     0.189 C 
ATOM     10  O   UNL     1     -14.572 -42.496 -15.237  1.00  0.00    -0.294 OA
BRANCH   9  11
ATOM     11  C   UNL     1     -16.321 -40.917 -15.151  1.00  0.00     0.234 C 
BRANCH  11  12
ATOM     12  O   UNL     1     -16.187 -39.877 -14.221  1.00  0.00    -0.388 OA
ATOM     13  H   UNL     1     -15.489 -39.266 -14.575  1.00  0.00     0.211 HD
ENDBRANCH  11  12
ENDBRANCH   9  11
ENDBRANCH   8   9
BRANCH   8  14
ATOM     14  O   UNL     1     -14.830 -39.483 -16.997  1.00  0.00    -0.382 OA
ATOM     15  H   UNL     1     -14.888 -39.638 -17.977  1.00  0.00     0.211 HD
ENDBRANCH   8  14
ENDBRANCH   1   8
BRANCH   1  16
ATOM     16  O   UNL     1     -13.210 -39.861 -14.282  1.00  0.00    -0.387 OA
ATOM     17  H   UNL     1     -13.874 -39.129 -14.189  1.00  0.00     0.211 HD
ENDBRANCH   1  16
TORSDOF 10
ENDMDL
MODEL 4
REMARK VINA RESULT:    -4.376      2.334      4.857
REMARK INTER + INTRA:          -7.397
REMARK INTER:                  -6.337
REMARK INTRA:                  -1.061
REMARK UNBOUND:                -1.103
REMARK SMILES O=C(CO)[C@@H](O)[C@@H](O)[C@@H](O)CO
REMARK SMILES IDX 7 1 9 2 11 3 12 4 10 6 5 8 2 9 1 10 3 11 4 12 6 14 8 16
REMARK H PARENT 12 5 10 7 4 13 6 15 8 17
REMARK Flexibility Score: inf
ROOT
ATOM      1  C   UNL     1     -14.764 -41.627 -16.997  1.00  0.00     0.181 C 
ENDROOT
BRANCH   1   2
ATOM      2  C   UNL     1     -16.061 -42.484 -16.907  1.00  0.00     0.171 C 
BRANCH   2   3
ATOM      3  C   UNL     1     -16.700 -42.792 -18.270  1.00  0.00     0.190 C 
BRANCH   3   4
ATOM      4  O   UNL     1     -15.963 -43.771 -18.948  1.00  0.00    -0.394 OA
ATOM      5  H   UNL     1     -16.621 -44.293 -19.478  1.00  0.00     0.210 HD
ENDBRANCH   3   4
ENDBRANCH   2   3
BRANCH   2   6
ATOM      6  O   UNL     1     -17.018 -41.852 -16.094  1.00  0.00    -0.388 OA
ATOM      7  H   UNL     1     -16.776 -42.044 -15.151  1.00  0.00     0.211 HD
ENDBRANCH   2   6
ENDBRANCH   1   2
BRANCH   1   8
ATOM      8  C   UNL     1     -13.860 -41.708 -15.735  1.00  0.00     0.214 C 
BRANCH   8   9
ATOM      9  C   UNL     1     -13.656 -40.336 -15.127  1.00  0.00     0.189 C 
ATOM     10  O   UNL     1     -12.532 -39.987 -14.797  1.00  0.00    -0.294 OA
BRANCH   9  11
ATOM     11  C   UNL     1     -14.808 -39.387 -14.931  1.00  0.00     0.234 C 
BRANCH  11  12
ATOM     12  O   UNL     1     -15.728 -39.927 -14.022  1.00  0.00    -0.388 OA
ATOM     13  H   UNL     1     -15.759 -39.309 -13.245  1.00  0.00     0.211 HD
ENDBRANCH  11  12
ENDBRANCH   9  11
ENDBRANCH   8   9
BRANCH   8  14
ATOM     14  O   UNL     1     -14.442 -42.549 -14.776  1.00  0.00    -0.382 OA
ATOM     15  H   UNL     1     -14.891 -41.963 -14.112  1.00  0.00     0.211 HD
ENDBRANCH   8  14
ENDBRANCH   1   8
BRANCH   1  16
ATOM     16  O   UNL     1     -14.046 -41.993 -18.151  1.00  0.00    -0.387 OA
ATOM     17  H   UNL     1     -14.467 -41.539 -18.927  1.00  0.00     0.211 HD
ENDBRANCH   1  16
TORSDOF 10
ENDMDL
MODEL 5
REMARK VINA RESULT:    -4.358      1.663      4.567
REMARK INTER + INTRA:          -7.372
REMARK INTER:                  -6.109
REMARK INTRA:                  -1.262
REMARK UNBOUND:                -1.103
REMARK SMILES O=C(CO)[C@@H](O)[C@@H](O)[C@@H](O)CO
REMARK SMILES IDX 7 1 9 2 11 3 12 4 10 6 5 8 2 9 1 10 3 11 4 12 6 14 8 16
REMARK H PARENT 12 5 10 7 4 13 6 15 8 17
REMARK Flexibility Score: inf
ROOT
ATOM      1  C   UNL     1     -14.636 -42.163 -15.872  1.00  0.00     0.181 C 
ENDROOT
BRANCH   1   2
ATOM      2  C   UNL     1     -15.781 -41.127 -16.073  1.00  0.00     0.171 C 
BRANCH   2   3
ATOM      3  C   UNL     1     -16.521 -40.758 -14.778  1.00  0.00     0.190 C 
BRANCH   3   4
ATOM      4  O   UNL     1     -15.735 -39.911 -13.985  1.00  0.00    -0.394 OA
ATOM      5  H   UNL     1     -15.834 -40.236 -13.053  1.00  0.00     0.210 HD
ENDBRANCH   3   4
ENDBRANCH   2   3
BRANCH   2   6
ATOM      6  O   UNL     1     -16.718 -41.597 -17.009  1.00  0.00    -0.388 OA
ATOM      7  H   UNL     1     -16.488 -41.191 -17.885  1.00  0.00     0.211 HD
ENDBRANCH   2   6
ENDBRANCH   1   2
BRANCH   1   8
ATOM      8  C   UNL     1     -13.234 -41.655 -16.310  1.00  0.00     0.214 C 
BRANCH   8   9
ATOM      9  C   UNL     1     -12.513 -40.994 -15.154  1.00  0.00     0.189 C 
ATOM     10  O   UNL     1     -12.918 -39.923 -14.728  1.00  0.00    -0.294 OA
BRANCH   9  11
ATOM     11  C   UNL     1     -11.311 -41.633 -14.512  1.00  0.00     0.234 C 
BRANCH  11  12
ATOM     12  O   UNL     1     -11.696 -42.774 -13.794  1.00  0.00    -0.388 OA
ATOM     13  H   UNL     1     -11.235 -42.728 -12.916  1.00  0.00     0.211 HD
ENDBRANCH  11  12
ENDBRANCH   9  11
ENDBRANCH   8   9
BRANCH   8  14
ATOM     14  O   UNL     1     -12.458 -42.725 -16.780  1.00  0.00    -0.382 OA
ATOM     15  H   UNL     1     -11.619 -42.728 -16.248  1.00  0.00     0.211 HD
ENDBRANCH   8  14
ENDBRANCH   1   8
BRANCH   1  16
ATOM     16  O   UNL     1     -14.619 -42.581 -14.528  1.00  0.00    -0.387 OA
ATOM     17  H   UNL     1     -13.933 -42.044 -14.052  1.00  0.00     0.211 HD
ENDBRANCH   1  16
TORSDOF 10
ENDMDL
MODEL 6
REMARK VINA RESULT:    -4.304      1.655      4.207
REMARK INTER + INTRA:          -7.295
REMARK INTER:                  -6.156
REMARK INTRA:                  -1.138
REMARK UNBOUND:                -1.103
REMARK SMILES O=C(CO)[C@@H](O)[C@@H](O)[C@@H](O)CO
REMARK SMILES IDX 7 1 9 2 11 3 12 4 10 6 5 8 2 9 1 10 3 11 4 12 6 14 8 16
REMARK H PARENT 12 5 10 7 4 13 6 15 8 17
REMARK Flexibility Score: inf
ROOT
ATOM      1  C   UNL     1     -14.912 -41.507 -16.064  1.00  0.00     0.181 C 
ENDROOT
BRANCH   1   2
ATOM      2  C   UNL     1     -15.659 -40.171 -15.778  1.00  0.00     0.171 C 
BRANCH   2   3
ATOM      3  C   UNL     1     -14.733 -39.014 -15.374  1.00  0.00     0.190 C 
BRANCH   3   4
ATOM      4  O   UNL     1     -14.191 -39.237 -14.102  1.00  0.00    -0.394 OA
ATOM      5  H   UNL     1     -14.815 -38.812 -13.458  1.00  0.00     0.210 HD
ENDBRANCH   3   4
ENDBRANCH   2   3
BRANCH   2   6
ATOM      6  O   UNL     1     -16.624 -40.349 -14.771  1.00  0.00    -0.388 OA
ATOM      7  H   UNL     1     -16.427 -41.212 -14.323  1.00  0.00     0.211 HD
ENDBRANCH   2   6
ENDBRANCH   1   2
BRANCH   1   8
ATOM      8  C   UNL     1     -13.751 -41.379 -17.090  1.00  0.00     0.214 C 
BRANCH   8   9
ATOM      9  C   UNL     1     -12.431 -41.778 -16.465  1.00  0.00     0.189 C 
ATOM     10  O   UNL     1     -12.145 -42.961 -16.370  1.00  0.00    -0.294 OA
BRANCH   9  11
ATOM     11  C   UNL     1     -11.457 -40.744 -15.965  1.00  0.00     0.234 C 
BRANCH  11  12
ATOM     12  O   UNL     1     -11.654 -40.516 -14.597  1.00  0.00    -0.388 OA
ATOM     13  H   UNL     1     -10.949 -39.879 -14.309  1.00  0.00     0.211 HD
ENDBRANCH  11  12
ENDBRANCH   9  11
ENDBRANCH   8   9
BRANCH   8  14
ATOM     14  O   UNL     1     -13.996 -42.200 -18.201  1.00  0.00    -0.382 OA
ATOM     15  H   UNL     1     -14.913 -42.565 -18.093  1.00  0.00     0.211 HD
ENDBRANCH   8  14
ENDBRANCH   1   8
BRANCH   1  16
ATOM     16  O   UNL     1     -14.449 -42.049 -14.851  1.00  0.00    -0.387 OA
ATOM     17  H   UNL     1     -14.134 -42.974 -15.032  1.00  0.00     0.211 HD
ENDBRANCH   1  16
TORSDOF 10
ENDMDL
MODEL 7
REMARK VINA RESULT:    -4.304      1.754      2.800
REMARK INTER + INTRA:          -7.294
REMARK INTER:                  -5.973
REMARK INTRA:                  -1.320
REMARK UNBOUND:                -1.103
REMARK SMILES O=C(CO)[C@@H](O)[C@@H](O)[C@@H](O)CO
REMARK SMILES IDX 7 1 9 2 11 3 12 4 10 6 5 8 2 9 1 10 3 11 4 12 6 14 8 16
REMARK H PARENT 12 5 10 7 4 13 6 15 8 17
REMARK Flexibility Score: inf
ROOT
ATOM      1  C   UNL     1     -12.906 -40.692 -15.142  1.00  0.00     0.181 C 
ENDROOT
BRANCH   1   2
ATOM      2  C   UNL     1     -11.972 -40.609 -16.384  1.00  0.00     0.171 C 
BRANCH   2   3
ATOM      3  C   UNL     1     -11.783 -41.949 -17.112  1.00  0.00     0.190 C 
BRANCH   3   4
ATOM      4  O   UNL     1     -12.956 -42.315 -17.783  1.00  0.00    -0.394 OA
ATOM      5  H   UNL     1     -13.301 -43.120 -17.316  1.00  0.00     0.210 HD
ENDBRANCH   3   4
ENDBRANCH   2   3
BRANCH   2   6
ATOM      6  O   UNL     1     -10.708 -40.110 -16.024  1.00  0.00    -0.388 OA
ATOM      7  H   UNL     1     -10.042 -40.535 -16.624  1.00  0.00     0.211 HD
ENDBRANCH   2   6
ENDBRANCH   1   2
BRANCH   1   8
ATOM      8  C   UNL     1     -14.175 -39.799 -15.238  1.00  0.00     0.214 C 
BRANCH   8   9
ATOM      9  C   UNL     1     -15.366 -40.601 -15.716  1.00  0.00     0.189 C 
ATOM     10  O   UNL     1     -15.376 -41.041 -16.855  1.00  0.00    -0.294 OA
BRANCH   9  11
ATOM     11  C   UNL     1     -16.538 -40.878 -14.812  1.00  0.00     0.234 C 
BRANCH  11  12
ATOM     12  O   UNL     1     -16.142 -41.693 -13.743  1.00  0.00    -0.388 OA
ATOM     13  H   UNL     1     -16.441 -41.240 -12.912  1.00  0.00     0.211 HD
ENDBRANCH  11  12
ENDBRANCH   9  11
ENDBRANCH   8   9
BRANCH   8  14
ATOM     14  O   UNL     1     -14.471 -39.244 -13.984  1.00  0.00    -0.382 OA
ATOM     15  H   UNL     1     -14.772 -39.991 -13.403  1.00  0.00     0.211 HD
ENDBRANCH   8  14
ENDBRANCH   1   8
BRANCH   1  16
ATOM     16  O   UNL     1     -13.257 -42.036 -14.914  1.00  0.00    -0.387 OA
ATOM     17  H   UNL     1     -13.951 -42.285 -15.580  1.00  0.00     0.211 HD
ENDBRANCH   1  16
TORSDOF 10
ENDMDL
MODEL 8
REMARK VINA RESULT:    -4.154      1.515      4.226
REMARK INTER + INTRA:          -7.078
REMARK INTER:                  -6.082
REMARK INTRA:                  -0.996
REMARK UNBOUND:                -1.103
REMARK SMILES O=C(CO)[C@@H](O)[C@@H](O)[C@@H](O)CO
REMARK SMILES IDX 7 1 9 2 11 3 12 4 10 6 5 8 2 9 1 10 3 11 4 12 6 14 8 16
REMARK H PARENT 12 5 10 7 4 13 6 15 8 17
REMARK Flexibility Score: inf
ROOT
ATOM      1  C   UNL     1     -14.499 -40.964 -16.319  1.00  0.00     0.181 C 
ENDROOT
BRANCH   1   2
ATOM      2  C   UNL     1     -15.526 -41.782 -15.481  1.00  0.00     0.171 C 
BRANCH   2   3
ATOM      3  C   UNL     1     -16.628 -40.926 -14.839  1.00  0.00     0.190 C 
BRANCH   3   4
ATOM      4  O   UNL     1     -16.068 -39.898 -14.070  1.00  0.00    -0.394 OA
ATOM      5  H   UNL     1     -16.653 -39.107 -14.200  1.00  0.00     0.210 HD
ENDBRANCH   3   4
ENDBRANCH   2   3
BRANCH   2   6
ATOM      6  O   UNL     1     -14.874 -42.510 -14.470  1.00  0.00    -0.388 OA
ATOM      7  H   UNL     1     -14.475 -41.851 -13.844  1.00  0.00     0.211 HD
ENDBRANCH   2   6
ENDBRANCH   1   2
BRANCH   1   8
ATOM      8  C   UNL     1     -13.108 -40.805 -15.644  1.00  0.00     0.214 C 
BRANCH   8   9
ATOM      9  C   UNL     1     -12.104 -40.209 -16.608  1.00  0.00     0.189 C 
ATOM     10  O   UNL     1     -12.501 -39.556 -17.560  1.00  0.00    -0.294 OA
BRANCH   9  11
ATOM     11  C   UNL     1     -10.623 -40.398 -16.412  1.00  0.00     0.234 C 
BRANCH  11  12
ATOM     12  O   UNL     1     -10.340 -40.627 -15.059  1.00  0.00    -0.388 OA
ATOM     13  H   UNL     1      -9.675 -41.363 -15.027  1.00  0.00     0.211 HD
ENDBRANCH  11  12
ENDBRANCH   9  11
ENDBRANCH   8   9
BRANCH   8  14
ATOM     14  O   UNL     1     -13.210 -39.974 -14.519  1.00  0.00    -0.382 OA
ATOM     15  H   UNL     1     -12.534 -40.291 -13.864  1.00  0.00     0.211 HD
ENDBRANCH   8  14
ENDBRANCH   1   8
BRANCH   1  16
ATOM     16  O   UNL     1     -14.372 -41.548 -17.594  1.00  0.00    -0.387 OA
ATOM     17  H   UNL     1     -14.262 -42.527 -17.470  1.00  0.00     0.211 HD
ENDBRANCH   1  16
TORSDOF 10
ENDMDL
MODEL 9
REMARK VINA RESULT:    -4.131      1.449      4.249
REMARK INTER + INTRA:          -7.046
REMARK INTER:                  -5.783
REMARK INTRA:                  -1.263
REMARK UNBOUND:                -1.103
REMARK SMILES O=C(CO)[C@@H](O)[C@@H](O)[C@@H](O)CO
REMARK SMILES IDX 7 1 9 2 11 3 12 4 10 6 5 8 2 9 1 10 3 11 4 12 6 14 8 16
REMARK H PARENT 12 5 10 7 4 13 6 15 8 17
REMARK Flexibility Score: inf
ROOT
ATOM      1  C   UNL     1     -13.339 -40.220 -16.805  1.00  0.00     0.181 C 
ENDROOT
BRANCH   1   2
ATOM      2  C   UNL     1     -14.682 -40.514 -17.537  1.00  0.00     0.171 C 
BRANCH   2   3
ATOM      3  C   UNL     1     -15.114 -41.987 -17.478  1.00  0.00     0.190 C 
BRANCH   3   4
ATOM      4  O   UNL     1     -14.204 -42.796 -18.172  1.00  0.00    -0.394 OA
ATOM      5  H   UNL     1     -14.744 -43.335 -18.806  1.00  0.00     0.210 HD
ENDBRANCH   3   4
ENDBRANCH   2   3
BRANCH   2   6
ATOM      6  O   UNL     1     -14.611 -40.119 -18.884  1.00  0.00    -0.388 OA
ATOM      7  H   UNL     1     -14.285 -39.181 -18.898  1.00  0.00     0.211 HD
ENDBRANCH   2   6
ENDBRANCH   1   2
BRANCH   1   8
ATOM      8  C   UNL     1     -13.279 -40.752 -15.346  1.00  0.00     0.214 C 
BRANCH   8   9
ATOM      9  C   UNL     1     -12.206 -41.809 -15.198  1.00  0.00     0.189 C 
ATOM     10  O   UNL     1     -12.397 -42.927 -15.654  1.00  0.00    -0.294 OA
BRANCH   9  11
ATOM     11  C   UNL     1     -10.900 -41.510 -14.510  1.00  0.00     0.234 C 
BRANCH  11  12
ATOM     12  O   UNL     1     -10.200 -40.521 -15.214  1.00  0.00    -0.388 OA
ATOM     13  H   UNL     1     -10.866 -40.041 -15.772  1.00  0.00     0.211 HD
ENDBRANCH  11  12
ENDBRANCH   9  11
ENDBRANCH   8   9
BRANCH   8  14
ATOM     14  O   UNL     1     -13.008 -39.699 -14.459  1.00  0.00    -0.382 OA
ATOM     15  H   UNL     1     -12.158 -39.282 -14.758  1.00  0.00     0.211 HD
ENDBRANCH   8  14
ENDBRANCH   1   8
BRANCH   1  16
ATOM     16  O   UNL     1     -12.274 -40.734 -17.568  1.00  0.00    -0.387 OA
ATOM     17  H   UNL     1     -12.644 -41.419 -18.185  1.00  0.00     0.211 HD
ENDBRANCH   1  16
TORSDOF 10
ENDMDL
