MODEL 1
REMARK VINA RESULT:    -3.663      0.000      0.000
REMARK INTER + INTRA:          -7.113
REMARK INTER:                  -5.804
REMARK INTRA:                  -1.309
REMARK UNBOUND:                -1.309
REMARK SMILES CCCCCCCCCCCC(=O)[O-]
REMARK SMILES IDX 7 1 8 2 9 3 10 4 11 5 12 6 13 7 14 8 6 9 5 10 4 11 3 12 2 13
REMARK SMILES IDX 1 14
REMARK H PARENT
REMARK Flexibility Score: inf
ROOT
ATOM      1  C   UNL     1      22.918  34.624  11.601  1.00  0.00     0.000 C 
ENDROOT
BRANCH   1   2
ATOM      2  C   UNL     1      22.690  34.222  13.066  1.00  0.00     0.000 C 
BRANCH   2   3
ATOM      3  C   UNL     1      22.698  35.430  14.018  1.00  0.00     0.000 C 
BRANCH   3   4
ATOM      4  C   UNL     1      23.690  36.524  13.584  1.00  0.00     0.006 C 
BRANCH   4   5
ATOM      5  C   UNL     1      24.142  37.459  14.717  1.00  0.00     0.053 C 
BRANCH   5   6
ATOM      6  C   UNL     1      24.344  38.865  14.240  1.00  0.00     0.041 C 
ATOM      7  O   UNL     1      24.053  39.180  13.056  1.00  0.00    -0.550 OA
ATOM      8  O   UNL     1      24.822  39.834  15.112  1.00  0.00    -0.550 OA
ENDBRANCH   5   6
ENDBRANCH   4   5
ENDBRANCH   3   4
ENDBRANCH   2   3
ENDBRANCH   1   2
BRANCH   1   9
ATOM      9  C   UNL     1      23.692  33.561  10.806  1.00  0.00     0.000 C 
BRANCH   9  10
ATOM     10  C   UNL     1      25.189  33.608  11.139  1.00  0.00    -0.000 C 
BRANCH  10  11
ATOM     11  C   UNL     1      25.640  32.319  11.836  1.00  0.00    -0.000 C 
BRANCH  11  12
ATOM     12  C   UNL     1      26.419  32.632  13.122  1.00  0.00    -0.000 C 
BRANCH  12  13
ATOM     13  C   UNL     1      26.629  34.140  13.331  1.00  0.00    -0.003 C 
ATOM     14  C   UNL     1      26.558  34.547  14.802  1.00  0.00     0.004 C 
ENDBRANCH  12  13
ENDBRANCH  11  12
ENDBRANCH  10  11
ENDBRANCH   9  10
ENDBRANCH   1   9
TORSDOF 10
ENDMDL
MODEL 2
REMARK VINA RESULT:    -3.563      0.874      2.866
REMARK INTER + INTRA:          -6.955
REMARK INTER:                  -5.696
REMARK INTRA:                  -1.260
REMARK UNBOUND:                -1.309
REMARK SMILES CCCCCCCCCCCC(=O)[O-]
REMARK SMILES IDX 7 1 8 2 9 3 10 4 11 5 12 6 13 7 14 8 6 9 5 10 4 11 3 12 2 13
REMARK SMILES IDX 1 14
REMARK H PARENT
REMARK Flexibility Score: inf
ROOT
ATOM      1  C   UNL     1      26.598  34.663  13.269  1.00  0.00     0.000 C 
ENDROOT
BRANCH   1   2
ATOM      2  C   UNL     1      26.055  34.255  14.647  1.00  0.00     0.000 C 
BRANCH   2   3
ATOM      3  C   UNL     1      24.954  35.203  15.153  1.00  0.00     0.000 C 
BRANCH   3   4
ATOM      4  C   UNL     1      24.719  36.399  14.212  1.00  0.00     0.006 C 
BRANCH   4   5
ATOM      5  C   UNL     1      23.793  37.485  14.783  1.00  0.00     0.053 C 
BRANCH   5   6
ATOM      6  C   UNL     1      24.188  38.857  14.330  1.00  0.00     0.041 C 
ATOM      7  O   UNL     1      24.777  39.640  15.121  1.00  0.00    -0.550 OA
ATOM      8  O   UNL     1      23.937  39.258  13.025  1.00  0.00    -0.550 OA
ENDBRANCH   5   6
ENDBRANCH   4   5
ENDBRANCH   3   4
ENDBRANCH   2   3
ENDBRANCH   1   2
BRANCH   1   9
ATOM      9  C   UNL     1      26.507  33.531  12.235  1.00  0.00     0.000 C 
BRANCH   9  10
ATOM     10  C   UNL     1      25.614  32.392  12.745  1.00  0.00    -0.000 C 
BRANCH  10  11
ATOM     11  C   UNL     1      24.267  32.377  12.012  1.00  0.00    -0.000 C 
BRANCH  11  12
ATOM     12  C   UNL     1      24.214  33.472  10.936  1.00  0.00    -0.000 C 
BRANCH  12  13
ATOM     13  C   UNL     1      23.067  34.469  11.166  1.00  0.00    -0.003 C 
ATOM     14  C   UNL     1      22.416  34.314  12.539  1.00  0.00     0.004 C 
ENDBRANCH  12  13
ENDBRANCH  11  12
ENDBRANCH  10  11
ENDBRANCH   9  10
ENDBRANCH   1   9
TORSDOF 10
ENDMDL
MODEL 3
REMARK VINA RESULT:    -3.537      1.122      1.644
REMARK INTER + INTRA:          -6.914
REMARK INTER:                  -5.527
REMARK INTRA:                  -1.387
REMARK UNBOUND:                -1.309
REMARK SMILES CCCCCCCCCCCC(=O)[O-]
REMARK SMILES IDX 7 1 8 2 9 3 10 4 11 5 12 6 13 7 14 8 6 9 5 10 4 11 3 12 2 13
REMARK SMILES IDX 1 14
REMARK H PARENT
REMARK Flexibility Score: inf
ROOT
ATOM      1  C   UNL     1      23.689  33.865  10.828  1.00  0.00     0.000 C 
ENDROOT
BRANCH   1   2
ATOM      2  C   UNL     1      22.728  34.731  11.656  1.00  0.00     0.000 C 
BRANCH   2   3
ATOM      3  C   UNL     1      22.583  34.233  13.105  1.00  0.00     0.000 C 
BRANCH   3   4
ATOM      4  C   UNL     1      22.592  35.380  14.132  1.00  0.00     0.006 C 
BRANCH   4   5
ATOM      5  C   UNL     1      23.633  36.476  13.852  1.00  0.00     0.053 C 
BRANCH   5   6
ATOM      6  C   UNL     1      23.421  37.685  14.710  1.00  0.00     0.041 C 
ATOM      7  O   UNL     1      24.183  38.682  14.600  1.00  0.00    -0.550 OA
ATOM      8  O   UNL     1      22.362  37.725  15.608  1.00  0.00    -0.550 OA
ENDBRANCH   5   6
ENDBRANCH   4   5
ENDBRANCH   3   4
ENDBRANCH   2   3
ENDBRANCH   1   2
BRANCH   1   9
ATOM      9  C   UNL     1      24.191  32.633  11.596  1.00  0.00     0.000 C 
BRANCH   9  10
ATOM     10  C   UNL     1      25.706  32.460  11.426  1.00  0.00    -0.000 C 
BRANCH  10  11
ATOM     11  C   UNL     1      26.444  32.726  12.744  1.00  0.00    -0.000 C 
BRANCH  11  12
ATOM     12  C   UNL     1      26.634  34.233  12.973  1.00  0.00    -0.000 C 
BRANCH  12  13
ATOM     13  C   UNL     1      26.589  34.614  14.462  1.00  0.00    -0.003 C 
ATOM     14  C   UNL     1      25.703  33.680  15.284  1.00  0.00     0.004 C 
ENDBRANCH  12  13
ENDBRANCH  11  12
ENDBRANCH  10  11
ENDBRANCH   9  10
ENDBRANCH   1   9
TORSDOF 10
ENDMDL
MODEL 4
REMARK VINA RESULT:    -3.534      2.907      5.779
REMARK INTER + INTRA:          -6.908
REMARK INTER:                  -5.918
REMARK INTRA:                  -0.990
REMARK UNBOUND:                -1.309
REMARK SMILES CCCCCCCCCCCC(=O)[O-]
REMARK SMILES IDX 7 1 8 2 9 3 10 4 11 5 12 6 13 7 14 8 6 9 5 10 4 11 3 12 2 13
REMARK SMILES IDX 1 14
REMARK H PARENT
REMARK Flexibility Score: inf
ROOT
ATOM      1  C   UNL     1      23.844  34.542  14.385  1.00  0.00     0.000 C 
ENDROOT
BRANCH   1   2
ATOM      2  C   UNL     1      25.067  35.245  13.777  1.00  0.00     0.000 C 
BRANCH   2   3
ATOM      3  C   UNL     1      26.285  34.313  13.656  1.00  0.00     0.000 C 
BRANCH   3   4
ATOM      4  C   UNL     1      26.528  33.834  12.213  1.00  0.00     0.006 C 
BRANCH   4   5
ATOM      5  C   UNL     1      25.788  32.540  11.840  1.00  0.00     0.053 C 
BRANCH   5   6
ATOM      6  C   UNL     1      24.804  32.754  10.732  1.00  0.00     0.041 C 
ATOM      7  O   UNL     1      24.022  33.741  10.761  1.00  0.00    -0.550 OA
ATOM      8  O   UNL     1      24.772  31.884   9.650  1.00  0.00    -0.550 OA
ENDBRANCH   5   6
ENDBRANCH   4   5
ENDBRANCH   3   4
ENDBRANCH   2   3
ENDBRANCH   1   2
BRANCH   1   9
ATOM      9  C   UNL     1      22.569  35.396  14.313  1.00  0.00     0.000 C 
BRANCH   9  10
ATOM     10  C   UNL     1      22.338  36.149  15.629  1.00  0.00    -0.000 C 
BRANCH  10  11
ATOM     11  C   UNL     1      22.490  37.663  15.434  1.00  0.00    -0.000 C 
BRANCH  11  12
ATOM     12  C   UNL     1      23.919  38.119  15.766  1.00  0.00    -0.000 C 
BRANCH  12  13
ATOM     13  C   UNL     1      24.400  39.260  14.855  1.00  0.00    -0.003 C 
ATOM     14  C   UNL     1      24.162  38.974  13.374  1.00  0.00     0.004 C 
ENDBRANCH  12  13
ENDBRANCH  11  12
ENDBRANCH  10  11
ENDBRANCH   9  10
ENDBRANCH   1   9
TORSDOF 10
ENDMDL
MODEL 5
REMARK VINA RESULT:    -3.504      1.052      2.118
REMARK INTER + INTRA:          -6.861
REMARK INTER:                  -6.009
REMARK INTRA:                  -0.852
REMARK UNBOUND:                -1.309
REMARK SMILES CCCCCCCCCCCC(=O)[O-]
REMARK SMILES IDX 7 1 8 2 9 3 10 4 11 5 12 6 13 7 14 8 6 9 5 10 4 11 3 12 2 13
REMARK SMILES IDX 1 14
REMARK H PARENT
REMARK Flexibility Score: inf
ROOT
ATOM      1  C   UNL     1      23.259  35.617  13.080  1.00  0.00     0.000 C 
ENDROOT
BRANCH   1   2
ATOM      2  C   UNL     1      23.222  35.557  14.615  1.00  0.00     0.000 C 
BRANCH   2   3
ATOM      3  C   UNL     1      22.112  36.438  15.215  1.00  0.00     0.000 C 
BRANCH   3   4
ATOM      4  C   UNL     1      22.662  37.686  15.930  1.00  0.00     0.006 C 
BRANCH   4   5
ATOM      5  C   UNL     1      24.172  37.908  15.748  1.00  0.00     0.053 C 
BRANCH   5   6
ATOM      6  C   UNL     1      24.466  39.115  14.911  1.00  0.00     0.041 C 
ATOM      7  O   UNL     1      25.098  40.088  15.402  1.00  0.00    -0.550 OA
ATOM      8  O   UNL     1      24.073  39.152  13.580  1.00  0.00    -0.550 OA
ENDBRANCH   5   6
ENDBRANCH   4   5
ENDBRANCH   3   4
ENDBRANCH   2   3
ENDBRANCH   1   2
BRANCH   1   9
ATOM      9  C   UNL     1      22.577  34.409  12.422  1.00  0.00     0.000 C 
BRANCH   9  10
ATOM     10  C   UNL     1      22.929  34.325  10.931  1.00  0.00    -0.000 C 
BRANCH  10  11
ATOM     11  C   UNL     1      24.250  33.576  10.717  1.00  0.00    -0.000 C 
BRANCH  11  12
ATOM     12  C   UNL     1      24.475  32.532  11.821  1.00  0.00    -0.000 C 
BRANCH  12  13
ATOM     13  C   UNL     1      25.956  32.392  12.207  1.00  0.00    -0.003 C 
ATOM     14  C   UNL     1      26.651  33.741  12.383  1.00  0.00     0.004 C 
ENDBRANCH  12  13
ENDBRANCH  11  12
ENDBRANCH  10  11
ENDBRANCH   9  10
ENDBRANCH   1   9
TORSDOF 10
ENDMDL
MODEL 6
REMARK VINA RESULT:    -3.460      2.603      5.157
REMARK INTER + INTRA:          -6.792
REMARK INTER:                  -5.940
REMARK INTRA:                  -0.852
REMARK UNBOUND:                -1.309
REMARK SMILES CCCCCCCCCCCC(=O)[O-]
REMARK SMILES IDX 7 1 8 2 9 3 10 4 11 5 12 6 13 7 14 8 6 9 5 10 4 11 3 12 2 13
REMARK SMILES IDX 1 14
REMARK H PARENT
REMARK Flexibility Score: inf
ROOT
ATOM      1  C   UNL     1      23.098  35.116  12.635  1.00  0.00     0.000 C 
ENDROOT
BRANCH   1   2
ATOM      2  C   UNL     1      22.791  34.384  11.320  1.00  0.00     0.000 C 
BRANCH   2   3
ATOM      3  C   UNL     1      24.033  33.701  10.720  1.00  0.00     0.000 C 
BRANCH   3   4
ATOM      4  C   UNL     1      24.405  32.396  11.447  1.00  0.00     0.006 C 
BRANCH   4   5
ATOM      5  C   UNL     1      25.905  32.240  11.743  1.00  0.00     0.053 C 
BRANCH   5   6
ATOM      6  C   UNL     1      26.446  33.391  12.534  1.00  0.00     0.041 C 
ATOM      7  O   UNL     1      27.238  34.211  11.999  1.00  0.00    -0.550 OA
ATOM      8  O   UNL     1      26.048  33.579  13.851  1.00  0.00    -0.550 OA
ENDBRANCH   5   6
ENDBRANCH   4   5
ENDBRANCH   3   4
ENDBRANCH   2   3
ENDBRANCH   1   2
BRANCH   1   9
ATOM      9  C   UNL     1      22.379  34.496  13.842  1.00  0.00     0.000 C 
BRANCH   9  10
ATOM     10  C   UNL     1      21.725  35.580  14.708  1.00  0.00    -0.000 C 
BRANCH  10  11
ATOM     11  C   UNL     1      22.762  36.275  15.600  1.00  0.00    -0.000 C 
BRANCH  11  12
ATOM     12  C   UNL     1      22.865  37.769  15.260  1.00  0.00    -0.000 C 
BRANCH  12  13
ATOM     13  C   UNL     1      24.180  38.123  14.548  1.00  0.00    -0.003 C 
ATOM     14  C   UNL     1      24.007  39.218  13.497  1.00  0.00     0.004 C 
ENDBRANCH  12  13
ENDBRANCH  11  12
ENDBRANCH  10  11
ENDBRANCH   9  10
ENDBRANCH   1   9
TORSDOF 10
ENDMDL
MODEL 7
REMARK VINA RESULT:    -3.280      1.212      2.495
REMARK INTER + INTRA:          -6.507
REMARK INTER:                  -5.471
REMARK INTRA:                  -1.035
REMARK UNBOUND:                -1.309
REMARK SMILES CCCCCCCCCCCC(=O)[O-]
REMARK SMILES IDX 7 1 8 2 9 3 10 4 11 5 12 6 13 7 14 8 6 9 5 10 4 11 3 12 2 13
REMARK SMILES IDX 1 14
REMARK H PARENT
REMARK Flexibility Score: inf
ROOT
ATOM      1  C   UNL     1      22.560  34.266  13.378  1.00  0.00     0.000 C 
ENDROOT
BRANCH   1   2
ATOM      2  C   UNL     1      23.243  35.639  13.277  1.00  0.00     0.000 C 
BRANCH   2   3
ATOM      3  C   UNL     1      24.456  35.765  14.217  1.00  0.00     0.000 C 
BRANCH   3   4
ATOM      4  C   UNL     1      24.205  36.735  15.386  1.00  0.00     0.006 C 
BRANCH   4   5
ATOM      5  C   UNL     1      23.335  37.950  15.028  1.00  0.00     0.053 C 
BRANCH   5   6
ATOM      6  C   UNL     1      24.134  39.048  14.398  1.00  0.00     0.041 C 
ATOM      7  O   UNL     1      24.097  39.225  13.151  1.00  0.00    -0.550 OA
ATOM      8  O   UNL     1      24.895  39.899  15.189  1.00  0.00    -0.550 OA
ENDBRANCH   5   6
ENDBRANCH   4   5
ENDBRANCH   3   4
ENDBRANCH   2   3
ENDBRANCH   1   2
BRANCH   1   9
ATOM      9  C   UNL     1      23.395  33.243  14.162  1.00  0.00     0.000 C 
BRANCH   9  10
ATOM     10  C   UNL     1      24.066  32.239  13.215  1.00  0.00    -0.000 C 
BRANCH  10  11
ATOM     11  C   UNL     1      25.564  32.533  13.071  1.00  0.00    -0.000 C 
BRANCH  11  12
ATOM     12  C   UNL     1      25.923  32.854  11.612  1.00  0.00    -0.000 C 
BRANCH  12  13
ATOM     13  C   UNL     1      24.706  32.782  10.676  1.00  0.00    -0.003 C 
ATOM     14  C   UNL     1      24.787  31.617   9.691  1.00  0.00     0.004 C 
ENDBRANCH  12  13
ENDBRANCH  11  12
ENDBRANCH  10  11
ENDBRANCH   9  10
ENDBRANCH   1   9
TORSDOF 10
ENDMDL
MODEL 8
REMARK VINA RESULT:    -3.100      2.824      5.230
REMARK INTER + INTRA:          -6.221
REMARK INTER:                  -5.189
REMARK INTRA:                  -1.032
REMARK UNBOUND:                -1.309
REMARK SMILES CCCCCCCCCCCC(=O)[O-]
REMARK SMILES IDX 7 1 8 2 9 3 10 4 11 5 12 6 13 7 14 8 6 9 5 10 4 11 3 12 2 13
REMARK SMILES IDX 1 14
REMARK H PARENT
REMARK Flexibility Score: inf
ROOT
ATOM      1  C   UNL     1      23.169  32.839  14.986  1.00  0.00     0.000 C 
ENDROOT
BRANCH   1   2
ATOM      2  C   UNL     1      24.686  32.855  14.745  1.00  0.00     0.000 C 
BRANCH   2   3
ATOM      3  C   UNL     1      25.148  31.724  13.809  1.00  0.00     0.000 C 
BRANCH   3   4
ATOM      4  C   UNL     1      26.196  32.191  12.782  1.00  0.00     0.006 C 
BRANCH   4   5
ATOM      5  C   UNL     1      25.804  33.458  12.005  1.00  0.00     0.053 C 
BRANCH   5   6
ATOM      6  C   UNL     1      24.836  33.164  10.901  1.00  0.00     0.041 C 
ATOM      7  O   UNL     1      25.020  32.175  10.143  1.00  0.00    -0.550 OA
ATOM      8  O   UNL     1      23.712  33.961  10.729  1.00  0.00    -0.550 OA
ENDBRANCH   5   6
ENDBRANCH   4   5
ENDBRANCH   3   4
ENDBRANCH   2   3
ENDBRANCH   1   2
BRANCH   1   9
ATOM      9  C   UNL     1      22.406  33.772  14.034  1.00  0.00     0.000 C 
BRANCH   9  10
ATOM     10  C   UNL     1      22.527  35.234  14.485  1.00  0.00    -0.000 C 
BRANCH  10  11
ATOM     11  C   UNL     1      23.368  36.050  13.496  1.00  0.00    -0.000 C 
BRANCH  11  12
ATOM     12  C   UNL     1      24.514  36.774  14.216  1.00  0.00    -0.000 C 
BRANCH  12  13
ATOM     13  C   UNL     1      24.142  38.209  14.623  1.00  0.00    -0.003 C 
ATOM     14  C   UNL     1      24.069  39.161  13.431  1.00  0.00     0.004 C 
ENDBRANCH  12  13
ENDBRANCH  11  12
ENDBRANCH  10  11
ENDBRANCH   9  10
ENDBRANCH   1   9
TORSDOF 10
ENDMDL
MODEL 9
REMARK VINA RESULT:    -3.091      2.391      4.074
REMARK INTER + INTRA:          -6.206
REMARK INTER:                  -5.046
REMARK INTRA:                  -1.161
REMARK UNBOUND:                -1.309
REMARK SMILES CCCCCCCCCCCC(=O)[O-]
REMARK SMILES IDX 7 1 8 2 9 3 10 4 11 5 12 6 13 7 14 8 6 9 5 10 4 11 3 12 2 13
REMARK SMILES IDX 1 14
REMARK H PARENT
REMARK Flexibility Score: inf
ROOT
ATOM      1  C   UNL     1      26.489  33.393  15.417  1.00  0.00     0.000 C 
ENDROOT
BRANCH   1   2
ATOM      2  C   UNL     1      25.147  33.981  15.880  1.00  0.00     0.000 C 
BRANCH   2   3
ATOM      3  C   UNL     1      25.060  35.501  15.657  1.00  0.00     0.000 C 
BRANCH   3   4
ATOM      4  C   UNL     1      24.962  35.880  14.167  1.00  0.00     0.006 C 
BRANCH   4   5
ATOM      5  C   UNL     1      23.548  36.259  13.700  1.00  0.00     0.053 C 
BRANCH   5   6
ATOM      6  C   UNL     1      22.912  35.171  12.891  1.00  0.00     0.041 C 
ATOM      7  O   UNL     1      22.790  35.296  11.644  1.00  0.00    -0.550 OA
ATOM      8  O   UNL     1      22.484  34.003  13.510  1.00  0.00    -0.550 OA
ENDBRANCH   5   6
ENDBRANCH   4   5
ENDBRANCH   3   4
ENDBRANCH   2   3
ENDBRANCH   1   2
BRANCH   1   9
ATOM      9  C   UNL     1      26.337  32.014  14.757  1.00  0.00     0.000 C 
BRANCH   9  10
ATOM     10  C   UNL     1      25.510  32.111  13.468  1.00  0.00    -0.000 C 
BRANCH  10  11
ATOM     11  C   UNL     1      26.288  32.838  12.365  1.00  0.00    -0.000 C 
BRANCH  11  12
ATOM     12  C   UNL     1      25.404  33.074  11.132  1.00  0.00    -0.000 C 
BRANCH  12  13
ATOM     13  C   UNL     1      24.524  31.859  10.796  1.00  0.00    -0.003 C 
ATOM     14  C   UNL     1      24.786  31.309   9.395  1.00  0.00     0.004 C 
ENDBRANCH  12  13
ENDBRANCH  11  12
ENDBRANCH  10  11
ENDBRANCH   9  10
ENDBRANCH   1   9
TORSDOF 10
ENDMDL
