MODEL 1
REMARK VINA RESULT:    -3.679      0.000      0.000
REMARK INTER + INTRA:          -4.810
REMARK INTER:                  -4.539
REMARK INTRA:                  -0.271
REMARK UNBOUND:                -0.271
REMARK SMILES C=CC[C@@H](C)C(=O)CC
REMARK SMILES IDX 4 1 5 2 6 3 7 4 8 5 9 6 3 7 2 8 1 9
REMARK H PARENT
REMARK Flexibility Score: inf
ROOT
ATOM      1  C   UNL     1     -30.625  39.504 -24.782  1.00  0.00     0.057 C 
ATOM      2  C   UNL     1     -31.821  38.987 -23.977  1.00  0.00     0.016 C 
ENDROOT
BRANCH   1   3
ATOM      3  C   UNL     1     -30.067  38.392 -25.650  1.00  0.00     0.135 C 
ATOM      4  O   UNL     1     -28.862  38.184 -25.668  1.00  0.00    -0.299 OA
BRANCH   3   5
ATOM      5  C   UNL     1     -30.971  37.547 -26.509  1.00  0.00     0.072 C 
ATOM      6  C   UNL     1     -30.296  36.230 -26.880  1.00  0.00     0.012 C 
ENDBRANCH   3   5
ENDBRANCH   1   3
BRANCH   1   7
ATOM      7  C   UNL     1     -31.031  40.725 -25.632  1.00  0.00     0.038 C 
BRANCH   7   8
ATOM      8  C   UNL     1     -30.179  41.932 -25.338  1.00  0.00    -0.034 C 
ATOM      9  C   UNL     1     -29.124  41.866 -24.521  1.00  0.00     0.004 C 
ENDBRANCH   7   8
ENDBRANCH   1   7
TORSDOF 4
ENDMDL
MODEL 2
REMARK VINA RESULT:    -3.593     16.495     17.443
REMARK INTER + INTRA:          -4.704
REMARK INTER:                  -4.395
REMARK INTRA:                  -0.310
REMARK UNBOUND:                -0.271
REMARK SMILES C=CC[C@@H](C)C(=O)CC
REMARK SMILES IDX 4 1 5 2 6 3 7 4 8 5 9 6 3 7 2 8 1 9
REMARK H PARENT
REMARK Flexibility Score: inf
ROOT
ATOM      1  C   UNL     1     -13.260  35.887 -25.916  1.00  0.00     0.057 C 
ATOM      2  C   UNL     1     -12.510  34.596 -26.258  1.00  0.00     0.016 C 
ENDROOT
BRANCH   1   3
ATOM      3  C   UNL     1     -12.321  37.074 -26.027  1.00  0.00     0.135 C 
ATOM      4  O   UNL     1     -11.904  37.415 -27.125  1.00  0.00    -0.299 OA
BRANCH   3   5
ATOM      5  C   UNL     1     -11.876  37.833 -24.804  1.00  0.00     0.072 C 
ATOM      6  C   UNL     1     -12.673  39.123 -24.642  1.00  0.00     0.012 C 
ENDBRANCH   3   5
ENDBRANCH   1   3
BRANCH   1   7
ATOM      7  C   UNL     1     -14.488  36.059 -26.833  1.00  0.00     0.038 C 
BRANCH   7   8
ATOM      8  C   UNL     1     -15.243  37.328 -26.540  1.00  0.00    -0.034 C 
ATOM      9  C   UNL     1     -16.429  37.316 -25.925  1.00  0.00     0.004 C 
ENDBRANCH   7   8
ENDBRANCH   1   7
TORSDOF 4
ENDMDL
MODEL 3
REMARK VINA RESULT:    -3.370     16.228     17.031
REMARK INTER + INTRA:          -4.428
REMARK INTER:                  -4.077
REMARK INTRA:                  -0.352
REMARK UNBOUND:                -0.271
REMARK SMILES C=CC[C@@H](C)C(=O)CC
REMARK SMILES IDX 4 1 5 2 6 3 7 4 8 5 9 6 3 7 2 8 1 9
REMARK H PARENT
REMARK Flexibility Score: inf
ROOT
ATOM      1  C   UNL     1     -13.035  36.661 -26.810  1.00  0.00     0.057 C 
ATOM      2  C   UNL     1     -13.278  35.426 -25.938  1.00  0.00     0.016 C 
ENDROOT
BRANCH   1   3
ATOM      3  C   UNL     1     -14.308  37.478 -26.916  1.00  0.00     0.135 C 
ATOM      4  O   UNL     1     -14.240  38.683 -27.118  1.00  0.00    -0.299 OA
BRANCH   3   5
ATOM      5  C   UNL     1     -15.662  36.836 -26.759  1.00  0.00     0.072 C 
ATOM      6  C   UNL     1     -16.476  37.536 -25.677  1.00  0.00     0.012 C 
ENDBRANCH   3   5
ENDBRANCH   1   3
BRANCH   1   7
ATOM      7  C   UNL     1     -11.875  37.505 -26.242  1.00  0.00     0.038 C 
BRANCH   7   8
ATOM      8  C   UNL     1     -11.953  37.642 -24.744  1.00  0.00    -0.034 C 
ATOM      9  C   UNL     1     -11.958  38.836 -24.146  1.00  0.00     0.004 C 
ENDBRANCH   7   8
ENDBRANCH   1   7
TORSDOF 4
ENDMDL
MODEL 4
REMARK VINA RESULT:    -3.356      1.829      4.157
REMARK INTER + INTRA:          -4.411
REMARK INTER:                  -4.101
REMARK INTRA:                  -0.311
REMARK UNBOUND:                -0.271
REMARK SMILES C=CC[C@@H](C)C(=O)CC
REMARK SMILES IDX 4 1 5 2 6 3 7 4 8 5 9 6 3 7 2 8 1 9
REMARK H PARENT
REMARK Flexibility Score: inf
ROOT
ATOM      1  C   UNL     1     -29.562  40.060 -24.463  1.00  0.00     0.057 C 
ATOM      2  C   UNL     1     -28.310  39.425 -25.075  1.00  0.00     0.016 C 
ENDROOT
BRANCH   1   3
ATOM      3  C   UNL     1     -29.628  41.530 -24.833  1.00  0.00     0.135 C 
ATOM      4  O   UNL     1     -28.883  42.327 -24.282  1.00  0.00    -0.299 OA
BRANCH   3   5
ATOM      5  C   UNL     1     -30.612  42.032 -25.857  1.00  0.00     0.072 C 
ATOM      6  C   UNL     1     -29.942  42.994 -26.832  1.00  0.00     0.012 C 
ENDBRANCH   3   5
ENDBRANCH   1   3
BRANCH   1   7
ATOM      7  C   UNL     1     -30.829  39.311 -24.924  1.00  0.00     0.038 C 
BRANCH   7   8
ATOM      8  C   UNL     1     -30.503  38.115 -25.780  1.00  0.00    -0.034 C 
ATOM      9  C   UNL     1     -31.239  37.792 -26.847  1.00  0.00     0.004 C 
ENDBRANCH   7   8
ENDBRANCH   1   7
TORSDOF 4
ENDMDL
MODEL 5
REMARK VINA RESULT:    -3.192      1.607      2.812
REMARK INTER + INTRA:          -4.209
REMARK INTER:                  -3.751
REMARK INTRA:                  -0.457
REMARK UNBOUND:                -0.271
REMARK SMILES C=CC[C@@H](C)C(=O)CC
REMARK SMILES IDX 4 1 5 2 6 3 7 4 8 5 9 6 3 7 2 8 1 9
REMARK H PARENT
REMARK Flexibility Score: inf
ROOT
ATOM      1  C   UNL     1     -31.060  39.630 -24.899  1.00  0.00     0.057 C 
ATOM      2  C   UNL     1     -31.779  38.931 -23.741  1.00  0.00     0.016 C 
ENDROOT
BRANCH   1   3
ATOM      3  C   UNL     1     -29.668  39.053 -25.067  1.00  0.00     0.135 C 
ATOM      4  O   UNL     1     -29.531  37.874 -25.359  1.00  0.00    -0.299 OA
BRANCH   3   5
ATOM      5  C   UNL     1     -28.441  39.905 -24.862  1.00  0.00     0.072 C 
ATOM      6  C   UNL     1     -28.825  41.337 -24.505  1.00  0.00     0.012 C 
ENDBRANCH   3   5
ENDBRANCH   1   3
BRANCH   1   7
ATOM      7  C   UNL     1     -31.878  39.501 -26.201  1.00  0.00     0.038 C 
BRANCH   7   8
ATOM      8  C   UNL     1     -32.125  40.836 -26.853  1.00  0.00    -0.034 C 
ATOM      9  C   UNL     1     -31.979  41.983 -26.184  1.00  0.00     0.004 C 
ENDBRANCH   7   8
ENDBRANCH   1   7
TORSDOF 4
ENDMDL
MODEL 6
REMARK VINA RESULT:    -3.007      1.773      2.414
REMARK INTER + INTRA:          -3.981
REMARK INTER:                  -3.740
REMARK INTRA:                  -0.241
REMARK UNBOUND:                -0.271
REMARK SMILES C=CC[C@@H](C)C(=O)CC
REMARK SMILES IDX 4 1 5 2 6 3 7 4 8 5 9 6 3 7 2 8 1 9
REMARK H PARENT
REMARK Flexibility Score: inf
ROOT
ATOM      1  C   UNL     1     -30.305  38.634 -25.739  1.00  0.00     0.057 C 
ATOM      2  C   UNL     1     -28.858  38.741 -25.247  1.00  0.00     0.016 C 
ENDROOT
BRANCH   1   3
ATOM      3  C   UNL     1     -30.539  37.273 -26.365  1.00  0.00     0.135 C 
ATOM      4  O   UNL     1     -31.633  37.005 -26.843  1.00  0.00    -0.299 OA
BRANCH   3   5
ATOM      5  C   UNL     1     -29.451  36.231 -26.394  1.00  0.00     0.072 C 
ATOM      6  C   UNL     1     -29.922  34.969 -27.111  1.00  0.00     0.012 C 
ENDBRANCH   3   5
ENDBRANCH   1   3
BRANCH   1   7
ATOM      7  C   UNL     1     -31.291  38.893 -24.581  1.00  0.00     0.038 C 
BRANCH   7   8
ATOM      8  C   UNL     1     -32.125  40.126 -24.810  1.00  0.00    -0.034 C 
ATOM      9  C   UNL     1     -31.880  40.964 -25.820  1.00  0.00     0.004 C 
ENDBRANCH   7   8
ENDBRANCH   1   7
TORSDOF 4
ENDMDL
MODEL 7
REMARK VINA RESULT:    -2.992     16.322     17.339
REMARK INTER + INTRA:          -3.963
REMARK INTER:                  -4.147
REMARK INTRA:                   0.184
REMARK UNBOUND:                -0.271
REMARK SMILES C=CC[C@@H](C)C(=O)CC
REMARK SMILES IDX 4 1 5 2 6 3 7 4 8 5 9 6 3 7 2 8 1 9
REMARK H PARENT
REMARK Flexibility Score: inf
ROOT
ATOM      1  C   UNL     1     -14.530  36.838 -26.827  1.00  0.00     0.057 C 
ATOM      2  C   UNL     1     -15.964  37.124 -26.372  1.00  0.00     0.016 C 
ENDROOT
BRANCH   1   3
ATOM      3  C   UNL     1     -13.650  38.041 -26.548  1.00  0.00     0.135 C 
ATOM      4  O   UNL     1     -12.578  38.155 -27.124  1.00  0.00    -0.299 OA
BRANCH   3   5
ATOM      5  C   UNL     1     -14.064  39.096 -25.554  1.00  0.00     0.072 C 
ATOM      6  C   UNL     1     -12.935  39.396 -24.574  1.00  0.00     0.012 C 
ENDBRANCH   3   5
ENDBRANCH   1   3
BRANCH   1   7
ATOM      7  C   UNL     1     -13.984  35.574 -26.133  1.00  0.00     0.038 C 
BRANCH   7   8
ATOM      8  C   UNL     1     -12.508  35.388 -26.367  1.00  0.00    -0.034 C 
ATOM      9  C   UNL     1     -11.938  34.180 -26.341  1.00  0.00     0.004 C 
ENDBRANCH   7   8
ENDBRANCH   1   7
TORSDOF 4
ENDMDL
MODEL 8
REMARK VINA RESULT:    -2.952      1.769      4.325
REMARK INTER + INTRA:          -3.912
REMARK INTER:                  -3.719
REMARK INTRA:                  -0.193
REMARK UNBOUND:                -0.271
REMARK SMILES C=CC[C@@H](C)C(=O)CC
REMARK SMILES IDX 4 1 5 2 6 3 7 4 8 5 9 6 3 7 2 8 1 9
REMARK H PARENT
REMARK Flexibility Score: inf
ROOT
ATOM      1  C   UNL     1     -30.214  38.204 -25.083  1.00  0.00     0.057 C 
ATOM      2  C   UNL     1     -28.928  39.024 -25.221  1.00  0.00     0.016 C 
ENDROOT
BRANCH   1   3
ATOM      3  C   UNL     1     -31.383  39.123 -24.783  1.00  0.00     0.135 C 
ATOM      4  O   UNL     1     -31.897  39.109 -23.674  1.00  0.00    -0.299 OA
BRANCH   3   5
ATOM      5  C   UNL     1     -31.938  40.046 -25.837  1.00  0.00     0.072 C 
ATOM      6  C   UNL     1     -31.683  41.506 -25.474  1.00  0.00     0.012 C 
ENDBRANCH   3   5
ENDBRANCH   1   3
BRANCH   1   7
ATOM      7  C   UNL     1     -30.468  37.376 -26.359  1.00  0.00     0.038 C 
BRANCH   7   8
ATOM      8  C   UNL     1     -29.545  36.190 -26.460  1.00  0.00    -0.034 C 
ATOM      9  C   UNL     1     -29.891  35.084 -27.125  1.00  0.00     0.004 C 
ENDBRANCH   7   8
ENDBRANCH   1   7
TORSDOF 4
ENDMDL
