MODEL 1
REMARK VINA RESULT:    -0.549      0.000      0.000
REMARK INTER + INTRA:          -0.896
REMARK INTER:                  -0.581
REMARK INTRA:                  -0.315
REMARK UNBOUND:                -0.315
REMARK SMILES CC1=CC[C@@H]2[C@H]3[C@H](C(C)C)CC[C@]2(C)[C@@H]13
REMARK SMILES IDX 1 1 2 2 3 3 4 4 5 5 6 6 15 7 13 8 12 9 11 10 7 11 14 12 8 13
REMARK SMILES IDX 9 14 10 15
REMARK H PARENT
REMARK Flexibility Score: inf
ROOT
ATOM      1  C   UNL     1     153.257 138.912 165.032  1.00  0.00     0.039 C 
ATOM      2  C   UNL     1     153.603 138.162 163.781  1.00  0.00    -0.073 C 
ATOM      3  C   UNL     1     154.823 138.290 163.196  1.00  0.00    -0.027 C 
ATOM      4  C   UNL     1     155.125 137.483 161.930  1.00  0.00     0.031 C 
ATOM      5  C   UNL     1     153.877 136.641 161.510  1.00  0.00     0.003 C 
ATOM      6  C   UNL     1     152.642 137.570 161.581  1.00  0.00     0.004 C 
ATOM      7  C   UNL     1     152.596 137.235 163.095  1.00  0.00     0.024 C 
ATOM      8  C   UNL     1     153.265 135.890 162.718  1.00  0.00    -0.022 C 
ATOM      9  C   UNL     1     152.200 134.875 162.200  1.00  0.00     0.008 C 
ATOM     10  C   UNL     1     151.034 135.568 161.444  1.00  0.00     0.005 C 
ATOM     11  C   UNL     1     151.460 136.924 160.800  1.00  0.00    -0.005 C 
ATOM     12  C   UNL     1     154.218 135.221 163.736  1.00  0.00     0.012 C 
ENDROOT
BRANCH  11  13
ATOM     13  C   UNL     1     150.287 137.923 160.571  1.00  0.00    -0.014 C 
ATOM     14  C   UNL     1     150.743 139.380 160.739  1.00  0.00     0.007 C 
ATOM     15  C   UNL     1     149.557 137.743 159.229  1.00  0.00     0.007 C 
ENDBRANCH  11  13
TORSDOF 1
ENDMDL
MODEL 2
REMARK VINA RESULT:     0.641      0.865      4.233
REMARK INTER + INTRA:           0.363
REMARK INTER:                   0.610
REMARK INTRA:                  -0.247
REMARK UNBOUND:                -0.315
REMARK SMILES CC1=CC[C@@H]2[C@H]3[C@H](C(C)C)CC[C@]2(C)[C@@H]13
REMARK SMILES IDX 1 1 2 2 3 3 4 4 5 5 6 6 15 7 13 8 12 9 11 10 7 11 14 12 8 13
REMARK SMILES IDX 9 14 10 15
REMARK H PARENT
REMARK Flexibility Score: inf
ROOT
ATOM      1  C   UNL     1     150.657 137.792 160.003  1.00  0.00     0.039 C 
ATOM      2  C   UNL     1     151.378 136.928 160.993  1.00  0.00    -0.073 C 
ATOM      3  C   UNL     1     150.878 135.723 161.371  1.00  0.00    -0.027 C 
ATOM      4  C   UNL     1     151.669 134.875 162.373  1.00  0.00     0.031 C 
ATOM      5  C   UNL     1     152.964 135.628 162.820  1.00  0.00     0.003 C 
ATOM      6  C   UNL     1     152.565 137.083 163.156  1.00  0.00     0.004 C 
ATOM      7  C   UNL     1     152.694 137.369 161.637  1.00  0.00     0.024 C 
ATOM      8  C   UNL     1     153.727 136.216 161.608  1.00  0.00    -0.022 C 
ATOM      9  C   UNL     1     155.125 136.720 162.082  1.00  0.00     0.008 C 
ATOM     10  C   UNL     1     155.022 137.838 163.154  1.00  0.00     0.005 C 
ATOM     11  C   UNL     1     153.702 137.757 163.980  1.00  0.00    -0.005 C 
ATOM     12  C   UNL     1     153.853 135.361 160.324  1.00  0.00     0.012 C 
ENDROOT
BRANCH  11  13
ATOM     13  C   UNL     1     153.253 139.110 164.609  1.00  0.00    -0.014 C 
ATOM     14  C   UNL     1     154.091 139.463 165.848  1.00  0.00     0.007 C 
ATOM     15  C   UNL     1     153.236 140.290 163.622  1.00  0.00     0.007 C 
ENDBRANCH  11  13
TORSDOF 1
ENDMDL
MODEL 3
REMARK VINA RESULT:     1.146      0.638      1.117
REMARK INTER + INTRA:           0.898
REMARK INTER:                   1.067
REMARK INTRA:                  -0.170
REMARK UNBOUND:                -0.315
REMARK SMILES CC1=CC[C@@H]2[C@H]3[C@H](C(C)C)CC[C@]2(C)[C@@H]13
REMARK SMILES IDX 1 1 2 2 3 3 4 4 5 5 6 6 15 7 13 8 12 9 11 10 7 11 14 12 8 13
REMARK SMILES IDX 9 14 10 15
REMARK H PARENT
REMARK Flexibility Score: inf
ROOT
ATOM      1  C   UNL     1     153.275 139.193 164.204  1.00  0.00     0.039 C 
ATOM      2  C   UNL     1     153.590 138.146 163.178  1.00  0.00    -0.073 C 
ATOM      3  C   UNL     1     154.862 137.942 162.747  1.00  0.00    -0.027 C 
ATOM      4  C   UNL     1     155.125 136.845 161.711  1.00  0.00     0.031 C 
ATOM      5  C   UNL     1     153.785 136.154 161.297  1.00  0.00     0.003 C 
ATOM      6  C   UNL     1     152.750 137.270 161.024  1.00  0.00     0.004 C 
ATOM      7  C   UNL     1     152.496 137.277 162.554  1.00  0.00     0.024 C 
ATOM      8  C   UNL     1     152.928 135.790 162.534  1.00  0.00    -0.022 C 
ATOM      9  C   UNL     1     151.743 134.881 162.082  1.00  0.00     0.008 C 
ATOM     10  C   UNL     1     150.810 135.583 161.059  1.00  0.00     0.005 C 
ATOM     11  C   UNL     1     151.547 136.680 160.230  1.00  0.00    -0.005 C 
ATOM     12  C   UNL     1     153.633 135.203 163.779  1.00  0.00     0.012 C 
ENDROOT
BRANCH  11  13
ATOM     13  C   UNL     1     150.614 137.789 159.660  1.00  0.00    -0.014 C 
ATOM     14  C   UNL     1     149.354 137.193 159.014  1.00  0.00     0.007 C 
ATOM     15  C   UNL     1     150.228 138.875 160.679  1.00  0.00     0.007 C 
ENDBRANCH  11  13
TORSDOF 1
ENDMDL
