MODEL 1
REMARK VINA RESULT:    -4.163      0.000      0.000
REMARK INTER + INTRA:          -5.010
REMARK INTER:                  -4.893
REMARK INTRA:                  -0.118
REMARK UNBOUND:                -0.118
REMARK SMILES O=C([O-])CCC(=O)[O-]
REMARK SMILES IDX 4 1 2 2 1 3 3 4 5 5 6 6 7 7 8 8
REMARK H PARENT
REMARK Flexibility Score: inf
ROOT
ATOM      1  C   UNL     1     -18.790 -11.900  13.079  1.00  0.00     0.059 C 
ENDROOT
BRANCH   1   2
ATOM      2  C   UNL     1     -19.207 -12.447  11.750  1.00  0.00     0.042 C 
ATOM      3  O   UNL     1     -18.855 -13.605  11.403  1.00  0.00    -0.550 OA
ATOM      4  O   UNL     1     -19.944 -11.659  10.875  1.00  0.00    -0.550 OA
ENDBRANCH   1   2
BRANCH   1   5
ATOM      5  C   UNL     1     -18.194 -13.007  13.950  1.00  0.00     0.059 C 
BRANCH   5   6
ATOM      6  C   UNL     1     -16.725 -12.793  14.134  1.00  0.00     0.042 C 
ATOM      7  O   UNL     1     -15.906 -13.262  13.299  1.00  0.00    -0.550 OA
ATOM      8  O   UNL     1     -16.255 -12.117  15.253  1.00  0.00    -0.550 OA
ENDBRANCH   5   6
ENDBRANCH   1   5
TORSDOF 3
ENDMDL
MODEL 2
REMARK VINA RESULT:    -4.112      0.133      3.889
REMARK INTER + INTRA:          -4.951
REMARK INTER:                  -4.834
REMARK INTRA:                  -0.117
REMARK UNBOUND:                -0.118
REMARK SMILES O=C([O-])CCC(=O)[O-]
REMARK SMILES IDX 4 1 2 2 1 3 3 4 5 5 6 6 7 7 8 8
REMARK H PARENT
REMARK Flexibility Score: inf
ROOT
ATOM      1  C   UNL     1     -18.266 -13.053  13.892  1.00  0.00     0.059 C 
ENDROOT
BRANCH   1   2
ATOM      2  C   UNL     1     -16.793 -12.872  14.081  1.00  0.00     0.042 C 
ATOM      3  O   UNL     1     -16.355 -12.242  15.079  1.00  0.00    -0.550 OA
ATOM      4  O   UNL     1     -15.906 -13.358  13.129  1.00  0.00    -0.550 OA
ENDBRANCH   1   2
BRANCH   1   5
ATOM      5  C   UNL     1     -18.839 -11.919  13.041  1.00  0.00     0.059 C 
BRANCH   5   6
ATOM      6  C   UNL     1     -19.244 -12.429  11.694  1.00  0.00     0.042 C 
ATOM      7  O   UNL     1     -18.879 -13.573  11.313  1.00  0.00    -0.550 OA
ATOM      8  O   UNL     1     -19.984 -11.622  10.839  1.00  0.00    -0.550 OA
ENDBRANCH   5   6
ENDBRANCH   1   5
TORSDOF 3
ENDMDL
MODEL 3
REMARK VINA RESULT:    -4.099      1.820      4.069
REMARK INTER + INTRA:          -4.935
REMARK INTER:                  -4.898
REMARK INTRA:                  -0.037
REMARK UNBOUND:                -0.118
REMARK SMILES O=C([O-])CCC(=O)[O-]
REMARK SMILES IDX 4 1 2 2 1 3 3 4 5 5 6 6 7 7 8 8
REMARK H PARENT
REMARK Flexibility Score: inf
ROOT
ATOM      1  C   UNL     1     -18.314 -12.212  13.791  1.00  0.00     0.059 C 
ENDROOT
BRANCH   1   2
ATOM      2  C   UNL     1     -16.915 -12.678  14.044  1.00  0.00     0.042 C 
ATOM      3  O   UNL     1     -16.292 -12.288  15.067  1.00  0.00    -0.550 OA
ATOM      4  O   UNL     1     -16.280 -13.503  13.124  1.00  0.00    -0.550 OA
ENDBRANCH   1   2
BRANCH   1   5
ATOM      5  C   UNL     1     -19.318 -13.295  14.185  1.00  0.00     0.059 C 
BRANCH   5   6
ATOM      6  C   UNL     1     -20.649 -13.028  13.557  1.00  0.00     0.042 C 
ATOM      7  O   UNL     1     -20.782 -12.090  12.726  1.00  0.00    -0.550 OA
ATOM      8  O   UNL     1     -21.756 -13.783  13.925  1.00  0.00    -0.550 OA
ENDBRANCH   5   6
ENDBRANCH   1   5
TORSDOF 3
ENDMDL
MODEL 4
REMARK VINA RESULT:    -4.072      1.803      2.369
REMARK INTER + INTRA:          -4.904
REMARK INTER:                  -4.870
REMARK INTRA:                  -0.034
REMARK UNBOUND:                -0.118
REMARK SMILES O=C([O-])CCC(=O)[O-]
REMARK SMILES IDX 4 1 2 2 1 3 3 4 5 5 6 6 7 7 8 8
REMARK H PARENT
REMARK Flexibility Score: inf
ROOT
ATOM      1  C   UNL     1     -19.277 -13.368  13.990  1.00  0.00     0.059 C 
ENDROOT
BRANCH   1   2
ATOM      2  C   UNL     1     -20.647 -13.042  13.483  1.00  0.00     0.042 C 
ATOM      3  O   UNL     1     -20.819 -12.069  12.703  1.00  0.00    -0.550 OA
ATOM      4  O   UNL     1     -21.741 -13.784  13.912  1.00  0.00    -0.550 OA
ENDBRANCH   1   2
BRANCH   1   5
ATOM      5  C   UNL     1     -18.279 -12.291  13.564  1.00  0.00     0.059 C 
BRANCH   5   6
ATOM      6  C   UNL     1     -16.897 -12.655  14.005  1.00  0.00     0.042 C 
ATOM      7  O   UNL     1     -16.476 -12.294  15.137  1.00  0.00    -0.550 OA
ATOM      8  O   UNL     1     -16.054 -13.351  13.148  1.00  0.00    -0.550 OA
ENDBRANCH   5   6
ENDBRANCH   1   5
TORSDOF 3
ENDMDL
MODEL 5
REMARK VINA RESULT:    -3.946      0.956      4.060
REMARK INTER + INTRA:          -4.755
REMARK INTER:                  -4.717
REMARK INTRA:                  -0.038
REMARK UNBOUND:                -0.118
REMARK SMILES O=C([O-])CCC(=O)[O-]
REMARK SMILES IDX 4 1 2 2 1 3 3 4 5 5 6 6 7 7 8 8
REMARK H PARENT
REMARK Flexibility Score: inf
ROOT
ATOM      1  C   UNL     1     -18.077 -12.629  14.108  1.00  0.00     0.059 C 
ENDROOT
BRANCH   1   2
ATOM      2  C   UNL     1     -16.592 -12.681  14.282  1.00  0.00     0.042 C 
ATOM      3  O   UNL     1     -15.892 -13.418  13.539  1.00  0.00    -0.550 OA
ATOM      4  O   UNL     1     -15.986 -11.953  15.299  1.00  0.00    -0.550 OA
ENDBRANCH   1   2
BRANCH   1   5
ATOM      5  C   UNL     1     -18.469 -13.117  12.713  1.00  0.00     0.059 C 
BRANCH   5   6
ATOM      6  C   UNL     1     -19.613 -12.313  12.181  1.00  0.00     0.042 C 
ATOM      7  O   UNL     1     -20.664 -12.177  12.861  1.00  0.00    -0.550 OA
ATOM      8  O   UNL     1     -19.538 -11.753  10.912  1.00  0.00    -0.550 OA
ENDBRANCH   5   6
ENDBRANCH   1   5
TORSDOF 3
ENDMDL
MODEL 6
REMARK VINA RESULT:    -3.902     18.504     19.740
REMARK INTER + INTRA:          -4.704
REMARK INTER:                  -4.672
REMARK INTRA:                  -0.032
REMARK UNBOUND:                -0.118
REMARK SMILES O=C([O-])CCC(=O)[O-]
REMARK SMILES IDX 4 1 2 2 1 3 3 4 5 5 6 6 7 7 8 8
REMARK H PARENT
REMARK Flexibility Score: inf
ROOT
ATOM      1  C   UNL     1     -13.571   3.392  21.772  1.00  0.00     0.059 C 
ENDROOT
BRANCH   1   2
ATOM      2  C   UNL     1     -12.618   3.735  20.672  1.00  0.00     0.042 C 
ATOM      3  O   UNL     1     -12.821   3.313  19.503  1.00  0.00    -0.550 OA
ATOM      4  O   UNL     1     -11.479   4.481  20.947  1.00  0.00    -0.550 OA
ENDBRANCH   1   2
BRANCH   1   5
ATOM      5  C   UNL     1     -13.715   4.565  22.742  1.00  0.00     0.059 C 
BRANCH   5   6
ATOM      6  C   UNL     1     -15.110   4.633  23.278  1.00  0.00     0.042 C 
ATOM      7  O   UNL     1     -15.940   5.444  22.788  1.00  0.00    -0.550 OA
ATOM      8  O   UNL     1     -15.481   3.835  24.353  1.00  0.00    -0.550 OA
ENDBRANCH   5   6
ENDBRANCH   1   5
TORSDOF 3
ENDMDL
MODEL 7
REMARK VINA RESULT:    -3.891     18.569     19.815
REMARK INTER + INTRA:          -4.691
REMARK INTER:                  -4.658
REMARK INTRA:                  -0.033
REMARK UNBOUND:                -0.118
REMARK SMILES O=C([O-])CCC(=O)[O-]
REMARK SMILES IDX 4 1 2 2 1 3 3 4 5 5 6 6 7 7 8 8
REMARK H PARENT
REMARK Flexibility Score: inf
ROOT
ATOM      1  C   UNL     1     -13.618   4.638  22.816  1.00  0.00     0.059 C 
ENDROOT
BRANCH   1   2
ATOM      2  C   UNL     1     -15.031   4.712  23.300  1.00  0.00     0.042 C 
ATOM      3  O   UNL     1     -15.817   5.577  22.832  1.00  0.00    -0.550 OA
ATOM      4  O   UNL     1     -15.467   3.857  24.304  1.00  0.00    -0.550 OA
ENDBRANCH   1   2
BRANCH   1   5
ATOM      5  C   UNL     1     -13.425   3.419  21.912  1.00  0.00     0.059 C 
BRANCH   5   6
ATOM      6  C   UNL     1     -12.520   3.754  20.769  1.00  0.00     0.042 C 
ATOM      7  O   UNL     1     -11.484   4.445  20.961  1.00  0.00    -0.550 OA
ATOM      8  O   UNL     1     -12.844   3.343  19.482  1.00  0.00    -0.550 OA
ENDBRANCH   5   6
ENDBRANCH   1   5
TORSDOF 3
ENDMDL
MODEL 8
REMARK VINA RESULT:    -3.875     18.597     19.829
REMARK INTER + INTRA:          -4.672
REMARK INTER:                  -4.642
REMARK INTRA:                  -0.030
REMARK UNBOUND:                -0.118
REMARK SMILES O=C([O-])CCC(=O)[O-]
REMARK SMILES IDX 4 1 2 2 1 3 3 4 5 5 6 6 7 7 8 8
REMARK H PARENT
REMARK Flexibility Score: inf
ROOT
ATOM      1  C   UNL     1     -13.261   3.490  21.835  1.00  0.00     0.059 C 
ENDROOT
BRANCH   1   2
ATOM      2  C   UNL     1     -12.495   3.812  20.591  1.00  0.00     0.042 C 
ATOM      3  O   UNL     1     -12.841   3.314  19.487  1.00  0.00    -0.550 OA
ATOM      4  O   UNL     1     -11.369   4.623  20.658  1.00  0.00    -0.550 OA
ENDBRANCH   1   2
BRANCH   1   5
ATOM      5  C   UNL     1     -13.502   4.756  22.657  1.00  0.00     0.059 C 
BRANCH   5   6
ATOM      6  C   UNL     1     -14.875   4.741  23.251  1.00  0.00     0.042 C 
ATOM      7  O   UNL     1     -15.210   3.830  24.053  1.00  0.00    -0.550 OA
ATOM      8  O   UNL     1     -15.803   5.707  22.880  1.00  0.00    -0.550 OA
ENDBRANCH   5   6
ENDBRANCH   1   5
TORSDOF 3
ENDMDL
MODEL 9
REMARK VINA RESULT:    -3.816     19.063     20.106
REMARK INTER + INTRA:          -4.603
REMARK INTER:                  -4.496
REMARK INTRA:                  -0.106
REMARK UNBOUND:                -0.118
REMARK SMILES O=C([O-])CCC(=O)[O-]
REMARK SMILES IDX 4 1 2 2 1 3 3 4 5 5 6 6 7 7 8 8
REMARK H PARENT
REMARK Flexibility Score: inf
ROOT
ATOM      1  C   UNL     1     -12.146   4.211  23.618  1.00  0.00     0.059 C 
ENDROOT
BRANCH   1   2
ATOM      2  C   UNL     1     -13.418   3.674  24.195  1.00  0.00     0.042 C 
ATOM      3  O   UNL     1     -13.390   2.946  25.222  1.00  0.00    -0.550 OA
ATOM      4  O   UNL     1     -14.630   3.939  23.570  1.00  0.00    -0.550 OA
ENDBRANCH   1   2
BRANCH   1   5
ATOM      5  C   UNL     1     -12.430   5.002  22.340  1.00  0.00     0.059 C 
BRANCH   5   6
ATOM      6  C   UNL     1     -12.176   4.155  21.133  1.00  0.00     0.042 C 
ATOM      7  O   UNL     1     -11.042   4.157  20.585  1.00  0.00    -0.550 OA
ATOM      8  O   UNL     1     -13.205   3.401  20.584  1.00  0.00    -0.550 OA
ENDBRANCH   5   6
ENDBRANCH   1   5
TORSDOF 3
ENDMDL
