MODEL 1
REMARK VINA RESULT:    -4.925      0.000      0.000
REMARK INTER + INTRA:          -8.000
REMARK INTER:                  -7.516
REMARK INTRA:                  -0.484
REMARK UNBOUND:                -0.484
REMARK SMILES CCCCCCCCCCC(=O)[O-]
REMARK SMILES IDX 7 1 8 2 9 3 10 4 11 5 12 6 13 7 6 8 5 9 4 10 3 11 2 12 1 13
REMARK H PARENT
REMARK Flexibility Score: inf
ROOT
ATOM      1  C   UNL     1      18.513  27.084  -0.397  1.00  0.00     0.000 C 
ENDROOT
BRANCH   1   2
ATOM      2  C   UNL     1      18.895  25.747  -1.053  1.00  0.00     0.000 C 
BRANCH   2   3
ATOM      3  C   UNL     1      17.675  24.996  -1.616  1.00  0.00     0.006 C 
BRANCH   3   4
ATOM      4  C   UNL     1      16.374  25.786  -1.431  1.00  0.00     0.053 C 
BRANCH   4   5
ATOM      5  C   UNL     1      15.239  25.178  -2.195  1.00  0.00     0.041 C 
ATOM      6  O   UNL     1      15.073  25.452  -3.413  1.00  0.00    -0.550 OA
ATOM      7  O   UNL     1      14.345  24.331  -1.554  1.00  0.00    -0.550 OA
ENDBRANCH   4   5
ENDBRANCH   3   4
ENDBRANCH   2   3
ENDBRANCH   1   2
BRANCH   1   8
ATOM      8  C   UNL     1      18.732  27.079   1.126  1.00  0.00     0.000 C 
BRANCH   8   9
ATOM      9  C   UNL     1      19.026  25.674   1.677  1.00  0.00    -0.000 C 
BRANCH   9  10
ATOM     10  C   UNL     1      19.224  25.666   3.200  1.00  0.00    -0.000 C 
BRANCH  10  11
ATOM     11  C   UNL     1      19.760  24.307   3.676  1.00  0.00    -0.000 C 
BRANCH  11  12
ATOM     12  C   UNL     1      21.064  23.906   2.968  1.00  0.00    -0.003 C 
ATOM     13  C   UNL     1      22.289  24.022   3.875  1.00  0.00     0.004 C 
ENDBRANCH  11  12
ENDBRANCH  10  11
ENDBRANCH   9  10
ENDBRANCH   8   9
ENDBRANCH   1   8
TORSDOF 9
ENDMDL
MODEL 2
REMARK VINA RESULT:    -4.792      3.442      6.500
REMARK INTER + INTRA:          -7.798
REMARK INTER:                  -7.456
REMARK INTRA:                  -0.342
REMARK UNBOUND:                -0.484
REMARK SMILES CCCCCCCCCCC(=O)[O-]
REMARK SMILES IDX 7 1 8 2 9 3 10 4 11 5 12 6 13 7 6 8 5 9 4 10 3 11 2 12 1 13
REMARK H PARENT
REMARK Flexibility Score: inf
ROOT
ATOM      1  C   UNL     1      18.732  27.074   1.096  1.00  0.00     0.000 C 
ENDROOT
BRANCH   1   2
ATOM      2  C   UNL     1      18.906  25.670   1.698  1.00  0.00     0.000 C 
BRANCH   2   3
ATOM      3  C   UNL     1      19.284  25.712   3.190  1.00  0.00     0.006 C 
BRANCH   3   4
ATOM      4  C   UNL     1      19.744  24.343   3.707  1.00  0.00     0.053 C 
BRANCH   4   5
ATOM      5  C   UNL     1      21.119  23.998   3.225  1.00  0.00     0.041 C 
ATOM      6  O   UNL     1      22.122  24.223   3.953  1.00  0.00    -0.550 OA
ATOM      7  O   UNL     1      21.297  23.457   1.959  1.00  0.00    -0.550 OA
ENDBRANCH   4   5
ENDBRANCH   3   4
ENDBRANCH   2   3
ENDBRANCH   1   2
BRANCH   1   8
ATOM      8  C   UNL     1      18.532  27.042  -0.430  1.00  0.00     0.000 C 
BRANCH   8   9
ATOM      9  C   UNL     1      18.879  25.676  -1.043  1.00  0.00    -0.000 C 
BRANCH   9  10
ATOM     10  C   UNL     1      17.633  24.895  -1.487  1.00  0.00    -0.000 C 
BRANCH  10  11
ATOM     11  C   UNL     1      16.357  25.717  -1.251  1.00  0.00    -0.000 C 
BRANCH  11  12
ATOM     12  C   UNL     1      15.105  25.045  -1.838  1.00  0.00    -0.003 C 
ATOM     13  C   UNL     1      14.878  25.400  -3.308  1.00  0.00     0.004 C 
ENDBRANCH  11  12
ENDBRANCH  10  11
ENDBRANCH   9  10
ENDBRANCH   8   9
ENDBRANCH   1   8
TORSDOF 9
ENDMDL
MODEL 3
REMARK VINA RESULT:    -4.664      1.030      2.137
REMARK INTER + INTRA:          -7.601
REMARK INTER:                  -7.133
REMARK INTRA:                  -0.468
REMARK UNBOUND:                -0.484
REMARK SMILES CCCCCCCCCCC(=O)[O-]
REMARK SMILES IDX 7 1 8 2 9 3 10 4 11 5 12 6 13 7 6 8 5 9 4 10 3 11 2 12 1 13
REMARK H PARENT
REMARK Flexibility Score: inf
ROOT
ATOM      1  C   UNL     1      19.220  25.355  -0.989  1.00  0.00     0.000 C 
ENDROOT
BRANCH   1   2
ATOM      2  C   UNL     1      18.335  26.484  -0.436  1.00  0.00     0.000 C 
BRANCH   2   3
ATOM      3  C   UNL     1      16.857  26.323  -0.833  1.00  0.00     0.006 C 
BRANCH   3   4
ATOM      4  C   UNL     1      16.686  25.456  -2.087  1.00  0.00     0.053 C 
BRANCH   4   5
ATOM      5  C   UNL     1      15.243  25.251  -2.431  1.00  0.00     0.041 C 
ATOM      6  O   UNL     1      14.442  24.804  -1.569  1.00  0.00    -0.550 OA
ATOM      7  O   UNL     1      14.790  25.524  -3.715  1.00  0.00    -0.550 OA
ENDBRANCH   4   5
ENDBRANCH   3   4
ENDBRANCH   2   3
ENDBRANCH   1   2
BRANCH   1   8
ATOM      8  C   UNL     1      19.308  24.151  -0.036  1.00  0.00     0.000 C 
BRANCH   8   9
ATOM      9  C   UNL     1      19.373  24.569   1.441  1.00  0.00    -0.000 C 
BRANCH   9  10
ATOM     10  C   UNL     1      20.595  23.987   2.167  1.00  0.00    -0.000 C 
BRANCH  10  11
ATOM     11  C   UNL     1      20.601  24.397   3.648  1.00  0.00    -0.000 C 
BRANCH  11  12
ATOM     12  C   UNL     1      19.286  25.066   4.080  1.00  0.00    -0.003 C 
ATOM     13  C   UNL     1      18.422  24.160   4.957  1.00  0.00     0.004 C 
ENDBRANCH  11  12
ENDBRANCH  10  11
ENDBRANCH   9  10
ENDBRANCH   8   9
ENDBRANCH   1   8
TORSDOF 9
ENDMDL
MODEL 4
REMARK VINA RESULT:    -4.289      3.247      6.298
REMARK INTER + INTRA:          -7.029
REMARK INTER:                  -6.725
REMARK INTRA:                  -0.304
REMARK UNBOUND:                -0.484
REMARK SMILES CCCCCCCCCCC(=O)[O-]
REMARK SMILES IDX 7 1 8 2 9 3 10 4 11 5 12 6 13 7 6 8 5 9 4 10 3 11 2 12 1 13
REMARK H PARENT
REMARK Flexibility Score: inf
ROOT
ATOM      1  C   UNL     1      19.314  24.007  -0.392  1.00  0.00     0.000 C 
ENDROOT
BRANCH   1   2
ATOM      2  C   UNL     1      19.517  24.509   1.047  1.00  0.00     0.000 C 
BRANCH   2   3
ATOM      3  C   UNL     1      20.583  23.702   1.809  1.00  0.00     0.006 C 
BRANCH   3   4
ATOM      4  C   UNL     1      20.812  24.241   3.226  1.00  0.00     0.053 C 
BRANCH   4   5
ATOM      5  C   UNL     1      19.528  24.641   3.885  1.00  0.00     0.041 C 
ATOM      6  O   UNL     1      18.827  23.783   4.483  1.00  0.00    -0.550 OA
ATOM      7  O   UNL     1      19.091  25.956   3.813  1.00  0.00    -0.550 OA
ENDBRANCH   4   5
ENDBRANCH   3   4
ENDBRANCH   2   3
ENDBRANCH   1   2
BRANCH   1   8
ATOM      8  C   UNL     1      18.886  25.128  -1.355  1.00  0.00     0.000 C 
BRANCH   8   9
ATOM      9  C   UNL     1      18.196  26.297  -0.633  1.00  0.00    -0.000 C 
BRANCH   9  10
ATOM     10  C   UNL     1      16.680  26.332  -0.880  1.00  0.00    -0.000 C 
BRANCH  10  11
ATOM     11  C   UNL     1      16.116  24.912  -1.035  1.00  0.00    -0.000 C 
BRANCH  11  12
ATOM     12  C   UNL     1      14.859  24.869  -1.918  1.00  0.00    -0.003 C 
ATOM     13  C   UNL     1      15.070  25.530  -3.280  1.00  0.00     0.004 C 
ENDBRANCH  11  12
ENDBRANCH  10  11
ENDBRANCH   9  10
ENDBRANCH   8   9
ENDBRANCH   1   8
TORSDOF 9
ENDMDL
MODEL 5
REMARK VINA RESULT:    -3.748     15.757     17.383
REMARK INTER + INTRA:          -6.204
REMARK INTER:                  -5.000
REMARK INTRA:                  -1.204
REMARK UNBOUND:                -0.484
REMARK SMILES CCCCCCCCCCC(=O)[O-]
REMARK SMILES IDX 7 1 8 2 9 3 10 4 11 5 12 6 13 7 6 8 5 9 4 10 3 11 2 12 1 13
REMARK H PARENT
REMARK Flexibility Score: inf
ROOT
ATOM      1  C   UNL     1      23.263  33.708  15.654  1.00  0.00     0.000 C 
ENDROOT
BRANCH   1   2
ATOM      2  C   UNL     1      23.342  32.573  14.620  1.00  0.00     0.000 C 
BRANCH   2   3
ATOM      3  C   UNL     1      23.281  33.089  13.171  1.00  0.00     0.006 C 
BRANCH   3   4
ATOM      4  C   UNL     1      22.699  34.505  13.087  1.00  0.00     0.053 C 
BRANCH   4   5
ATOM      5  C   UNL     1      21.248  34.491  12.717  1.00  0.00     0.041 C 
ATOM      6  O   UNL     1      20.370  34.296  13.597  1.00  0.00    -0.550 OA
ATOM      7  O   UNL     1      20.867  34.664  11.392  1.00  0.00    -0.550 OA
ENDBRANCH   4   5
ENDBRANCH   3   4
ENDBRANCH   2   3
ENDBRANCH   1   2
BRANCH   1   8
ATOM      8  C   UNL     1      24.643  34.299  15.990  1.00  0.00     0.000 C 
BRANCH   8   9
ATOM      9  C   UNL     1      25.767  33.251  15.925  1.00  0.00    -0.000 C 
BRANCH   9  10
ATOM     10  C   UNL     1      26.908  33.666  14.985  1.00  0.00    -0.000 C 
BRANCH  10  11
ATOM     11  C   UNL     1      26.653  35.062  14.395  1.00  0.00    -0.000 C 
BRANCH  11  12
ATOM     12  C   UNL     1      26.729  35.078  12.860  1.00  0.00    -0.003 C 
ATOM     13  C   UNL     1      26.769  33.674  12.256  1.00  0.00     0.004 C 
ENDBRANCH  11  12
ENDBRANCH  10  11
ENDBRANCH   9  10
ENDBRANCH   8   9
ENDBRANCH   1   8
TORSDOF 9
ENDMDL
MODEL 6
REMARK VINA RESULT:    -3.676     16.825     18.081
REMARK INTER + INTRA:          -6.094
REMARK INTER:                  -4.774
REMARK INTRA:                  -1.321
REMARK UNBOUND:                -0.484
REMARK SMILES CCCCCCCCCCC(=O)[O-]
REMARK SMILES IDX 7 1 8 2 9 3 10 4 11 5 12 6 13 7 6 8 5 9 4 10 3 11 2 12 1 13
REMARK H PARENT
REMARK Flexibility Score: inf
ROOT
ATOM      1  C   UNL     1      22.407  36.015  14.275  1.00  0.00     0.000 C 
ENDROOT
BRANCH   1   2
ATOM      2  C   UNL     1      23.659  36.447  15.057  1.00  0.00     0.000 C 
BRANCH   2   3
ATOM      3  C   UNL     1      24.896  36.594  14.154  1.00  0.00     0.006 C 
BRANCH   3   4
ATOM      4  C   UNL     1      24.735  35.845  12.825  1.00  0.00     0.053 C 
BRANCH   4   5
ATOM      5  C   UNL     1      26.054  35.594  12.162  1.00  0.00     0.041 C 
ATOM      6  O   UNL     1      26.743  36.558  11.735  1.00  0.00    -0.550 OA
ATOM      7  O   UNL     1      26.509  34.294  11.988  1.00  0.00    -0.550 OA
ENDBRANCH   4   5
ENDBRANCH   3   4
ENDBRANCH   2   3
ENDBRANCH   1   2
BRANCH   1   8
ATOM      8  C   UNL     1      21.786  34.718  14.822  1.00  0.00     0.000 C 
BRANCH   8   9
ATOM      9  C   UNL     1      22.063  33.504  13.920  1.00  0.00    -0.000 C 
BRANCH   9  10
ATOM     10  C   UNL     1      22.906  32.428  14.619  1.00  0.00    -0.000 C 
BRANCH  10  11
ATOM     11  C   UNL     1      24.407  32.700  14.434  1.00  0.00    -0.000 C 
BRANCH  11  12
ATOM     12  C   UNL     1      25.091  33.147  15.736  1.00  0.00    -0.003 C 
ATOM     13  C   UNL     1      26.555  33.537  15.531  1.00  0.00     0.004 C 
ENDBRANCH  11  12
ENDBRANCH  10  11
ENDBRANCH   9  10
ENDBRANCH   8   9
ENDBRANCH   1   8
TORSDOF 9
ENDMDL
MODEL 7
REMARK VINA RESULT:    -3.673     16.127     17.736
REMARK INTER + INTRA:          -6.089
REMARK INTER:                  -4.873
REMARK INTRA:                  -1.216
REMARK UNBOUND:                -0.484
REMARK SMILES CCCCCCCCCCC(=O)[O-]
REMARK SMILES IDX 7 1 8 2 9 3 10 4 11 5 12 6 13 7 6 8 5 9 4 10 3 11 2 12 1 13
REMARK H PARENT
REMARK Flexibility Score: inf
ROOT
ATOM      1  C   UNL     1      25.520  35.159  15.280  1.00  0.00     0.000 C 
ENDROOT
BRANCH   1   2
ATOM      2  C   UNL     1      25.177  36.290  14.297  1.00  0.00     0.000 C 
BRANCH   2   3
ATOM      3  C   UNL     1      25.799  36.072  12.906  1.00  0.00     0.006 C 
BRANCH   3   4
ATOM      4  C   UNL     1      26.807  34.917  12.899  1.00  0.00     0.053 C 
BRANCH   4   5
ATOM      5  C   UNL     1      26.809  34.187  11.591  1.00  0.00     0.041 C 
ATOM      6  O   UNL     1      27.123  34.787  10.529  1.00  0.00    -0.550 OA
ATOM      7  O   UNL     1      26.434  32.851  11.540  1.00  0.00    -0.550 OA
ENDBRANCH   4   5
ENDBRANCH   3   4
ENDBRANCH   2   3
ENDBRANCH   1   2
BRANCH   1   8
ATOM      8  C   UNL     1      24.309  34.265  15.598  1.00  0.00     0.000 C 
BRANCH   8   9
ATOM      9  C   UNL     1      24.396  32.888  14.920  1.00  0.00    -0.000 C 
BRANCH   9  10
ATOM     10  C   UNL     1      23.156  32.568  14.071  1.00  0.00    -0.000 C 
BRANCH  10  11
ATOM     11  C   UNL     1      23.109  33.451  12.814  1.00  0.00    -0.000 C 
BRANCH  11  12
ATOM     12  C   UNL     1      21.958  34.469  12.851  1.00  0.00    -0.003 C 
ATOM     13  C   UNL     1      20.930  34.161  13.940  1.00  0.00     0.004 C 
ENDBRANCH  11  12
ENDBRANCH  10  11
ENDBRANCH   9  10
ENDBRANCH   8   9
ENDBRANCH   1   8
TORSDOF 9
ENDMDL
MODEL 8
REMARK VINA RESULT:    -3.634     16.149     17.991
REMARK INTER + INTRA:          -6.030
REMARK INTER:                  -4.827
REMARK INTRA:                  -1.203
REMARK UNBOUND:                -0.484
REMARK SMILES CCCCCCCCCCC(=O)[O-]
REMARK SMILES IDX 7 1 8 2 9 3 10 4 11 5 12 6 13 7 6 8 5 9 4 10 3 11 2 12 1 13
REMARK H PARENT
REMARK Flexibility Score: inf
ROOT
ATOM      1  C   UNL     1      25.117  36.287  15.476  1.00  0.00     0.000 C 
ENDROOT
BRANCH   1   2
ATOM      2  C   UNL     1      26.480  35.640  15.180  1.00  0.00     0.000 C 
BRANCH   2   3
ATOM      3  C   UNL     1      26.732  35.460  13.672  1.00  0.00     0.006 C 
BRANCH   3   4
ATOM      4  C   UNL     1      26.770  33.981  13.266  1.00  0.00     0.053 C 
BRANCH   4   5
ATOM      5  C   UNL     1      26.778  33.812  11.778  1.00  0.00     0.041 C 
ATOM      6  O   UNL     1      27.107  34.771  11.031  1.00  0.00    -0.550 OA
ATOM      7  O   UNL     1      26.391  32.604  11.214  1.00  0.00    -0.550 OA
ENDBRANCH   4   5
ENDBRANCH   3   4
ENDBRANCH   2   3
ENDBRANCH   1   2
BRANCH   1   8
ATOM      8  C   UNL     1      24.208  36.344  14.236  1.00  0.00     0.000 C 
BRANCH   8   9
ATOM      9  C   UNL     1      22.716  36.239  14.592  1.00  0.00    -0.000 C 
BRANCH   9  10
ATOM     10  C   UNL     1      22.021  35.067  13.883  1.00  0.00    -0.000 C 
BRANCH  10  11
ATOM     11  C   UNL     1      23.002  34.320  12.967  1.00  0.00    -0.000 C 
BRANCH  11  12
ATOM     12  C   UNL     1      23.138  32.833  13.335  1.00  0.00    -0.003 C 
ATOM     13  C   UNL     1      23.770  32.619  14.710  1.00  0.00     0.004 C 
ENDBRANCH  11  12
ENDBRANCH  10  11
ENDBRANCH   9  10
ENDBRANCH   8   9
ENDBRANCH   1   8
TORSDOF 9
ENDMDL
MODEL 9
REMARK VINA RESULT:    -3.625     16.178     17.613
REMARK INTER + INTRA:          -6.016
REMARK INTER:                  -4.821
REMARK INTRA:                  -1.195
REMARK UNBOUND:                -0.484
REMARK SMILES CCCCCCCCCCC(=O)[O-]
REMARK SMILES IDX 7 1 8 2 9 3 10 4 11 5 12 6 13 7 6 8 5 9 4 10 3 11 2 12 1 13
REMARK H PARENT
REMARK Flexibility Score: inf
ROOT
ATOM      1  C   UNL     1      25.079  33.254  12.899  1.00  0.00     0.000 C 
ENDROOT
BRANCH   1   2
ATOM      2  C   UNL     1      24.743  32.888  14.354  1.00  0.00     0.000 C 
BRANCH   2   3
ATOM      3  C   UNL     1      23.230  32.730  14.588  1.00  0.00     0.006 C 
BRANCH   3   4
ATOM      4  C   UNL     1      22.402  33.345  13.453  1.00  0.00     0.053 C 
BRANCH   4   5
ATOM      5  C   UNL     1      21.118  33.932  13.953  1.00  0.00     0.041 C 
ATOM      6  O   UNL     1      20.253  34.354  13.141  1.00  0.00    -0.550 OA
ATOM      7  O   UNL     1      20.890  34.042  15.319  1.00  0.00    -0.550 OA
ENDBRANCH   4   5
ENDBRANCH   3   4
ENDBRANCH   2   3
ENDBRANCH   1   2
BRANCH   1   8
ATOM      8  C   UNL     1      26.529  33.742  12.732  1.00  0.00     0.000 C 
BRANCH   8   9
ATOM      9  C   UNL     1      26.614  35.124  12.066  1.00  0.00    -0.000 C 
BRANCH   9  10
ATOM     10  C   UNL     1      25.377  35.991  12.343  1.00  0.00    -0.000 C 
BRANCH  10  11
ATOM     11  C   UNL     1      25.642  36.973  13.494  1.00  0.00    -0.000 C 
BRANCH  11  12
ATOM     12  C   UNL     1      24.965  36.542  14.806  1.00  0.00    -0.003 C 
ATOM     13  C   UNL     1      23.446  36.711  14.771  1.00  0.00     0.004 C 
ENDBRANCH  11  12
ENDBRANCH  10  11
ENDBRANCH   9  10
ENDBRANCH   8   9
ENDBRANCH   1   8
TORSDOF 9
ENDMDL
