MODEL 1
REMARK VINA RESULT:    -3.558      0.000      0.000
REMARK INTER + INTRA:          -5.674
REMARK INTER:                  -5.013
REMARK INTRA:                  -0.660
REMARK UNBOUND:                -0.660
REMARK SMILES CCCCCCCCC(=O)[O-]
REMARK SMILES IDX 6 1 7 2 8 3 9 4 10 5 11 6 5 7 4 8 3 9 2 10 1 11
REMARK H PARENT
REMARK Flexibility Score: inf
ROOT
ATOM      1  C   UNL     1     161.461 175.859 187.529  1.00  0.00     0.000 C 
ENDROOT
BRANCH   1   2
ATOM      2  C   UNL     1     160.223 174.949 187.522  1.00  0.00     0.006 C 
BRANCH   2   3
ATOM      3  C   UNL     1     160.153 174.055 186.277  1.00  0.00     0.053 C 
BRANCH   3   4
ATOM      4  C   UNL     1     160.420 172.630 186.643  1.00  0.00     0.041 C 
ATOM      5  O   UNL     1     160.830 172.338 187.798  1.00  0.00    -0.550 OA
ATOM      6  O   UNL     1     160.171 171.617 185.726  1.00  0.00    -0.550 OA
ENDBRANCH   3   4
ENDBRANCH   2   3
ENDBRANCH   1   2
BRANCH   1   7
ATOM      7  C   UNL     1     161.167 177.257 188.102  1.00  0.00     0.000 C 
BRANCH   7   8
ATOM      8  C   UNL     1     160.639 178.230 187.027  1.00  0.00    -0.000 C 
BRANCH   8   9
ATOM      9  C   UNL     1     161.198 177.957 185.617  1.00  0.00    -0.000 C 
BRANCH   9  10
ATOM     10  C   UNL     1     160.130 177.800 184.523  1.00  0.00    -0.003 C 
ATOM     11  C   UNL     1     160.422 176.640 183.571  1.00  0.00     0.004 C 
ENDBRANCH   9  10
ENDBRANCH   8   9
ENDBRANCH   7   8
ENDBRANCH   1   7
TORSDOF 7
ENDMDL
MODEL 2
REMARK VINA RESULT:    -3.478      3.363      3.994
REMARK INTER + INTRA:          -5.561
REMARK INTER:                  -4.813
REMARK INTRA:                  -0.748
REMARK UNBOUND:                -0.660
REMARK SMILES CCCCCCCCC(=O)[O-]
REMARK SMILES IDX 6 1 7 2 8 3 9 4 10 5 11 6 5 7 4 8 3 9 2 10 1 11
REMARK H PARENT
REMARK Flexibility Score: inf
ROOT
ATOM      1  C   UNL     1     161.645 177.545 188.201  1.00  0.00     0.000 C 
ENDROOT
BRANCH   1   2
ATOM      2  C   UNL     1     160.725 177.873 187.015  1.00  0.00     0.006 C 
BRANCH   2   3
ATOM      3  C   UNL     1     160.653 176.734 185.990  1.00  0.00     0.053 C 
BRANCH   3   4
ATOM      4  C   UNL     1     160.299 177.270 184.640  1.00  0.00     0.041 C 
ATOM      5  O   UNL     1     160.424 178.499 184.393  1.00  0.00    -0.550 OA
ATOM      6  O   UNL     1     159.879 176.406 183.636  1.00  0.00    -0.550 OA
ENDBRANCH   3   4
ENDBRANCH   2   3
ENDBRANCH   1   2
BRANCH   1   7
ATOM      7  C   UNL     1     163.119 177.393 187.785  1.00  0.00     0.000 C 
BRANCH   7   8
ATOM      8  C   UNL     1     163.625 178.605 186.973  1.00  0.00    -0.000 C 
BRANCH   8   9
ATOM      9  C   UNL     1     164.643 178.234 185.877  1.00  0.00    -0.000 C 
BRANCH   9  10
ATOM     10  C   UNL     1     164.027 177.968 184.494  1.00  0.00    -0.003 C 
ATOM     11  C   UNL     1     163.927 176.479 184.165  1.00  0.00     0.004 C 
ENDBRANCH   9  10
ENDBRANCH   8   9
ENDBRANCH   7   8
ENDBRANCH   1   7
TORSDOF 7
ENDMDL
MODEL 3
REMARK VINA RESULT:    -3.467     13.386     14.198
REMARK INTER + INTRA:          -5.546
REMARK INTER:                  -4.842
REMARK INTRA:                  -0.704
REMARK UNBOUND:                -0.660
REMARK SMILES CCCCCCCCC(=O)[O-]
REMARK SMILES IDX 6 1 7 2 8 3 9 4 10 5 11 6 5 7 4 8 3 9 2 10 1 11
REMARK H PARENT
REMARK Flexibility Score: inf
ROOT
ATOM      1  C   UNL     1     174.572 179.953 187.816  1.00  0.00     0.000 C 
ENDROOT
BRANCH   1   2
ATOM      2  C   UNL     1     175.185 178.603 188.219  1.00  0.00     0.006 C 
BRANCH   2   3
ATOM      3  C   UNL     1     175.171 177.582 187.073  1.00  0.00     0.053 C 
BRANCH   3   4
ATOM      4  C   UNL     1     176.420 177.696 186.258  1.00  0.00     0.041 C 
ATOM      5  O   UNL     1     177.540 177.439 186.775  1.00  0.00    -0.550 OA
ATOM      6  O   UNL     1     176.345 178.039 184.914  1.00  0.00    -0.550 OA
ENDBRANCH   3   4
ENDBRANCH   2   3
ENDBRANCH   1   2
BRANCH   1   7
ATOM      7  C   UNL     1     173.360 179.801 186.880  1.00  0.00     0.000 C 
BRANCH   7   8
ATOM      8  C   UNL     1     172.020 179.922 187.637  1.00  0.00    -0.000 C 
BRANCH   8   9
ATOM      9  C   UNL     1     170.901 179.036 187.057  1.00  0.00    -0.000 C 
BRANCH   9  10
ATOM     10  C   UNL     1     171.333 177.602 186.711  1.00  0.00    -0.003 C 
ATOM     11  C   UNL     1     171.586 176.743 187.950  1.00  0.00     0.004 C 
ENDBRANCH   9  10
ENDBRANCH   8   9
ENDBRANCH   7   8
ENDBRANCH   1   7
TORSDOF 7
ENDMDL
MODEL 4
REMARK VINA RESULT:    -3.417      3.890      4.797
REMARK INTER + INTRA:          -5.475
REMARK INTER:                  -4.648
REMARK INTRA:                  -0.827
REMARK UNBOUND:                -0.660
REMARK SMILES CCCCCCCCC(=O)[O-]
REMARK SMILES IDX 6 1 7 2 8 3 9 4 10 5 11 6 5 7 4 8 3 9 2 10 1 11
REMARK H PARENT
REMARK Flexibility Score: inf
ROOT
ATOM      1  C   UNL     1     162.076 177.505 188.288  1.00  0.00     0.000 C 
ENDROOT
BRANCH   1   2
ATOM      2  C   UNL     1     163.112 178.323 187.501  1.00  0.00     0.006 C 
BRANCH   2   3
ATOM      3  C   UNL     1     164.283 177.468 187.000  1.00  0.00     0.053 C 
BRANCH   3   4
ATOM      4  C   UNL     1     164.869 178.063 185.759  1.00  0.00     0.041 C 
ATOM      5  O   UNL     1     164.126 178.357 184.785  1.00  0.00    -0.550 OA
ATOM      6  O   UNL     1     166.229 178.339 185.694  1.00  0.00    -0.550 OA
ENDBRANCH   3   4
ENDBRANCH   2   3
ENDBRANCH   1   2
BRANCH   1   7
ATOM      7  C   UNL     1     160.780 177.266 187.493  1.00  0.00     0.000 C 
BRANCH   7   8
ATOM      8  C   UNL     1     160.687 178.167 186.243  1.00  0.00    -0.000 C 
BRANCH   8   9
ATOM      9  C   UNL     1     160.615 177.382 184.919  1.00  0.00    -0.000 C 
BRANCH   9  10
ATOM     10  C   UNL     1     160.877 175.874 185.054  1.00  0.00    -0.003 C 
ATOM     11  C   UNL     1     162.228 175.452 184.477  1.00  0.00     0.004 C 
ENDBRANCH   9  10
ENDBRANCH   8   9
ENDBRANCH   7   8
ENDBRANCH   1   7
TORSDOF 7
ENDMDL
MODEL 5
REMARK VINA RESULT:    -3.406     12.363     13.343
REMARK INTER + INTRA:          -5.460
REMARK INTER:                  -5.007
REMARK INTRA:                  -0.453
REMARK UNBOUND:                -0.660
REMARK SMILES CCCCCCCCC(=O)[O-]
REMARK SMILES IDX 6 1 7 2 8 3 9 4 10 5 11 6 5 7 4 8 3 9 2 10 1 11
REMARK H PARENT
REMARK Flexibility Score: inf
ROOT
ATOM      1  C   UNL     1     172.610 179.542 185.932  1.00  0.00     0.000 C 
ENDROOT
BRANCH   1   2
ATOM      2  C   UNL     1     171.847 179.561 187.265  1.00  0.00     0.006 C 
BRANCH   2   3
ATOM      3  C   UNL     1     170.415 180.092 187.119  1.00  0.00     0.053 C 
BRANCH   3   4
ATOM      4  C   UNL     1     169.715 179.401 185.992  1.00  0.00     0.041 C 
ATOM      5  O   UNL     1     169.455 178.171 186.066  1.00  0.00    -0.550 OA
ATOM      6  O   UNL     1     169.305 180.125 184.880  1.00  0.00    -0.550 OA
ENDBRANCH   3   4
ENDBRANCH   2   3
ENDBRANCH   1   2
BRANCH   1   7
ATOM      7  C   UNL     1     174.117 179.803 186.106  1.00  0.00     0.000 C 
BRANCH   7   8
ATOM      8  C   UNL     1     174.511 179.982 187.588  1.00  0.00    -0.000 C 
BRANCH   8   9
ATOM      9  C   UNL     1     175.400 178.848 188.132  1.00  0.00    -0.000 C 
BRANCH   9  10
ATOM     10  C   UNL     1     175.622 177.682 187.155  1.00  0.00    -0.003 C 
ATOM     11  C   UNL     1     177.090 177.502 186.769  1.00  0.00     0.004 C 
ENDBRANCH   9  10
ENDBRANCH   8   9
ENDBRANCH   7   8
ENDBRANCH   1   7
TORSDOF 7
ENDMDL
MODEL 6
REMARK VINA RESULT:    -3.390      1.780      3.684
REMARK INTER + INTRA:          -5.437
REMARK INTER:                  -4.850
REMARK INTRA:                  -0.587
REMARK UNBOUND:                -0.660
REMARK SMILES CCCCCCCCC(=O)[O-]
REMARK SMILES IDX 6 1 7 2 8 3 9 4 10 5 11 6 5 7 4 8 3 9 2 10 1 11
REMARK H PARENT
REMARK Flexibility Score: inf
ROOT
ATOM      1  C   UNL     1     161.350 177.777 185.520  1.00  0.00     0.000 C 
ENDROOT
BRANCH   1   2
ATOM      2  C   UNL     1     160.221 177.565 184.501  1.00  0.00     0.006 C 
BRANCH   2   3
ATOM      3  C   UNL     1     160.673 176.760 183.275  1.00  0.00     0.053 C 
BRANCH   3   4
ATOM      4  C   UNL     1     160.939 175.338 183.654  1.00  0.00     0.041 C 
ATOM      5  O   UNL     1     162.121 174.902 183.690  1.00  0.00    -0.550 OA
ATOM      6  O   UNL     1     159.888 174.506 184.016  1.00  0.00    -0.550 OA
ENDBRANCH   3   4
ENDBRANCH   2   3
ENDBRANCH   1   2
BRANCH   1   7
ATOM      7  C   UNL     1     160.834 178.258 186.888  1.00  0.00     0.000 C 
BRANCH   7   8
ATOM      8  C   UNL     1     161.078 177.218 188.003  1.00  0.00    -0.000 C 
BRANCH   8   9
ATOM      9  C   UNL     1     161.277 175.784 187.477  1.00  0.00    -0.000 C 
BRANCH   9  10
ATOM     10  C   UNL     1     160.020 174.900 187.534  1.00  0.00    -0.003 C 
ATOM     11  C   UNL     1     160.340 173.407 187.460  1.00  0.00     0.004 C 
ENDBRANCH   9  10
ENDBRANCH   8   9
ENDBRANCH   7   8
ENDBRANCH   1   7
TORSDOF 7
ENDMDL
MODEL 7
REMARK VINA RESULT:    -3.382      3.180      4.324
REMARK INTER + INTRA:          -5.426
REMARK INTER:                  -4.644
REMARK INTRA:                  -0.782
REMARK UNBOUND:                -0.660
REMARK SMILES CCCCCCCCC(=O)[O-]
REMARK SMILES IDX 6 1 7 2 8 3 9 4 10 5 11 6 5 7 4 8 3 9 2 10 1 11
REMARK H PARENT
REMARK Flexibility Score: inf
ROOT
ATOM      1  C   UNL     1     160.563 178.315 187.035  1.00  0.00     0.000 C 
ENDROOT
BRANCH   1   2
ATOM      2  C   UNL     1     160.250 178.195 185.535  1.00  0.00     0.006 C 
BRANCH   2   3
ATOM      3  C   UNL     1     160.672 176.841 184.949  1.00  0.00     0.053 C 
BRANCH   3   4
ATOM      4  C   UNL     1     160.908 176.960 183.477  1.00  0.00     0.041 C 
ATOM      5  O   UNL     1     160.911 175.931 182.750  1.00  0.00    -0.550 OA
ATOM      6  O   UNL     1     161.076 178.212 182.899  1.00  0.00    -0.550 OA
ENDBRANCH   3   4
ENDBRANCH   2   3
ENDBRANCH   1   2
BRANCH   1   7
ATOM      7  C   UNL     1     161.095 177.002 187.638  1.00  0.00     0.000 C 
BRANCH   7   8
ATOM      8  C   UNL     1     162.486 177.179 188.284  1.00  0.00    -0.000 C 
BRANCH   8   9
ATOM      9  C   UNL     1     163.416 178.126 187.502  1.00  0.00    -0.000 C 
BRANCH   9  10
ATOM     10  C   UNL     1     164.319 177.430 186.472  1.00  0.00    -0.003 C 
ATOM     11  C   UNL     1     164.177 178.016 185.067  1.00  0.00     0.004 C 
ENDBRANCH   9  10
ENDBRANCH   8   9
ENDBRANCH   7   8
ENDBRANCH   1   7
TORSDOF 7
ENDMDL
MODEL 8
REMARK VINA RESULT:    -3.363      3.551      5.132
REMARK INTER + INTRA:          -5.400
REMARK INTER:                  -4.794
REMARK INTRA:                  -0.606
REMARK UNBOUND:                -0.660
REMARK SMILES CCCCCCCCC(=O)[O-]
REMARK SMILES IDX 6 1 7 2 8 3 9 4 10 5 11 6 5 7 4 8 3 9 2 10 1 11
REMARK H PARENT
REMARK Flexibility Score: inf
ROOT
ATOM      1  C   UNL     1     160.233 177.787 184.471  1.00  0.00     0.000 C 
ENDROOT
BRANCH   1   2
ATOM      2  C   UNL     1     160.625 176.764 183.393  1.00  0.00     0.006 C 
BRANCH   2   3
ATOM      3  C   UNL     1     162.144 176.575 183.282  1.00  0.00     0.053 C 
BRANCH   3   4
ATOM      4  C   UNL     1     162.695 177.425 182.182  1.00  0.00     0.041 C 
ATOM      5  O   UNL     1     162.679 177.011 180.992  1.00  0.00    -0.550 OA
ATOM      6  O   UNL     1     163.184 178.695 182.461  1.00  0.00    -0.550 OA
ENDBRANCH   3   4
ENDBRANCH   2   3
ENDBRANCH   1   2
BRANCH   1   7
ATOM      7  C   UNL     1     161.299 177.928 185.572  1.00  0.00     0.000 C 
BRANCH   7   8
ATOM      8  C   UNL     1     160.672 178.095 186.973  1.00  0.00    -0.000 C 
BRANCH   8   9
ATOM      9  C   UNL     1     161.157 177.050 187.996  1.00  0.00    -0.000 C 
BRANCH   9  10
ATOM     10  C   UNL     1     161.334 175.633 187.428  1.00  0.00    -0.003 C 
ATOM     11  C   UNL     1     160.025 174.844 187.382  1.00  0.00     0.004 C 
ENDBRANCH   9  10
ENDBRANCH   8   9
ENDBRANCH   7   8
ENDBRANCH   1   7
TORSDOF 7
ENDMDL
MODEL 9
REMARK VINA RESULT:    -3.340      3.647      4.700
REMARK INTER + INTRA:          -5.367
REMARK INTER:                  -4.566
REMARK INTRA:                  -0.802
REMARK UNBOUND:                -0.660
REMARK SMILES CCCCCCCCC(=O)[O-]
REMARK SMILES IDX 6 1 7 2 8 3 9 4 10 5 11 6 5 7 4 8 3 9 2 10 1 11
REMARK H PARENT
REMARK Flexibility Score: inf
ROOT
ATOM      1  C   UNL     1     161.052 175.333 186.134  1.00  0.00     0.000 C 
ENDROOT
BRANCH   1   2
ATOM      2  C   UNL     1     160.899 176.401 185.040  1.00  0.00     0.006 C 
BRANCH   2   3
ATOM      3  C   UNL     1     162.021 176.343 183.996  1.00  0.00     0.053 C 
BRANCH   3   4
ATOM      4  C   UNL     1     162.191 177.676 183.338  1.00  0.00     0.041 C 
ATOM      5  O   UNL     1     161.263 178.160 182.637  1.00  0.00    -0.550 OA
ATOM      6  O   UNL     1     163.354 178.409 183.540  1.00  0.00    -0.550 OA
ENDBRANCH   3   4
ENDBRANCH   2   3
ENDBRANCH   1   2
BRANCH   1   7
ATOM      7  C   UNL     1     160.602 175.833 187.519  1.00  0.00     0.000 C 
BRANCH   7   8
ATOM      8  C   UNL     1     160.916 177.330 187.729  1.00  0.00    -0.000 C 
BRANCH   8   9
ATOM      9  C   UNL     1     162.332 177.594 188.274  1.00  0.00    -0.000 C 
BRANCH   9  10
ATOM     10  C   UNL     1     163.293 178.251 187.270  1.00  0.00    -0.003 C 
ATOM     11  C   UNL     1     164.381 177.297 186.778  1.00  0.00     0.004 C 
ENDBRANCH   9  10
ENDBRANCH   8   9
ENDBRANCH   7   8
ENDBRANCH   1   7
TORSDOF 7
ENDMDL
