MODEL 1
REMARK VINA RESULT:    -1.463      0.000      0.000
REMARK INTER + INTRA:          -4.074
REMARK INTER:                  -2.746
REMARK INTRA:                  -1.327
REMARK UNBOUND:                -1.327
REMARK SMILES CCCCCCCCC=CCCCCCCCC(=O)[O-]
REMARK SMILES IDX 10 1 9 2 11 3 12 4 13 5 14 6 15 7 16 8 17 9 18 10 19 11
REMARK SMILES IDX 20 12 8 13 7 14 6 15 5 16 4 17 3 18 2 19 1 20
REMARK H PARENT
REMARK Flexibility Score: inf
ROOT
ATOM      1  C   UNL     1     100.514  68.794  71.655  1.00  0.00    -0.031 C 
ATOM      2  C   UNL     1     100.837  69.091  72.928  1.00  0.00    -0.031 C 
ENDROOT
BRANCH   1   3
ATOM      3  C   UNL     1     101.309  67.875  70.759  1.00  0.00     0.027 C 
BRANCH   3   4
ATOM      4  C   UNL     1     101.312  68.348  69.295  1.00  0.00     0.004 C 
BRANCH   4   5
ATOM      5  C   UNL     1      99.989  68.986  68.829  1.00  0.00     0.000 C 
BRANCH   5   6
ATOM      6  C   UNL     1      98.821  67.986  68.804  1.00  0.00     0.000 C 
BRANCH   6   7
ATOM      7  C   UNL     1      97.479  68.638  69.178  1.00  0.00     0.000 C 
BRANCH   7   8
ATOM      8  C   UNL     1      97.644  70.069  69.719  1.00  0.00     0.006 C 
BRANCH   8   9
ATOM      9  C   UNL     1      97.063  71.119  68.763  1.00  0.00     0.053 C 
BRANCH   9  10
ATOM     10  C   UNL     1      97.844  72.397  68.800  1.00  0.00     0.041 C 
ATOM     11  O   UNL     1      97.248  73.502  68.892  1.00  0.00    -0.550 OA
ATOM     12  O   UNL     1      99.232  72.364  68.771  1.00  0.00    -0.550 OA
ENDBRANCH   9  10
ENDBRANCH   8   9
ENDBRANCH   7   8
ENDBRANCH   6   7
ENDBRANCH   5   6
ENDBRANCH   4   5
ENDBRANCH   3   4
ENDBRANCH   1   3
BRANCH   2  13
ATOM     13  C   UNL     1     101.987  68.476  73.685  1.00  0.00     0.027 C 
BRANCH  13  14
ATOM     14  C   UNL     1     101.987  68.948  75.146  1.00  0.00     0.004 C 
BRANCH  14  15
ATOM     15  C   UNL     1     100.636  69.541  75.575  1.00  0.00     0.000 C 
BRANCH  15  16
ATOM     16  C   UNL     1     100.628  71.079  75.539  1.00  0.00     0.000 C 
BRANCH  16  17
ATOM     17  C   UNL     1     102.025  71.670  75.295  1.00  0.00    -0.000 C 
BRANCH  17  18
ATOM     18  C   UNL     1     102.080  72.548  74.032  1.00  0.00    -0.000 C 
BRANCH  18  19
ATOM     19  C   UNL     1     103.475  73.146  73.790  1.00  0.00    -0.003 C 
ATOM     20  C   UNL     1     104.537  72.555  74.718  1.00  0.00     0.004 C 
ENDBRANCH  18  19
ENDBRANCH  17  18
ENDBRANCH  16  17
ENDBRANCH  15  16
ENDBRANCH  14  15
ENDBRANCH  13  14
ENDBRANCH   2  13
TORSDOF 15
ENDMDL
MODEL 2
REMARK VINA RESULT:    -1.258      2.452      6.693
REMARK INTER + INTRA:          -3.688
REMARK INTER:                  -2.585
REMARK INTRA:                  -1.103
REMARK UNBOUND:                -1.327
REMARK SMILES CCCCCCCCC=CCCCCCCCC(=O)[O-]
REMARK SMILES IDX 10 1 9 2 11 3 12 4 13 5 14 6 15 7 16 8 17 9 18 10 19 11
REMARK SMILES IDX 20 12 8 13 7 14 6 15 5 16 4 17 3 18 2 19 1 20
REMARK H PARENT
REMARK Flexibility Score: inf
ROOT
ATOM      1  C   UNL     1     100.675  68.260  72.212  1.00  0.00    -0.031 C 
ATOM      2  C   UNL     1      99.879  68.282  71.126  1.00  0.00    -0.031 C 
ENDROOT
BRANCH   1   3
ATOM      3  C   UNL     1     102.134  67.875  72.200  1.00  0.00     0.027 C 
BRANCH   3   4
ATOM      4  C   UNL     1     102.764  67.932  73.603  1.00  0.00     0.004 C 
BRANCH   4   5
ATOM      5  C   UNL     1     101.749  67.877  74.760  1.00  0.00     0.000 C 
BRANCH   5   6
ATOM      6  C   UNL     1     101.851  69.091  75.700  1.00  0.00     0.000 C 
BRANCH   6   7
ATOM      7  C   UNL     1     100.800  70.169  75.386  1.00  0.00     0.000 C 
BRANCH   7   8
ATOM      8  C   UNL     1     101.416  71.435  74.766  1.00  0.00     0.006 C 
BRANCH   8   9
ATOM      9  C   UNL     1     102.950  71.400  74.783  1.00  0.00     0.053 C 
BRANCH   9  10
ATOM     10  C   UNL     1     103.540  72.708  74.355  1.00  0.00     0.041 C 
ATOM     11  O   UNL     1     104.686  73.047  74.749  1.00  0.00    -0.550 OA
ATOM     12  O   UNL     1     102.837  73.538  73.490  1.00  0.00    -0.550 OA
ENDBRANCH   9  10
ENDBRANCH   8   9
ENDBRANCH   7   8
ENDBRANCH   6   7
ENDBRANCH   5   6
ENDBRANCH   4   5
ENDBRANCH   3   4
ENDBRANCH   1   3
BRANCH   2  13
ATOM     13  C   UNL     1     100.347  68.021  69.717  1.00  0.00     0.027 C 
BRANCH  13  14
ATOM     14  C   UNL     1      99.315  68.531  68.701  1.00  0.00     0.004 C 
BRANCH  14  15
ATOM     15  C   UNL     1      97.870  68.226  69.125  1.00  0.00     0.000 C 
BRANCH  15  16
ATOM     16  C   UNL     1      96.986  69.486  69.158  1.00  0.00     0.000 C 
BRANCH  16  17
ATOM     17  C   UNL     1      97.600  70.657  68.377  1.00  0.00    -0.000 C 
BRANCH  17  18
ATOM     18  C   UNL     1      98.660  71.419  69.192  1.00  0.00    -0.000 C 
BRANCH  18  19
ATOM     19  C   UNL     1      98.558  72.941  69.016  1.00  0.00    -0.003 C 
ATOM     20  C   UNL     1      97.111  73.439  69.025  1.00  0.00     0.004 C 
ENDBRANCH  18  19
ENDBRANCH  17  18
ENDBRANCH  16  17
ENDBRANCH  15  16
ENDBRANCH  14  15
ENDBRANCH  13  14
ENDBRANCH   2  13
TORSDOF 15
ENDMDL
MODEL 3
REMARK VINA RESULT:    -0.751      2.572      7.162
REMARK INTER + INTRA:          -2.737
REMARK INTER:                  -2.413
REMARK INTRA:                  -0.323
REMARK UNBOUND:                -1.327
REMARK SMILES CCCCCCCCC=CCCCCCCCC(=O)[O-]
REMARK SMILES IDX 10 1 9 2 11 3 12 4 13 5 14 6 15 7 16 8 17 9 18 10 19 11
REMARK SMILES IDX 20 12 8 13 7 14 6 15 5 16 4 17 3 18 2 19 1 20
REMARK H PARENT
REMARK Flexibility Score: inf
ROOT
ATOM      1  C   UNL     1     100.415  68.351  72.072  1.00  0.00    -0.031 C 
ATOM      2  C   UNL     1      99.837  68.607  70.883  1.00  0.00    -0.031 C 
ENDROOT
BRANCH   1   3
ATOM      3  C   UNL     1     101.836  67.878  72.252  1.00  0.00     0.027 C 
BRANCH   3   4
ATOM      4  C   UNL     1     102.506  68.499  73.490  1.00  0.00     0.004 C 
BRANCH   4   5
ATOM      5  C   UNL     1     101.973  67.970  74.835  1.00  0.00     0.000 C 
BRANCH   5   6
ATOM      6  C   UNL     1     101.605  69.098  75.815  1.00  0.00     0.000 C 
BRANCH   6   7
ATOM      7  C   UNL     1     100.742  70.189  75.161  1.00  0.00     0.000 C 
BRANCH   7   8
ATOM      8  C   UNL     1     101.452  71.553  75.101  1.00  0.00     0.006 C 
BRANCH   8   9
ATOM      9  C   UNL     1     102.917  71.422  74.664  1.00  0.00     0.053 C 
BRANCH   9  10
ATOM     10  C   UNL     1     103.510  72.751  74.307  1.00  0.00     0.041 C 
ATOM     11  O   UNL     1     102.817  73.615  73.710  1.00  0.00    -0.550 OA
ATOM     12  O   UNL     1     104.819  73.047  74.666  1.00  0.00    -0.550 OA
ENDBRANCH   9  10
ENDBRANCH   8   9
ENDBRANCH   7   8
ENDBRANCH   6   7
ENDBRANCH   5   6
ENDBRANCH   4   5
ENDBRANCH   3   4
ENDBRANCH   1   3
BRANCH   2  13
ATOM     13  C   UNL     1     100.549  68.555  69.557  1.00  0.00     0.027 C 
BRANCH  13  14
ATOM     14  C   UNL     1      99.801  69.389  68.507  1.00  0.00     0.004 C 
BRANCH  14  15
ATOM     15  C   UNL     1      99.303  70.731  69.065  1.00  0.00     0.000 C 
BRANCH  15  16
ATOM     16  C   UNL     1      97.862  71.053  68.631  1.00  0.00     0.000 C 
BRANCH  16  17
ATOM     17  C   UNL     1      96.828  70.128  69.290  1.00  0.00    -0.000 C 
BRANCH  17  18
ATOM     18  C   UNL     1      97.031  68.651  68.908  1.00  0.00    -0.000 C 
BRANCH  18  19
ATOM     19  C   UNL     1      95.707  67.876  68.829  1.00  0.00    -0.003 C 
ATOM     20  C   UNL     1      94.697  68.325  69.887  1.00  0.00     0.004 C 
ENDBRANCH  18  19
ENDBRANCH  17  18
ENDBRANCH  16  17
ENDBRANCH  15  16
ENDBRANCH  14  15
ENDBRANCH  13  14
ENDBRANCH   2  13
TORSDOF 15
ENDMDL
MODEL 4
REMARK VINA RESULT:    -0.578      2.834      6.875
REMARK INTER + INTRA:          -2.412
REMARK INTER:                  -1.756
REMARK INTRA:                  -0.656
REMARK UNBOUND:                -1.327
REMARK SMILES CCCCCCCCC=CCCCCCCCC(=O)[O-]
REMARK SMILES IDX 10 1 9 2 11 3 12 4 13 5 14 6 15 7 16 8 17 9 18 10 19 11
REMARK SMILES IDX 20 12 8 13 7 14 6 15 5 16 4 17 3 18 2 19 1 20
REMARK H PARENT
REMARK Flexibility Score: inf
ROOT
ATOM      1  C   UNL     1     100.726  68.775  72.878  1.00  0.00    -0.031 C 
ATOM      2  C   UNL     1     100.644  68.564  71.550  1.00  0.00    -0.031 C 
ENDROOT
BRANCH   1   3
ATOM      3  C   UNL     1     101.845  68.277  73.760  1.00  0.00     0.027 C 
BRANCH   3   4
ATOM      4  C   UNL     1     101.823  68.927  75.154  1.00  0.00     0.004 C 
BRANCH   4   5
ATOM      5  C   UNL     1     100.446  69.469  75.582  1.00  0.00     0.000 C 
BRANCH   5   6
ATOM      6  C   UNL     1     100.468  70.976  75.893  1.00  0.00     0.000 C 
BRANCH   6   7
ATOM      7  C   UNL     1     101.803  71.636  75.510  1.00  0.00     0.000 C 
BRANCH   7   8
ATOM      8  C   UNL     1     101.839  72.095  74.041  1.00  0.00     0.006 C 
BRANCH   8   9
ATOM      9  C   UNL     1     102.935  73.139  73.789  1.00  0.00     0.053 C 
BRANCH   9  10
ATOM     10  C   UNL     1     104.208  72.788  74.495  1.00  0.00     0.041 C 
ATOM     11  O   UNL     1     104.750  71.667  74.307  1.00  0.00    -0.550 OA
ATOM     12  O   UNL     1     104.816  73.714  75.333  1.00  0.00    -0.550 OA
ENDBRANCH   9  10
ENDBRANCH   8   9
ENDBRANCH   7   8
ENDBRANCH   6   7
ENDBRANCH   5   6
ENDBRANCH   4   5
ENDBRANCH   3   4
ENDBRANCH   1   3
BRANCH   2  13
ATOM     13  C   UNL     1     101.706  67.883  70.726  1.00  0.00     0.027 C 
BRANCH  13  14
ATOM     14  C   UNL     1     101.316  67.875  69.240  1.00  0.00     0.004 C 
BRANCH  14  15
ATOM     15  C   UNL     1      99.828  68.187  69.020  1.00  0.00     0.000 C 
BRANCH  15  16
ATOM     16  C   UNL     1      99.579  69.666  68.674  1.00  0.00     0.000 C 
BRANCH  16  17
ATOM     17  C   UNL     1      98.713  70.379  69.724  1.00  0.00    -0.000 C 
BRANCH  17  18
ATOM     18  C   UNL     1      97.423  70.965  69.125  1.00  0.00    -0.000 C 
BRANCH  18  19
ATOM     19  C   UNL     1      97.660  72.305  68.411  1.00  0.00    -0.003 C 
ATOM     20  C   UNL     1      97.318  73.509  69.290  1.00  0.00     0.004 C 
ENDBRANCH  18  19
ENDBRANCH  17  18
ENDBRANCH  16  17
ENDBRANCH  15  16
ENDBRANCH  14  15
ENDBRANCH  13  14
ENDBRANCH   2  13
TORSDOF 15
ENDMDL
MODEL 5
REMARK VINA RESULT:    -0.235      0.986      2.093
REMARK INTER + INTRA:          -1.769
REMARK INTER:                  -3.323
REMARK INTRA:                   1.554
REMARK UNBOUND:                -1.327
REMARK SMILES CCCCCCCCC=CCCCCCCCC(=O)[O-]
REMARK SMILES IDX 10 1 9 2 11 3 12 4 13 5 14 6 15 7 16 8 17 9 18 10 19 11
REMARK SMILES IDX 20 12 8 13 7 14 6 15 5 16 4 17 3 18 2 19 1 20
REMARK H PARENT
REMARK Flexibility Score: inf
ROOT
ATOM      1  C   UNL     1     101.856  67.976  72.887  1.00  0.00    -0.031 C 
ATOM      2  C   UNL     1     102.245  68.082  74.171  1.00  0.00    -0.031 C 
ENDROOT
BRANCH   1   3
ATOM      3  C   UNL     1     100.631  68.636  72.303  1.00  0.00     0.027 C 
BRANCH   3   4
ATOM      4  C   UNL     1     100.083  67.875  71.082  1.00  0.00     0.004 C 
BRANCH   4   5
ATOM      5  C   UNL     1     100.978  67.950  69.831  1.00  0.00     0.000 C 
BRANCH   5   6
ATOM      6  C   UNL     1     100.319  68.718  68.672  1.00  0.00     0.000 C 
BRANCH   6   7
ATOM      7  C   UNL     1      99.676  70.038  69.130  1.00  0.00     0.000 C 
BRANCH   7   8
ATOM      8  C   UNL     1      98.182  69.886  69.466  1.00  0.00     0.006 C 
BRANCH   8   9
ATOM      9  C   UNL     1      97.317  70.919  68.733  1.00  0.00     0.053 C 
BRANCH   9  10
ATOM     10  C   UNL     1      97.879  72.303  68.858  1.00  0.00     0.041 C 
ATOM     11  O   UNL     1      99.124  72.487  68.820  1.00  0.00    -0.550 OA
ATOM     12  O   UNL     1      97.025  73.392  68.980  1.00  0.00    -0.550 OA
ENDBRANCH   9  10
ENDBRANCH   8   9
ENDBRANCH   7   8
ENDBRANCH   6   7
ENDBRANCH   5   6
ENDBRANCH   4   5
ENDBRANCH   3   4
ENDBRANCH   1   3
BRANCH   2  13
ATOM     13  C   UNL     1     101.574  68.956  75.199  1.00  0.00     0.027 C 
BRANCH  13  14
ATOM     14  C   UNL     1     101.041  70.242  74.551  1.00  0.00     0.004 C 
BRANCH  14  15
ATOM     15  C   UNL     1     101.800  71.495  75.015  1.00  0.00     0.000 C 
BRANCH  15  16
ATOM     16  C   UNL     1     103.326  71.336  74.900  1.00  0.00     0.000 C 
BRANCH  16  17
ATOM     17  C   UNL     1     104.052  72.685  74.787  1.00  0.00    -0.000 C 
BRANCH  17  18
ATOM     18  C   UNL     1     103.746  73.410  73.464  1.00  0.00    -0.000 C 
BRANCH  18  19
ATOM     19  C   UNL     1     102.249  73.712  73.290  1.00  0.00    -0.003 C 
ATOM     20  C   UNL     1     101.991  75.128  72.773  1.00  0.00     0.004 C 
ENDBRANCH  18  19
ENDBRANCH  17  18
ENDBRANCH  16  17
ENDBRANCH  15  16
ENDBRANCH  14  15
ENDBRANCH  13  14
ENDBRANCH   2  13
TORSDOF 15
ENDMDL
MODEL 6
REMARK VINA RESULT:     0.235      1.561      2.734
REMARK INTER + INTRA:          -0.887
REMARK INTER:                  -0.402
REMARK INTRA:                  -0.484
REMARK UNBOUND:                -1.327
REMARK SMILES CCCCCCCCC=CCCCCCCCC(=O)[O-]
REMARK SMILES IDX 10 1 9 2 11 3 12 4 13 5 14 6 15 7 16 8 17 9 18 10 19 11
REMARK SMILES IDX 20 12 8 13 7 14 6 15 5 16 4 17 3 18 2 19 1 20
REMARK H PARENT
REMARK Flexibility Score: inf
ROOT
ATOM      1  C   UNL     1     101.584  68.711  73.680  1.00  0.00    -0.031 C 
ATOM      2  C   UNL     1     101.768  69.253  74.899  1.00  0.00    -0.031 C 
ENDROOT
BRANCH   1   3
ATOM      3  C   UNL     1     100.543  69.166  72.686  1.00  0.00     0.027 C 
BRANCH   3   4
ATOM      4  C   UNL     1     100.237  68.090  71.629  1.00  0.00     0.004 C 
BRANCH   4   5
ATOM      5  C   UNL     1     101.357  67.877  70.594  1.00  0.00     0.000 C 
BRANCH   5   6
ATOM      6  C   UNL     1     100.903  68.177  69.154  1.00  0.00     0.000 C 
BRANCH   6   7
ATOM      7  C   UNL     1      99.558  68.920  69.104  1.00  0.00     0.000 C 
BRANCH   7   8
ATOM      8  C   UNL     1      99.711  70.440  69.291  1.00  0.00     0.006 C 
BRANCH   8   9
ATOM      9  C   UNL     1      98.815  71.233  68.330  1.00  0.00     0.053 C 
BRANCH   9  10
ATOM     10  C   UNL     1      97.413  71.345  68.845  1.00  0.00     0.041 C 
ATOM     11  O   UNL     1      96.875  72.475  68.980  1.00  0.00    -0.550 OA
ATOM     12  O   UNL     1      96.687  70.198  69.140  1.00  0.00    -0.550 OA
ENDBRANCH   9  10
ENDBRANCH   8   9
ENDBRANCH   7   8
ENDBRANCH   6   7
ENDBRANCH   5   6
ENDBRANCH   4   5
ENDBRANCH   3   4
ENDBRANCH   1   3
BRANCH   2  13
ATOM     13  C   UNL     1     101.028  70.458  75.420  1.00  0.00     0.027 C 
BRANCH  13  14
ATOM     14  C   UNL     1     101.967  71.669  75.520  1.00  0.00     0.004 C 
BRANCH  14  15
ATOM     15  C   UNL     1     103.132  71.595  74.520  1.00  0.00     0.000 C 
BRANCH  15  16
ATOM     16  C   UNL     1     104.090  72.793  74.641  1.00  0.00     0.000 C 
BRANCH  16  17
ATOM     17  C   UNL     1     103.435  74.116  74.215  1.00  0.00    -0.000 C 
BRANCH  17  18
ATOM     18  C   UNL     1     102.287  73.909  73.211  1.00  0.00    -0.000 C 
BRANCH  18  19
ATOM     19  C   UNL     1     102.081  75.123  72.293  1.00  0.00    -0.003 C 
ATOM     20  C   UNL     1     101.201  76.200  72.929  1.00  0.00     0.004 C 
ENDBRANCH  18  19
ENDBRANCH  17  18
ENDBRANCH  16  17
ENDBRANCH  15  16
ENDBRANCH  14  15
ENDBRANCH  13  14
ENDBRANCH   2  13
TORSDOF 15
ENDMDL
MODEL 7
REMARK VINA RESULT:     0.365      1.926      6.632
REMARK INTER + INTRA:          -0.643
REMARK INTER:                  -0.004
REMARK INTRA:                  -0.639
REMARK UNBOUND:                -1.327
REMARK SMILES CCCCCCCCC=CCCCCCCCC(=O)[O-]
REMARK SMILES IDX 10 1 9 2 11 3 12 4 13 5 14 6 15 7 16 8 17 9 18 10 19 11
REMARK SMILES IDX 20 12 8 13 7 14 6 15 5 16 4 17 3 18 2 19 1 20
REMARK H PARENT
REMARK Flexibility Score: inf
ROOT
ATOM      1  C   UNL     1     100.576  69.507  73.099  1.00  0.00    -0.031 C 
ATOM      2  C   UNL     1     100.220  69.021  71.895  1.00  0.00    -0.031 C 
ENDROOT
BRANCH   1   3
ATOM      3  C   UNL     1     101.651  68.919  73.980  1.00  0.00     0.027 C 
BRANCH   3   4
ATOM      4  C   UNL     1     101.557  69.423  75.431  1.00  0.00     0.004 C 
BRANCH   4   5
ATOM      5  C   UNL     1     100.827  70.770  75.591  1.00  0.00     0.000 C 
BRANCH   5   6
ATOM      6  C   UNL     1     101.764  71.979  75.424  1.00  0.00     0.000 C 
BRANCH   6   7
ATOM      7  C   UNL     1     103.098  71.603  74.758  1.00  0.00     0.000 C 
BRANCH   7   8
ATOM      8  C   UNL     1     103.773  72.799  74.065  1.00  0.00     0.006 C 
BRANCH   8   9
ATOM      9  C   UNL     1     103.035  74.117  74.336  1.00  0.00     0.053 C 
BRANCH   9  10
ATOM     10  C   UNL     1     102.385  74.654  73.098  1.00  0.00     0.041 C 
ATOM     11  O   UNL     1     102.215  73.911  72.097  1.00  0.00    -0.550 OA
ATOM     12  O   UNL     1     101.935  75.968  73.064  1.00  0.00    -0.550 OA
ENDBRANCH   9  10
ENDBRANCH   8   9
ENDBRANCH   7   8
ENDBRANCH   6   7
ENDBRANCH   5   6
ENDBRANCH   4   5
ENDBRANCH   3   4
ENDBRANCH   1   3
BRANCH   2  13
ATOM     13  C   UNL     1     100.907  67.875  71.198  1.00  0.00     0.027 C 
BRANCH  13  14
ATOM     14  C   UNL     1     101.367  68.292  69.794  1.00  0.00     0.004 C 
BRANCH  14  15
ATOM     15  C   UNL     1     100.197  68.434  68.808  1.00  0.00     0.000 C 
BRANCH  15  16
ATOM     16  C   UNL     1      99.440  69.764  68.978  1.00  0.00     0.000 C 
BRANCH  16  17
ATOM     17  C   UNL     1      97.920  69.567  69.073  1.00  0.00    -0.000 C 
BRANCH  17  18
ATOM     18  C   UNL     1      97.151  70.901  69.054  1.00  0.00    -0.000 C 
BRANCH  18  19
ATOM     19  C   UNL     1      98.070  72.107  68.808  1.00  0.00    -0.003 C 
ATOM     20  C   UNL     1      97.451  73.424  69.280  1.00  0.00     0.004 C 
ENDBRANCH  18  19
ENDBRANCH  17  18
ENDBRANCH  16  17
ENDBRANCH  15  16
ENDBRANCH  14  15
ENDBRANCH  13  14
ENDBRANCH   2  13
TORSDOF 15
ENDMDL
