MODEL 1
REMARK VINA RESULT:    -3.825      0.000      0.000
REMARK INTER + INTRA:          -6.128
REMARK INTER:                  -5.614
REMARK INTRA:                  -0.513
REMARK UNBOUND:                -0.513
REMARK SMILES O=C([O-])CCCCCCCC(=O)[O-]
REMARK SMILES IDX 7 1 6 2 5 3 4 4 2 5 1 6 3 7 8 8 9 9 10 10 11 11 12 12 13 13
REMARK H PARENT
REMARK Flexibility Score: inf
ROOT
ATOM      1  C   UNL     1      -3.209  24.845   0.681  1.00  0.00     0.000 C 
ENDROOT
BRANCH   1   2
ATOM      2  C   UNL     1      -2.657  25.536   1.937  1.00  0.00     0.000 C 
BRANCH   2   3
ATOM      3  C   UNL     1      -2.483  27.044   1.703  1.00  0.00     0.006 C 
BRANCH   3   4
ATOM      4  C   UNL     1      -3.168  27.883   2.789  1.00  0.00     0.053 C 
BRANCH   4   5
ATOM      5  C   UNL     1      -2.195  28.775   3.499  1.00  0.00     0.041 C 
ATOM      6  O   UNL     1      -2.576  29.481   4.469  1.00  0.00    -0.550 OA
ATOM      7  O   UNL     1      -0.862  28.800   3.109  1.00  0.00    -0.550 OA
ENDBRANCH   4   5
ENDBRANCH   3   4
ENDBRANCH   2   3
ENDBRANCH   1   2
BRANCH   1   8
ATOM      8  C   UNL     1      -4.362  23.879   0.995  1.00  0.00     0.000 C 
BRANCH   8   9
ATOM      9  C   UNL     1      -5.369  24.461   1.998  1.00  0.00     0.006 C 
BRANCH   9  10
ATOM     10  C   UNL     1      -6.372  25.380   1.296  1.00  0.00     0.053 C 
BRANCH  10  11
ATOM     11  C   UNL     1      -7.753  24.811   1.383  1.00  0.00     0.041 C 
ATOM     12  O   UNL     1      -8.079  23.827   0.669  1.00  0.00    -0.550 OA
ATOM     13  O   UNL     1      -8.695  25.398   2.219  1.00  0.00    -0.550 OA
ENDBRANCH  10  11
ENDBRANCH   9  10
ENDBRANCH   8   9
ENDBRANCH   1   8
TORSDOF 8
ENDMDL
MODEL 2
REMARK VINA RESULT:    -3.794      1.284      5.771
REMARK INTER + INTRA:          -6.081
REMARK INTER:                  -5.508
REMARK INTRA:                  -0.573
REMARK UNBOUND:                -0.513
REMARK SMILES O=C([O-])CCCCCCCC(=O)[O-]
REMARK SMILES IDX 7 1 6 2 5 3 4 4 2 5 1 6 3 7 8 8 9 9 10 10 11 11 12 12 13 13
REMARK H PARENT
REMARK Flexibility Score: inf
ROOT
ATOM      1  C   UNL     1      -3.607  25.245   1.544  1.00  0.00     0.000 C 
ENDROOT
BRANCH   1   2
ATOM      2  C   UNL     1      -4.600  24.155   1.115  1.00  0.00     0.000 C 
BRANCH   2   3
ATOM      3  C   UNL     1      -5.786  24.078   2.089  1.00  0.00     0.006 C 
BRANCH   3   4
ATOM      4  C   UNL     1      -7.049  24.736   1.519  1.00  0.00     0.053 C 
BRANCH   4   5
ATOM      5  C   UNL     1      -7.413  25.983   2.266  1.00  0.00     0.041 C 
ATOM      6  O   UNL     1      -6.900  27.086   1.943  1.00  0.00    -0.550 OA
ATOM      7  O   UNL     1      -8.342  25.930   3.298  1.00  0.00    -0.550 OA
ENDBRANCH   4   5
ENDBRANCH   3   4
ENDBRANCH   2   3
ENDBRANCH   1   2
BRANCH   1   8
ATOM      8  C   UNL     1      -3.711  25.587   3.039  1.00  0.00     0.000 C 
BRANCH   8   9
ATOM      9  C   UNL     1      -3.637  27.097   3.310  1.00  0.00     0.006 C 
BRANCH   9  10
ATOM     10  C   UNL     1      -2.314  27.680   2.803  1.00  0.00     0.053 C 
BRANCH  10  11
ATOM     11  C   UNL     1      -2.088  29.042   3.378  1.00  0.00     0.041 C 
ATOM     12  O   UNL     1      -2.615  29.362   4.476  1.00  0.00    -0.550 OA
ATOM     13  O   UNL     1      -1.335  29.976   2.678  1.00  0.00    -0.550 OA
ENDBRANCH  10  11
ENDBRANCH   9  10
ENDBRANCH   8   9
ENDBRANCH   1   8
TORSDOF 8
ENDMDL
MODEL 3
REMARK VINA RESULT:    -3.738      2.897      6.059
REMARK INTER + INTRA:          -5.999
REMARK INTER:                  -5.523
REMARK INTRA:                  -0.477
REMARK UNBOUND:                -0.513
REMARK SMILES O=C([O-])CCCCCCCC(=O)[O-]
REMARK SMILES IDX 7 1 6 2 5 3 4 4 2 5 1 6 3 7 8 8 9 9 10 10 11 11 12 12 13 13
REMARK H PARENT
REMARK Flexibility Score: inf
ROOT
ATOM      1  C   UNL     1      -3.093  25.644   2.727  1.00  0.00     0.000 C 
ENDROOT
BRANCH   1   2
ATOM      2  C   UNL     1      -4.602  25.912   2.830  1.00  0.00     0.000 C 
BRANCH   2   3
ATOM      3  C   UNL     1      -5.405  24.808   2.125  1.00  0.00     0.006 C 
BRANCH   3   4
ATOM      4  C   UNL     1      -6.392  25.375   1.095  1.00  0.00     0.053 C 
BRANCH   4   5
ATOM      5  C   UNL     1      -7.770  24.818   1.280  1.00  0.00     0.041 C 
ATOM      6  O   UNL     1      -8.120  23.778   0.663  1.00  0.00    -0.550 OA
ATOM      7  O   UNL     1      -8.656  25.428   2.159  1.00  0.00    -0.550 OA
ENDBRANCH   4   5
ENDBRANCH   3   4
ENDBRANCH   2   3
ENDBRANCH   1   2
BRANCH   1   8
ATOM      8  C   UNL     1      -2.381  26.623   1.780  1.00  0.00     0.000 C 
BRANCH   8   9
ATOM      9  C   UNL     1      -1.523  25.909   0.724  1.00  0.00     0.006 C 
BRANCH   9  10
ATOM     10  C   UNL     1      -2.159  24.579   0.310  1.00  0.00     0.053 C 
BRANCH  10  11
ATOM     11  C   UNL     1      -1.109  23.525   0.146  1.00  0.00     0.041 C 
ATOM     12  O   UNL     1       0.109  23.845   0.106  1.00  0.00    -0.550 OA
ATOM     13  O   UNL     1      -1.477  22.195  -0.009  1.00  0.00    -0.550 OA
ENDBRANCH  10  11
ENDBRANCH   9  10
ENDBRANCH   8   9
ENDBRANCH   1   8
TORSDOF 8
ENDMDL
MODEL 4
REMARK VINA RESULT:    -3.674      2.372      2.963
REMARK INTER + INTRA:          -5.906
REMARK INTER:                  -5.181
REMARK INTRA:                  -0.725
REMARK UNBOUND:                -0.513
REMARK SMILES O=C([O-])CCCCCCCC(=O)[O-]
REMARK SMILES IDX 7 1 6 2 5 3 4 4 2 5 1 6 3 7 8 8 9 9 10 10 11 11 12 12 13 13
REMARK H PARENT
REMARK Flexibility Score: inf
ROOT
ATOM      1  C   UNL     1      -5.471  24.950   1.619  1.00  0.00     0.000 C 
ENDROOT
BRANCH   1   2
ATOM      2  C   UNL     1      -3.989  25.356   1.598  1.00  0.00     0.000 C 
BRANCH   2   3
ATOM      3  C   UNL     1      -3.484  25.666   3.015  1.00  0.00     0.006 C 
BRANCH   3   4
ATOM      4  C   UNL     1      -3.378  27.174   3.277  1.00  0.00     0.053 C 
BRANCH   4   5
ATOM      5  C   UNL     1      -2.697  27.888   2.149  1.00  0.00     0.041 C 
ATOM      6  O   UNL     1      -3.336  28.714   1.446  1.00  0.00    -0.550 OA
ATOM      7  O   UNL     1      -1.349  27.664   1.897  1.00  0.00    -0.550 OA
ENDBRANCH   4   5
ENDBRANCH   3   4
ENDBRANCH   2   3
ENDBRANCH   1   2
BRANCH   1   8
ATOM      8  C   UNL     1      -6.414  26.134   1.355  1.00  0.00     0.000 C 
BRANCH   8   9
ATOM      9  C   UNL     1      -7.066  26.672   2.637  1.00  0.00     0.006 C 
BRANCH   9  10
ATOM     10  C   UNL     1      -7.495  25.525   3.556  1.00  0.00     0.053 C 
BRANCH  10  11
ATOM     11  C   UNL     1      -7.326  25.912   4.991  1.00  0.00     0.041 C 
ATOM     12  O   UNL     1      -6.253  26.445   5.381  1.00  0.00    -0.550 OA
ATOM     13  O   UNL     1      -8.334  25.642   5.908  1.00  0.00    -0.550 OA
ENDBRANCH  10  11
ENDBRANCH   9  10
ENDBRANCH   8   9
ENDBRANCH   1   8
TORSDOF 8
ENDMDL
MODEL 5
REMARK VINA RESULT:    -3.671      2.538      3.441
REMARK INTER + INTRA:          -5.901
REMARK INTER:                  -5.148
REMARK INTRA:                  -0.753
REMARK UNBOUND:                -0.513
REMARK SMILES O=C([O-])CCCCCCCC(=O)[O-]
REMARK SMILES IDX 7 1 6 2 5 3 4 4 2 5 1 6 3 7 8 8 9 9 10 10 11 11 12 12 13 13
REMARK H PARENT
REMARK Flexibility Score: inf
ROOT
ATOM      1  C   UNL     1      -3.340  25.778   2.189  1.00  0.00     0.000 C 
ENDROOT
BRANCH   1   2
ATOM      2  C   UNL     1      -2.517  27.015   1.797  1.00  0.00     0.000 C 
BRANCH   2   3
ATOM      3  C   UNL     1      -3.262  27.865   0.758  1.00  0.00     0.006 C 
BRANCH   3   4
ATOM      4  C   UNL     1      -4.081  27.007  -0.215  1.00  0.00     0.053 C 
BRANCH   4   5
ATOM      5  C   UNL     1      -5.496  27.486  -0.324  1.00  0.00     0.041 C 
ATOM      6  O   UNL     1      -5.816  28.620   0.118  1.00  0.00    -0.550 OA
ATOM      7  O   UNL     1      -6.454  26.694  -0.945  1.00  0.00    -0.550 OA
ENDBRANCH   4   5
ENDBRANCH   3   4
ENDBRANCH   2   3
ENDBRANCH   1   2
BRANCH   1   8
ATOM      8  C   UNL     1      -4.273  26.041   3.381  1.00  0.00     0.000 C 
BRANCH   8   9
ATOM      9  C   UNL     1      -5.757  26.042   2.984  1.00  0.00     0.006 C 
BRANCH   9  10
ATOM     10  C   UNL     1      -6.132  24.746   2.259  1.00  0.00     0.053 C 
BRANCH  10  11
ATOM     11  C   UNL     1      -7.556  24.794   1.805  1.00  0.00     0.041 C 
ATOM     12  O   UNL     1      -8.355  25.625   2.311  1.00  0.00    -0.550 OA
ATOM     13  O   UNL     1      -8.014  23.887   0.857  1.00  0.00    -0.550 OA
ENDBRANCH  10  11
ENDBRANCH   9  10
ENDBRANCH   8   9
ENDBRANCH   1   8
TORSDOF 8
ENDMDL
MODEL 6
REMARK VINA RESULT:    -3.666      1.766      1.935
REMARK INTER + INTRA:          -5.894
REMARK INTER:                  -5.149
REMARK INTRA:                  -0.745
REMARK UNBOUND:                -0.513
REMARK SMILES O=C([O-])CCCCCCCC(=O)[O-]
REMARK SMILES IDX 7 1 6 2 5 3 4 4 2 5 1 6 3 7 8 8 9 9 10 10 11 11 12 12 13 13
REMARK H PARENT
REMARK Flexibility Score: inf
ROOT
ATOM      1  C   UNL     1      -3.904  24.518  -0.112  1.00  0.00     0.000 C 
ENDROOT
BRANCH   1   2
ATOM      2  C   UNL     1      -2.486  24.903   0.337  1.00  0.00     0.000 C 
BRANCH   2   3
ATOM      3  C   UNL     1      -2.443  26.355   0.836  1.00  0.00     0.006 C 
BRANCH   3   4
ATOM      4  C   UNL     1      -2.597  26.451   2.360  1.00  0.00     0.053 C 
BRANCH   4   5
ATOM      5  C   UNL     1      -3.948  26.966   2.751  1.00  0.00     0.041 C 
ATOM      6  O   UNL     1      -4.538  27.809   2.026  1.00  0.00    -0.550 OA
ATOM      7  O   UNL     1      -4.568  26.491   3.900  1.00  0.00    -0.550 OA
ENDBRANCH   4   5
ENDBRANCH   3   4
ENDBRANCH   2   3
ENDBRANCH   1   2
BRANCH   1   8
ATOM      8  C   UNL     1      -4.501  23.376   0.725  1.00  0.00     0.000 C 
BRANCH   8   9
ATOM      9  C   UNL     1      -5.603  23.854   1.682  1.00  0.00     0.006 C 
BRANCH   9  10
ATOM     10  C   UNL     1      -6.462  24.941   1.029  1.00  0.00     0.053 C 
BRANCH  10  11
ATOM     11  C   UNL     1      -7.915  24.618   1.174  1.00  0.00     0.041 C 
ATOM     12  O   UNL     1      -8.441  23.727   0.456  1.00  0.00    -0.550 OA
ATOM     13  O   UNL     1      -8.701  25.333   2.069  1.00  0.00    -0.550 OA
ENDBRANCH  10  11
ENDBRANCH   9  10
ENDBRANCH   8   9
ENDBRANCH   1   8
TORSDOF 8
ENDMDL
MODEL 7
REMARK VINA RESULT:    -3.657      1.509      1.874
REMARK INTER + INTRA:          -5.881
REMARK INTER:                  -5.340
REMARK INTRA:                  -0.541
REMARK UNBOUND:                -0.513
REMARK SMILES O=C([O-])CCCCCCCC(=O)[O-]
REMARK SMILES IDX 7 1 6 2 5 3 4 4 2 5 1 6 3 7 8 8 9 9 10 10 11 11 12 12 13 13
REMARK H PARENT
REMARK Flexibility Score: inf
ROOT
ATOM      1  C   UNL     1      -4.216  25.363   1.545  1.00  0.00     0.000 C 
ENDROOT
BRANCH   1   2
ATOM      2  C   UNL     1      -3.553  25.540   2.919  1.00  0.00     0.000 C 
BRANCH   2   3
ATOM      3  C   UNL     1      -3.749  26.970   3.444  1.00  0.00     0.006 C 
BRANCH   3   4
ATOM      4  C   UNL     1      -3.399  28.029   2.391  1.00  0.00     0.053 C 
BRANCH   4   5
ATOM      5  C   UNL     1      -2.646  29.178   2.987  1.00  0.00     0.041 C 
ATOM      6  O   UNL     1      -2.041  29.993   2.242  1.00  0.00    -0.550 OA
ATOM      7  O   UNL     1      -2.640  29.369   4.363  1.00  0.00    -0.550 OA
ENDBRANCH   4   5
ENDBRANCH   3   4
ENDBRANCH   2   3
ENDBRANCH   1   2
BRANCH   1   8
ATOM      8  C   UNL     1      -4.990  24.041   1.425  1.00  0.00     0.000 C 
BRANCH   8   9
ATOM      9  C   UNL     1      -6.314  24.055   2.203  1.00  0.00     0.006 C 
BRANCH   9  10
ATOM     10  C   UNL     1      -7.269  25.111   1.639  1.00  0.00     0.053 C 
BRANCH  10  11
ATOM     11  C   UNL     1      -7.592  26.135   2.681  1.00  0.00     0.041 C 
ATOM     12  O   UNL     1      -8.105  25.784   3.776  1.00  0.00    -0.550 OA
ATOM     13  O   UNL     1      -7.371  27.482   2.424  1.00  0.00    -0.550 OA
ENDBRANCH  10  11
ENDBRANCH   9  10
ENDBRANCH   8   9
ENDBRANCH   1   8
TORSDOF 8
ENDMDL
MODEL 8
REMARK VINA RESULT:    -3.609      1.860      5.646
REMARK INTER + INTRA:          -5.810
REMARK INTER:                  -5.325
REMARK INTRA:                  -0.485
REMARK UNBOUND:                -0.513
REMARK SMILES O=C([O-])CCCCCCCC(=O)[O-]
REMARK SMILES IDX 7 1 6 2 5 3 4 4 2 5 1 6 3 7 8 8 9 9 10 10 11 11 12 12 13 13
REMARK H PARENT
REMARK Flexibility Score: inf
ROOT
ATOM      1  C   UNL     1      -4.049  24.939   1.561  1.00  0.00     0.000 C 
ENDROOT
BRANCH   1   2
ATOM      2  C   UNL     1      -5.246  23.984   1.692  1.00  0.00     0.000 C 
BRANCH   2   3
ATOM      3  C   UNL     1      -6.529  24.635   1.155  1.00  0.00     0.006 C 
BRANCH   3   4
ATOM      4  C   UNL     1      -7.565  24.878   2.260  1.00  0.00     0.053 C 
BRANCH   4   5
ATOM      5  C   UNL     1      -7.373  26.210   2.919  1.00  0.00     0.041 C 
ATOM      6  O   UNL     1      -7.391  26.304   4.174  1.00  0.00    -0.550 OA
ATOM      7  O   UNL     1      -7.141  27.342   2.146  1.00  0.00    -0.550 OA
ENDBRANCH   4   5
ENDBRANCH   3   4
ENDBRANCH   2   3
ENDBRANCH   1   2
BRANCH   1   8
ATOM      8  C   UNL     1      -3.707  25.645   2.882  1.00  0.00     0.000 C 
BRANCH   8   9
ATOM      9  C   UNL     1      -2.690  26.782   2.701  1.00  0.00     0.006 C 
BRANCH   9  10
ATOM     10  C   UNL     1      -2.137  26.800   1.273  1.00  0.00     0.053 C 
BRANCH  10  11
ATOM     11  C   UNL     1      -1.101  27.870   1.127  1.00  0.00     0.041 C 
ATOM     12  O   UNL     1      -0.569  28.088   0.007  1.00  0.00    -0.550 OA
ATOM     13  O   UNL     1      -0.689  28.595   2.238  1.00  0.00    -0.550 OA
ENDBRANCH  10  11
ENDBRANCH   9  10
ENDBRANCH   8   9
ENDBRANCH   1   8
TORSDOF 8
ENDMDL
MODEL 9
REMARK VINA RESULT:    -3.538      3.132      4.819
REMARK INTER + INTRA:          -5.706
REMARK INTER:                  -4.828
REMARK INTRA:                  -0.878
REMARK UNBOUND:                -0.513
REMARK SMILES O=C([O-])CCCCCCCC(=O)[O-]
REMARK SMILES IDX 7 1 6 2 5 3 4 4 2 5 1 6 3 7 8 8 9 9 10 10 11 11 12 12 13 13
REMARK H PARENT
REMARK Flexibility Score: inf
ROOT
ATOM      1  C   UNL     1      -3.550  25.490   2.823  1.00  0.00     0.000 C 
ENDROOT
BRANCH   1   2
ATOM      2  C   UNL     1      -4.644  26.504   3.191  1.00  0.00     0.000 C 
BRANCH   2   3
ATOM      3  C   UNL     1      -5.799  26.457   2.179  1.00  0.00     0.006 C 
BRANCH   3   4
ATOM      4  C   UNL     1      -6.989  25.638   2.693  1.00  0.00     0.053 C 
BRANCH   4   5
ATOM      5  C   UNL     1      -7.028  24.270   2.083  1.00  0.00     0.041 C 
ATOM      6  O   UNL     1      -6.431  23.312   2.639  1.00  0.00    -0.550 OA
ATOM      7  O   UNL     1      -7.752  24.048   0.918  1.00  0.00    -0.550 OA
ENDBRANCH   4   5
ENDBRANCH   3   4
ENDBRANCH   2   3
ENDBRANCH   1   2
BRANCH   1   8
ATOM      8  C   UNL     1      -2.629  25.993   1.700  1.00  0.00     0.000 C 
BRANCH   8   9
ATOM      9  C   UNL     1      -2.499  24.990   0.545  1.00  0.00     0.006 C 
BRANCH   9  10
ATOM     10  C   UNL     1      -3.595  23.922   0.620  1.00  0.00     0.053 C 
BRANCH  10  11
ATOM     11  C   UNL     1      -4.523  24.041  -0.547  1.00  0.00     0.041 C 
ATOM     12  O   UNL     1      -4.920  23.008  -1.149  1.00  0.00    -0.550 OA
ATOM     13  O   UNL     1      -4.911  25.295  -1.001  1.00  0.00    -0.550 OA
ENDBRANCH  10  11
ENDBRANCH   9  10
ENDBRANCH   8   9
ENDBRANCH   1   8
TORSDOF 8
ENDMDL
