MODEL 1
REMARK VINA RESULT:    -4.525      0.000      0.000
REMARK INTER + INTRA:          -6.461
REMARK INTER:                  -6.905
REMARK INTRA:                   0.444
REMARK UNBOUND:                 0.444
REMARK SMILES CC1=CCC[C@H](C)C(=O)C[C@@H](C(C)C)C(=O)C1
REMARK SMILES IDX 8 1 9 2 6 3 7 4 5 5 4 6 3 7 2 8 1 9 10 11 11 12 15 13 16 14
REMARK SMILES IDX 17 15 12 17 13 18 14 19
REMARK H PARENT
REMARK Flexibility Score: 70.00
ROOT
ATOM      1  C   UNL     1      17.162  25.867   4.215  1.00  0.00     0.136 C 
ATOM      2  O   UNL     1      17.303  24.746   3.747  1.00  0.00    -0.299 OA
ENDROOT
BRANCH   1   3
ATOM      3  C   UNL     1      15.861  26.235   4.893  1.00  0.00     0.053 C 
ATOM      4  C   UNL     1      14.984  24.998   5.122  1.00  0.00     0.016 C 
BRANCH   3   5
ATOM      5  C   UNL     1      16.175  26.962   6.223  1.00  0.00     0.015 C 
BRANCH   5   6
ATOM      6  C   UNL     1      16.107  26.098   7.498  1.00  0.00     0.028 C 
BRANCH   6   7
ATOM      7  C   UNL     1      17.289  26.167   8.442  1.00  0.00    -0.028 C 
ATOM      8  C   UNL     1      18.526  25.650   8.240  1.00  0.00    -0.070 CG0
ATOM      9  C   UNL     1      19.515  25.740   9.376  1.00  0.00     0.039 C 
ATOM     10  G   UNL     1      19.001  25.065   6.921  1.00  0.00     0.000 G0
ENDBRANCH   6   7
ENDBRANCH   5   6
ENDBRANCH   3   5
ENDBRANCH   1   3
BRANCH   1  11
ATOM     11  C   UNL     1      18.319  26.838   4.169  1.00  0.00     0.087 C 
BRANCH  11  12
ATOM     12  C   UNL     1      19.667  26.178   4.589  1.00  0.00     0.066 C 
BRANCH  12  13
ATOM     13  C   UNL     1      19.787  26.092   6.105  1.00  0.00     0.140 C 
ATOM     14  O   UNL     1      20.547  26.854   6.687  1.00  0.00    -0.299 OA
BRANCH  13  15
ATOM     15  C   UNL     1      19.020  25.068   6.917  1.00  0.00     0.106 CG0
ATOM     16  G   UNL     1      18.554  25.663   8.235  1.00  0.00     0.000 G0
ENDBRANCH  13  15
ENDBRANCH  12  13
BRANCH  12  17
ATOM     17  C   UNL     1      20.923  26.885   3.982  1.00  0.00    -0.006 C 
ATOM     18  C   UNL     1      21.774  25.910   3.151  1.00  0.00     0.008 C 
ATOM     19  C   UNL     1      20.597  28.139   3.149  1.00  0.00     0.008 C 
ENDBRANCH  12  17
ENDBRANCH  11  12
ENDBRANCH   1  11
TORSDOF 1
ENDMDL
MODEL 2
REMARK VINA RESULT:    -4.444      1.832      4.617
REMARK INTER + INTRA:          -6.337
REMARK INTER:                  -6.847
REMARK INTRA:                   0.510
REMARK UNBOUND:                 0.444
REMARK SMILES CC1=CCC[C@H](C)C(=O)C[C@@H](C(C)C)C(=O)C1
REMARK SMILES IDX 8 1 9 2 6 3 7 4 5 5 4 6 3 7 2 8 1 9 10 11 11 12 15 13 16 14
REMARK SMILES IDX 17 15 12 17 13 18 14 19
REMARK H PARENT
REMARK Flexibility Score: 70.00
ROOT
ATOM      1  C   UNL     1      19.591  26.836   5.717  1.00  0.00     0.136 C 
ATOM      2  O   UNL     1      20.589  26.189   6.002  1.00  0.00    -0.299 OA
ENDROOT
BRANCH   1   3
ATOM      3  C   UNL     1      19.286  27.141   4.267  1.00  0.00     0.053 C 
ATOM      4  C   UNL     1      20.560  27.118   3.414  1.00  0.00     0.016 C 
BRANCH   3   5
ATOM      5  C   UNL     1      18.238  26.125   3.749  1.00  0.00     0.015 C 
BRANCH   5   6
ATOM      6  C   UNL     1      16.771  26.422   4.119  1.00  0.00     0.028 C 
BRANCH   6   7
ATOM      7  C   UNL     1      15.981  25.300   4.759  1.00  0.00    -0.028 C 
ATOM      8  C   UNL     1      15.686  25.158   6.074  1.00  0.00    -0.070 CG0
ATOM      9  C   UNL     1      14.983  23.892   6.499  1.00  0.00     0.039 C 
ATOM     10  G   UNL     1      15.942  26.222   7.127  1.00  0.00     0.000 G0
ENDBRANCH   6   7
ENDBRANCH   5   6
ENDBRANCH   3   5
ENDBRANCH   1   3
BRANCH   1  11
ATOM     11  C   UNL     1      18.644  27.256   6.818  1.00  0.00     0.087 C 
BRANCH  11  12
ATOM     12  C   UNL     1      18.504  26.172   7.929  1.00  0.00     0.066 C 
BRANCH  12  13
ATOM     13  C   UNL     1      17.051  25.749   8.102  1.00  0.00     0.140 C 
ATOM     14  O   UNL     1      16.757  24.992   9.016  1.00  0.00    -0.299 OA
BRANCH  13  15
ATOM     15  C   UNL     1      15.960  26.208   7.157  1.00  0.00     0.106 CG0
ATOM     16  G   UNL     1      15.701  25.165   6.084  1.00  0.00     0.000 G0
ENDBRANCH  13  15
ENDBRANCH  12  13
BRANCH  12  17
ATOM     17  C   UNL     1      19.114  26.605   9.302  1.00  0.00    -0.006 C 
ATOM     18  C   UNL     1      18.110  27.419  10.135  1.00  0.00     0.008 C 
ATOM     19  C   UNL     1      19.667  25.437  10.140  1.00  0.00     0.008 C 
ENDBRANCH  12  17
ENDBRANCH  11  12
ENDBRANCH   1  11
TORSDOF 1
ENDMDL
MODEL 3
REMARK VINA RESULT:    -4.283      1.443      3.783
REMARK INTER + INTRA:          -6.092
REMARK INTER:                  -6.008
REMARK INTRA:                  -0.085
REMARK UNBOUND:                 0.444
REMARK SMILES CC1=CCC[C@H](C)C(=O)C[C@@H](C(C)C)C(=O)C1
REMARK SMILES IDX 8 1 9 2 6 3 7 4 5 5 4 6 3 7 2 8 1 9 10 11 11 12 15 13 16 14
REMARK SMILES IDX 17 15 12 17 13 18 14 19
REMARK H PARENT
REMARK Flexibility Score: 70.00
ROOT
ATOM      1  C   UNL     1      19.502  25.750   7.310  1.00  0.00     0.136 C 
ATOM      2  O   UNL     1      20.390  26.592   7.291  1.00  0.00    -0.299 OA
ENDROOT
BRANCH   1   3
ATOM      3  C   UNL     1      18.854  25.376   8.624  1.00  0.00     0.053 C 
ATOM      4  C   UNL     1      19.906  25.008   9.677  1.00  0.00     0.016 C 
BRANCH   3   5
ATOM      5  C   UNL     1      17.963  26.551   9.098  1.00  0.00     0.015 C 
BRANCH   5   6
ATOM      6  C   UNL     1      16.671  26.785   8.290  1.00  0.00     0.028 C 
BRANCH   6   7
ATOM      7  C   UNL     1      16.016  25.569   7.670  1.00  0.00    -0.028 C 
ATOM      8  C   UNL     1      15.615  25.425   6.383  1.00  0.00    -0.070 CG0
ATOM      9  C   UNL     1      14.876  24.162   6.018  1.00  0.00     0.039 C 
ATOM     10  G   UNL     1      15.935  26.414   5.275  1.00  0.00     0.000 G0
ENDBRANCH   6   7
ENDBRANCH   5   6
ENDBRANCH   3   5
ENDBRANCH   1   3
BRANCH   1  11
ATOM     11  C   UNL     1      19.023  25.153   6.006  1.00  0.00     0.087 C 
BRANCH  11  12
ATOM     12  C   UNL     1      18.584  26.241   4.979  1.00  0.00     0.066 C 
BRANCH  12  13
ATOM     13  C   UNL     1      17.168  25.984   4.480  1.00  0.00     0.140 C 
ATOM     14  O   UNL     1      17.008  25.435   3.399  1.00  0.00    -0.299 OA
BRANCH  13  15
ATOM     15  C   UNL     1      15.946  26.418   5.263  1.00  0.00     0.106 CG0
ATOM     16  G   UNL     1      15.623  25.417   6.359  1.00  0.00     0.000 G0
ENDBRANCH  13  15
ENDBRANCH  12  13
BRANCH  12  17
ATOM     17  C   UNL     1      19.568  26.393   3.774  1.00  0.00    -0.006 C 
ATOM     18  C   UNL     1      19.949  27.864   3.537  1.00  0.00     0.008 C 
ATOM     19  C   UNL     1      20.841  25.533   3.889  1.00  0.00     0.008 C 
ENDBRANCH  12  17
ENDBRANCH  11  12
ENDBRANCH   1  11
TORSDOF 1
ENDMDL
MODEL 4
REMARK VINA RESULT:    -4.081      1.761      4.270
REMARK INTER + INTRA:          -5.783
REMARK INTER:                  -5.675
REMARK INTRA:                  -0.108
REMARK UNBOUND:                 0.444
REMARK SMILES CC1=CCC[C@H](C)C(=O)C[C@@H](C(C)C)C(=O)C1
REMARK SMILES IDX 8 1 9 2 6 3 7 4 5 5 4 6 3 7 2 8 1 9 10 11 11 12 15 13 16 14
REMARK SMILES IDX 17 15 12 17 13 18 14 19
REMARK H PARENT
REMARK Flexibility Score: 70.00
ROOT
ATOM      1  C   UNL     1      16.404  24.795   6.735  1.00  0.00     0.136 C 
ATOM      2  O   UNL     1      15.664  24.563   7.681  1.00  0.00    -0.299 OA
ENDROOT
BRANCH   1   3
ATOM      3  C   UNL     1      15.809  25.137   5.387  1.00  0.00     0.053 C 
ATOM      4  C   UNL     1      15.301  26.583   5.354  1.00  0.00     0.016 C 
BRANCH   3   5
ATOM      5  C   UNL     1      16.872  24.883   4.290  1.00  0.00     0.015 C 
BRANCH   5   6
ATOM      6  C   UNL     1      17.437  26.138   3.595  1.00  0.00     0.028 C 
BRANCH   6   7
ATOM      7  C   UNL     1      18.916  26.139   3.270  1.00  0.00    -0.028 C 
ATOM      8  C   UNL     1      19.897  26.796   3.936  1.00  0.00    -0.070 CG0
ATOM      9  C   UNL     1      21.289  26.745   3.357  1.00  0.00     0.039 C 
ATOM     10  G   UNL     1      19.699  27.506   5.264  1.00  0.00     0.000 G0
ENDBRANCH   6   7
ENDBRANCH   5   6
ENDBRANCH   3   5
ENDBRANCH   1   3
BRANCH   1  11
ATOM     11  C   UNL     1      17.900  24.805   6.952  1.00  0.00     0.087 C 
BRANCH  11  12
ATOM     12  C   UNL     1      18.451  26.235   7.233  1.00  0.00     0.066 C 
BRANCH  12  13
ATOM     13  C   UNL     1      19.702  26.512   6.407  1.00  0.00     0.140 C 
ATOM     14  O   UNL     1      20.743  25.937   6.692  1.00  0.00    -0.299 OA
BRANCH  13  15
ATOM     15  C   UNL     1      19.708  27.505   5.263  1.00  0.00     0.106 CG0
ATOM     16  G   UNL     1      19.902  26.796   3.934  1.00  0.00     0.000 G0
ENDBRANCH  13  15
ENDBRANCH  12  13
BRANCH  12  17
ATOM     17  C   UNL     1      18.725  26.512   8.747  1.00  0.00    -0.006 C 
ATOM     18  C   UNL     1      17.464  27.021   9.465  1.00  0.00     0.008 C 
ATOM     19  C   UNL     1      19.314  25.310   9.509  1.00  0.00     0.008 C 
ENDBRANCH  12  17
ENDBRANCH  11  12
ENDBRANCH   1  11
TORSDOF 1
ENDMDL
MODEL 5
REMARK VINA RESULT:    -3.144     18.154     21.205
REMARK INTER + INTRA:          -4.354
REMARK INTER:                  -4.460
REMARK INTRA:                   0.106
REMARK UNBOUND:                 0.444
REMARK SMILES CC1=CCC[C@H](C)C(=O)C[C@@H](C(C)C)C(=O)C1
REMARK SMILES IDX 8 1 9 2 6 3 7 4 5 5 4 6 3 7 2 8 1 9 10 11 11 12 15 13 16 14
REMARK SMILES IDX 17 15 12 17 13 18 14 19
REMARK H PARENT
REMARK Flexibility Score: 70.00
ROOT
ATOM      1  C   UNL     1      30.740  16.391  -5.003  1.00  0.00     0.136 C 
ATOM      2  O   UNL     1      30.345  15.691  -4.082  1.00  0.00    -0.299 OA
ENDROOT
BRANCH   1   3
ATOM      3  C   UNL     1      31.024  17.857  -4.759  1.00  0.00     0.053 C 
ATOM      4  C   UNL     1      29.841  18.544  -4.067  1.00  0.00     0.016 C 
BRANCH   3   5
ATOM      5  C   UNL     1      32.323  17.986  -3.926  1.00  0.00     0.015 C 
BRANCH   5   6
ATOM      6  C   UNL     1      33.638  17.700  -4.678  1.00  0.00     0.028 C 
BRANCH   6   7
ATOM      7  C   UNL     1      34.348  16.402  -4.356  1.00  0.00    -0.028 C 
ATOM      8  C   UNL     1      34.402  15.288  -5.127  1.00  0.00    -0.070 CG0
ATOM      9  C   UNL     1      35.072  14.068  -4.546  1.00  0.00     0.039 C 
ATOM     10  G   UNL     1      33.907  15.219  -6.562  1.00  0.00     0.000 G0
ENDBRANCH   6   7
ENDBRANCH   5   6
ENDBRANCH   3   5
ENDBRANCH   1   3
BRANCH   1  11
ATOM     11  C   UNL     1      31.006  15.759  -6.350  1.00  0.00     0.087 C 
BRANCH  11  12
ATOM     12  C   UNL     1      31.436  14.266  -6.233  1.00  0.00     0.066 C 
BRANCH  12  13
ATOM     13  C   UNL     1      32.878  14.073  -6.683  1.00  0.00     0.140 C 
ATOM     14  O   UNL     1      33.225  12.986  -7.124  1.00  0.00    -0.299 OA
BRANCH  13  15
ATOM     15  C   UNL     1      33.912  15.175  -6.570  1.00  0.00     0.106 CG0
ATOM     16  G   UNL     1      34.425  15.290  -5.145  1.00  0.00     0.000 G0
ENDBRANCH  13  15
ENDBRANCH  12  13
BRANCH  12  17
ATOM     17  C   UNL     1      30.490  13.283  -6.998  1.00  0.00    -0.006 C 
ATOM     18  C   UNL     1      30.515  11.877  -6.376  1.00  0.00     0.008 C 
ATOM     19  C   UNL     1      29.036  13.777  -7.120  1.00  0.00     0.008 C 
ENDBRANCH  12  17
ENDBRANCH  11  12
ENDBRANCH   1  11
TORSDOF 1
ENDMDL
MODEL 6
REMARK VINA RESULT:    -3.055      1.523      3.935
REMARK INTER + INTRA:          -4.217
REMARK INTER:                  -5.018
REMARK INTRA:                   0.801
REMARK UNBOUND:                 0.444
REMARK SMILES CC1=CCC[C@H](C)C(=O)C[C@@H](C(C)C)C(=O)C1
REMARK SMILES IDX 8 1 9 2 6 3 7 4 5 5 4 6 3 7 2 8 1 9 10 11 11 12 15 13 16 14
REMARK SMILES IDX 17 15 12 17 13 18 14 19
REMARK H PARENT
REMARK Flexibility Score: 70.00
ROOT
ATOM      1  C   UNL     1      18.330  26.349   3.978  1.00  0.00     0.136 C 
ATOM      2  O   UNL     1      17.637  26.638   3.012  1.00  0.00    -0.299 OA
ENDROOT
BRANCH   1   3
ATOM      3  C   UNL     1      19.721  26.930   4.100  1.00  0.00     0.053 C 
ATOM      4  C   UNL     1      19.859  28.220   3.283  1.00  0.00     0.016 C 
BRANCH   3   5
ATOM      5  C   UNL     1      20.037  27.168   5.597  1.00  0.00     0.015 C 
BRANCH   5   6
ATOM      6  C   UNL     1      20.458  25.924   6.403  1.00  0.00     0.028 C 
BRANCH   6   7
ATOM      7  C   UNL     1      20.300  25.991   7.908  1.00  0.00    -0.028 C 
ATOM      8  C   UNL     1      19.171  25.757   8.620  1.00  0.00    -0.070 CG0
ATOM      9  C   UNL     1      19.221  26.000  10.109  1.00  0.00     0.039 C 
ATOM     10  G   UNL     1      17.891  25.189   8.030  1.00  0.00     0.000 G0
ENDBRANCH   6   7
ENDBRANCH   5   6
ENDBRANCH   3   5
ENDBRANCH   1   3
BRANCH   1  11
ATOM     11  C   UNL     1      17.752  25.474   5.066  1.00  0.00     0.087 C 
BRANCH  11  12
ATOM     12  C   UNL     1      16.667  26.211   5.909  1.00  0.00     0.066 C 
BRANCH  12  13
ATOM     13  C   UNL     1      17.064  26.274   7.379  1.00  0.00     0.140 C 
ATOM     14  O   UNL     1      16.732  27.245   8.044  1.00  0.00    -0.299 OA
BRANCH  13  15
ATOM     15  C   UNL     1      17.889  25.188   8.038  1.00  0.00     0.106 CG0
ATOM     16  G   UNL     1      19.168  25.762   8.624  1.00  0.00     0.000 G0
ENDBRANCH  13  15
ENDBRANCH  12  13
BRANCH  12  17
ATOM     17  C   UNL     1      15.237  25.599   5.756  1.00  0.00    -0.006 C 
ATOM     18  C   UNL     1      14.884  25.349   4.280  1.00  0.00     0.008 C 
ATOM     19  C   UNL     1      15.012  24.314   6.574  1.00  0.00     0.008 C 
ENDBRANCH  12  17
ENDBRANCH  11  12
ENDBRANCH   1  11
TORSDOF 1
ENDMDL
MODEL 7
REMARK VINA RESULT:    -2.173      1.893      4.157
REMARK INTER + INTRA:          -2.871
REMARK INTER:                  -4.465
REMARK INTRA:                   1.594
REMARK UNBOUND:                 0.444
REMARK SMILES CC1=CCC[C@H](C)C(=O)C[C@@H](C(C)C)C(=O)C1
REMARK SMILES IDX 8 1 9 2 6 3 7 4 5 5 4 6 3 7 2 8 1 9 10 11 11 12 15 13 16 14
REMARK SMILES IDX 17 15 12 17 13 18 14 19
REMARK H PARENT
REMARK Flexibility Score: 70.00
ROOT
ATOM      1  C   UNL     1      16.173  26.148   6.896  1.00  0.00     0.136 C 
ATOM      2  O   UNL     1      16.131  27.323   6.559  1.00  0.00    -0.299 OA
ENDROOT
BRANCH   1   3
ATOM      3  C   UNL     1      15.806  25.071   5.899  1.00  0.00     0.053 C 
ATOM      4  C   UNL     1      15.836  25.609   4.464  1.00  0.00     0.016 C 
BRANCH   3   5
ATOM      5  C   UNL     1      16.769  23.872   6.078  1.00  0.00     0.015 C 
BRANCH   5   6
ATOM      6  C   UNL     1      18.162  24.025   5.435  1.00  0.00     0.028 C 
BRANCH   6   7
ATOM      7  C   UNL     1      18.571  25.416   4.997  1.00  0.00    -0.028 C 
ATOM      8  C   UNL     1      19.349  26.290   5.680  1.00  0.00    -0.070 CG0
ATOM      9  C   UNL     1      19.526  27.671   5.097  1.00  0.00     0.039 C 
ATOM     10  G   UNL     1      20.116  25.943   6.944  1.00  0.00     0.000 G0
ENDBRANCH   6   7
ENDBRANCH   5   6
ENDBRANCH   3   5
ENDBRANCH   1   3
BRANCH   1  11
ATOM     11  C   UNL     1      16.661  25.794   8.282  1.00  0.00     0.087 C 
BRANCH  11  12
ATOM     12  C   UNL     1      18.052  26.420   8.602  1.00  0.00     0.066 C 
BRANCH  12  13
ATOM     13  C   UNL     1      19.182  25.535   8.092  1.00  0.00     0.140 C 
ATOM     14  O   UNL     1      19.363  24.442   8.612  1.00  0.00    -0.299 OA
BRANCH  13  15
ATOM     15  C   UNL     1      20.114  25.976   6.983  1.00  0.00     0.106 CG0
ATOM     16  G   UNL     1      19.339  26.268   5.710  1.00  0.00     0.000 G0
ENDBRANCH  13  15
ENDBRANCH  12  13
BRANCH  12  17
ATOM     17  C   UNL     1      18.255  26.746  10.117  1.00  0.00    -0.006 C 
ATOM     18  C   UNL     1      19.742  26.702  10.510  1.00  0.00     0.008 C 
ATOM     19  C   UNL     1      17.634  28.084  10.562  1.00  0.00     0.008 C 
ENDBRANCH  12  17
ENDBRANCH  11  12
ENDBRANCH   1  11
TORSDOF 1
ENDMDL
MODEL 8
REMARK VINA RESULT:    -1.721      1.818      4.859
REMARK INTER + INTRA:          -2.183
REMARK INTER:                  -3.169
REMARK INTRA:                   0.986
REMARK UNBOUND:                 0.444
REMARK SMILES CC1=CCC[C@H](C)C(=O)C[C@@H](C(C)C)C(=O)C1
REMARK SMILES IDX 8 1 9 2 6 3 7 4 5 5 4 6 3 7 2 8 1 9 10 11 11 12 15 13 16 14
REMARK SMILES IDX 17 15 12 17 13 18 14 19
REMARK H PARENT
REMARK Flexibility Score: 70.00
ROOT
ATOM      1  C   UNL     1      17.393  26.000   8.657  1.00  0.00     0.136 C 
ATOM      2  O   UNL     1      16.777  25.064   9.146  1.00  0.00    -0.299 OA
ENDROOT
BRANCH   1   3
ATOM      3  C   UNL     1      18.680  26.467   9.301  1.00  0.00     0.053 C 
ATOM      4  C   UNL     1      19.264  25.388  10.221  1.00  0.00     0.016 C 
BRANCH   3   5
ATOM      5  C   UNL     1      19.681  26.869   8.190  1.00  0.00     0.015 C 
BRANCH   5   6
ATOM      6  C   UNL     1      19.988  25.788   7.135  1.00  0.00     0.028 C 
BRANCH   6   7
ATOM      7  C   UNL     1      20.505  26.261   5.793  1.00  0.00    -0.028 C 
ATOM      8  C   UNL     1      19.972  26.000   4.575  1.00  0.00    -0.070 CG0
ATOM      9  C   UNL     1      20.730  26.482   3.362  1.00  0.00     0.039 C 
ATOM     10  G   UNL     1      18.626  25.329   4.359  1.00  0.00     0.000 G0
ENDBRANCH   6   7
ENDBRANCH   5   6
ENDBRANCH   3   5
ENDBRANCH   1   3
BRANCH   1  11
ATOM     11  C   UNL     1      16.891  26.626   7.376  1.00  0.00     0.087 C 
BRANCH  11  12
ATOM     12  C   UNL     1      16.762  25.591   6.218  1.00  0.00     0.066 C 
BRANCH  12  13
ATOM     13  C   UNL     1      17.473  26.082   4.963  1.00  0.00     0.140 C 
ATOM     14  O   UNL     1      17.090  27.112   4.426  1.00  0.00    -0.299 OA
BRANCH  13  15
ATOM     15  C   UNL     1      18.619  25.316   4.334  1.00  0.00     0.106 CG0
ATOM     16  G   UNL     1      19.942  26.018   4.591  1.00  0.00     0.000 G0
ENDBRANCH  13  15
ENDBRANCH  12  13
BRANCH  12  17
ATOM     17  C   UNL     1      15.284  25.202   5.891  1.00  0.00    -0.006 C 
ATOM     18  C   UNL     1      14.976  25.359   4.393  1.00  0.00     0.008 C 
ATOM     19  C   UNL     1      14.886  23.791   6.364  1.00  0.00     0.008 C 
ENDBRANCH  12  17
ENDBRANCH  11  12
ENDBRANCH   1  11
TORSDOF 1
ENDMDL
