MODEL 1
REMARK VINA RESULT:    -4.301      0.000      0.000
REMARK INTER + INTRA:          -6.128
REMARK INTER:                  -5.558
REMARK INTRA:                  -0.570
REMARK UNBOUND:                -0.570
REMARK SMILES C=CC(=O)CCCCC
REMARK SMILES IDX 6 1 7 2 8 3 9 4 5 5 3 6 4 7 2 8 1 9
REMARK H PARENT
REMARK Flexibility Score: inf
ROOT
ATOM      1  C   UNL     1      11.997  29.422  72.009  1.00  0.00     0.008 C 
ENDROOT
BRANCH   1   2
ATOM      2  C   UNL     1      11.915  28.419  73.165  1.00  0.00     0.000 C 
BRANCH   2   3
ATOM      3  C   UNL     1      10.515  27.802  73.259  1.00  0.00    -0.003 C 
ATOM      4  C   UNL     1      10.154  27.470  74.705  1.00  0.00     0.004 C 
ENDBRANCH   2   3
ENDBRANCH   1   2
BRANCH   1   5
ATOM      5  C   UNL     1      10.903  30.488  72.126  1.00  0.00     0.080 C 
BRANCH   5   6
ATOM      6  C   UNL     1      11.343  31.597  73.036  1.00  0.00     0.155 C 
ATOM      7  O   UNL     1      12.165  32.456  72.611  1.00  0.00    -0.295 OA
BRANCH   6   8
ATOM      8  C   UNL     1      10.782  31.703  74.396  1.00  0.00     0.039 C 
ATOM      9  C   UNL     1       9.600  31.185  74.725  1.00  0.00     0.012 C 
ENDBRANCH   6   8
ENDBRANCH   5   6
ENDBRANCH   1   5
TORSDOF 5
ENDMDL
MODEL 2
REMARK VINA RESULT:    -4.255      2.070      4.252
REMARK INTER + INTRA:          -6.069
REMARK INTER:                  -5.501
REMARK INTRA:                  -0.568
REMARK UNBOUND:                -0.570
REMARK SMILES C=CC(=O)CCCCC
REMARK SMILES IDX 6 1 7 2 8 3 9 4 5 5 3 6 4 7 2 8 1 9
REMARK H PARENT
REMARK Flexibility Score: inf
ROOT
ATOM      1  C   UNL     1      11.005  31.371  74.873  1.00  0.00     0.008 C 
ENDROOT
BRANCH   1   2
ATOM      2  C   UNL     1      11.093  32.759  74.229  1.00  0.00     0.000 C 
BRANCH   2   3
ATOM      3  C   UNL     1      11.928  32.716  72.944  1.00  0.00    -0.003 C 
ATOM      4  C   UNL     1      11.042  32.836  71.706  1.00  0.00     0.004 C 
ENDBRANCH   2   3
ENDBRANCH   1   2
BRANCH   1   5
ATOM      5  C   UNL     1       9.757  30.622  74.398  1.00  0.00     0.080 C 
BRANCH   5   6
ATOM      6  C   UNL     1      10.137  29.328  73.740  1.00  0.00     0.155 C 
ATOM      7  O   UNL     1       9.237  28.488  73.462  1.00  0.00    -0.295 OA
BRANCH   6   8
ATOM      8  C   UNL     1      11.545  29.066  73.384  1.00  0.00     0.039 C 
ATOM      9  C   UNL     1      11.968  29.030  72.122  1.00  0.00     0.012 C 
ENDBRANCH   6   8
ENDBRANCH   5   6
ENDBRANCH   1   5
TORSDOF 5
ENDMDL
MODEL 3
REMARK VINA RESULT:    -4.221      1.466      2.656
REMARK INTER + INTRA:          -6.025
REMARK INTER:                  -5.439
REMARK INTRA:                  -0.586
REMARK UNBOUND:                -0.570
REMARK SMILES C=CC(=O)CCCCC
REMARK SMILES IDX 6 1 7 2 8 3 9 4 5 5 3 6 4 7 2 8 1 9
REMARK H PARENT
REMARK Flexibility Score: inf
ROOT
ATOM      1  C   UNL     1       9.607  29.831  73.525  1.00  0.00     0.008 C 
ENDROOT
BRANCH   1   2
ATOM      2  C   UNL     1      10.503  28.736  74.115  1.00  0.00     0.000 C 
BRANCH   2   3
ATOM      3  C   UNL     1      11.917  28.808  73.529  1.00  0.00    -0.003 C 
ATOM      4  C   UNL     1      11.887  29.246  72.067  1.00  0.00     0.004 C 
ENDBRANCH   2   3
ENDBRANCH   1   2
BRANCH   1   5
ATOM      5  C   UNL     1       9.331  30.930  74.556  1.00  0.00     0.080 C 
BRANCH   5   6
ATOM      6  C   UNL     1      10.411  31.971  74.519  1.00  0.00     0.155 C 
ATOM      7  O   UNL     1      11.055  32.231  75.572  1.00  0.00    -0.295 OA
BRANCH   6   8
ATOM      8  C   UNL     1      10.742  32.648  73.250  1.00  0.00     0.039 C 
ATOM      9  C   UNL     1      11.995  32.913  72.887  1.00  0.00     0.012 C 
ENDBRANCH   6   8
ENDBRANCH   5   6
ENDBRANCH   1   5
TORSDOF 5
ENDMDL
MODEL 4
REMARK VINA RESULT:    -4.179      1.488      3.455
REMARK INTER + INTRA:          -5.970
REMARK INTER:                  -5.391
REMARK INTRA:                  -0.579
REMARK UNBOUND:                -0.570
REMARK SMILES C=CC(=O)CCCCC
REMARK SMILES IDX 6 1 7 2 8 3 9 4 5 5 3 6 4 7 2 8 1 9
REMARK H PARENT
REMARK Flexibility Score: inf
ROOT
ATOM      1  C   UNL     1      10.726  30.644  72.297  1.00  0.00     0.008 C 
ENDROOT
BRANCH   1   2
ATOM      2  C   UNL     1      11.441  31.691  73.159  1.00  0.00     0.000 C 
BRANCH   2   3
ATOM      3  C   UNL     1      10.852  31.734  74.573  1.00  0.00    -0.003 C 
ATOM      4  C   UNL     1       9.435  31.165  74.598  1.00  0.00     0.004 C 
ENDBRANCH   2   3
ENDBRANCH   1   2
BRANCH   1   5
ATOM      5  C   UNL     1      11.670  29.495  71.931  1.00  0.00     0.080 C 
BRANCH   5   6
ATOM      6  C   UNL     1      11.681  28.456  73.013  1.00  0.00     0.155 C 
ATOM      7  O   UNL     1      12.761  28.195  73.609  1.00  0.00    -0.295 OA
BRANCH   6   8
ATOM      8  C   UNL     1      10.427  27.781  73.401  1.00  0.00     0.039 C 
ATOM      9  C   UNL     1      10.151  27.457  74.663  1.00  0.00     0.012 C 
ENDBRANCH   6   8
ENDBRANCH   5   6
ENDBRANCH   1   5
TORSDOF 5
ENDMDL
MODEL 5
REMARK VINA RESULT:    -4.147      2.543      4.801
REMARK INTER + INTRA:          -5.928
REMARK INTER:                  -5.547
REMARK INTRA:                  -0.381
REMARK UNBOUND:                -0.570
REMARK SMILES C=CC(=O)CCCCC
REMARK SMILES IDX 6 1 7 2 8 3 9 4 5 5 3 6 4 7 2 8 1 9
REMARK H PARENT
REMARK Flexibility Score: inf
ROOT
ATOM      1  C   UNL     1      10.709  32.969  71.733  1.00  0.00     0.008 C 
ENDROOT
BRANCH   1   2
ATOM      2  C   UNL     1      10.385  34.415  72.126  1.00  0.00     0.000 C 
BRANCH   2   3
ATOM      3  C   UNL     1      11.560  35.058  72.872  1.00  0.00    -0.003 C 
ATOM      4  C   UNL     1      11.525  36.579  72.751  1.00  0.00     0.004 C 
ENDBRANCH   2   3
ENDBRANCH   1   2
BRANCH   1   5
ATOM      5  C   UNL     1      11.878  32.423  72.559  1.00  0.00     0.080 C 
BRANCH   5   6
ATOM      6  C   UNL     1      11.429  31.275  73.414  1.00  0.00     0.155 C 
ATOM      7  O   UNL     1      11.762  30.100  73.097  1.00  0.00    -0.295 OA
BRANCH   6   8
ATOM      8  C   UNL     1      10.644  31.528  74.638  1.00  0.00     0.039 C 
ATOM      9  C   UNL     1       9.386  31.115  74.779  1.00  0.00     0.012 C 
ENDBRANCH   6   8
ENDBRANCH   5   6
ENDBRANCH   1   5
TORSDOF 5
ENDMDL
MODEL 6
REMARK VINA RESULT:    -4.062      2.210      3.899
REMARK INTER + INTRA:          -5.819
REMARK INTER:                  -5.366
REMARK INTRA:                  -0.454
REMARK UNBOUND:                -0.570
REMARK SMILES C=CC(=O)CCCCC
REMARK SMILES IDX 6 1 7 2 8 3 9 4 5 5 3 6 4 7 2 8 1 9
REMARK H PARENT
REMARK Flexibility Score: inf
ROOT
ATOM      1  C   UNL     1      11.359  29.657  72.492  1.00  0.00     0.008 C 
ENDROOT
BRANCH   1   2
ATOM      2  C   UNL     1      11.245  31.131  72.898  1.00  0.00     0.000 C 
BRANCH   2   3
ATOM      3  C   UNL     1      10.944  31.267  74.394  1.00  0.00    -0.003 C 
ATOM      4  C   UNL     1       9.441  31.222  74.661  1.00  0.00     0.004 C 
ENDBRANCH   2   3
ENDBRANCH   1   2
BRANCH   1   5
ATOM      5  C   UNL     1      12.070  28.841  73.576  1.00  0.00     0.080 C 
BRANCH   5   6
ATOM      6  C   UNL     1      11.315  27.577  73.866  1.00  0.00     0.155 C 
ATOM      7  O   UNL     1      11.954  26.506  74.057  1.00  0.00    -0.295 OA
BRANCH   6   8
ATOM      8  C   UNL     1       9.844  27.603  73.971  1.00  0.00     0.039 C 
ATOM      9  C   UNL     1       9.062  26.793  73.260  1.00  0.00     0.012 C 
ENDBRANCH   6   8
ENDBRANCH   5   6
ENDBRANCH   1   5
TORSDOF 5
ENDMDL
MODEL 7
REMARK VINA RESULT:    -4.019      1.594      2.086
REMARK INTER + INTRA:          -5.763
REMARK INTER:                  -5.541
REMARK INTRA:                  -0.223
REMARK UNBOUND:                -0.570
REMARK SMILES C=CC(=O)CCCCC
REMARK SMILES IDX 6 1 7 2 8 3 9 4 5 5 3 6 4 7 2 8 1 9
REMARK H PARENT
REMARK Flexibility Score: inf
ROOT
ATOM      1  C   UNL     1      11.710  29.049  73.617  1.00  0.00     0.008 C 
ENDROOT
BRANCH   1   2
ATOM      2  C   UNL     1      10.339  28.852  74.274  1.00  0.00     0.000 C 
BRANCH   2   3
ATOM      3  C   UNL     1       9.904  27.383  74.210  1.00  0.00    -0.003 C 
ATOM      4  C   UNL     1      10.797  26.505  75.083  1.00  0.00     0.004 C 
ENDBRANCH   2   3
ENDBRANCH   1   2
BRANCH   1   5
ATOM      5  C   UNL     1      11.561  29.494  72.159  1.00  0.00     0.080 C 
BRANCH   5   6
ATOM      6  C   UNL     1      10.947  30.861  72.085  1.00  0.00     0.155 C 
ATOM      7  O   UNL     1       9.757  30.983  71.682  1.00  0.00    -0.295 OA
BRANCH   6   8
ATOM      8  C   UNL     1      11.715  32.042  72.523  1.00  0.00     0.039 C 
ATOM      9  C   UNL     1      11.300  33.288  72.305  1.00  0.00     0.012 C 
ENDBRANCH   6   8
ENDBRANCH   5   6
ENDBRANCH   1   5
TORSDOF 5
ENDMDL
MODEL 8
REMARK VINA RESULT:    -3.969      2.223      4.373
REMARK INTER + INTRA:          -5.699
REMARK INTER:                  -5.449
REMARK INTRA:                  -0.250
REMARK UNBOUND:                -0.570
REMARK SMILES C=CC(=O)CCCCC
REMARK SMILES IDX 6 1 7 2 8 3 9 4 5 5 3 6 4 7 2 8 1 9
REMARK H PARENT
REMARK Flexibility Score: inf
ROOT
ATOM      1  C   UNL     1      11.250  30.886  73.717  1.00  0.00     0.008 C 
ENDROOT
BRANCH   1   2
ATOM      2  C   UNL     1      10.767  31.363  72.342  1.00  0.00     0.000 C 
BRANCH   2   3
ATOM      3  C   UNL     1      11.135  32.833  72.112  1.00  0.00    -0.003 C 
ATOM      4  C   UNL     1      12.057  33.351  73.212  1.00  0.00     0.004 C 
ENDBRANCH   2   3
ENDBRANCH   1   2
BRANCH   1   5
ATOM      5  C   UNL     1      10.398  29.719  74.224  1.00  0.00     0.080 C 
BRANCH   5   6
ATOM      6  C   UNL     1      10.882  28.421  73.647  1.00  0.00     0.155 C 
ATOM      7  O   UNL     1      10.048  27.513  73.381  1.00  0.00    -0.295 OA
BRANCH   6   8
ATOM      8  C   UNL     1      12.316  28.233  73.352  1.00  0.00     0.039 C 
ATOM      9  C   UNL     1      13.062  27.324  73.977  1.00  0.00     0.012 C 
ENDBRANCH   6   8
ENDBRANCH   5   6
ENDBRANCH   1   5
TORSDOF 5
ENDMDL
MODEL 9
REMARK VINA RESULT:    -3.937      2.124      4.282
REMARK INTER + INTRA:          -5.657
REMARK INTER:                  -5.227
REMARK INTRA:                  -0.430
REMARK UNBOUND:                -0.570
REMARK SMILES C=CC(=O)CCCCC
REMARK SMILES IDX 6 1 7 2 8 3 9 4 5 5 3 6 4 7 2 8 1 9
REMARK H PARENT
REMARK Flexibility Score: inf
ROOT
ATOM      1  C   UNL     1      11.461  32.566  73.967  1.00  0.00     0.008 C 
ENDROOT
BRANCH   1   2
ATOM      2  C   UNL     1      11.618  32.674  72.445  1.00  0.00     0.000 C 
BRANCH   2   3
ATOM      3  C   UNL     1      10.471  33.485  71.832  1.00  0.00    -0.003 C 
ATOM      4  C   UNL     1      10.399  34.885  72.436  1.00  0.00     0.004 C 
ENDBRANCH   2   3
ENDBRANCH   1   2
BRANCH   1   5
ATOM      5  C   UNL     1      10.316  31.619  74.336  1.00  0.00     0.080 C 
BRANCH   5   6
ATOM      6  C   UNL     1      10.552  30.254  73.758  1.00  0.00     0.155 C 
ATOM      7  O   UNL     1      11.645  29.667  73.986  1.00  0.00    -0.295 OA
BRANCH   6   8
ATOM      8  C   UNL     1       9.494  29.592  72.970  1.00  0.00     0.039 C 
ATOM      9  C   UNL     1       9.096  30.046  71.783  1.00  0.00     0.012 C 
ENDBRANCH   6   8
ENDBRANCH   5   6
ENDBRANCH   1   5
TORSDOF 5
ENDMDL
