MODEL 1
REMARK VINA RESULT:    -3.589      0.000      0.000
REMARK INTER + INTRA:          -5.106
REMARK INTER:                  -4.638
REMARK INTRA:                  -0.468
REMARK UNBOUND:                -0.468
REMARK SMILES CCO[C@@H]1O[C@H](CO)[C@@H](O)[C@H](O)[C@H]1O
REMARK SMILES IDX 4 1 13 2 11 3 9 4 6 5 5 6 3 7 2 8 1 9 14 10 12 12 7 14 8 15
REMARK SMILES IDX 10 17
REMARK H PARENT 14 11 12 13 8 16 10 18
REMARK Flexibility Score: inf
ROOT
ATOM      1  C   UNL     1      30.080   0.404  41.378  1.00  0.00     0.281 C 
ATOM      2  C   UNL     1      31.368   0.806  40.619  1.00  0.00     0.202 C 
ATOM      3  C   UNL     1      31.503   0.051  39.288  1.00  0.00     0.179 C 
ATOM      4  C   UNL     1      30.193   0.102  38.479  1.00  0.00     0.177 C 
ATOM      5  C   UNL     1      28.947  -0.192  39.356  1.00  0.00     0.178 C 
ATOM      6  O   UNL     1      28.918   0.545  40.573  1.00  0.00    -0.341 OA
ENDROOT
BRANCH   1   7
ATOM      7  O   UNL     1      30.178  -0.923  41.876  1.00  0.00    -0.350 OA
BRANCH   7   8
ATOM      8  C   UNL     1      30.113  -0.948  43.287  1.00  0.00     0.160 C 
ATOM      9  C   UNL     1      28.662  -1.108  43.714  1.00  0.00     0.035 C 
ENDBRANCH   7   8
ENDBRANCH   1   7
BRANCH   2  10
ATOM     10  O   UNL     1      31.436   2.198  40.418  1.00  0.00    -0.385 OA
ATOM     11  H   UNL     1      30.674   2.469  39.844  1.00  0.00     0.211 HD
ENDBRANCH   2  10
BRANCH   3  12
ATOM     12  O   UNL     1      31.872  -1.281  39.544  1.00  0.00    -0.387 OA
ATOM     13  H   UNL     1      31.420  -1.842  38.861  1.00  0.00     0.211 HD
ENDBRANCH   3  12
BRANCH   5  14
ATOM     14  C   UNL     1      28.674  -1.700  39.565  1.00  0.00     0.191 C 
BRANCH  14  15
ATOM     15  O   UNL     1      27.617  -1.889  40.468  1.00  0.00    -0.394 OA
ATOM     16  H   UNL     1      27.985  -1.732  41.377  1.00  0.00     0.210 HD
ENDBRANCH  14  15
ENDBRANCH   5  14
BRANCH   4  17
ATOM     17  O   UNL     1      30.070   1.371  37.888  1.00  0.00    -0.387 OA
ATOM     18  H   UNL     1      30.989   1.722  37.756  1.00  0.00     0.211 HD
ENDBRANCH   4  17
TORSDOF 7
ENDMDL
MODEL 2
REMARK VINA RESULT:    -2.893     15.561     17.011
REMARK INTER + INTRA:          -4.206
REMARK INTER:                  -3.773
REMARK INTRA:                  -0.433
REMARK UNBOUND:                -0.468
REMARK SMILES CCO[C@@H]1O[C@H](CO)[C@@H](O)[C@H](O)[C@H]1O
REMARK SMILES IDX 4 1 13 2 11 3 9 4 6 5 5 6 3 7 2 8 1 9 14 10 12 12 7 14 8 15
REMARK SMILES IDX 10 17
REMARK H PARENT 14 11 12 13 8 16 10 18
REMARK Flexibility Score: inf
ROOT
ATOM      1  C   UNL     1      27.959  13.893  49.550  1.00  0.00     0.281 C 
ATOM      2  C   UNL     1      29.047  12.915  49.047  1.00  0.00     0.202 C 
ATOM      3  C   UNL     1      29.859  13.512  47.888  1.00  0.00     0.179 C 
ATOM      4  C   UNL     1      30.328  14.943  48.212  1.00  0.00     0.177 C 
ATOM      5  C   UNL     1      29.197  15.810  48.827  1.00  0.00     0.178 C 
ATOM      6  O   UNL     1      28.496  15.166  49.885  1.00  0.00    -0.341 OA
ENDROOT
BRANCH   1   7
ATOM      7  O   UNL     1      26.920  14.032  48.592  1.00  0.00    -0.350 OA
BRANCH   7   8
ATOM      8  C   UNL     1      25.649  14.025  49.207  1.00  0.00     0.160 C 
ATOM      9  C   UNL     1      25.023  12.649  49.037  1.00  0.00     0.035 C 
ENDBRANCH   7   8
ENDBRANCH   1   7
BRANCH   2  10
ATOM     10  O   UNL     1      29.894  12.502  50.094  1.00  0.00    -0.385 OA
ATOM     11  H   UNL     1      30.822  12.452  49.746  1.00  0.00     0.211 HD
ENDBRANCH   2  10
BRANCH   3  12
ATOM     12  O   UNL     1      29.077  13.502  46.720  1.00  0.00    -0.387 OA
ATOM     13  H   UNL     1      28.576  12.645  46.714  1.00  0.00     0.211 HD
ENDBRANCH   3  12
BRANCH   5  14
ATOM     14  C   UNL     1      28.250  16.436  47.777  1.00  0.00     0.191 C 
BRANCH  14  15
ATOM     15  O   UNL     1      28.906  16.581  46.546  1.00  0.00    -0.394 OA
ATOM     16  H   UNL     1      28.376  17.231  46.014  1.00  0.00     0.210 HD
ENDBRANCH  14  15
ENDBRANCH   5  14
BRANCH   4  17
ATOM     17  O   UNL     1      31.415  14.878  49.100  1.00  0.00    -0.387 OA
ATOM     18  H   UNL     1      31.941  14.072  48.860  1.00  0.00     0.211 HD
ENDBRANCH   4  17
TORSDOF 7
ENDMDL
MODEL 3
REMARK VINA RESULT:    -2.794      1.202      3.211
REMARK INTER + INTRA:          -4.078
REMARK INTER:                  -3.680
REMARK INTRA:                  -0.398
REMARK UNBOUND:                -0.468
REMARK SMILES CCO[C@@H]1O[C@H](CO)[C@@H](O)[C@H](O)[C@H]1O
REMARK SMILES IDX 4 1 13 2 11 3 9 4 6 5 5 6 3 7 2 8 1 9 14 10 12 12 7 14 8 15
REMARK SMILES IDX 10 17
REMARK H PARENT 14 11 12 13 8 16 10 18
REMARK Flexibility Score: inf
ROOT
ATOM      1  C   UNL     1      30.031  -0.881  40.357  1.00  0.00     0.281 C 
ATOM      2  C   UNL     1      28.787  -0.691  39.457  1.00  0.00     0.202 C 
ATOM      3  C   UNL     1      28.821   0.652  38.713  1.00  0.00     0.179 C 
ATOM      4  C   UNL     1      30.188   0.887  38.043  1.00  0.00     0.177 C 
ATOM      5  C   UNL     1      31.374   0.550  38.986  1.00  0.00     0.178 C 
ATOM      6  O   UNL     1      31.244  -0.709  39.638  1.00  0.00    -0.341 OA
ENDROOT
BRANCH   1   7
ATOM      7  O   UNL     1      29.989  -0.002  41.472  1.00  0.00    -0.350 OA
BRANCH   7   8
ATOM      8  C   UNL     1      29.971  -0.717  42.689  1.00  0.00     0.160 C 
ATOM      9  C   UNL     1      28.549  -0.742  43.229  1.00  0.00     0.035 C 
ENDBRANCH   7   8
ENDBRANCH   1   7
BRANCH   2  10
ATOM     10  O   UNL     1      28.634  -1.762  38.555  1.00  0.00    -0.385 OA
ATOM     11  H   UNL     1      27.716  -1.729  38.181  1.00  0.00     0.211 HD
ENDBRANCH   2  10
BRANCH   3  12
ATOM     12  O   UNL     1      28.531   1.691  39.615  1.00  0.00    -0.387 OA
ATOM     13  H   UNL     1      27.674   2.098  39.321  1.00  0.00     0.211 HD
ENDBRANCH   3  12
BRANCH   5  14
ATOM     14  C   UNL     1      31.738   1.692  39.962  1.00  0.00     0.191 C 
BRANCH  14  15
ATOM     15  O   UNL     1      31.103   2.884  39.585  1.00  0.00    -0.394 OA
ATOM     16  H   UNL     1      30.226   2.901  40.050  1.00  0.00     0.210 HD
ENDBRANCH  14  15
ENDBRANCH   5  14
BRANCH   4  17
ATOM     17  O   UNL     1      30.267   0.102  36.879  1.00  0.00    -0.387 OA
ATOM     18  H   UNL     1      30.488   0.714  36.129  1.00  0.00     0.211 HD
ENDBRANCH   4  17
TORSDOF 7
ENDMDL
MODEL 4
REMARK VINA RESULT:    -2.700     15.607     17.169
REMARK INTER + INTRA:          -3.957
REMARK INTER:                  -3.707
REMARK INTRA:                  -0.250
REMARK UNBOUND:                -0.468
REMARK SMILES CCO[C@@H]1O[C@H](CO)[C@@H](O)[C@H](O)[C@H]1O
REMARK SMILES IDX 4 1 13 2 11 3 9 4 6 5 5 6 3 7 2 8 1 9 14 10 12 12 7 14 8 15
REMARK SMILES IDX 10 17
REMARK H PARENT 14 11 12 13 8 16 10 18
REMARK Flexibility Score: inf
ROOT
ATOM      1  C   UNL     1      30.460  15.169  49.645  1.00  0.00     0.281 C 
ATOM      2  C   UNL     1      29.057  15.504  49.084  1.00  0.00     0.202 C 
ATOM      3  C   UNL     1      28.728  14.669  47.838  1.00  0.00     0.179 C 
ATOM      4  C   UNL     1      29.030  13.176  48.067  1.00  0.00     0.177 C 
ATOM      5  C   UNL     1      30.407  12.951  48.748  1.00  0.00     0.178 C 
ATOM      6  O   UNL     1      30.623  13.778  49.886  1.00  0.00    -0.341 OA
ENDROOT
BRANCH   1   7
ATOM      7  O   UNL     1      31.480  15.643  48.777  1.00  0.00    -0.350 OA
BRANCH   7   8
ATOM      8  C   UNL     1      31.885  16.949  49.126  1.00  0.00     0.160 C 
ATOM      9  C   UNL     1      31.771  17.848  47.904  1.00  0.00     0.035 C 
ENDBRANCH   7   8
ENDBRANCH   1   7
BRANCH   2  10
ATOM     10  O   UNL     1      28.060  15.356  50.067  1.00  0.00    -0.385 OA
ATOM     11  H   UNL     1      27.173  15.445  49.631  1.00  0.00     0.211 HD
ENDBRANCH   2  10
BRANCH   3  12
ATOM     12  O   UNL     1      29.463  15.157  46.743  1.00  0.00    -0.387 OA
ATOM     13  H   UNL     1      29.004  14.838  45.922  1.00  0.00     0.211 HD
ENDBRANCH   3  12
BRANCH   5  14
ATOM     14  C   UNL     1      31.599  12.966  47.764  1.00  0.00     0.191 C 
BRANCH  14  15
ATOM     15  O   UNL     1      31.617  11.793  46.993  1.00  0.00    -0.394 OA
ATOM     16  H   UNL     1      32.571  11.574  46.828  1.00  0.00     0.210 HD
ENDBRANCH  14  15
ENDBRANCH   5  14
BRANCH   4  17
ATOM     17  O   UNL     1      28.011  12.619  48.859  1.00  0.00    -0.387 OA
ATOM     18  H   UNL     1      27.272  13.281  48.892  1.00  0.00     0.211 HD
ENDBRANCH   4  17
TORSDOF 7
ENDMDL
MODEL 5
REMARK VINA RESULT:    -2.551      1.376      2.793
REMARK INTER + INTRA:          -3.764
REMARK INTER:                  -3.366
REMARK INTRA:                  -0.398
REMARK UNBOUND:                -0.468
REMARK SMILES CCO[C@@H]1O[C@H](CO)[C@@H](O)[C@H](O)[C@H]1O
REMARK SMILES IDX 4 1 13 2 11 3 9 4 6 5 5 6 3 7 2 8 1 9 14 10 12 12 7 14 8 15
REMARK SMILES IDX 10 17
REMARK H PARENT 14 11 12 13 8 16 10 18
REMARK Flexibility Score: inf
ROOT
ATOM      1  C   UNL     1      29.205  -0.466  40.531  1.00  0.00     0.281 C 
ATOM      2  C   UNL     1      30.419  -0.626  41.477  1.00  0.00     0.202 C 
ATOM      3  C   UNL     1      31.739  -0.278  40.773  1.00  0.00     0.179 C 
ATOM      4  C   UNL     1      31.636   1.061  40.020  1.00  0.00     0.177 C 
ATOM      5  C   UNL     1      30.325   1.177  39.198  1.00  0.00     0.178 C 
ATOM      6  O   UNL     1      29.158   0.822  39.932  1.00  0.00    -0.341 OA
ENDROOT
BRANCH   1   7
ATOM      7  O   UNL     1      29.204  -1.475  39.531  1.00  0.00    -0.350 OA
BRANCH   7   8
ATOM      8  C   UNL     1      27.942  -2.101  39.434  1.00  0.00     0.160 C 
ATOM      9  C   UNL     1      27.292  -2.125  40.808  1.00  0.00     0.035 C 
ENDBRANCH   7   8
ENDBRANCH   1   7
BRANCH   2  10
ATOM     10  O   UNL     1      30.261   0.131  42.653  1.00  0.00    -0.385 OA
ATOM     11  H   UNL     1      29.309   0.404  42.725  1.00  0.00     0.211 HD
ENDBRANCH   2  10
BRANCH   3  12
ATOM     12  O   UNL     1      32.082  -1.315  39.889  1.00  0.00    -0.387 OA
ATOM     13  H   UNL     1      32.481  -2.042  40.436  1.00  0.00     0.211 HD
ENDBRANCH   3  12
BRANCH   5  14
ATOM     14  C   UNL     1      30.392   0.488  37.816  1.00  0.00     0.191 C 
BRANCH  14  15
ATOM     15  O   UNL     1      29.116   0.419  37.236  1.00  0.00    -0.394 OA
ATOM     16  H   UNL     1      29.249   0.203  36.276  1.00  0.00     0.210 HD
ENDBRANCH  14  15
ENDBRANCH   5  14
BRANCH   4  17
ATOM     17  O   UNL     1      31.711   2.115  40.947  1.00  0.00    -0.387 OA
ATOM     18  H   UNL     1      31.547   1.726  41.845  1.00  0.00     0.211 HD
ENDBRANCH   4  17
TORSDOF 7
ENDMDL
MODEL 6
REMARK VINA RESULT:    -2.429     16.337     17.804
REMARK INTER + INTRA:          -3.606
REMARK INTER:                  -3.265
REMARK INTRA:                  -0.341
REMARK UNBOUND:                -0.468
REMARK SMILES CCO[C@@H]1O[C@H](CO)[C@@H](O)[C@H](O)[C@H]1O
REMARK SMILES IDX 4 1 13 2 11 3 9 4 6 5 5 6 3 7 2 8 1 9 14 10 12 12 7 14 8 15
REMARK SMILES IDX 10 17
REMARK H PARENT 14 11 12 13 8 16 10 18
REMARK Flexibility Score: inf
ROOT
ATOM      1  C   UNL     1      28.768  15.161  47.755  1.00  0.00     0.281 C 
ATOM      2  C   UNL     1      28.961  16.697  47.737  1.00  0.00     0.202 C 
ATOM      3  C   UNL     1      29.903  17.165  48.856  1.00  0.00     0.179 C 
ATOM      4  C   UNL     1      31.189  16.319  48.897  1.00  0.00     0.177 C 
ATOM      5  C   UNL     1      30.898  14.798  48.784  1.00  0.00     0.178 C 
ATOM      6  O   UNL     1      30.007  14.465  47.726  1.00  0.00    -0.341 OA
ENDROOT
BRANCH   1   7
ATOM      7  O   UNL     1      28.002  14.759  48.881  1.00  0.00    -0.350 OA
BRANCH   7   8
ATOM      8  C   UNL     1      27.224  13.617  48.593  1.00  0.00     0.160 C 
ATOM      9  C   UNL     1      25.785  13.878  49.009  1.00  0.00     0.035 C 
ENDBRANCH   7   8
ENDBRANCH   1   7
BRANCH   2  10
ATOM     10  O   UNL     1      29.410  17.146  46.480  1.00  0.00    -0.385 OA
ATOM     11  H   UNL     1      29.495  16.362  45.878  1.00  0.00     0.211 HD
ENDBRANCH   2  10
BRANCH   3  12
ATOM     12  O   UNL     1      29.230  17.099  50.088  1.00  0.00    -0.387 OA
ATOM     13  H   UNL     1      28.441  17.698  50.019  1.00  0.00     0.211 HD
ENDBRANCH   3  12
BRANCH   5  14
ATOM     14  C   UNL     1      30.507  14.137  50.125  1.00  0.00     0.191 C 
BRANCH  14  15
ATOM     15  O   UNL     1      30.247  12.770  49.943  1.00  0.00    -0.394 OA
ATOM     16  H   UNL     1      30.333  12.589  48.970  1.00  0.00     0.210 HD
ENDBRANCH  14  15
ENDBRANCH   5  14
BRANCH   4  17
ATOM     17  O   UNL     1      32.035  16.721  47.850  1.00  0.00    -0.387 OA
ATOM     18  H   UNL     1      31.462  16.883  47.056  1.00  0.00     0.211 HD
ENDBRANCH   4  17
TORSDOF 7
ENDMDL
MODEL 7
REMARK VINA RESULT:    -2.411     16.308     17.834
REMARK INTER + INTRA:          -3.583
REMARK INTER:                  -3.176
REMARK INTRA:                  -0.407
REMARK UNBOUND:                -0.468
REMARK SMILES CCO[C@@H]1O[C@H](CO)[C@@H](O)[C@H](O)[C@H]1O
REMARK SMILES IDX 4 1 13 2 11 3 9 4 6 5 5 6 3 7 2 8 1 9 14 10 12 12 7 14 8 15
REMARK SMILES IDX 10 17
REMARK H PARENT 14 11 12 13 8 16 10 18
REMARK Flexibility Score: inf
ROOT
ATOM      1  C   UNL     1      29.186  15.439  47.619  1.00  0.00     0.281 C 
ATOM      2  C   UNL     1      29.330  13.903  47.736  1.00  0.00     0.202 C 
ATOM      3  C   UNL     1      28.650  13.362  49.003  1.00  0.00     0.179 C 
ATOM      4  C   UNL     1      27.225  13.925  49.158  1.00  0.00     0.177 C 
ATOM      5  C   UNL     1      27.164  15.455  48.899  1.00  0.00     0.178 C 
ATOM      6  O   UNL     1      27.831  15.859  47.709  1.00  0.00    -0.341 OA
ENDROOT
BRANCH   1   7
ATOM      7  O   UNL     1      29.974  16.099  48.600  1.00  0.00    -0.350 OA
BRANCH   7   8
ATOM      8  C   UNL     1      30.670  17.196  48.048  1.00  0.00     0.160 C 
ATOM      9  C   UNL     1      32.016  17.330  48.743  1.00  0.00     0.035 C 
ENDBRANCH   7   8
ENDBRANCH   1   7
BRANCH   2  10
ATOM     10  O   UNL     1      28.845  13.250  46.587  1.00  0.00    -0.385 OA
ATOM     11  H   UNL     1      29.333  12.393  46.483  1.00  0.00     0.211 HD
ENDBRANCH   2  10
BRANCH   3  12
ATOM     12  O   UNL     1      29.433  13.686  50.125  1.00  0.00    -0.387 OA
ATOM     13  H   UNL     1      28.998  13.263  50.912  1.00  0.00     0.211 HD
ENDBRANCH   3  12
BRANCH   5  14
ATOM     14  C   UNL     1      27.557  16.311  50.125  1.00  0.00     0.191 C 
BRANCH  14  15
ATOM     15  O   UNL     1      27.618  17.669  49.778  1.00  0.00    -0.394 OA
ATOM     16  H   UNL     1      28.334  17.759  49.096  1.00  0.00     0.210 HD
ENDBRANCH  14  15
ENDBRANCH   5  14
BRANCH   4  17
ATOM     17  O   UNL     1      26.369  13.257  48.266  1.00  0.00    -0.387 OA
ATOM     18  H   UNL     1      26.383  12.296  48.513  1.00  0.00     0.211 HD
ENDBRANCH   4  17
TORSDOF 7
ENDMDL
MODEL 8
REMARK VINA RESULT:    -0.593      1.414      2.786
REMARK INTER + INTRA:          -1.234
REMARK INTER:                  -1.059
REMARK INTRA:                  -0.174
REMARK UNBOUND:                -0.468
REMARK SMILES CCO[C@@H]1O[C@H](CO)[C@@H](O)[C@H](O)[C@H]1O
REMARK SMILES IDX 4 1 13 2 11 3 9 4 6 5 5 6 3 7 2 8 1 9 14 10 12 12 7 14 8 15
REMARK SMILES IDX 10 17
REMARK H PARENT 14 11 12 13 8 16 10 18
REMARK Flexibility Score: inf
ROOT
ATOM      1  C   UNL     1      29.363  -0.351  40.004  1.00  0.00     0.281 C 
ATOM      2  C   UNL     1      29.422   0.878  39.066  1.00  0.00     0.202 C 
ATOM      3  C   UNL     1      30.768   1.611  39.172  1.00  0.00     0.179 C 
ATOM      4  C   UNL     1      31.950   0.628  39.080  1.00  0.00     0.177 C 
ATOM      5  C   UNL     1      31.739  -0.632  39.962  1.00  0.00     0.178 C 
ATOM      6  O   UNL     1      30.459  -1.233  39.802  1.00  0.00    -0.341 OA
ENDROOT
BRANCH   1   7
ATOM      7  O   UNL     1      29.297   0.051  41.364  1.00  0.00    -0.350 OA
BRANCH   7   8
ATOM      8  C   UNL     1      28.280  -0.642  42.057  1.00  0.00     0.160 C 
ATOM      9  C   UNL     1      28.602  -0.639  43.543  1.00  0.00     0.035 C 
ENDBRANCH   7   8
ENDBRANCH   1   7
BRANCH   2  10
ATOM     10  O   UNL     1      29.146   0.523  37.732  1.00  0.00    -0.385 OA
ATOM     11  H   UNL     1      29.089  -0.465  37.675  1.00  0.00     0.211 HD
ENDBRANCH   2  10
BRANCH   3  12
ATOM     12  O   UNL     1      30.815   2.325  40.382  1.00  0.00    -0.387 OA
ATOM     13  H   UNL     1      29.990   2.095  40.885  1.00  0.00     0.211 HD
ENDBRANCH   3  12
BRANCH   5  14
ATOM     14  C   UNL     1      32.121  -0.426  41.446  1.00  0.00     0.191 C 
BRANCH  14  15
ATOM     15  O   UNL     1      31.492  -1.385  42.254  1.00  0.00    -0.394 OA
ATOM     16  H   UNL     1      31.238  -0.927  43.098  1.00  0.00     0.210 HD
ENDBRANCH  14  15
ENDBRANCH   5  14
BRANCH   4  17
ATOM     17  O   UNL     1      32.125   0.246  37.739  1.00  0.00    -0.387 OA
ATOM     18  H   UNL     1      31.953  -0.730  37.688  1.00  0.00     0.211 HD
ENDBRANCH   4  17
TORSDOF 7
ENDMDL
