MODEL 1
REMARK VINA RESULT:    -3.960      0.000      0.000
REMARK INTER + INTRA:          -5.044
REMARK INTER:                  -4.886
REMARK INTRA:                  -0.157
REMARK UNBOUND:                -0.157
REMARK SMILES CCCCC=CC(C)=O
REMARK SMILES IDX 4 1 3 2 2 3 1 4 5 5 6 6 7 7 9 8 8 9
REMARK H PARENT
REMARK Flexibility Score: inf
ROOT
ATOM      1  C   UNL     1     141.748 156.258 202.281  1.00  0.00     0.027 C 
ENDROOT
BRANCH   1   2
ATOM      2  C   UNL     1     142.073 155.818 203.716  1.00  0.00     0.004 C 
BRANCH   2   3
ATOM      3  C   UNL     1     142.738 156.934 204.538  1.00  0.00    -0.003 C 
ATOM      4  C   UNL     1     143.104 156.488 205.954  1.00  0.00     0.004 C 
ENDBRANCH   2   3
ENDBRANCH   1   2
BRANCH   1   5
ATOM      5  C   UNL     1     141.801 155.095 201.332  1.00  0.00    -0.023 C 
ATOM      6  C   UNL     1     142.283 153.906 201.710  1.00  0.00     0.042 C 
BRANCH   6   7
ATOM      7  C   UNL     1     142.330 152.747 200.799  1.00  0.00     0.152 C 
ATOM      8  O   UNL     1     141.271 152.157 200.450  1.00  0.00    -0.295 OA
ATOM      9  C   UNL     1     143.646 152.268 200.279  1.00  0.00     0.093 C 
ENDBRANCH   6   7
ENDBRANCH   1   5
TORSDOF 4
ENDMDL
MODEL 2
REMARK VINA RESULT:    -3.817      2.439      5.189
REMARK INTER + INTRA:          -4.867
REMARK INTER:                  -4.722
REMARK INTRA:                  -0.145
REMARK UNBOUND:                -0.157
REMARK SMILES CCCCC=CC(C)=O
REMARK SMILES IDX 4 1 3 2 2 3 1 4 5 5 6 6 7 7 9 8 8 9
REMARK H PARENT
REMARK Flexibility Score: inf
ROOT
ATOM      1  C   UNL     1     141.632 155.085 201.297  1.00  0.00     0.027 C 
ENDROOT
BRANCH   1   2
ATOM      2  C   UNL     1     142.339 153.753 201.589  1.00  0.00     0.004 C 
BRANCH   2   3
ATOM      3  C   UNL     1     141.798 152.599 200.731  1.00  0.00    -0.003 C 
ATOM      4  C   UNL     1     142.905 151.820 200.021  1.00  0.00     0.004 C 
ENDBRANCH   2   3
ENDBRANCH   1   2
BRANCH   1   5
ATOM      5  C   UNL     1     141.721 156.015 202.473  1.00  0.00    -0.023 C 
ATOM      6  C   UNL     1     142.475 155.725 203.539  1.00  0.00     0.042 C 
BRANCH   6   7
ATOM      7  C   UNL     1     142.587 156.630 204.698  1.00  0.00     0.152 C 
ATOM      8  O   UNL     1     142.696 157.876 204.535  1.00  0.00    -0.295 OA
ATOM      9  C   UNL     1     142.566 156.067 206.082  1.00  0.00     0.093 C 
ENDBRANCH   6   7
ENDBRANCH   1   5
TORSDOF 4
ENDMDL
MODEL 3
REMARK VINA RESULT:    -3.324      2.004      5.105
REMARK INTER + INTRA:          -4.259
REMARK INTER:                  -3.983
REMARK INTRA:                  -0.276
REMARK UNBOUND:                -0.157
REMARK SMILES CCCCC=CC(C)=O
REMARK SMILES IDX 4 1 3 2 2 3 1 4 5 5 6 6 7 7 9 8 8 9
REMARK H PARENT
REMARK Flexibility Score: inf
ROOT
ATOM      1  C   UNL     1     143.049 151.996 201.611  1.00  0.00     0.027 C 
ENDROOT
BRANCH   1   2
ATOM      2  C   UNL     1     142.763 151.950 200.102  1.00  0.00     0.004 C 
BRANCH   2   3
ATOM      3  C   UNL     1     143.978 151.484 199.285  1.00  0.00    -0.003 C 
ATOM      4  C   UNL     1     145.137 152.479 199.331  1.00  0.00     0.004 C 
ENDBRANCH   2   3
ENDBRANCH   1   2
BRANCH   1   5
ATOM      5  C   UNL     1     142.838 153.377 202.161  1.00  0.00    -0.023 C 
ATOM      6  C   UNL     1     142.102 154.284 201.509  1.00  0.00     0.042 C 
BRANCH   6   7
ATOM      7  C   UNL     1     141.869 155.641 202.039  1.00  0.00     0.152 C 
ATOM      8  O   UNL     1     141.772 156.629 201.261  1.00  0.00    -0.295 OA
ATOM      9  C   UNL     1     141.744 155.849 203.513  1.00  0.00     0.093 C 
ENDBRANCH   6   7
ENDBRANCH   1   5
TORSDOF 4
ENDMDL
MODEL 4
REMARK VINA RESULT:    -3.294     12.666     13.276
REMARK INTER + INTRA:          -4.221
REMARK INTER:                  -3.926
REMARK INTRA:                  -0.295
REMARK UNBOUND:                -0.157
REMARK SMILES CCCCC=CC(C)=O
REMARK SMILES IDX 4 1 3 2 2 3 1 4 5 5 6 6 7 7 9 8 8 9
REMARK H PARENT
REMARK Flexibility Score: inf
ROOT
ATOM      1  C   UNL     1     152.257 161.127 200.366  1.00  0.00     0.027 C 
ENDROOT
BRANCH   1   2
ATOM      2  C   UNL     1     151.976 161.434 201.844  1.00  0.00     0.004 C 
BRANCH   2   3
ATOM      3  C   UNL     1     150.936 160.482 202.457  1.00  0.00    -0.003 C 
ATOM      4  C   UNL     1     151.568 159.231 203.067  1.00  0.00     0.004 C 
ENDBRANCH   2   3
ENDBRANCH   1   2
BRANCH   1   5
ATOM      5  C   UNL     1     153.702 160.777 200.151  1.00  0.00    -0.023 C 
ATOM      6  C   UNL     1     154.536 160.586 201.178  1.00  0.00     0.042 C 
BRANCH   6   7
ATOM      7  C   UNL     1     155.954 160.228 200.989  1.00  0.00     0.152 C 
ATOM      8  O   UNL     1     156.518 159.399 201.755  1.00  0.00    -0.295 OA
ATOM      9  C   UNL     1     156.733 160.850 199.876  1.00  0.00     0.093 C 
ENDBRANCH   6   7
ENDBRANCH   1   5
TORSDOF 4
ENDMDL
MODEL 5
REMARK VINA RESULT:    -3.277      1.409      2.443
REMARK INTER + INTRA:          -4.201
REMARK INTER:                  -4.007
REMARK INTRA:                  -0.194
REMARK UNBOUND:                -0.157
REMARK SMILES CCCCC=CC(C)=O
REMARK SMILES IDX 4 1 3 2 2 3 1 4 5 5 6 6 7 7 9 8 8 9
REMARK H PARENT
REMARK Flexibility Score: inf
ROOT
ATOM      1  C   UNL     1     142.472 153.906 202.119  1.00  0.00     0.027 C 
ENDROOT
BRANCH   1   2
ATOM      2  C   UNL     1     141.782 154.978 201.261  1.00  0.00     0.004 C 
BRANCH   2   3
ATOM      3  C   UNL     1     141.787 156.361 201.930  1.00  0.00    -0.003 C 
ATOM      4  C   UNL     1     142.062 156.291 203.432  1.00  0.00     0.004 C 
ENDBRANCH   2   3
ENDBRANCH   1   2
BRANCH   1   5
ATOM      5  C   UNL     1     142.677 152.638 201.340  1.00  0.00    -0.023 C 
ATOM      6  C   UNL     1     141.750 152.182 200.491  1.00  0.00     0.042 C 
BRANCH   6   7
ATOM      7  C   UNL     1     141.937 150.947 199.706  1.00  0.00     0.152 C 
ATOM      8  O   UNL     1     140.991 150.126 199.561  1.00  0.00    -0.295 OA
ATOM      9  C   UNL     1     143.261 150.667 199.072  1.00  0.00     0.093 C 
ENDBRANCH   6   7
ENDBRANCH   1   5
TORSDOF 4
ENDMDL
MODEL 6
REMARK VINA RESULT:    -3.241      2.119      5.115
REMARK INTER + INTRA:          -4.157
REMARK INTER:                  -3.961
REMARK INTRA:                  -0.196
REMARK UNBOUND:                -0.157
REMARK SMILES CCCCC=CC(C)=O
REMARK SMILES IDX 4 1 3 2 2 3 1 4 5 5 6 6 7 7 9 8 8 9
REMARK H PARENT
REMARK Flexibility Score: inf
ROOT
ATOM      1  C   UNL     1     142.792 152.581 200.943  1.00  0.00     0.027 C 
ENDROOT
BRANCH   1   2
ATOM      2  C   UNL     1     141.762 151.767 200.145  1.00  0.00     0.004 C 
BRANCH   2   3
ATOM      3  C   UNL     1     141.139 150.631 200.971  1.00  0.00    -0.003 C 
ATOM      4  C   UNL     1     142.180 149.826 201.749  1.00  0.00     0.004 C 
ENDBRANCH   2   3
ENDBRANCH   1   2
BRANCH   1   5
ATOM      5  C   UNL     1     142.178 153.834 201.499  1.00  0.00    -0.023 C 
ATOM      6  C   UNL     1     142.559 154.336 202.678  1.00  0.00     0.042 C 
BRANCH   6   7
ATOM      7  C   UNL     1     141.980 155.573 203.235  1.00  0.00     0.152 C 
ATOM      8  O   UNL     1     141.009 156.143 202.666  1.00  0.00    -0.295 OA
ATOM      9  C   UNL     1     142.546 156.156 204.489  1.00  0.00     0.093 C 
ENDBRANCH   6   7
ENDBRANCH   1   5
TORSDOF 4
ENDMDL
MODEL 7
REMARK VINA RESULT:    -3.166     10.692     11.197
REMARK INTER + INTRA:          -4.064
REMARK INTER:                  -3.792
REMARK INTRA:                  -0.272
REMARK UNBOUND:                -0.157
REMARK SMILES CCCCC=CC(C)=O
REMARK SMILES IDX 4 1 3 2 2 3 1 4 5 5 6 6 7 7 9 8 8 9
REMARK H PARENT
REMARK Flexibility Score: inf
ROOT
ATOM      1  C   UNL     1     152.828 160.807 200.796  1.00  0.00     0.027 C 
ENDROOT
BRANCH   1   2
ATOM      2  C   UNL     1     152.279 161.590 201.998  1.00  0.00     0.004 C 
BRANCH   2   3
ATOM      3  C   UNL     1     151.206 160.808 202.771  1.00  0.00    -0.003 C 
ATOM      4  C   UNL     1     151.553 159.328 202.930  1.00  0.00     0.004 C 
ENDBRANCH   2   3
ENDBRANCH   1   2
BRANCH   1   5
ATOM      5  C   UNL     1     151.991 161.039 199.570  1.00  0.00    -0.023 C 
ATOM      6  C   UNL     1     151.091 160.140 199.158  1.00  0.00     0.042 C 
BRANCH   6   7
ATOM      7  C   UNL     1     150.249 160.355 197.966  1.00  0.00     0.152 C 
ATOM      8  O   UNL     1     149.275 159.592 197.718  1.00  0.00    -0.295 OA
ATOM      9  C   UNL     1     150.549 161.490 197.042  1.00  0.00     0.093 C 
ENDBRANCH   6   7
ENDBRANCH   1   5
TORSDOF 4
ENDMDL
MODEL 8
REMARK VINA RESULT:    -3.139      1.150      1.326
REMARK INTER + INTRA:          -4.030
REMARK INTER:                  -3.863
REMARK INTRA:                  -0.168
REMARK UNBOUND:                -0.157
REMARK SMILES CCCCC=CC(C)=O
REMARK SMILES IDX 4 1 3 2 2 3 1 4 5 5 6 6 7 7 9 8 8 9
REMARK H PARENT
REMARK Flexibility Score: inf
ROOT
ATOM      1  C   UNL     1     141.799 156.342 202.562  1.00  0.00     0.027 C 
ENDROOT
BRANCH   1   2
ATOM      2  C   UNL     1     142.489 156.921 203.806  1.00  0.00     0.004 C 
BRANCH   2   3
ATOM      3  C   UNL     1     142.116 156.165 205.091  1.00  0.00    -0.003 C 
ATOM      4  C   UNL     1     143.243 156.165 206.125  1.00  0.00     0.004 C 
ENDBRANCH   2   3
ENDBRANCH   1   2
BRANCH   1   5
ATOM      5  C   UNL     1     142.092 154.877 202.412  1.00  0.00    -0.023 C 
ATOM      6  C   UNL     1     142.086 154.281 201.214  1.00  0.00     0.042 C 
BRANCH   6   7
ATOM      7  C   UNL     1     142.385 152.847 201.043  1.00  0.00     0.152 C 
ATOM      8  O   UNL     1     143.474 152.362 201.457  1.00  0.00    -0.295 OA
ATOM      9  C   UNL     1     141.387 151.957 200.378  1.00  0.00     0.093 C 
ENDBRANCH   6   7
ENDBRANCH   1   5
TORSDOF 4
ENDMDL
MODEL 9
REMARK VINA RESULT:    -3.039     10.736     11.450
REMARK INTER + INTRA:          -3.907
REMARK INTER:                  -3.650
REMARK INTRA:                  -0.257
REMARK UNBOUND:                -0.157
REMARK SMILES CCCCC=CC(C)=O
REMARK SMILES IDX 4 1 3 2 2 3 1 4 5 5 6 6 7 7 9 8 8 9
REMARK H PARENT
REMARK Flexibility Score: inf
ROOT
ATOM      1  C   UNL     1     150.897 160.327 202.132  1.00  0.00     0.027 C 
ENDROOT
BRANCH   1   2
ATOM      2  C   UNL     1     151.886 161.439 201.748  1.00  0.00     0.004 C 
BRANCH   2   3
ATOM      3  C   UNL     1     152.720 161.082 200.508  1.00  0.00    -0.003 C 
ATOM      4  C   UNL     1     154.164 160.714 200.851  1.00  0.00     0.004 C 
ENDBRANCH   2   3
ENDBRANCH   1   2
BRANCH   1   5
ATOM      5  C   UNL     1     151.497 159.396 203.146  1.00  0.00    -0.023 C 
ATOM      6  C   UNL     1     151.898 158.164 202.814  1.00  0.00     0.042 C 
BRANCH   6   7
ATOM      7  C   UNL     1     152.502 157.239 203.791  1.00  0.00     0.152 C 
ATOM      8  O   UNL     1     152.690 157.596 204.986  1.00  0.00    -0.295 OA
ATOM      9  C   UNL     1     152.892 155.862 203.363  1.00  0.00     0.093 C 
ENDBRANCH   6   7
ENDBRANCH   1   5
TORSDOF 4
ENDMDL
