MODEL 1
REMARK VINA RESULT:    -3.473      0.000      0.000
REMARK INTER + INTRA:          -3.799
REMARK INTER:                  -3.778
REMARK INTRA:                  -0.021
REMARK UNBOUND:                -0.021
REMARK SMILES OCc1ccco1
REMARK SMILES IDX 2 1 3 2 5 3 6 4 4 5 7 6 1 7
REMARK H PARENT 1 8
REMARK Flexibility Score: inf
ROOT
ATOM      1  C   UNL     1      30.080 -20.232 -36.928  1.00  0.00     0.231 C 
ENDROOT
BRANCH   1   2
ATOM      2  C   UNL     1      29.168 -21.092 -36.112  1.00  0.00     0.129 A 
ATOM      3  C   UNL     1      28.281 -22.237 -34.462  1.00  0.00     0.042 A 
ATOM      4  C   UNL     1      27.457 -22.242 -35.570  1.00  0.00     0.195 A 
ATOM      5  C   UNL     1      29.387 -21.491 -34.809  1.00  0.00     0.048 A 
ATOM      6  O   UNL     1      28.013 -21.547 -36.538  1.00  0.00    -0.467 OA
ENDBRANCH   1   2
BRANCH   1   7
ATOM      7  O   UNL     1      29.403 -19.744 -38.053  1.00  0.00    -0.388 OA
ATOM      8  H   UNL     1      28.452 -20.006 -37.947  1.00  0.00     0.211 HD
ENDBRANCH   1   7
TORSDOF 2
ENDMDL
MODEL 2
REMARK VINA RESULT:    -3.150      5.081      5.923
REMARK INTER + INTRA:          -3.447
REMARK INTER:                  -3.431
REMARK INTRA:                  -0.016
REMARK UNBOUND:                -0.021
REMARK SMILES OCc1ccco1
REMARK SMILES IDX 2 1 3 2 5 3 6 4 4 5 7 6 1 7
REMARK H PARENT 1 8
REMARK Flexibility Score: inf
ROOT
ATOM      1  C   UNL     1      28.032 -20.562 -31.778  1.00  0.00     0.231 C 
ENDROOT
BRANCH   1   2
ATOM      2  C   UNL     1      28.297 -21.477 -30.625  1.00  0.00     0.129 A 
ATOM      3  C   UNL     1      29.022 -22.302 -28.723  1.00  0.00     0.042 A 
ATOM      4  C   UNL     1      28.181 -23.190 -29.363  1.00  0.00     0.195 A 
ATOM      5  C   UNL     1      29.096 -21.191 -29.537  1.00  0.00     0.048 A 
ATOM      6  O   UNL     1      27.762 -22.668 -30.494  1.00  0.00    -0.467 OA
ENDBRANCH   1   2
BRANCH   1   7
ATOM      7  O   UNL     1      28.446 -19.261 -31.466  1.00  0.00    -0.388 OA
ATOM      8  H   UNL     1      27.845 -18.938 -30.745  1.00  0.00     0.211 HD
ENDBRANCH   1   7
TORSDOF 2
ENDMDL
MODEL 3
REMARK VINA RESULT:    -3.147      1.945      2.867
REMARK INTER + INTRA:          -3.445
REMARK INTER:                  -3.430
REMARK INTRA:                  -0.015
REMARK UNBOUND:                -0.021
REMARK SMILES OCc1ccco1
REMARK SMILES IDX 2 1 3 2 5 3 6 4 4 5 7 6 1 7
REMARK H PARENT 1 8
REMARK Flexibility Score: inf
ROOT
ATOM      1  C   UNL     1      26.131 -22.423 -36.694  1.00  0.00     0.231 C 
ENDROOT
BRANCH   1   2
ATOM      2  C   UNL     1      27.409 -22.020 -36.031  1.00  0.00     0.129 A 
ATOM      3  C   UNL     1      29.436 -21.256 -35.667  1.00  0.00     0.042 A 
ATOM      4  C   UNL     1      28.824 -21.627 -34.487  1.00  0.00     0.195 A 
ATOM      5  C   UNL     1      28.521 -21.506 -36.668  1.00  0.00     0.048 A 
ATOM      6  O   UNL     1      27.614 -22.077 -34.736  1.00  0.00    -0.467 OA
ENDBRANCH   1   2
BRANCH   1   7
ATOM      7  O   UNL     1      26.359 -22.712 -38.046  1.00  0.00    -0.388 OA
ATOM      8  H   UNL     1      27.341 -22.660 -38.185  1.00  0.00     0.211 HD
ENDBRANCH   1   7
TORSDOF 2
ENDMDL
MODEL 4
REMARK VINA RESULT:    -3.082      2.952      3.952
REMARK INTER + INTRA:          -3.373
REMARK INTER:                  -3.361
REMARK INTRA:                  -0.013
REMARK UNBOUND:                -0.021
REMARK SMILES OCc1ccco1
REMARK SMILES IDX 2 1 3 2 5 3 6 4 4 5 7 6 1 7
REMARK H PARENT 1 8
REMARK Flexibility Score: inf
ROOT
ATOM      1  C   UNL     1      28.236 -20.575 -31.580  1.00  0.00     0.231 C 
ENDROOT
BRANCH   1   2
ATOM      2  C   UNL     1      28.981 -21.149 -32.742  1.00  0.00     0.129 A 
ATOM      3  C   UNL     1      30.550 -22.025 -34.005  1.00  0.00     0.042 A 
ATOM      4  C   UNL     1      29.359 -21.916 -34.694  1.00  0.00     0.195 A 
ATOM      5  C   UNL     1      30.307 -21.532 -32.740  1.00  0.00     0.048 A 
ATOM      6  O   UNL     1      28.441 -21.393 -33.913  1.00  0.00    -0.467 OA
ENDBRANCH   1   2
BRANCH   1   7
ATOM      7  O   UNL     1      28.395 -19.184 -31.545  1.00  0.00    -0.388 OA
ATOM      8  H   UNL     1      29.368 -19.008 -31.634  1.00  0.00     0.211 HD
ENDBRANCH   1   7
TORSDOF 2
ENDMDL
MODEL 5
REMARK VINA RESULT:    -3.061      3.056      4.081
REMARK INTER + INTRA:          -3.350
REMARK INTER:                  -3.335
REMARK INTRA:                  -0.015
REMARK UNBOUND:                -0.021
REMARK SMILES OCc1ccco1
REMARK SMILES IDX 2 1 3 2 5 3 6 4 4 5 7 6 1 7
REMARK H PARENT 1 8
REMARK Flexibility Score: inf
ROOT
ATOM      1  C   UNL     1      28.576 -20.587 -31.310  1.00  0.00     0.231 C 
ENDROOT
BRANCH   1   2
ATOM      2  C   UNL     1      28.085 -21.332 -32.510  1.00  0.00     0.129 A 
ATOM      3  C   UNL     1      26.833 -22.482 -33.901  1.00  0.00     0.042 A 
ATOM      4  C   UNL     1      28.036 -22.137 -34.483  1.00  0.00     0.195 A 
ATOM      5  C   UNL     1      26.861 -21.959 -32.625  1.00  0.00     0.048 A 
ATOM      6  O   UNL     1      28.761 -21.448 -33.629  1.00  0.00    -0.467 OA
ENDBRANCH   1   2
BRANCH   1   7
ATOM      7  O   UNL     1      28.437 -19.207 -31.510  1.00  0.00    -0.388 OA
ATOM      8  H   UNL     1      28.711 -18.769 -30.662  1.00  0.00     0.211 HD
ENDBRANCH   1   7
TORSDOF 2
ENDMDL
MODEL 6
REMARK VINA RESULT:    -2.870      5.381      6.452
REMARK INTER + INTRA:          -3.143
REMARK INTER:                  -3.129
REMARK INTRA:                  -0.014
REMARK UNBOUND:                -0.021
REMARK SMILES OCc1ccco1
REMARK SMILES IDX 2 1 3 2 5 3 6 4 4 5 7 6 1 7
REMARK H PARENT 1 8
REMARK Flexibility Score: inf
ROOT
ATOM      1  C   UNL     1      29.745 -21.402 -28.724  1.00  0.00     0.231 C 
ENDROOT
BRANCH   1   2
ATOM      2  C   UNL     1      29.120 -21.236 -30.072  1.00  0.00     0.129 A 
ATOM      3  C   UNL     1      27.782 -21.425 -31.804  1.00  0.00     0.042 A 
ATOM      4  C   UNL     1      28.753 -20.470 -32.027  1.00  0.00     0.195 A 
ATOM      5  C   UNL     1      28.015 -21.921 -30.538  1.00  0.00     0.048 A 
ATOM      6  O   UNL     1      29.534 -20.377 -30.974  1.00  0.00    -0.467 OA
ENDBRANCH   1   2
BRANCH   1   7
ATOM      7  O   UNL     1      29.134 -20.544 -27.800  1.00  0.00    -0.388 OA
ATOM      8  H   UNL     1      29.342 -19.619 -28.093  1.00  0.00     0.211 HD
ENDBRANCH   1   7
TORSDOF 2
ENDMDL
MODEL 7
REMARK VINA RESULT:    -2.840      3.500      4.489
REMARK INTER + INTRA:          -3.110
REMARK INTER:                  -3.094
REMARK INTRA:                  -0.016
REMARK UNBOUND:                -0.021
REMARK SMILES OCc1ccco1
REMARK SMILES IDX 2 1 3 2 5 3 6 4 4 5 7 6 1 7
REMARK H PARENT 1 8
REMARK Flexibility Score: inf
ROOT
ATOM      1  C   UNL     1      27.444 -22.120 -33.759  1.00  0.00     0.231 C 
ENDROOT
BRANCH   1   2
ATOM      2  C   UNL     1      28.382 -21.522 -32.760  1.00  0.00     0.129 A 
ATOM      3  C   UNL     1      29.198 -20.491 -31.000  1.00  0.00     0.042 A 
ATOM      4  C   UNL     1      30.207 -21.013 -31.784  1.00  0.00     0.195 A 
ATOM      5  C   UNL     1      28.015 -20.821 -31.628  1.00  0.00     0.048 A 
ATOM      6  O   UNL     1      29.689 -21.625 -32.826  1.00  0.00    -0.467 OA
ENDBRANCH   1   2
BRANCH   1   7
ATOM      7  O   UNL     1      26.159 -22.227 -33.210  1.00  0.00    -0.388 OA
ATOM      8  H   UNL     1      25.534 -21.832 -33.872  1.00  0.00     0.211 HD
ENDBRANCH   1   7
TORSDOF 2
ENDMDL
MODEL 8
REMARK VINA RESULT:    -2.836      4.437      4.803
REMARK INTER + INTRA:          -3.106
REMARK INTER:                  -3.091
REMARK INTRA:                  -0.015
REMARK UNBOUND:                -0.021
REMARK SMILES OCc1ccco1
REMARK SMILES IDX 2 1 3 2 5 3 6 4 4 5 7 6 1 7
REMARK H PARENT 1 8
REMARK Flexibility Score: inf
ROOT
ATOM      1  C   UNL     1      29.169 -20.351 -31.704  1.00  0.00     0.231 C 
ENDROOT
BRANCH   1   2
ATOM      2  C   UNL     1      28.325 -21.577 -31.563  1.00  0.00     0.129 A 
ATOM      3  C   UNL     1      27.346 -23.371 -30.758  1.00  0.00     0.042 A 
ATOM      4  C   UNL     1      26.899 -23.090 -32.034  1.00  0.00     0.195 A 
ATOM      5  C   UNL     1      28.267 -22.392 -30.450  1.00  0.00     0.048 A 
ATOM      6  O   UNL     1      27.500 -22.012 -32.486  1.00  0.00    -0.467 OA
ENDBRANCH   1   2
BRANCH   1   7
ATOM      7  O   UNL     1      28.390 -19.204 -31.495  1.00  0.00    -0.388 OA
ATOM      8  H   UNL     1      28.111 -19.222 -30.542  1.00  0.00     0.211 HD
ENDBRANCH   1   7
TORSDOF 2
ENDMDL
MODEL 9
REMARK VINA RESULT:    -2.835      1.879      3.574
REMARK INTER + INTRA:          -3.105
REMARK INTER:                  -3.088
REMARK INTRA:                  -0.016
REMARK UNBOUND:                -0.021
REMARK SMILES OCc1ccco1
REMARK SMILES IDX 2 1 3 2 5 3 6 4 4 5 7 6 1 7
REMARK H PARENT 1 8
REMARK Flexibility Score: inf
ROOT
ATOM      1  C   UNL     1      26.836 -22.804 -34.068  1.00  0.00     0.231 C 
ENDROOT
BRANCH   1   2
ATOM      2  C   UNL     1      27.811 -22.161 -35.001  1.00  0.00     0.129 A 
ATOM      3  C   UNL     1      28.787 -21.380 -36.807  1.00  0.00     0.042 A 
ATOM      4  C   UNL     1      29.522 -21.084 -35.676  1.00  0.00     0.195 A 
ATOM      5  C   UNL     1      27.678 -22.074 -36.372  1.00  0.00     0.048 A 
ATOM      6  O   UNL     1      28.912 -21.560 -34.614  1.00  0.00    -0.467 OA
ENDBRANCH   1   2
BRANCH   1   7
ATOM      7  O   UNL     1      26.281 -21.843 -33.213  1.00  0.00    -0.388 OA
ATOM      8  H   UNL     1      27.026 -21.249 -32.933  1.00  0.00     0.211 HD
ENDBRANCH   1   7
TORSDOF 2
ENDMDL
