MODEL 1
REMARK VINA RESULT:    -7.208      0.000      0.000
REMARK INTER + INTRA:         -12.242
REMARK INTER:                 -10.579
REMARK INTRA:                  -1.663
REMARK UNBOUND:                -1.663
REMARK SMILES O=c1c(O[C@@H]2O[C@H](CO)[C@@H](O)[C@H](O)[C@@H]2O)c(-c2ccc(O)c(O)c2)oc2cc(O)cc(O)c12
REMARK SMILES IDX 4 1 3 2 16 3 25 4 2 5 26 6 1 7 33 8 27 9 31 10 28 11 30 12
REMARK SMILES IDX 17 13 18 14 19 15 20 16 24 17 22 18 21 19 23 21 32 23 29 25
REMARK SMILES IDX 5 27 14 28 6 29 12 30 7 31 10 32 15 33 13 35 8 37 9 38 11 40
REMARK H PARENT 21 20 23 22 32 24 29 26 15 34 13 36 9 39 11 41
REMARK Flexibility Score: inf
ROOT
ATOM      1  O   UNL     1      13.751  -6.486  24.399  1.00  0.00    -0.454 OA
ENDROOT
BRANCH   1   2
ATOM      2  C   UNL     1      14.027  -7.855  24.588  1.00  0.00     0.214 A 
ATOM      3  C   UNL     1      12.990  -8.760  24.894  1.00  0.00     0.180 A 
ATOM      4  O   UNL     1      13.237 -10.066  24.950  1.00  0.00    -0.452 OA
ATOM      5  C   UNL     1      15.328  -8.360  24.437  1.00  0.00     0.239 A 
ATOM      6  C   UNL     1      14.447 -10.583  24.804  1.00  0.00     0.146 A 
ATOM      7  O   UNL     1      16.275  -7.575  24.169  1.00  0.00    -0.285 OA
ATOM      8  C   UNL     1      15.562  -9.745  24.566  1.00  0.00     0.111 A 
ATOM      9  C   UNL     1      14.612 -11.965  24.909  1.00  0.00     0.094 A 
ATOM     10  C   UNL     1      16.847 -10.327  24.449  1.00  0.00     0.134 A 
ATOM     11  C   UNL     1      15.878 -12.538  24.773  1.00  0.00     0.123 A 
ATOM     12  C   UNL     1      16.993 -11.719  24.556  1.00  0.00     0.093 A 
BRANCH   3  13
ATOM     13  C   UNL     1      11.630  -8.307  25.203  1.00  0.00     0.025 A 
ATOM     14  C   UNL     1      10.786  -7.852  24.179  1.00  0.00     0.016 A 
ATOM     15  C   UNL     1       9.474  -7.470  24.477  1.00  0.00     0.051 A 
ATOM     16  C   UNL     1       9.004  -7.521  25.799  1.00  0.00     0.157 A 
ATOM     17  C   UNL     1      11.182  -8.306  26.532  1.00  0.00     0.062 A 
ATOM     18  C   UNL     1       9.861  -7.929  26.834  1.00  0.00     0.158 A 
BRANCH  16  19
ATOM     19  O   UNL     1       7.688  -7.146  26.064  1.00  0.00    -0.504 OA
ATOM     20  H   UNL     1       7.013  -6.989  25.321  1.00  0.00     0.293 HD
ENDBRANCH  16  19
BRANCH  18  21
ATOM     21  O   UNL     1       9.409  -7.952  28.154  1.00  0.00    -0.504 OA
ATOM     22  H   UNL     1       8.989  -7.136  28.582  1.00  0.00     0.293 HD
ENDBRANCH  18  21
ENDBRANCH   3  13
BRANCH  10  23
ATOM     23  O   UNL     1      17.977  -9.531  24.249  1.00  0.00    -0.507 OA
ATOM     24  H   UNL     1      18.792  -9.595  24.850  1.00  0.00     0.293 HD
ENDBRANCH  10  23
BRANCH  11  25
ATOM     25  O   UNL     1      16.020 -13.923  24.843  1.00  0.00    -0.508 OA
ATOM     26  H   UNL     1      15.515 -14.468  25.535  1.00  0.00     0.293 HD
ENDBRANCH  11  25
ENDBRANCH   1   2
BRANCH   1  27
ATOM     27  C   UNL     1      13.567  -5.566  25.484  1.00  0.00     0.339 C 
ATOM     28  C   UNL     1      14.726  -4.541  25.612  1.00  0.00     0.214 C 
ATOM     29  O   UNL     1      12.282  -4.959  25.415  1.00  0.00    -0.332 OA
ATOM     30  C   UNL     1      14.636  -3.409  24.574  1.00  0.00     0.180 C 
ATOM     31  C   UNL     1      12.145  -3.945  24.418  1.00  0.00     0.179 C 
ATOM     32  C   UNL     1      13.215  -2.833  24.518  1.00  0.00     0.177 C 
BRANCH  28  33
ATOM     33  O   UNL     1      15.964  -5.190  25.507  1.00  0.00    -0.384 OA
ATOM     34  H   UNL     1      15.960  -5.690  24.650  1.00  0.00     0.211 HD
ENDBRANCH  28  33
BRANCH  30  35
ATOM     35  O   UNL     1      15.003  -3.891  23.301  1.00  0.00    -0.387 OA
ATOM     36  H   UNL     1      15.003  -4.885  23.346  1.00  0.00     0.211 HD
ENDBRANCH  30  35
BRANCH  31  37
ATOM     37  C   UNL     1      11.985  -4.512  22.991  1.00  0.00     0.191 C 
BRANCH  37  38
ATOM     38  O   UNL     1      12.286  -3.526  22.041  1.00  0.00    -0.394 OA
ATOM     39  H   UNL     1      13.062  -3.869  21.528  1.00  0.00     0.210 HD
ENDBRANCH  37  38
ENDBRANCH  31  37
BRANCH  32  40
ATOM     40  O   UNL     1      12.945  -1.998  25.622  1.00  0.00    -0.387 OA
ATOM     41  H   UNL     1      13.801  -1.598  25.929  1.00  0.00     0.211 HD
ENDBRANCH  32  40
ENDBRANCH   1  27
TORSDOF 12
ENDMDL
MODEL 2
REMARK VINA RESULT:    -6.915      3.354      8.008
REMARK INTER + INTRA:         -11.813
REMARK INTER:                 -10.099
REMARK INTRA:                  -1.714
REMARK UNBOUND:                -1.663
REMARK SMILES O=c1c(O[C@@H]2O[C@H](CO)[C@@H](O)[C@H](O)[C@@H]2O)c(-c2ccc(O)c(O)c2)oc2cc(O)cc(O)c12
REMARK SMILES IDX 4 1 3 2 16 3 25 4 2 5 26 6 1 7 33 8 27 9 31 10 28 11 30 12
REMARK SMILES IDX 17 13 18 14 19 15 20 16 24 17 22 18 21 19 23 21 32 23 29 25
REMARK SMILES IDX 5 27 14 28 6 29 12 30 7 31 10 32 15 33 13 35 8 37 9 38 11 40
REMARK H PARENT 21 20 23 22 32 24 29 26 15 34 13 36 9 39 11 41
REMARK Flexibility Score: inf
ROOT
ATOM      1  O   UNL     1      14.420 -11.196  26.746  1.00  0.00    -0.454 OA
ENDROOT
BRANCH   1   2
ATOM      2  C   UNL     1      13.250 -10.455  27.003  1.00  0.00     0.214 A 
ATOM      3  C   UNL     1      12.369 -10.840  28.035  1.00  0.00     0.180 A 
ATOM      4  O   UNL     1      11.332 -10.069  28.352  1.00  0.00    -0.452 OA
ATOM      5  C   UNL     1      12.949  -9.296  26.270  1.00  0.00     0.239 A 
ATOM      6  C   UNL     1      11.020  -8.965  27.692  1.00  0.00     0.146 A 
ATOM      7  O   UNL     1      13.714  -8.931  25.339  1.00  0.00    -0.285 OA
ATOM      8  C   UNL     1      11.805  -8.538  26.595  1.00  0.00     0.111 A 
ATOM      9  C   UNL     1       9.894  -8.237  28.081  1.00  0.00     0.094 A 
ATOM     10  C   UNL     1      11.425  -7.371  25.889  1.00  0.00     0.134 A 
ATOM     11  C   UNL     1       9.533  -7.075  27.396  1.00  0.00     0.123 A 
ATOM     12  C   UNL     1      10.290  -6.651  26.296  1.00  0.00     0.093 A 
BRANCH   3  13
ATOM     13  C   UNL     1      12.528 -12.105  28.759  1.00  0.00     0.025 A 
ATOM     14  C   UNL     1      13.516 -12.235  29.747  1.00  0.00     0.016 A 
ATOM     15  C   UNL     1      13.626 -13.429  30.468  1.00  0.00     0.051 A 
ATOM     16  C   UNL     1      12.766 -14.505  30.193  1.00  0.00     0.157 A 
ATOM     17  C   UNL     1      11.704 -13.196  28.444  1.00  0.00     0.062 A 
ATOM     18  C   UNL     1      11.809 -14.395  29.171  1.00  0.00     0.158 A 
BRANCH  16  19
ATOM     19  O   UNL     1      12.891 -15.677  30.936  1.00  0.00    -0.504 OA
ATOM     20  H   UNL     1      12.673 -15.712  31.927  1.00  0.00     0.293 HD
ENDBRANCH  16  19
BRANCH  18  21
ATOM     21  O   UNL     1      10.972 -15.472  28.873  1.00  0.00    -0.504 OA
ATOM     22  H   UNL     1      10.096 -15.610  29.359  1.00  0.00     0.293 HD
ENDBRANCH  18  21
ENDBRANCH   3  13
BRANCH  10  23
ATOM     23  O   UNL     1      12.153  -6.936  24.780  1.00  0.00    -0.507 OA
ATOM     24  H   UNL     1      13.164  -6.865  24.797  1.00  0.00     0.293 HD
ENDBRANCH  10  23
BRANCH  11  25
ATOM     25  O   UNL     1       8.428  -6.339  27.820  1.00  0.00    -0.508 OA
ATOM     26  H   UNL     1       8.482  -5.733  28.633  1.00  0.00     0.293 HD
ENDBRANCH  11  25
ENDBRANCH   1   2
BRANCH   1  27
ATOM     27  C   UNL     1      14.426 -12.421  26.000  1.00  0.00     0.339 C 
ATOM     28  C   UNL     1      15.193 -12.308  24.655  1.00  0.00     0.214 C 
ATOM     29  O   UNL     1      14.869 -13.502  26.812  1.00  0.00    -0.332 OA
ATOM     30  C   UNL     1      16.720 -12.355  24.836  1.00  0.00     0.180 C 
ATOM     31  C   UNL     1      16.276 -13.541  27.052  1.00  0.00     0.179 C 
ATOM     32  C   UNL     1      17.123 -13.512  25.759  1.00  0.00     0.177 C 
BRANCH  28  33
ATOM     33  O   UNL     1      14.826 -11.133  23.983  1.00  0.00    -0.384 OA
ATOM     34  H   UNL     1      13.900 -10.912  24.266  1.00  0.00     0.211 HD
ENDBRANCH  28  33
BRANCH  30  35
ATOM     35  O   UNL     1      17.180 -11.136  25.373  1.00  0.00    -0.387 OA
ATOM     36  H   UNL     1      17.826 -11.353  26.097  1.00  0.00     0.211 HD
ENDBRANCH  30  35
BRANCH  31  37
ATOM     37  C   UNL     1      16.743 -12.518  28.109  1.00  0.00     0.191 C 
BRANCH  37  38
ATOM     38  O   UNL     1      18.125 -12.308  28.005  1.00  0.00    -0.394 OA
ATOM     39  H   UNL     1      18.298 -12.094  27.053  1.00  0.00     0.210 HD
ENDBRANCH  37  38
ENDBRANCH  31  37
BRANCH  32  40
ATOM     40  O   UNL     1      17.047 -14.757  25.101  1.00  0.00    -0.387 OA
ATOM     41  H   UNL     1      16.159 -14.824  24.658  1.00  0.00     0.211 HD
ENDBRANCH  32  40
ENDBRANCH   1  27
TORSDOF 12
ENDMDL
MODEL 3
REMARK VINA RESULT:    -6.690      3.328      5.484
REMARK INTER + INTRA:         -11.481
REMARK INTER:                  -9.847
REMARK INTRA:                  -1.634
REMARK UNBOUND:                -1.663
REMARK SMILES O=c1c(O[C@@H]2O[C@H](CO)[C@@H](O)[C@H](O)[C@@H]2O)c(-c2ccc(O)c(O)c2)oc2cc(O)cc(O)c12
REMARK SMILES IDX 4 1 3 2 16 3 25 4 2 5 26 6 1 7 33 8 27 9 31 10 28 11 30 12
REMARK SMILES IDX 17 13 18 14 19 15 20 16 24 17 22 18 21 19 23 21 32 23 29 25
REMARK SMILES IDX 5 27 14 28 6 29 12 30 7 31 10 32 15 33 13 35 8 37 9 38 11 40
REMARK H PARENT 21 20 23 22 32 24 29 26 15 34 13 36 9 39 11 41
REMARK Flexibility Score: inf
ROOT
ATOM      1  O   UNL     1      15.524 -10.357  25.676  1.00  0.00    -0.454 OA
ENDROOT
BRANCH   1   2
ATOM      2  C   UNL     1      16.056 -11.550  26.204  1.00  0.00     0.214 A 
ATOM      3  C   UNL     1      16.180 -11.726  27.597  1.00  0.00     0.180 A 
ATOM      4  O   UNL     1      16.567 -12.898  28.092  1.00  0.00    -0.452 OA
ATOM      5  C   UNL     1      16.437 -12.608  25.363  1.00  0.00     0.239 A 
ATOM      6  C   UNL     1      16.926 -13.923  27.335  1.00  0.00     0.146 A 
ATOM      7  O   UNL     1      16.343 -12.478  24.115  1.00  0.00    -0.285 OA
ATOM      8  C   UNL     1      16.903 -13.815  25.924  1.00  0.00     0.111 A 
ATOM      9  C   UNL     1      17.347 -15.105  27.946  1.00  0.00     0.094 A 
ATOM     10  C   UNL     1      17.326 -14.918  25.143  1.00  0.00     0.134 A 
ATOM     11  C   UNL     1      17.743 -16.198  27.173  1.00  0.00     0.123 A 
ATOM     12  C   UNL     1      17.744 -16.099  25.776  1.00  0.00     0.093 A 
BRANCH   3  13
ATOM     13  C   UNL     1      15.936 -10.631  28.542  1.00  0.00     0.025 A 
ATOM     14  C   UNL     1      17.013  -9.937  29.116  1.00  0.00     0.016 A 
ATOM     15  C   UNL     1      16.768  -8.862  29.976  1.00  0.00     0.051 A 
ATOM     16  C   UNL     1      15.451  -8.487  30.285  1.00  0.00     0.157 A 
ATOM     17  C   UNL     1      14.619 -10.294  28.893  1.00  0.00     0.062 A 
ATOM     18  C   UNL     1      14.371  -9.210  29.753  1.00  0.00     0.158 A 
BRANCH  16  19
ATOM     19  O   UNL     1      15.238  -7.403  31.136  1.00  0.00    -0.504 OA
ATOM     20  H   UNL     1      14.442  -6.782  31.028  1.00  0.00     0.293 HD
ENDBRANCH  16  19
BRANCH  18  21
ATOM     21  O   UNL     1      13.060  -8.861  30.081  1.00  0.00    -0.504 OA
ATOM     22  H   UNL     1      12.861  -8.155  30.779  1.00  0.00     0.293 HD
ENDBRANCH  18  21
ENDBRANCH   3  13
BRANCH  10  23
ATOM     23  O   UNL     1      17.351 -14.840  23.749  1.00  0.00    -0.507 OA
ATOM     24  H   UNL     1      18.208 -14.964  23.220  1.00  0.00     0.293 HD
ENDBRANCH  10  23
BRANCH  11  25
ATOM     25  O   UNL     1      18.125 -17.384  27.799  1.00  0.00    -0.508 OA
ATOM     26  H   UNL     1      17.849 -17.584  28.755  1.00  0.00     0.293 HD
ENDBRANCH  11  25
ENDBRANCH   1   2
BRANCH   1  27
ATOM     27  C   UNL     1      16.255  -9.122  25.637  1.00  0.00     0.339 C 
ATOM     28  C   UNL     1      16.700  -8.728  24.203  1.00  0.00     0.214 C 
ATOM     29  O   UNL     1      15.537  -8.093  26.307  1.00  0.00    -0.332 OA
ATOM     30  C   UNL     1      15.553  -8.132  23.367  1.00  0.00     0.180 C 
ATOM     31  C   UNL     1      14.427  -7.559  25.584  1.00  0.00     0.179 C 
ATOM     32  C   UNL     1      14.794  -7.065  24.166  1.00  0.00     0.177 C 
BRANCH  28  33
ATOM     33  O   UNL     1      17.250  -9.835  23.542  1.00  0.00    -0.384 OA
ATOM     34  H   UNL     1      18.176  -9.947  23.881  1.00  0.00     0.211 HD
ENDBRANCH  28  33
BRANCH  30  35
ATOM     35  O   UNL     1      14.665  -9.152  22.971  1.00  0.00    -0.387 OA
ATOM     36  H   UNL     1      15.161 -10.013  23.010  1.00  0.00     0.211 HD
ENDBRANCH  30  35
BRANCH  31  37
ATOM     37  C   UNL     1      13.187  -8.478  25.607  1.00  0.00     0.191 C 
BRANCH  37  38
ATOM     38  O   UNL     1      12.349  -8.190  24.521  1.00  0.00    -0.394 OA
ATOM     39  H   UNL     1      12.246  -9.041  24.023  1.00  0.00     0.210 HD
ENDBRANCH  37  38
ENDBRANCH  31  37
BRANCH  32  40
ATOM     40  O   UNL     1      15.518  -5.858  24.245  1.00  0.00    -0.387 OA
ATOM     41  H   UNL     1      14.944  -5.124  23.900  1.00  0.00     0.211 HD
ENDBRANCH  32  40
ENDBRANCH   1  27
TORSDOF 12
ENDMDL
MODEL 4
REMARK VINA RESULT:    -6.527      3.504      5.200
REMARK INTER + INTRA:         -11.242
REMARK INTER:                  -9.500
REMARK INTRA:                  -1.742
REMARK UNBOUND:                -1.663
REMARK SMILES O=c1c(O[C@@H]2O[C@H](CO)[C@@H](O)[C@H](O)[C@@H]2O)c(-c2ccc(O)c(O)c2)oc2cc(O)cc(O)c12
REMARK SMILES IDX 4 1 3 2 16 3 25 4 2 5 26 6 1 7 33 8 27 9 31 10 28 11 30 12
REMARK SMILES IDX 17 13 18 14 19 15 20 16 24 17 22 18 21 19 23 21 32 23 29 25
REMARK SMILES IDX 5 27 14 28 6 29 12 30 7 31 10 32 15 33 13 35 8 37 9 38 11 40
REMARK H PARENT 21 20 23 22 32 24 29 26 15 34 13 36 9 39 11 41
REMARK Flexibility Score: inf
ROOT
ATOM      1  O   UNL     1      14.750 -10.281  26.738  1.00  0.00    -0.454 OA
ENDROOT
BRANCH   1   2
ATOM      2  C   UNL     1      14.170 -11.241  27.590  1.00  0.00     0.214 A 
ATOM      3  C   UNL     1      12.938 -10.986  28.226  1.00  0.00     0.180 A 
ATOM      4  O   UNL     1      12.337 -11.942  28.930  1.00  0.00    -0.452 OA
ATOM      5  C   UNL     1      14.780 -12.489  27.797  1.00  0.00     0.239 A 
ATOM      6  C   UNL     1      12.873 -13.133  29.141  1.00  0.00     0.146 A 
ATOM      7  O   UNL     1      15.883 -12.743  27.248  1.00  0.00    -0.285 OA
ATOM      8  C   UNL     1      14.142 -13.456  28.602  1.00  0.00     0.111 A 
ATOM      9  C   UNL     1      12.180 -14.062  29.919  1.00  0.00     0.094 A 
ATOM     10  C   UNL     1      14.702 -14.727  28.875  1.00  0.00     0.134 A 
ATOM     11  C   UNL     1      12.726 -15.322  30.169  1.00  0.00     0.123 A 
ATOM     12  C   UNL     1      13.989 -15.648  29.658  1.00  0.00     0.093 A 
BRANCH   3  13
ATOM     13  C   UNL     1      12.298  -9.668  28.177  1.00  0.00     0.025 A 
ATOM     14  C   UNL     1      11.613  -9.255  27.024  1.00  0.00     0.016 A 
ATOM     15  C   UNL     1      10.963  -8.016  27.008  1.00  0.00     0.051 A 
ATOM     16  C   UNL     1      11.010  -7.175  28.131  1.00  0.00     0.157 A 
ATOM     17  C   UNL     1      12.394  -8.806  29.281  1.00  0.00     0.062 A 
ATOM     18  C   UNL     1      11.736  -7.563  29.269  1.00  0.00     0.158 A 
BRANCH  16  19
ATOM     19  O   UNL     1      10.342  -5.952  28.089  1.00  0.00    -0.504 OA
ATOM     20  H   UNL     1       9.792  -5.667  27.285  1.00  0.00     0.293 HD
ENDBRANCH  16  19
BRANCH  18  21
ATOM     21  O   UNL     1      11.812  -6.718  30.377  1.00  0.00    -0.504 OA
ATOM     22  H   UNL     1      12.186  -7.040  31.261  1.00  0.00     0.293 HD
ENDBRANCH  18  21
ENDBRANCH   3  13
BRANCH  10  23
ATOM     23  O   UNL     1      15.967 -15.070  28.392  1.00  0.00    -0.507 OA
ATOM     24  H   UNL     1      16.088 -15.716  27.619  1.00  0.00     0.293 HD
ENDBRANCH  10  23
BRANCH  11  25
ATOM     25  O   UNL     1      12.004 -16.252  30.917  1.00  0.00    -0.508 OA
ATOM     26  H   UNL     1      11.970 -16.196  31.930  1.00  0.00     0.293 HD
ENDBRANCH  11  25
ENDBRANCH   1   2
BRANCH   1  27
ATOM     27  C   UNL     1      15.533  -9.178  27.217  1.00  0.00     0.339 C 
ATOM     28  C   UNL     1      17.020  -9.256  26.779  1.00  0.00     0.214 C 
ATOM     29  O   UNL     1      14.913  -7.941  26.886  1.00  0.00    -0.332 OA
ATOM     30  C   UNL     1      17.232  -8.834  25.315  1.00  0.00     0.180 C 
ATOM     31  C   UNL     1      15.037  -7.548  25.518  1.00  0.00     0.179 C 
ATOM     32  C   UNL     1      16.499  -7.520  25.015  1.00  0.00     0.177 C 
BRANCH  28  33
ATOM     33  O   UNL     1      17.520 -10.551  26.982  1.00  0.00    -0.384 OA
ATOM     34  H   UNL     1      17.402 -10.761  27.945  1.00  0.00     0.211 HD
ENDBRANCH  28  33
BRANCH  30  35
ATOM     35  O   UNL     1      16.769  -9.845  24.449  1.00  0.00    -0.387 OA
ATOM     36  H   UNL     1      15.856 -10.102  24.750  1.00  0.00     0.211 HD
ENDBRANCH  30  35
BRANCH  31  37
ATOM     37  C   UNL     1      14.082  -8.311  24.576  1.00  0.00     0.191 C 
BRANCH  37  38
ATOM     38  O   UNL     1      14.508  -8.184  23.247  1.00  0.00    -0.394 OA
ATOM     39  H   UNL     1      13.695  -8.281  22.689  1.00  0.00     0.210 HD
ENDBRANCH  37  38
ENDBRANCH  31  37
BRANCH  32  40
ATOM     40  O   UNL     1      17.177  -6.408  25.555  1.00  0.00    -0.387 OA
ATOM     41  H   UNL     1      18.130  -6.656  25.690  1.00  0.00     0.211 HD
ENDBRANCH  32  40
ENDBRANCH   1  27
TORSDOF 12
ENDMDL
MODEL 5
REMARK VINA RESULT:    -6.428      2.328      6.237
REMARK INTER + INTRA:         -11.097
REMARK INTER:                  -9.547
REMARK INTRA:                  -1.551
REMARK UNBOUND:                -1.663
REMARK SMILES O=c1c(O[C@@H]2O[C@H](CO)[C@@H](O)[C@H](O)[C@@H]2O)c(-c2ccc(O)c(O)c2)oc2cc(O)cc(O)c12
REMARK SMILES IDX 4 1 3 2 16 3 25 4 2 5 26 6 1 7 33 8 27 9 31 10 28 11 30 12
REMARK SMILES IDX 17 13 18 14 19 15 20 16 24 17 22 18 21 19 23 21 32 23 29 25
REMARK SMILES IDX 5 27 14 28 6 29 12 30 7 31 10 32 15 33 13 35 8 37 9 38 11 40
REMARK H PARENT 21 20 23 22 32 24 29 26 15 34 13 36 9 39 11 41
REMARK Flexibility Score: inf
ROOT
ATOM      1  O   UNL     1      14.246  -6.446  23.917  1.00  0.00    -0.454 OA
ENDROOT
BRANCH   1   2
ATOM      2  C   UNL     1      13.405  -5.799  22.990  1.00  0.00     0.214 A 
ATOM      3  C   UNL     1      12.044  -5.581  23.285  1.00  0.00     0.180 A 
ATOM      4  O   UNL     1      11.287  -4.863  22.460  1.00  0.00    -0.452 OA
ATOM      5  C   UNL     1      13.906  -5.320  21.769  1.00  0.00     0.239 A 
ATOM      6  C   UNL     1      11.723  -4.386  21.305  1.00  0.00     0.146 A 
ATOM      7  O   UNL     1      15.116  -5.505  21.475  1.00  0.00    -0.285 OA
ATOM      8  C   UNL     1      13.056  -4.617  20.889  1.00  0.00     0.111 A 
ATOM      9  C   UNL     1      10.845  -3.669  20.491  1.00  0.00     0.094 A 
ATOM     10  C   UNL     1      13.481  -4.123  19.633  1.00  0.00     0.134 A 
ATOM     11  C   UNL     1      11.272  -3.164  19.262  1.00  0.00     0.123 A 
ATOM     12  C   UNL     1      12.584  -3.402  18.830  1.00  0.00     0.093 A 
BRANCH   3  13
ATOM     13  C   UNL     1      11.404  -6.162  24.470  1.00  0.00     0.025 A 
ATOM     14  C   UNL     1      10.606  -7.310  24.352  1.00  0.00     0.016 A 
ATOM     15  C   UNL     1      10.043  -7.885  25.496  1.00  0.00     0.051 A 
ATOM     16  C   UNL     1      10.254  -7.308  26.758  1.00  0.00     0.157 A 
ATOM     17  C   UNL     1      11.572  -5.551  25.722  1.00  0.00     0.062 A 
ATOM     18  C   UNL     1      11.012  -6.131  26.874  1.00  0.00     0.158 A 
BRANCH  16  19
ATOM     19  O   UNL     1       9.690  -7.911  27.881  1.00  0.00    -0.504 OA
ATOM     20  H   UNL     1       9.453  -7.382  28.714  1.00  0.00     0.293 HD
ENDBRANCH  16  19
BRANCH  18  21
ATOM     21  O   UNL     1      11.200  -5.535  28.122  1.00  0.00    -0.504 OA
ATOM     22  H   UNL     1      11.207  -4.529  28.231  1.00  0.00     0.293 HD
ENDBRANCH  18  21
ENDBRANCH   3  13
BRANCH  10  23
ATOM     23  O   UNL     1      14.778  -4.360  19.172  1.00  0.00    -0.507 OA
ATOM     24  H   UNL     1      15.010  -5.182  18.625  1.00  0.00     0.293 HD
ENDBRANCH  10  23
BRANCH  11  25
ATOM     25  O   UNL     1      10.393  -2.418  18.478  1.00  0.00    -0.508 OA
ATOM     26  H   UNL     1       9.389  -2.542  18.554  1.00  0.00     0.293 HD
ENDBRANCH  11  25
ENDBRANCH   1   2
BRANCH   1  27
ATOM     27  C   UNL     1      14.213  -7.861  24.152  1.00  0.00     0.339 C 
ATOM     28  C   UNL     1      15.386  -8.615  23.471  1.00  0.00     0.214 C 
ATOM     29  O   UNL     1      14.099  -8.136  25.544  1.00  0.00    -0.332 OA
ATOM     30  C   UNL     1      16.712  -8.470  24.237  1.00  0.00     0.180 C 
ATOM     31  C   UNL     1      15.297  -7.951  26.298  1.00  0.00     0.179 C 
ATOM     32  C   UNL     1      16.507  -8.733  25.735  1.00  0.00     0.177 C 
BRANCH  28  33
ATOM     33  O   UNL     1      15.545  -8.175  22.149  1.00  0.00    -0.384 OA
ATOM     34  H   UNL     1      14.706  -7.709  21.894  1.00  0.00     0.211 HD
ENDBRANCH  28  33
BRANCH  30  35
ATOM     35  O   UNL     1      17.239  -7.176  24.050  1.00  0.00    -0.387 OA
ATOM     36  H   UNL     1      18.057  -7.103  24.610  1.00  0.00     0.211 HD
ENDBRANCH  30  35
BRANCH  31  37
ATOM     37  C   UNL     1      15.612  -6.468  26.588  1.00  0.00     0.191 C 
BRANCH  37  38
ATOM     38  O   UNL     1      16.969  -6.313  26.905  1.00  0.00    -0.394 OA
ATOM     39  H   UNL     1      17.236  -7.143  27.376  1.00  0.00     0.210 HD
ENDBRANCH  37  38
ENDBRANCH  31  37
BRANCH  32  40
ATOM     40  O   UNL     1      16.365 -10.109  26.009  1.00  0.00    -0.387 OA
ATOM     41  H   UNL     1      15.923 -10.541  25.231  1.00  0.00     0.211 HD
ENDBRANCH  32  40
ENDBRANCH   1  27
TORSDOF 12
ENDMDL
MODEL 6
REMARK VINA RESULT:    -6.406      3.606      5.695
REMARK INTER + INTRA:         -11.065
REMARK INTER:                  -9.237
REMARK INTRA:                  -1.828
REMARK UNBOUND:                -1.663
REMARK SMILES O=c1c(O[C@@H]2O[C@H](CO)[C@@H](O)[C@H](O)[C@@H]2O)c(-c2ccc(O)c(O)c2)oc2cc(O)cc(O)c12
REMARK SMILES IDX 4 1 3 2 16 3 25 4 2 5 26 6 1 7 33 8 27 9 31 10 28 11 30 12
REMARK SMILES IDX 17 13 18 14 19 15 20 16 24 17 22 18 21 19 23 21 32 23 29 25
REMARK SMILES IDX 5 27 14 28 6 29 12 30 7 31 10 32 15 33 13 35 8 37 9 38 11 40
REMARK H PARENT 21 20 23 22 32 24 29 26 15 34 13 36 9 39 11 41
REMARK Flexibility Score: inf
ROOT
ATOM      1  O   UNL     1      15.084 -10.876  26.654  1.00  0.00    -0.454 OA
ENDROOT
BRANCH   1   2
ATOM      2  C   UNL     1      14.566 -11.782  27.600  1.00  0.00     0.214 A 
ATOM      3  C   UNL     1      13.433 -11.446  28.369  1.00  0.00     0.180 A 
ATOM      4  O   UNL     1      12.876 -12.350  29.171  1.00  0.00    -0.452 OA
ATOM      5  C   UNL     1      15.135 -13.054  27.774  1.00  0.00     0.239 A 
ATOM      6  C   UNL     1      13.376 -13.562  29.356  1.00  0.00     0.146 A 
ATOM      7  O   UNL     1      16.150 -13.380  27.105  1.00  0.00    -0.285 OA
ATOM      8  C   UNL     1      14.553 -13.964  28.681  1.00  0.00     0.111 A 
ATOM      9  C   UNL     1      12.738 -14.432  30.241  1.00  0.00     0.094 A 
ATOM     10  C   UNL     1      15.081 -15.255  28.927  1.00  0.00     0.134 A 
ATOM     11  C   UNL     1      13.248 -15.712  30.466  1.00  0.00     0.123 A 
ATOM     12  C   UNL     1      14.424 -16.116  29.819  1.00  0.00     0.093 A 
BRANCH   3  13
ATOM     13  C   UNL     1      12.857 -10.098  28.354  1.00  0.00     0.025 A 
ATOM     14  C   UNL     1      13.157  -9.188  29.378  1.00  0.00     0.016 A 
ATOM     15  C   UNL     1      12.643  -7.888  29.327  1.00  0.00     0.051 A 
ATOM     16  C   UNL     1      11.811  -7.496  28.267  1.00  0.00     0.157 A 
ATOM     17  C   UNL     1      11.981  -9.727  27.322  1.00  0.00     0.062 A 
ATOM     18  C   UNL     1      11.467  -8.419  27.266  1.00  0.00     0.158 A 
BRANCH  16  19
ATOM     19  O   UNL     1      11.323  -6.190  28.236  1.00  0.00    -0.504 OA
ATOM     20  H   UNL     1      11.938  -5.385  28.297  1.00  0.00     0.293 HD
ENDBRANCH  16  19
BRANCH  18  21
ATOM     21  O   UNL     1      10.615  -8.045  26.225  1.00  0.00    -0.504 OA
ATOM     22  H   UNL     1      10.977  -7.751  25.327  1.00  0.00     0.293 HD
ENDBRANCH  18  21
ENDBRANCH   3  13
BRANCH  10  23
ATOM     23  O   UNL     1      16.260 -15.676  28.307  1.00  0.00    -0.507 OA
ATOM     24  H   UNL     1      16.570 -15.285  27.424  1.00  0.00     0.293 HD
ENDBRANCH  10  23
BRANCH  11  25
ATOM     25  O   UNL     1      12.578 -16.582  31.324  1.00  0.00    -0.508 OA
ATOM     26  H   UNL     1      12.895 -16.724  32.278  1.00  0.00     0.293 HD
ENDBRANCH  11  25
ENDBRANCH   1   2
BRANCH   1  27
ATOM     27  C   UNL     1      15.999  -9.825  26.993  1.00  0.00     0.339 C 
ATOM     28  C   UNL     1      17.388  -9.989  26.318  1.00  0.00     0.214 C 
ATOM     29  O   UNL     1      15.408  -8.551  26.763  1.00  0.00    -0.332 OA
ATOM     30  C   UNL     1      17.383  -9.572  24.838  1.00  0.00     0.180 C 
ATOM     31  C   UNL     1      15.331  -8.158  25.392  1.00  0.00     0.179 C 
ATOM     32  C   UNL     1      16.690  -8.215  24.657  1.00  0.00     0.177 C 
BRANCH  28  33
ATOM     33  O   UNL     1      17.835 -11.312  26.442  1.00  0.00    -0.384 OA
ATOM     34  H   UNL     1      18.586 -11.306  27.092  1.00  0.00     0.211 HD
ENDBRANCH  28  33
BRANCH  30  35
ATOM     35  O   UNL     1      16.725 -10.548  24.063  1.00  0.00    -0.387 OA
ATOM     36  H   UNL     1      15.800 -10.638  24.418  1.00  0.00     0.211 HD
ENDBRANCH  30  35
BRANCH  31  37
ATOM     37  C   UNL     1      14.191  -8.858  24.622  1.00  0.00     0.191 C 
BRANCH  37  38
ATOM     38  O   UNL     1      14.410  -8.765  23.241  1.00  0.00    -0.394 OA
ATOM     39  H   UNL     1      13.519  -8.857  22.816  1.00  0.00     0.210 HD
ENDBRANCH  37  38
ENDBRANCH  31  37
BRANCH  32  40
ATOM     40  O   UNL     1      17.512  -7.148  25.074  1.00  0.00    -0.387 OA
ATOM     41  H   UNL     1      18.237  -7.516  25.646  1.00  0.00     0.211 HD
ENDBRANCH  32  40
ENDBRANCH   1  27
TORSDOF 12
ENDMDL
MODEL 7
REMARK VINA RESULT:    -6.293      2.990      4.347
REMARK INTER + INTRA:         -10.900
REMARK INTER:                  -9.082
REMARK INTRA:                  -1.818
REMARK UNBOUND:                -1.663
REMARK SMILES O=c1c(O[C@@H]2O[C@H](CO)[C@@H](O)[C@H](O)[C@@H]2O)c(-c2ccc(O)c(O)c2)oc2cc(O)cc(O)c12
REMARK SMILES IDX 4 1 3 2 16 3 25 4 2 5 26 6 1 7 33 8 27 9 31 10 28 11 30 12
REMARK SMILES IDX 17 13 18 14 19 15 20 16 24 17 22 18 21 19 23 21 32 23 29 25
REMARK SMILES IDX 5 27 14 28 6 29 12 30 7 31 10 32 15 33 13 35 8 37 9 38 11 40
REMARK H PARENT 21 20 23 22 32 24 29 26 15 34 13 36 9 39 11 41
REMARK Flexibility Score: inf
ROOT
ATOM      1  O   UNL     1      13.734  -9.682  26.218  1.00  0.00    -0.454 OA
ENDROOT
BRANCH   1   2
ATOM      2  C   UNL     1      13.651 -10.746  27.138  1.00  0.00     0.214 A 
ATOM      3  C   UNL     1      12.626 -10.780  28.105  1.00  0.00     0.180 A 
ATOM      4  O   UNL     1      12.481 -11.845  28.889  1.00  0.00    -0.452 OA
ATOM      5  C   UNL     1      14.560 -11.815  27.093  1.00  0.00     0.239 A 
ATOM      6  C   UNL     1      13.310 -12.877  28.871  1.00  0.00     0.146 A 
ATOM      7  O   UNL     1      15.489 -11.809  26.244  1.00  0.00    -0.285 OA
ATOM      8  C   UNL     1      14.412 -12.899  27.984  1.00  0.00     0.111 A 
ATOM      9  C   UNL     1      13.093 -13.937  29.754  1.00  0.00     0.094 A 
ATOM     10  C   UNL     1      15.298 -14.002  28.014  1.00  0.00     0.134 A 
ATOM     11  C   UNL     1      13.957 -15.033  29.767  1.00  0.00     0.123 A 
ATOM     12  C   UNL     1      15.064 -15.059  28.907  1.00  0.00     0.093 A 
BRANCH   3  13
ATOM     13  C   UNL     1      11.718  -9.648  28.315  1.00  0.00     0.025 A 
ATOM     14  C   UNL     1      12.117  -8.558  29.103  1.00  0.00     0.016 A 
ATOM     15  C   UNL     1      11.264  -7.459  29.254  1.00  0.00     0.051 A 
ATOM     16  C   UNL     1      10.002  -7.452  28.639  1.00  0.00     0.157 A 
ATOM     17  C   UNL     1      10.436  -9.668  27.744  1.00  0.00     0.062 A 
ATOM     18  C   UNL     1       9.579  -8.563  27.890  1.00  0.00     0.158 A 
BRANCH  16  19
ATOM     19  O   UNL     1       9.178  -6.339  28.798  1.00  0.00    -0.504 OA
ATOM     20  H   UNL     1       8.879  -6.017  29.713  1.00  0.00     0.293 HD
ENDBRANCH  16  19
BRANCH  18  21
ATOM     21  O   UNL     1       8.313  -8.574  27.302  1.00  0.00    -0.504 OA
ATOM     22  H   UNL     1       8.183  -8.345  26.325  1.00  0.00     0.293 HD
ENDBRANCH  18  21
ENDBRANCH   3  13
BRANCH  10  23
ATOM     23  O   UNL     1      16.417 -14.044  27.179  1.00  0.00    -0.507 OA
ATOM     24  H   UNL     1      16.415 -13.618  26.258  1.00  0.00     0.293 HD
ENDBRANCH  10  23
BRANCH  11  25
ATOM     25  O   UNL     1      13.706 -16.100  30.629  1.00  0.00    -0.508 OA
ATOM     26  H   UNL     1      12.760 -16.429  30.793  1.00  0.00     0.293 HD
ENDBRANCH  11  25
ENDBRANCH   1   2
BRANCH   1  27
ATOM     27  C   UNL     1      14.729  -8.652  26.296  1.00  0.00     0.339 C 
ATOM     28  C   UNL     1      15.568  -8.520  24.996  1.00  0.00     0.214 C 
ATOM     29  O   UNL     1      14.147  -7.423  26.717  1.00  0.00    -0.332 OA
ATOM     30  C   UNL     1      14.819  -7.779  23.876  1.00  0.00     0.180 C 
ATOM     31  C   UNL     1      13.391  -6.737  25.719  1.00  0.00     0.179 C 
ATOM     32  C   UNL     1      14.178  -6.491  24.410  1.00  0.00     0.177 C 
BRANCH  28  33
ATOM     33  O   UNL     1      15.970  -9.786  24.548  1.00  0.00    -0.384 OA
ATOM     34  H   UNL     1      15.532  -9.938  23.670  1.00  0.00     0.211 HD
ENDBRANCH  28  33
BRANCH  30  35
ATOM     35  O   UNL     1      13.824  -8.612  23.327  1.00  0.00    -0.387 OA
ATOM     36  H   UNL     1      14.116  -8.862  22.410  1.00  0.00     0.211 HD
ENDBRANCH  30  35
BRANCH  31  37
ATOM     37  C   UNL     1      11.994  -7.350  25.484  1.00  0.00     0.191 C 
BRANCH  37  38
ATOM     38  O   UNL     1      11.486  -6.938  24.244  1.00  0.00    -0.394 OA
ATOM     39  H   UNL     1      10.809  -7.616  23.988  1.00  0.00     0.210 HD
ENDBRANCH  37  38
ENDBRANCH  31  37
BRANCH  32  40
ATOM     40  O   UNL     1      15.134  -5.472  24.604  1.00  0.00    -0.387 OA
ATOM     41  H   UNL     1      14.780  -4.833  25.277  1.00  0.00     0.211 HD
ENDBRANCH  32  40
ENDBRANCH   1  27
TORSDOF 12
ENDMDL
MODEL 8
REMARK VINA RESULT:    -5.229      3.018      7.517
REMARK INTER + INTRA:          -9.338
REMARK INTER:                  -7.709
REMARK INTRA:                  -1.629
REMARK UNBOUND:                -1.663
REMARK SMILES O=c1c(O[C@@H]2O[C@H](CO)[C@@H](O)[C@H](O)[C@@H]2O)c(-c2ccc(O)c(O)c2)oc2cc(O)cc(O)c12
REMARK SMILES IDX 4 1 3 2 16 3 25 4 2 5 26 6 1 7 33 8 27 9 31 10 28 11 30 12
REMARK SMILES IDX 17 13 18 14 19 15 20 16 24 17 22 18 21 19 23 21 32 23 29 25
REMARK SMILES IDX 5 27 14 28 6 29 12 30 7 31 10 32 15 33 13 35 8 37 9 38 11 40
REMARK H PARENT 21 20 23 22 32 24 29 26 15 34 13 36 9 39 11 41
REMARK Flexibility Score: inf
ROOT
ATOM      1  O   UNL     1      14.391 -10.348  26.373  1.00  0.00    -0.454 OA
ENDROOT
BRANCH   1   2
ATOM      2  C   UNL     1      13.097  -9.822  26.557  1.00  0.00     0.214 A 
ATOM      3  C   UNL     1      12.283 -10.272  27.617  1.00  0.00     0.180 A 
ATOM      4  O   UNL     1      11.113  -9.686  27.858  1.00  0.00    -0.452 OA
ATOM      5  C   UNL     1      12.598  -8.812  25.717  1.00  0.00     0.239 A 
ATOM      6  C   UNL     1      10.612  -8.726  27.097  1.00  0.00     0.146 A 
ATOM      7  O   UNL     1      13.299  -8.395  24.759  1.00  0.00    -0.285 OA
ATOM      8  C   UNL     1      11.325  -8.259  25.967  1.00  0.00     0.111 A 
ATOM      9  C   UNL     1       9.362  -8.192  27.413  1.00  0.00     0.094 A 
ATOM     10  C   UNL     1      10.746  -7.255  25.155  1.00  0.00     0.134 A 
ATOM     11  C   UNL     1       8.802  -7.187  26.622  1.00  0.00     0.123 A 
ATOM     12  C   UNL     1       9.488  -6.729  25.489  1.00  0.00     0.093 A 
BRANCH   3  13
ATOM     13  C   UNL     1      12.664 -11.412  28.457  1.00  0.00     0.025 A 
ATOM     14  C   UNL     1      13.635 -11.261  29.458  1.00  0.00     0.016 A 
ATOM     15  C   UNL     1      13.953 -12.342  30.287  1.00  0.00     0.051 A 
ATOM     16  C   UNL     1      13.320 -13.583  30.109  1.00  0.00     0.157 A 
ATOM     17  C   UNL     1      12.070 -12.665  28.240  1.00  0.00     0.062 A 
ATOM     18  C   UNL     1      12.384 -13.751  29.075  1.00  0.00     0.158 A 
BRANCH  16  19
ATOM     19  O   UNL     1      13.648 -14.638  30.958  1.00  0.00    -0.504 OA
ATOM     20  H   UNL     1      13.737 -14.513  31.962  1.00  0.00     0.293 HD
ENDBRANCH  16  19
BRANCH  18  21
ATOM     21  O   UNL     1      11.775 -14.991  28.873  1.00  0.00    -0.504 OA
ATOM     22  H   UNL     1      10.812 -15.155  29.138  1.00  0.00     0.293 HD
ENDBRANCH  18  21
ENDBRANCH   3  13
BRANCH  10  23
ATOM     23  O   UNL     1      11.401  -6.793  24.011  1.00  0.00    -0.507 OA
ATOM     24  H   UNL     1      12.353  -7.067  23.791  1.00  0.00     0.293 HD
ENDBRANCH  10  23
BRANCH  11  25
ATOM     25  O   UNL     1       7.569  -6.639  26.972  1.00  0.00    -0.508 OA
ATOM     26  H   UNL     1       7.357  -6.398  27.936  1.00  0.00     0.293 HD
ENDBRANCH  11  25
ENDBRANCH   1   2
BRANCH   1  27
ATOM     27  C   UNL     1      14.643 -11.609  25.738  1.00  0.00     0.339 C 
ATOM     28  C   UNL     1      15.357 -11.465  24.367  1.00  0.00     0.214 C 
ATOM     29  O   UNL     1      15.309 -12.496  26.629  1.00  0.00    -0.332 OA
ATOM     30  C   UNL     1      16.863 -11.180  24.508  1.00  0.00     0.180 C 
ATOM     31  C   UNL     1      16.696 -12.222  26.832  1.00  0.00     0.179 C 
ATOM     32  C   UNL     1      17.506 -12.140  25.517  1.00  0.00     0.177 C 
BRANCH  28  33
ATOM     33  O   UNL     1      14.748 -10.459  23.604  1.00  0.00    -0.384 OA
ATOM     34  H   UNL     1      14.788 -10.747  22.655  1.00  0.00     0.211 HD
ENDBRANCH  28  33
BRANCH  30  35
ATOM     35  O   UNL     1      17.065  -9.849  24.921  1.00  0.00    -0.387 OA
ATOM     36  H   UNL     1      16.588  -9.728  25.785  1.00  0.00     0.211 HD
ENDBRANCH  30  35
BRANCH  31  37
ATOM     37  C   UNL     1      16.950 -11.032  27.781  1.00  0.00     0.191 C 
BRANCH  37  38
ATOM     38  O   UNL     1      18.125 -10.361  27.414  1.00  0.00    -0.394 OA
ATOM     39  H   UNL     1      17.842  -9.615  26.825  1.00  0.00     0.210 HD
ENDBRANCH  37  38
ENDBRANCH  31  37
BRANCH  32  40
ATOM     40  O   UNL     1      17.683 -13.429  24.974  1.00  0.00    -0.387 OA
ATOM     41  H   UNL     1      17.288 -14.091  25.602  1.00  0.00     0.211 HD
ENDBRANCH  32  40
ENDBRANCH   1  27
TORSDOF 12
ENDMDL
