MODEL 1
REMARK VINA RESULT:    -4.383      0.000      0.000
REMARK INTER + INTRA:          -7.194
REMARK INTER:                  -6.689
REMARK INTRA:                  -0.504
REMARK UNBOUND:                -0.504
REMARK SMILES CC1=CCC[C@@H](C)C(=O)C[C@H](C(C)C)C(=O)C1
REMARK SMILES IDX 8 1 9 2 6 3 7 4 5 5 4 6 3 7 2 8 1 9 10 11 11 12 15 13 16 14
REMARK SMILES IDX 17 15 12 17 13 18 14 19
REMARK H PARENT
REMARK Flexibility Score: 70.00
ROOT
ATOM      1  C   UNL     1      33.214  18.898  24.852  1.00  0.00     0.136 C 
ATOM      2  O   UNL     1      33.315  19.425  25.950  1.00  0.00    -0.299 OA
ENDROOT
BRANCH   1   3
ATOM      3  C   UNL     1      34.467  18.774  23.960  1.00  0.00     0.053 C 
ATOM      4  C   UNL     1      35.680  18.256  24.747  1.00  0.00     0.016 C 
BRANCH   3   5
ATOM      5  C   UNL     1      34.728  20.159  23.401  1.00  0.00     0.015 C 
BRANCH   5   6
ATOM      6  C   UNL     1      33.717  21.072  22.756  1.00  0.00     0.028 C 
BRANCH   6   7
ATOM      7  C   UNL     1      33.143  20.375  21.520  1.00  0.00    -0.028 C 
ATOM      8  C   UNL     1      31.829  20.085  21.221  1.00  0.00    -0.070 CG0
ATOM      9  C   UNL     1      31.594  19.262  19.978  1.00  0.00     0.039 C 
ATOM     10  G   UNL     1      30.577  20.540  22.005  1.00  0.00     0.000 G0
ENDBRANCH   6   7
ENDBRANCH   5   6
ENDBRANCH   3   5
ENDBRANCH   1   3
BRANCH   1  11
ATOM     11  C   UNL     1      31.838  18.339  24.438  1.00  0.00     0.087 C 
BRANCH  11  12
ATOM     12  C   UNL     1      30.651  19.386  24.439  1.00  0.00     0.066 C 
BRANCH  12  13
ATOM     13  C   UNL     1      30.033  19.541  23.030  1.00  0.00     0.140 C 
ATOM     14  O   UNL     1      29.048  18.876  22.742  1.00  0.00    -0.299 OA
BRANCH  13  15
ATOM     15  C   UNL     1      30.570  20.538  21.996  1.00  0.00     0.106 CG0
ATOM     16  G   UNL     1      31.837  20.071  21.244  1.00  0.00     0.000 G0
ENDBRANCH  13  15
ENDBRANCH  12  13
BRANCH  12  17
ATOM     17  C   UNL     1      29.555  19.009  25.488  1.00  0.00    -0.006 C 
ATOM     18  C   UNL     1      28.799  20.243  26.017  1.00  0.00     0.008 C 
ATOM     19  C   UNL     1      30.165  18.264  26.694  1.00  0.00     0.008 C 
ENDBRANCH  12  17
ENDBRANCH  11  12
ENDBRANCH   1  11
TORSDOF 1
ENDMDL
MODEL 2
REMARK VINA RESULT:    -4.334      1.828      4.328
REMARK INTER + INTRA:          -7.119
REMARK INTER:                  -6.927
REMARK INTRA:                  -0.193
REMARK UNBOUND:                -0.504
REMARK SMILES CC1=CCC[C@@H](C)C(=O)C[C@H](C(C)C)C(=O)C1
REMARK SMILES IDX 8 1 9 2 6 3 7 4 5 5 4 6 3 7 2 8 1 9 10 11 11 12 15 13 16 14
REMARK SMILES IDX 17 15 12 17 13 18 14 19
REMARK H PARENT
REMARK Flexibility Score: 70.00
ROOT
ATOM      1  C   UNL     1      31.515  18.007  26.176  1.00  0.00     0.136 C 
ATOM      2  O   UNL     1      31.459  16.901  25.659  1.00  0.00    -0.299 OA
ENDROOT
BRANCH   1   3
ATOM      3  C   UNL     1      30.471  18.389  27.247  1.00  0.00     0.053 C 
ATOM      4  C   UNL     1      30.214  17.238  28.230  1.00  0.00     0.016 C 
BRANCH   3   5
ATOM      5  C   UNL     1      29.208  18.759  26.495  1.00  0.00     0.015 C 
BRANCH   5   6
ATOM      6  C   UNL     1      28.994  19.990  25.652  1.00  0.00     0.028 C 
BRANCH   6   7
ATOM      7  C   UNL     1      28.974  19.579  24.178  1.00  0.00    -0.028 C 
ATOM      8  C   UNL     1      29.948  19.748  23.218  1.00  0.00    -0.070 CG0
ATOM      9  C   UNL     1      29.572  19.354  21.809  1.00  0.00     0.039 C 
ATOM     10  G   UNL     1      31.388  20.264  23.438  1.00  0.00     0.000 G0
ENDBRANCH   6   7
ENDBRANCH   5   6
ENDBRANCH   3   5
ENDBRANCH   1   3
BRANCH   1  11
ATOM     11  C   UNL     1      32.663  18.947  25.760  1.00  0.00     0.087 C 
BRANCH  11  12
ATOM     12  C   UNL     1      33.324  18.632  24.357  1.00  0.00     0.066 C 
BRANCH  12  13
ATOM     13  C   UNL     1      32.508  19.249  23.196  1.00  0.00     0.140 C 
ATOM     14  O   UNL     1      32.725  18.868  22.054  1.00  0.00    -0.299 OA
BRANCH  13  15
ATOM     15  C   UNL     1      31.396  20.280  23.424  1.00  0.00     0.106 CG0
ATOM     16  G   UNL     1      29.962  19.744  23.210  1.00  0.00     0.000 G0
ENDBRANCH  13  15
ENDBRANCH  12  13
BRANCH  12  17
ATOM     17  C   UNL     1      34.813  19.108  24.303  1.00  0.00    -0.006 C 
ATOM     18  C   UNL     1      35.638  18.591  25.497  1.00  0.00     0.008 C 
ATOM     19  C   UNL     1      34.908  20.648  24.282  1.00  0.00     0.008 C 
ENDBRANCH  12  17
ENDBRANCH  11  12
ENDBRANCH   1  11
TORSDOF 1
ENDMDL
MODEL 3
REMARK VINA RESULT:    -4.244      1.468      4.046
REMARK INTER + INTRA:          -6.981
REMARK INTER:                  -6.944
REMARK INTRA:                  -0.038
REMARK UNBOUND:                -0.504
REMARK SMILES CC1=CCC[C@@H](C)C(=O)C[C@H](C(C)C)C(=O)C1
REMARK SMILES IDX 8 1 9 2 6 3 7 4 5 5 4 6 3 7 2 8 1 9 10 11 11 12 15 13 16 14
REMARK SMILES IDX 17 15 12 17 13 18 14 19
REMARK H PARENT
REMARK Flexibility Score: 70.00
ROOT
ATOM      1  C   UNL     1      31.172  19.268  25.077  1.00  0.00     0.136 C 
ATOM      2  O   UNL     1      31.199  18.126  25.513  1.00  0.00    -0.299 OA
ENDROOT
BRANCH   1   3
ATOM      3  C   UNL     1      29.819  19.880  24.658  1.00  0.00     0.053 C 
ATOM      4  C   UNL     1      28.661  19.346  25.514  1.00  0.00     0.016 C 
BRANCH   3   5
ATOM      5  C   UNL     1      29.627  19.526  23.197  1.00  0.00     0.015 C 
BRANCH   5   6
ATOM      6  C   UNL     1      29.892  20.421  22.014  1.00  0.00     0.028 C 
BRANCH   6   7
ATOM      7  C   UNL     1      30.655  19.624  20.953  1.00  0.00    -0.028 C 
ATOM      8  C   UNL     1      31.954  19.780  20.520  1.00  0.00    -0.070 CG0
ATOM      9  C   UNL     1      32.376  18.918  19.354  1.00  0.00     0.039 C 
ATOM     10  G   UNL     1      33.026  20.717  21.121  1.00  0.00     0.000 G0
ENDBRANCH   6   7
ENDBRANCH   5   6
ENDBRANCH   3   5
ENDBRANCH   1   3
BRANCH   1  11
ATOM     11  C   UNL     1      32.497  20.053  25.014  1.00  0.00     0.087 C 
BRANCH  11  12
ATOM     12  C   UNL     1      33.324  19.884  23.675  1.00  0.00     0.066 C 
BRANCH  12  13
ATOM     13  C   UNL     1      32.929  20.953  22.629  1.00  0.00     0.140 C 
ATOM     14  O   UNL     1      32.556  22.051  23.019  1.00  0.00    -0.299 OA
BRANCH  13  15
ATOM     15  C   UNL     1      33.040  20.714  21.118  1.00  0.00     0.106 CG0
ATOM     16  G   UNL     1      31.963  19.773  20.531  1.00  0.00     0.000 G0
ENDBRANCH  13  15
ENDBRANCH  12  13
BRANCH  12  17
ATOM     17  C   UNL     1      34.864  19.912  23.943  1.00  0.00    -0.006 C 
ATOM     18  C   UNL     1      35.441  18.506  24.198  1.00  0.00     0.008 C 
ATOM     19  C   UNL     1      35.205  20.800  25.158  1.00  0.00     0.008 C 
ENDBRANCH  12  17
ENDBRANCH  11  12
ENDBRANCH   1  11
TORSDOF 1
ENDMDL
MODEL 4
REMARK VINA RESULT:    -4.158      3.847      6.187
REMARK INTER + INTRA:          -6.850
REMARK INTER:                  -7.205
REMARK INTRA:                   0.355
REMARK UNBOUND:                -0.504
REMARK SMILES CC1=CCC[C@@H](C)C(=O)C[C@H](C(C)C)C(=O)C1
REMARK SMILES IDX 8 1 9 2 6 3 7 4 5 5 4 6 3 7 2 8 1 9 10 11 11 12 15 13 16 14
REMARK SMILES IDX 17 15 12 17 13 18 14 19
REMARK H PARENT
REMARK Flexibility Score: 70.00
ROOT
ATOM      1  C   UNL     1      32.271  18.496  17.854  1.00  0.00     0.136 C 
ATOM      2  O   UNL     1      33.311  17.896  18.086  1.00  0.00    -0.299 OA
ENDROOT
BRANCH   1   3
ATOM      3  C   UNL     1      31.779  18.609  16.396  1.00  0.00     0.053 C 
ATOM      4  C   UNL     1      31.081  17.325  15.927  1.00  0.00     0.016 C 
BRANCH   3   5
ATOM      5  C   UNL     1      33.007  18.902  15.556  1.00  0.00     0.015 C 
BRANCH   5   6
ATOM      6  C   UNL     1      33.512  20.262  15.148  1.00  0.00     0.028 C 
BRANCH   6   7
ATOM      7  C   UNL     1      34.513  20.751  16.198  1.00  0.00    -0.028 C 
ATOM      8  C   UNL     1      34.269  21.337  17.421  1.00  0.00    -0.070 CG0
ATOM      9  C   UNL     1      35.479  21.836  18.174  1.00  0.00     0.039 C 
ATOM     10  G   UNL     1      32.897  21.506  18.112  1.00  0.00     0.000 G0
ENDBRANCH   6   7
ENDBRANCH   5   6
ENDBRANCH   3   5
ENDBRANCH   1   3
BRANCH   1  11
ATOM     11  C   UNL     1      31.481  19.067  19.047  1.00  0.00     0.087 C 
BRANCH  11  12
ATOM     12  C   UNL     1      32.347  19.810  20.144  1.00  0.00     0.066 C 
BRANCH  12  13
ATOM     13  C   UNL     1      32.885  21.162  19.619  1.00  0.00     0.140 C 
ATOM     14  O   UNL     1      33.353  21.961  20.418  1.00  0.00    -0.299 OA
BRANCH  13  15
ATOM     15  C   UNL     1      32.908  21.520  18.128  1.00  0.00     0.106 CG0
ATOM     16  G   UNL     1      34.276  21.323  17.436  1.00  0.00     0.000 G0
ENDBRANCH  13  15
ENDBRANCH  12  13
BRANCH  12  17
ATOM     17  C   UNL     1      31.545  20.009  21.471  1.00  0.00    -0.006 C 
ATOM     18  C   UNL     1      32.228  19.334  22.677  1.00  0.00     0.008 C 
ATOM     19  C   UNL     1      30.114  19.447  21.351  1.00  0.00     0.008 C 
ENDBRANCH  12  17
ENDBRANCH  11  12
ENDBRANCH   1  11
TORSDOF 1
ENDMDL
MODEL 5
REMARK VINA RESULT:    -4.111      1.636      4.177
REMARK INTER + INTRA:          -6.778
REMARK INTER:                  -6.687
REMARK INTRA:                  -0.092
REMARK UNBOUND:                -0.504
REMARK SMILES CC1=CCC[C@@H](C)C(=O)C[C@H](C(C)C)C(=O)C1
REMARK SMILES IDX 8 1 9 2 6 3 7 4 5 5 4 6 3 7 2 8 1 9 10 11 11 12 15 13 16 14
REMARK SMILES IDX 17 15 12 17 13 18 14 19
REMARK H PARENT
REMARK Flexibility Score: 70.00
ROOT
ATOM      1  C   UNL     1      34.112  20.478  23.704  1.00  0.00     0.136 C 
ATOM      2  O   UNL     1      35.088  19.961  23.178  1.00  0.00    -0.299 OA
ENDROOT
BRANCH   1   3
ATOM      3  C   UNL     1      34.047  20.567  25.243  1.00  0.00     0.053 C 
ATOM      4  C   UNL     1      35.394  20.988  25.848  1.00  0.00     0.016 C 
BRANCH   3   5
ATOM      5  C   UNL     1      33.634  19.192  25.730  1.00  0.00     0.015 C 
BRANCH   5   6
ATOM      6  C   UNL     1      32.758  18.207  25.000  1.00  0.00     0.028 C 
BRANCH   6   7
ATOM      7  C   UNL     1      31.326  18.341  25.522  1.00  0.00    -0.028 C 
ATOM      8  C   UNL     1      30.361  19.265  25.181  1.00  0.00    -0.070 CG0
ATOM      9  C   UNL     1      29.080  19.218  25.978  1.00  0.00     0.039 C 
ATOM     10  G   UNL     1      30.444  20.317  24.052  1.00  0.00     0.000 G0
ENDBRANCH   6   7
ENDBRANCH   5   6
ENDBRANCH   3   5
ENDBRANCH   1   3
BRANCH   1  11
ATOM     11  C   UNL     1      33.016  21.058  22.788  1.00  0.00     0.087 C 
BRANCH  11  12
ATOM     12  C   UNL     1      32.162  19.991  21.990  1.00  0.00     0.066 C 
BRANCH  12  13
ATOM     13  C   UNL     1      30.783  19.762  22.653  1.00  0.00     0.140 C 
ATOM     14  O   UNL     1      29.957  19.072  22.071  1.00  0.00    -0.299 OA
BRANCH  13  15
ATOM     15  C   UNL     1      30.427  20.317  24.037  1.00  0.00     0.106 CG0
ATOM     16  G   UNL     1      30.360  19.259  25.162  1.00  0.00     0.000 G0
ENDBRANCH  13  15
ENDBRANCH  12  13
BRANCH  12  17
ATOM     17  C   UNL     1      31.996  20.395  20.489  1.00  0.00    -0.006 C 
ATOM     18  C   UNL     1      31.724  19.180  19.580  1.00  0.00     0.008 C 
ATOM     19  C   UNL     1      33.251  21.120  19.962  1.00  0.00     0.008 C 
ENDBRANCH  12  17
ENDBRANCH  11  12
ENDBRANCH   1  11
TORSDOF 1
ENDMDL
MODEL 6
REMARK VINA RESULT:    -4.097      4.606      7.053
REMARK INTER + INTRA:          -6.757
REMARK INTER:                  -6.380
REMARK INTRA:                  -0.377
REMARK UNBOUND:                -0.504
REMARK SMILES CC1=CCC[C@@H](C)C(=O)C[C@H](C(C)C)C(=O)C1
REMARK SMILES IDX 8 1 9 2 6 3 7 4 5 5 4 6 3 7 2 8 1 9 10 11 11 12 15 13 16 14
REMARK SMILES IDX 17 15 12 17 13 18 14 19
REMARK H PARENT
REMARK Flexibility Score: 70.00
ROOT
ATOM      1  C   UNL     1      39.066  19.054  26.939  1.00  0.00     0.136 C 
ATOM      2  O   UNL     1      40.150  19.594  26.767  1.00  0.00    -0.299 OA
ENDROOT
BRANCH   1   3
ATOM      3  C   UNL     1      38.813  17.664  26.318  1.00  0.00     0.053 C 
ATOM      4  C   UNL     1      39.714  17.408  25.101  1.00  0.00     0.016 C 
BRANCH   3   5
ATOM      5  C   UNL     1      37.348  17.633  25.931  1.00  0.00     0.015 C 
BRANCH   5   6
ATOM      6  C   UNL     1      36.757  18.076  24.617  1.00  0.00     0.028 C 
BRANCH   6   7
ATOM      7  C   UNL     1      35.475  18.864  24.894  1.00  0.00    -0.028 C 
ATOM      8  C   UNL     1      35.332  20.179  25.281  1.00  0.00    -0.070 CG0
ATOM      9  C   UNL     1      33.929  20.629  25.610  1.00  0.00     0.039 C 
ATOM     10  G   UNL     1      36.449  21.243  25.382  1.00  0.00     0.000 G0
ENDBRANCH   6   7
ENDBRANCH   5   6
ENDBRANCH   3   5
ENDBRANCH   1   3
BRANCH   1  11
ATOM     11  C   UNL     1      38.024  19.778  27.813  1.00  0.00     0.087 C 
BRANCH  11  12
ATOM     12  C   UNL     1      37.956  21.349  27.629  1.00  0.00     0.066 C 
BRANCH  12  13
ATOM     13  C   UNL     1      36.709  21.769  26.816  1.00  0.00     0.140 C 
ATOM     14  O   UNL     1      35.925  22.567  27.309  1.00  0.00    -0.299 OA
BRANCH  13  15
ATOM     15  C   UNL     1      36.443  21.269  25.391  1.00  0.00     0.106 CG0
ATOM     16  G   UNL     1      35.350  20.182  25.279  1.00  0.00     0.000 G0
ENDBRANCH  13  15
ENDBRANCH  12  13
BRANCH  12  17
ATOM     17  C   UNL     1      37.998  22.091  29.004  1.00  0.00    -0.006 C 
ATOM     18  C   UNL     1      39.166  23.092  29.096  1.00  0.00     0.008 C 
ATOM     19  C   UNL     1      38.124  21.094  30.175  1.00  0.00     0.008 C 
ENDBRANCH  12  17
ENDBRANCH  11  12
ENDBRANCH   1  11
TORSDOF 1
ENDMDL
MODEL 7
REMARK VINA RESULT:    -4.068      4.826      7.377
REMARK INTER + INTRA:          -6.712
REMARK INTER:                  -6.277
REMARK INTRA:                  -0.435
REMARK UNBOUND:                -0.504
REMARK SMILES CC1=CCC[C@@H](C)C(=O)C[C@H](C(C)C)C(=O)C1
REMARK SMILES IDX 8 1 9 2 6 3 7 4 5 5 4 6 3 7 2 8 1 9 10 11 11 12 15 13 16 14
REMARK SMILES IDX 17 15 12 17 13 18 14 19
REMARK H PARENT
REMARK Flexibility Score: 70.00
ROOT
ATOM      1  C   UNL     1      37.846  18.424  25.054  1.00  0.00     0.136 C 
ATOM      2  O   UNL     1      37.202  17.392  25.169  1.00  0.00    -0.299 OA
ENDROOT
BRANCH   1   3
ATOM      3  C   UNL     1      39.384  18.367  25.168  1.00  0.00     0.053 C 
ATOM      4  C   UNL     1      39.936  16.990  24.772  1.00  0.00     0.016 C 
BRANCH   3   5
ATOM      5  C   UNL     1      39.714  18.695  26.611  1.00  0.00     0.015 C 
BRANCH   5   6
ATOM      6  C   UNL     1      40.463  19.903  27.109  1.00  0.00     0.028 C 
BRANCH   6   7
ATOM      7  C   UNL     1      39.619  20.600  28.179  1.00  0.00    -0.028 C 
ATOM      8  C   UNL     1      38.598  21.512  28.019  1.00  0.00    -0.070 CG0
ATOM      9  C   UNL     1      38.047  22.126  29.283  1.00  0.00     0.039 C 
ATOM     10  G   UNL     1      37.939  21.943  26.688  1.00  0.00     0.000 G0
ENDBRANCH   6   7
ENDBRANCH   5   6
ENDBRANCH   3   5
ENDBRANCH   1   3
BRANCH   1  11
ATOM     11  C   UNL     1      37.081  19.727  24.750  1.00  0.00     0.087 C 
BRANCH  11  12
ATOM     12  C   UNL     1      36.056  20.189  25.864  1.00  0.00     0.066 C 
BRANCH  12  13
ATOM     13  C   UNL     1      36.480  21.535  26.498  1.00  0.00     0.140 C 
ATOM     14  O   UNL     1      35.612  22.287  26.921  1.00  0.00    -0.299 OA
BRANCH  13  15
ATOM     15  C   UNL     1      37.948  21.943  26.671  1.00  0.00     0.106 CG0
ATOM     16  G   UNL     1      38.584  21.520  28.014  1.00  0.00     0.000 G0
ENDBRANCH  13  15
ENDBRANCH  12  13
BRANCH  12  17
ATOM     17  C   UNL     1      34.599  20.274  25.304  1.00  0.00    -0.006 C 
ATOM     18  C   UNL     1      33.749  19.047  25.692  1.00  0.00     0.008 C 
ATOM     19  C   UNL     1      34.595  20.396  23.766  1.00  0.00     0.008 C 
ENDBRANCH  12  17
ENDBRANCH  11  12
ENDBRANCH   1  11
TORSDOF 1
ENDMDL
MODEL 8
REMARK VINA RESULT:    -4.046      1.653      3.917
REMARK INTER + INTRA:          -6.680
REMARK INTER:                  -6.513
REMARK INTRA:                  -0.167
REMARK UNBOUND:                -0.504
REMARK SMILES CC1=CCC[C@@H](C)C(=O)C[C@H](C(C)C)C(=O)C1
REMARK SMILES IDX 8 1 9 2 6 3 7 4 5 5 4 6 3 7 2 8 1 9 10 11 11 12 15 13 16 14
REMARK SMILES IDX 17 15 12 17 13 18 14 19
REMARK H PARENT
REMARK Flexibility Score: 70.00
ROOT
ATOM      1  C   UNL     1      30.170  19.667  22.402  1.00  0.00     0.136 C 
ATOM      2  O   UNL     1      29.237  18.927  22.123  1.00  0.00    -0.299 OA
ENDROOT
BRANCH   1   3
ATOM      3  C   UNL     1      31.134  20.116  21.284  1.00  0.00     0.053 C 
ATOM      4  C   UNL     1      30.931  19.305  19.996  1.00  0.00     0.016 C 
BRANCH   3   5
ATOM      5  C   UNL     1      32.535  19.930  21.833  1.00  0.00     0.015 C 
BRANCH   5   6
ATOM      6  C   UNL     1      33.442  21.010  22.363  1.00  0.00     0.028 C 
BRANCH   6   7
ATOM      7  C   UNL     1      34.467  20.374  23.305  1.00  0.00    -0.028 C 
ATOM      8  C   UNL     1      34.323  20.016  24.629  1.00  0.00    -0.070 CG0
ATOM      9  C   UNL     1      35.570  19.532  25.328  1.00  0.00     0.039 C 
ATOM     10  G   UNL     1      33.017  20.027  25.456  1.00  0.00     0.000 G0
ENDBRANCH   6   7
ENDBRANCH   5   6
ENDBRANCH   3   5
ENDBRANCH   1   3
BRANCH   1  11
ATOM     11  C   UNL     1      30.301  20.151  23.860  1.00  0.00     0.087 C 
BRANCH  11  12
ATOM     12  C   UNL     1      30.559  19.016  24.932  1.00  0.00     0.066 C 
BRANCH  12  13
ATOM     13  C   UNL     1      32.070  18.839  25.215  1.00  0.00     0.140 C 
ATOM     14  O   UNL     1      32.544  17.712  25.203  1.00  0.00    -0.299 OA
BRANCH  13  15
ATOM     15  C   UNL     1      33.010  20.026  25.457  1.00  0.00     0.106 CG0
ATOM     16  G   UNL     1      34.309  20.004  24.618  1.00  0.00     0.000 G0
ENDBRANCH  13  15
ENDBRANCH  12  13
BRANCH  12  17
ATOM     17  C   UNL     1      29.774  19.288  26.257  1.00  0.00    -0.006 C 
ATOM     18  C   UNL     1      29.707  18.045  27.166  1.00  0.00     0.008 C 
ATOM     19  C   UNL     1      28.332  19.753  25.969  1.00  0.00     0.008 C 
ENDBRANCH  12  17
ENDBRANCH  11  12
ENDBRANCH   1  11
TORSDOF 1
ENDMDL
MODEL 9
REMARK VINA RESULT:    -4.013      4.481      6.988
REMARK INTER + INTRA:          -6.629
REMARK INTER:                  -6.408
REMARK INTRA:                  -0.221
REMARK UNBOUND:                -0.504
REMARK SMILES CC1=CCC[C@@H](C)C(=O)C[C@H](C(C)C)C(=O)C1
REMARK SMILES IDX 8 1 9 2 6 3 7 4 5 5 4 6 3 7 2 8 1 9 10 11 11 12 15 13 16 14
REMARK SMILES IDX 17 15 12 17 13 18 14 19
REMARK H PARENT
REMARK Flexibility Score: 70.00
ROOT
ATOM      1  C   UNL     1      36.774  21.289  26.481  1.00  0.00     0.136 C 
ATOM      2  O   UNL     1      37.169  22.070  25.627  1.00  0.00    -0.299 OA
ENDROOT
BRANCH   1   3
ATOM      3  C   UNL     1      37.350  21.383  27.909  1.00  0.00     0.053 C 
ATOM      4  C   UNL     1      36.980  22.710  28.588  1.00  0.00     0.016 C 
BRANCH   3   5
ATOM      5  C   UNL     1      38.852  21.240  27.770  1.00  0.00     0.015 C 
BRANCH   5   6
ATOM      6  C   UNL     1      39.660  19.989  28.000  1.00  0.00     0.028 C 
BRANCH   6   7
ATOM      7  C   UNL     1      39.939  19.327  26.649  1.00  0.00    -0.028 C 
ATOM      8  C   UNL     1      39.157  18.441  25.939  1.00  0.00    -0.070 CG0
ATOM      9  C   UNL     1      39.775  17.857  24.691  1.00  0.00     0.039 C 
ATOM     10  G   UNL     1      37.710  18.010  26.270  1.00  0.00     0.000 G0
ENDBRANCH   6   7
ENDBRANCH   5   6
ENDBRANCH   3   5
ENDBRANCH   1   3
BRANCH   1  11
ATOM     11  C   UNL     1      35.678  20.278  26.089  1.00  0.00     0.087 C 
BRANCH  11  12
ATOM     12  C   UNL     1      35.959  19.449  24.770  1.00  0.00     0.066 C 
BRANCH  12  13
ATOM     13  C   UNL     1      36.727  18.142  25.077  1.00  0.00     0.140 C 
ATOM     14  O   UNL     1      36.593  17.188  24.324  1.00  0.00    -0.299 OA
BRANCH  13  15
ATOM     15  C   UNL     1      37.697  18.010  26.258  1.00  0.00     0.106 CG0
ATOM     16  G   UNL     1      39.154  18.424  25.949  1.00  0.00     0.000 G0
ENDBRANCH  13  15
ENDBRANCH  12  13
BRANCH  12  17
ATOM     17  C   UNL     1      34.638  19.146  23.991  1.00  0.00    -0.006 C 
ATOM     18  C   UNL     1      34.261  20.275  23.012  1.00  0.00     0.008 C 
ATOM     19  C   UNL     1      33.454  18.931  24.956  1.00  0.00     0.008 C 
ENDBRANCH  12  17
ENDBRANCH  11  12
ENDBRANCH   1  11
TORSDOF 1
ENDMDL
