MODEL 1
REMARK VINA RESULT:    -5.577      0.000      0.000
REMARK INTER + INTRA:          -7.336
REMARK INTER:                  -7.207
REMARK INTRA:                  -0.129
REMARK UNBOUND:                -0.129
REMARK SMILES CCCCCCC(C)=O
REMARK SMILES IDX 4 1 3 2 2 3 1 4 5 5 6 6 7 7 9 8 8 9
REMARK H PARENT
REMARK Flexibility Score: inf
ROOT
ATOM      1  C   UNL     1      22.420  52.167  -4.376  1.00  0.00     0.000 C 
ENDROOT
BRANCH   1   2
ATOM      2  C   UNL     1      22.829  53.543  -4.938  1.00  0.00    -0.000 C 
BRANCH   2   3
ATOM      3  C   UNL     1      22.888  53.627  -6.472  1.00  0.00    -0.003 C 
ATOM      4  C   UNL     1      23.773  54.766  -6.974  1.00  0.00     0.004 C 
ENDBRANCH   2   3
ENDBRANCH   1   2
BRANCH   1   5
ATOM      5  C   UNL     1      23.277  50.984  -4.861  1.00  0.00     0.008 C 
BRANCH   5   6
ATOM      6  C   UNL     1      23.289  49.810  -3.871  1.00  0.00     0.075 C 
BRANCH   6   7
ATOM      7  C   UNL     1      24.120  48.674  -4.407  1.00  0.00     0.129 C 
ATOM      8  O   UNL     1      24.118  48.440  -5.606  1.00  0.00    -0.300 OA
ATOM      9  C   UNL     1      24.962  47.826  -3.500  1.00  0.00     0.087 C 
ENDBRANCH   6   7
ENDBRANCH   5   6
ENDBRANCH   1   5
TORSDOF 5
ENDMDL
MODEL 2
REMARK VINA RESULT:    -5.540      1.970      5.266
REMARK INTER + INTRA:          -7.288
REMARK INTER:                  -7.142
REMARK INTRA:                  -0.145
REMARK UNBOUND:                -0.129
REMARK SMILES CCCCCCC(C)=O
REMARK SMILES IDX 4 1 3 2 2 3 1 4 5 5 6 6 7 7 9 8 8 9
REMARK H PARENT
REMARK Flexibility Score: inf
ROOT
ATOM      1  C   UNL     1      23.574  51.428  -4.722  1.00  0.00     0.000 C 
ENDROOT
BRANCH   1   2
ATOM      2  C   UNL     1      23.232  49.932  -4.577  1.00  0.00    -0.000 C 
BRANCH   2   3
ATOM      3  C   UNL     1      24.367  48.966  -4.957  1.00  0.00    -0.003 C 
ATOM      4  C   UNL     1      24.704  47.975  -3.845  1.00  0.00     0.004 C 
ENDBRANCH   2   3
ENDBRANCH   1   2
BRANCH   1   5
ATOM      5  C   UNL     1      22.359  52.374  -4.754  1.00  0.00     0.008 C 
BRANCH   5   6
ATOM      6  C   UNL     1      22.756  53.850  -4.901  1.00  0.00     0.075 C 
BRANCH   6   7
ATOM      7  C   UNL     1      23.116  54.163  -6.329  1.00  0.00     0.129 C 
ATOM      8  O   UNL     1      22.485  53.642  -7.237  1.00  0.00    -0.300 OA
ATOM      9  C   UNL     1      24.229  55.110  -6.665  1.00  0.00     0.087 C 
ENDBRANCH   6   7
ENDBRANCH   5   6
ENDBRANCH   1   5
TORSDOF 5
ENDMDL
MODEL 3
REMARK VINA RESULT:    -5.454      2.089      5.497
REMARK INTER + INTRA:          -7.178
REMARK INTER:                  -7.049
REMARK INTRA:                  -0.129
REMARK UNBOUND:                -0.129
REMARK SMILES CCCCCCC(C)=O
REMARK SMILES IDX 4 1 3 2 2 3 1 4 5 5 6 6 7 7 9 8 8 9
REMARK H PARENT
REMARK Flexibility Score: inf
ROOT
ATOM      1  C   UNL     1      23.446  49.198  -5.001  1.00  0.00     0.000 C 
ENDROOT
BRANCH   1   2
ATOM      2  C   UNL     1      24.663  48.296  -4.714  1.00  0.00    -0.000 C 
BRANCH   2   3
ATOM      3  C   UNL     1      24.707  47.694  -3.299  1.00  0.00    -0.003 C 
ATOM      4  C   UNL     1      26.092  47.177  -2.914  1.00  0.00     0.004 C 
ENDBRANCH   2   3
ENDBRANCH   1   2
BRANCH   1   5
ATOM      5  C   UNL     1      23.671  50.698  -4.740  1.00  0.00     0.008 C 
BRANCH   5   6
ATOM      6  C   UNL     1      22.362  51.497  -4.685  1.00  0.00     0.075 C 
BRANCH   6   7
ATOM      7  C   UNL     1      22.631  52.969  -4.863  1.00  0.00     0.129 C 
ATOM      8  O   UNL     1      22.619  53.704  -3.887  1.00  0.00    -0.300 OA
ATOM      9  C   UNL     1      22.925  53.552  -6.212  1.00  0.00     0.087 C 
ENDBRANCH   6   7
ENDBRANCH   5   6
ENDBRANCH   1   5
TORSDOF 5
ENDMDL
MODEL 4
REMARK VINA RESULT:    -5.162      2.839      4.693
REMARK INTER + INTRA:          -6.800
REMARK INTER:                  -6.708
REMARK INTRA:                  -0.092
REMARK UNBOUND:                -0.129
REMARK SMILES CCCCCCC(C)=O
REMARK SMILES IDX 4 1 3 2 2 3 1 4 5 5 6 6 7 7 9 8 8 9
REMARK H PARENT
REMARK Flexibility Score: inf
ROOT
ATOM      1  C   UNL     1      24.430  54.853  -7.848  1.00  0.00     0.000 C 
ENDROOT
BRANCH   1   2
ATOM      2  C   UNL     1      25.506  55.958  -7.835  1.00  0.00    -0.000 C 
BRANCH   2   3
ATOM      3  C   UNL     1      25.096  57.272  -8.522  1.00  0.00    -0.003 C 
ATOM      4  C   UNL     1      26.283  58.030  -9.114  1.00  0.00     0.004 C 
ENDBRANCH   2   3
ENDBRANCH   1   2
BRANCH   1   5
ATOM      5  C   UNL     1      23.596  54.742  -6.559  1.00  0.00     0.008 C 
BRANCH   5   6
ATOM      6  C   UNL     1      22.851  53.405  -6.444  1.00  0.00     0.075 C 
BRANCH   6   7
ATOM      7  C   UNL     1      22.775  52.961  -5.006  1.00  0.00     0.129 C 
ATOM      8  O   UNL     1      22.596  53.793  -4.129  1.00  0.00    -0.300 OA
ATOM      9  C   UNL     1      22.905  51.516  -4.626  1.00  0.00     0.087 C 
ENDBRANCH   6   7
ENDBRANCH   5   6
ENDBRANCH   1   5
TORSDOF 5
ENDMDL
MODEL 5
REMARK VINA RESULT:    -5.110      3.082      6.199
REMARK INTER + INTRA:          -6.733
REMARK INTER:                  -6.621
REMARK INTRA:                  -0.112
REMARK UNBOUND:                -0.129
REMARK SMILES CCCCCCC(C)=O
REMARK SMILES IDX 4 1 3 2 2 3 1 4 5 5 6 6 7 7 9 8 8 9
REMARK H PARENT
REMARK Flexibility Score: inf
ROOT
ATOM      1  C   UNL     1      22.915  53.455  -6.093  1.00  0.00     0.000 C 
ENDROOT
BRANCH   1   2
ATOM      2  C   UNL     1      22.492  53.187  -4.635  1.00  0.00    -0.000 C 
BRANCH   2   3
ATOM      3  C   UNL     1      22.119  51.728  -4.324  1.00  0.00    -0.003 C 
ATOM      4  C   UNL     1      23.233  50.741  -4.666  1.00  0.00     0.004 C 
ENDBRANCH   2   3
ENDBRANCH   1   2
BRANCH   1   5
ATOM      5  C   UNL     1      23.700  54.761  -6.315  1.00  0.00     0.008 C 
BRANCH   5   6
ATOM      6  C   UNL     1      24.089  54.981  -7.783  1.00  0.00     0.075 C 
BRANCH   6   7
ATOM      7  C   UNL     1      25.080  56.109  -7.905  1.00  0.00     0.129 C 
ATOM      8  O   UNL     1      26.160  56.025  -7.339  1.00  0.00    -0.300 OA
ATOM      9  C   UNL     1      24.775  57.333  -8.716  1.00  0.00     0.087 C 
ENDBRANCH   6   7
ENDBRANCH   5   6
ENDBRANCH   1   5
TORSDOF 5
ENDMDL
MODEL 6
REMARK VINA RESULT:    -4.888      4.342      7.293
REMARK INTER + INTRA:          -6.446
REMARK INTER:                  -6.346
REMARK INTRA:                  -0.100
REMARK UNBOUND:                -0.129
REMARK SMILES CCCCCCC(C)=O
REMARK SMILES IDX 4 1 3 2 2 3 1 4 5 5 6 6 7 7 9 8 8 9
REMARK H PARENT
REMARK Flexibility Score: inf
ROOT
ATOM      1  C   UNL     1      24.040  54.402  -7.307  1.00  0.00     0.000 C 
ENDROOT
BRANCH   1   2
ATOM      2  C   UNL     1      22.887  54.218  -6.300  1.00  0.00    -0.000 C 
BRANCH   2   3
ATOM      3  C   UNL     1      22.803  52.823  -5.657  1.00  0.00    -0.003 C 
ATOM      4  C   UNL     1      22.831  52.868  -4.130  1.00  0.00     0.004 C 
ENDBRANCH   2   3
ENDBRANCH   1   2
BRANCH   1   5
ATOM      5  C   UNL     1      24.745  55.769  -7.246  1.00  0.00     0.008 C 
BRANCH   5   6
ATOM      6  C   UNL     1      25.627  56.042  -8.473  1.00  0.00     0.075 C 
BRANCH   6   7
ATOM      7  C   UNL     1      25.600  57.505  -8.831  1.00  0.00     0.129 C 
ATOM      8  O   UNL     1      24.645  58.189  -8.494  1.00  0.00    -0.300 OA
ATOM      9  C   UNL     1      26.727  58.145  -9.585  1.00  0.00     0.087 C 
ENDBRANCH   6   7
ENDBRANCH   5   6
ENDBRANCH   1   5
TORSDOF 5
ENDMDL
MODEL 7
REMARK VINA RESULT:    -4.625      4.965      8.311
REMARK INTER + INTRA:          -6.106
REMARK INTER:                  -6.028
REMARK INTRA:                  -0.077
REMARK UNBOUND:                -0.129
REMARK SMILES CCCCCCC(C)=O
REMARK SMILES IDX 4 1 3 2 2 3 1 4 5 5 6 6 7 7 9 8 8 9
REMARK H PARENT
REMARK Flexibility Score: inf
ROOT
ATOM      1  C   UNL     1      24.242  55.702  -8.332  1.00  0.00     0.000 C 
ENDROOT
BRANCH   1   2
ATOM      2  C   UNL     1      24.107  55.020  -6.955  1.00  0.00    -0.000 C 
BRANCH   2   3
ATOM      3  C   UNL     1      23.001  53.955  -6.863  1.00  0.00    -0.003 C 
ATOM      4  C   UNL     1      23.016  53.194  -5.539  1.00  0.00     0.004 C 
ENDBRANCH   2   3
ENDBRANCH   1   2
BRANCH   1   5
ATOM      5  C   UNL     1      25.551  56.483  -8.546  1.00  0.00     0.008 C 
BRANCH   5   6
ATOM      6  C   UNL     1      25.325  57.993  -8.707  1.00  0.00     0.075 C 
BRANCH   6   7
ATOM      7  C   UNL     1      26.525  58.643  -9.345  1.00  0.00     0.129 C 
ATOM      8  O   UNL     1      27.059  58.108 -10.304  1.00  0.00    -0.300 OA
ATOM      9  C   UNL     1      27.073  59.943  -8.836  1.00  0.00     0.087 C 
ENDBRANCH   6   7
ENDBRANCH   5   6
ENDBRANCH   1   5
TORSDOF 5
ENDMDL
MODEL 8
REMARK VINA RESULT:    -4.614      3.857      6.226
REMARK INTER + INTRA:          -6.091
REMARK INTER:                  -6.010
REMARK INTRA:                  -0.081
REMARK UNBOUND:                -0.129
REMARK SMILES CCCCCCC(C)=O
REMARK SMILES IDX 4 1 3 2 2 3 1 4 5 5 6 6 7 7 9 8 8 9
REMARK H PARENT
REMARK Flexibility Score: inf
ROOT
ATOM      1  C   UNL     1      25.512  56.249  -8.544  1.00  0.00     0.000 C 
ENDROOT
BRANCH   1   2
ATOM      2  C   UNL     1      25.475  57.778  -8.739  1.00  0.00    -0.000 C 
BRANCH   2   3
ATOM      3  C   UNL     1      26.721  58.377  -9.413  1.00  0.00    -0.003 C 
ATOM      4  C   UNL     1      26.955  59.840  -9.042  1.00  0.00     0.004 C 
ENDBRANCH   2   3
ENDBRANCH   1   2
BRANCH   1   5
ATOM      5  C   UNL     1      24.188  55.620  -8.072  1.00  0.00     0.008 C 
BRANCH   5   6
ATOM      6  C   UNL     1      24.212  55.220  -6.590  1.00  0.00     0.075 C 
BRANCH   6   7
ATOM      7  C   UNL     1      23.150  54.191  -6.302  1.00  0.00     0.129 C 
ATOM      8  O   UNL     1      22.600  53.619  -7.231  1.00  0.00    -0.300 OA
ATOM      9  C   UNL     1      22.761  53.843  -4.896  1.00  0.00     0.087 C 
ENDBRANCH   6   7
ENDBRANCH   5   6
ENDBRANCH   1   5
TORSDOF 5
ENDMDL
MODEL 9
REMARK VINA RESULT:    -4.592      1.463      2.092
REMARK INTER + INTRA:          -6.063
REMARK INTER:                  -5.845
REMARK INTRA:                  -0.218
REMARK UNBOUND:                -0.129
REMARK SMILES CCCCCCC(C)=O
REMARK SMILES IDX 4 1 3 2 2 3 1 4 5 5 6 6 7 7 9 8 8 9
REMARK H PARENT
REMARK Flexibility Score: inf
ROOT
ATOM      1  C   UNL     1      22.952  53.991  -5.108  1.00  0.00     0.000 C 
ENDROOT
BRANCH   1   2
ATOM      2  C   UNL     1      22.693  53.789  -6.615  1.00  0.00    -0.000 C 
BRANCH   2   3
ATOM      3  C   UNL     1      23.811  54.299  -7.540  1.00  0.00    -0.003 C 
ATOM      4  C   UNL     1      24.339  55.674  -7.137  1.00  0.00     0.004 C 
ENDBRANCH   2   3
ENDBRANCH   1   2
BRANCH   1   5
ATOM      5  C   UNL     1      22.523  52.815  -4.211  1.00  0.00     0.008 C 
BRANCH   5   6
ATOM      6  C   UNL     1      22.280  51.521  -4.999  1.00  0.00     0.075 C 
BRANCH   6   7
ATOM      7  C   UNL     1      23.454  50.586  -4.858  1.00  0.00     0.129 C 
ATOM      8  O   UNL     1      24.549  51.038  -4.562  1.00  0.00    -0.300 OA
ATOM      9  C   UNL     1      23.305  49.109  -5.063  1.00  0.00     0.087 C 
ENDBRANCH   6   7
ENDBRANCH   5   6
ENDBRANCH   1   5
TORSDOF 5
ENDMDL
