MODEL 1
REMARK VINA RESULT:    -3.823      0.000      0.000
REMARK INTER + INTRA:          -4.437
REMARK INTER:                  -4.270
REMARK INTRA:                  -0.166
REMARK UNBOUND:                -0.166
REMARK SMILES O=C([O-])c1ccccc1C(=O)[O-]
REMARK SMILES IDX 4 1 9 2 5 3 8 4 6 5 7 6 2 7 1 8 3 9 10 10 11 11 12 12
REMARK H PARENT
REMARK Flexibility Score: inf
ROOT
ATOM      1  C   UNL     1      31.234  59.162 -11.128  1.00  0.00     0.006 A 
ATOM      2  C   UNL     1      29.931  59.065 -11.691  1.00  0.00     0.006 A 
ATOM      3  C   UNL     1      32.288  58.437 -11.715  1.00  0.00     0.010 A 
ATOM      4  C   UNL     1      29.744  58.299 -12.857  1.00  0.00     0.010 A 
ATOM      5  C   UNL     1      32.075  57.666 -12.858  1.00  0.00     0.001 A 
ATOM      6  C   UNL     1      30.809  57.607 -13.435  1.00  0.00     0.001 A 
ENDROOT
BRANCH   1   7
ATOM      7  C   UNL     1      31.555  60.050  -9.987  1.00  0.00     0.072 C 
ATOM      8  O   UNL     1      31.527  59.618  -8.804  1.00  0.00    -0.545 OA
ATOM      9  O   UNL     1      31.828  61.396 -10.207  1.00  0.00    -0.545 OA
ENDBRANCH   1   7
BRANCH   2  10
ATOM     10  C   UNL     1      28.740  59.679 -11.060  1.00  0.00     0.072 C 
ATOM     11  O   UNL     1      28.523  60.914 -11.183  1.00  0.00    -0.545 OA
ATOM     12  O   UNL     1      27.813  58.896 -10.383  1.00  0.00    -0.545 OA
ENDBRANCH   2  10
TORSDOF 2
ENDMDL
MODEL 2
REMARK VINA RESULT:    -3.803      0.293      2.888
REMARK INTER + INTRA:          -4.414
REMARK INTER:                  -4.264
REMARK INTRA:                  -0.150
REMARK UNBOUND:                -0.166
REMARK SMILES O=C([O-])c1ccccc1C(=O)[O-]
REMARK SMILES IDX 4 1 9 2 5 3 8 4 6 5 7 6 2 7 1 8 3 9 10 10 11 11 12 12
REMARK H PARENT
REMARK Flexibility Score: inf
ROOT
ATOM      1  C   UNL     1      29.743  59.127 -11.584  1.00  0.00     0.006 A 
ATOM      2  C   UNL     1      31.046  59.352 -11.058  1.00  0.00     0.006 A 
ATOM      3  C   UNL     1      29.600  58.336 -12.739  1.00  0.00     0.010 A 
ATOM      4  C   UNL     1      32.149  58.727 -11.669  1.00  0.00     0.010 A 
ATOM      5  C   UNL     1      30.710  57.744 -13.341  1.00  0.00     0.001 A 
ATOM      6  C   UNL     1      31.980  57.929 -12.800  1.00  0.00     0.001 A 
ENDROOT
BRANCH   1   7
ATOM      7  C   UNL     1      28.513  59.629 -10.930  1.00  0.00     0.072 C 
ATOM      8  O   UNL     1      27.694  58.833 -10.399  1.00  0.00    -0.545 OA
ATOM      9  O   UNL     1      28.215  60.987 -10.955  1.00  0.00    -0.545 OA
ENDBRANCH   1   7
BRANCH   2  10
ATOM     10  C   UNL     1      31.305  60.280  -9.932  1.00  0.00     0.072 C 
ATOM     11  O   UNL     1      31.590  61.487 -10.159  1.00  0.00    -0.545 OA
ATOM     12  O   UNL     1      31.173  59.854  -8.617  1.00  0.00    -0.545 OA
ENDBRANCH   2  10
TORSDOF 2
ENDMDL
MODEL 3
REMARK VINA RESULT:    -3.767      9.698     11.456
REMARK INTER + INTRA:          -4.373
REMARK INTER:                  -4.225
REMARK INTRA:                  -0.148
REMARK UNBOUND:                -0.166
REMARK SMILES O=C([O-])c1ccccc1C(=O)[O-]
REMARK SMILES IDX 4 1 9 2 5 3 8 4 6 5 7 6 2 7 1 8 3 9 10 10 11 11 12 12
REMARK H PARENT
REMARK Flexibility Score: inf
ROOT
ATOM      1  C   UNL     1      32.820  59.477  -0.883  1.00  0.00     0.006 A 
ATOM      2  C   UNL     1      32.970  58.268  -0.148  1.00  0.00     0.006 A 
ATOM      3  C   UNL     1      33.174  59.497  -2.245  1.00  0.00     0.010 A 
ATOM      4  C   UNL     1      33.408  57.109  -0.817  1.00  0.00     0.010 A 
ATOM      5  C   UNL     1      33.627  58.341  -2.882  1.00  0.00     0.001 A 
ATOM      6  C   UNL     1      33.731  57.147  -2.173  1.00  0.00     0.001 A 
ENDROOT
BRANCH   1   7
ATOM      7  C   UNL     1      32.238  60.707  -0.300  1.00  0.00     0.072 C 
ATOM      8  O   UNL     1      31.050  61.041  -0.551  1.00  0.00    -0.545 OA
ATOM      9  O   UNL     1      33.024  61.547   0.482  1.00  0.00    -0.545 OA
ENDBRANCH   1   7
BRANCH   2  10
ATOM     10  C   UNL     1      32.755  58.190   1.316  1.00  0.00     0.072 C 
ATOM     11  O   UNL     1      31.810  57.498   1.782  1.00  0.00    -0.545 OA
ATOM     12  O   UNL     1      33.625  58.822   2.195  1.00  0.00    -0.545 OA
ENDBRANCH   2  10
TORSDOF 2
ENDMDL
MODEL 4
REMARK VINA RESULT:    -3.730      2.826      4.104
REMARK INTER + INTRA:          -4.332
REMARK INTER:                  -4.108
REMARK INTRA:                  -0.225
REMARK UNBOUND:                -0.166
REMARK SMILES O=C([O-])c1ccccc1C(=O)[O-]
REMARK SMILES IDX 4 1 9 2 5 3 8 4 6 5 7 6 2 7 1 8 3 9 10 10 11 11 12 12
REMARK H PARENT
REMARK Flexibility Score: inf
ROOT
ATOM      1  C   UNL     1      32.133  59.163 -12.133  1.00  0.00     0.006 A 
ATOM      2  C   UNL     1      32.208  58.202 -13.180  1.00  0.00     0.006 A 
ATOM      3  C   UNL     1      30.873  59.499 -11.603  1.00  0.00     0.010 A 
ATOM      4  C   UNL     1      31.029  57.568 -13.614  1.00  0.00     0.010 A 
ATOM      5  C   UNL     1      29.715  58.872 -12.065  1.00  0.00     0.001 A 
ATOM      6  C   UNL     1      29.794  57.900 -13.058  1.00  0.00     0.001 A 
ENDROOT
BRANCH   1   7
ATOM      7  C   UNL     1      33.330  59.781 -11.518  1.00  0.00     0.072 C 
ATOM      8  O   UNL     1      33.772  60.885 -11.932  1.00  0.00    -0.545 OA
ATOM      9  O   UNL     1      34.021  59.111 -10.514  1.00  0.00    -0.545 OA
ENDBRANCH   1   7
BRANCH   2  10
ATOM     10  C   UNL     1      33.471  57.891 -13.890  1.00  0.00     0.072 C 
ATOM     11  O   UNL     1      34.124  56.854 -13.596  1.00  0.00    -0.545 OA
ATOM     12  O   UNL     1      33.918  58.697 -14.929  1.00  0.00    -0.545 OA
ENDBRANCH   2  10
TORSDOF 2
ENDMDL
MODEL 5
REMARK VINA RESULT:    -3.691     23.502     24.237
REMARK INTER + INTRA:          -4.288
REMARK INTER:                  -4.090
REMARK INTRA:                  -0.198
REMARK UNBOUND:                -0.166
REMARK SMILES O=C([O-])c1ccccc1C(=O)[O-]
REMARK SMILES IDX 4 1 9 2 5 3 8 4 6 5 7 6 2 7 1 8 3 9 10 10 11 11 12 12
REMARK H PARENT
REMARK Flexibility Score: inf
ROOT
ATOM      1  C   UNL     1      16.457  43.976   0.946  1.00  0.00     0.006 A 
ATOM      2  C   UNL     1      16.518  43.125  -0.192  1.00  0.00     0.006 A 
ATOM      3  C   UNL     1      17.582  44.075   1.786  1.00  0.00     0.010 A 
ATOM      4  C   UNL     1      17.721  42.455  -0.483  1.00  0.00     0.010 A 
ATOM      5  C   UNL     1      18.757  43.384   1.490  1.00  0.00     0.001 A 
ATOM      6  C   UNL     1      18.831  42.586   0.352  1.00  0.00     0.001 A 
ENDROOT
BRANCH   1   7
ATOM      7  C   UNL     1      15.285  44.826   1.256  1.00  0.00     0.072 C 
ATOM      8  O   UNL     1      14.520  44.546   2.216  1.00  0.00    -0.545 OA
ATOM      9  O   UNL     1      14.976  45.911   0.443  1.00  0.00    -0.545 OA
ENDBRANCH   1   7
BRANCH   2  10
ATOM     10  C   UNL     1      15.341  42.853  -1.051  1.00  0.00     0.072 C 
ATOM     11  O   UNL     1      14.527  41.942  -0.740  1.00  0.00    -0.545 OA
ATOM     12  O   UNL     1      15.082  43.636  -2.168  1.00  0.00    -0.545 OA
ENDBRANCH   2  10
TORSDOF 2
ENDMDL
MODEL 6
REMARK VINA RESULT:    -3.666     23.530     24.309
REMARK INTER + INTRA:          -4.261
REMARK INTER:                  -4.067
REMARK INTRA:                  -0.195
REMARK UNBOUND:                -0.166
REMARK SMILES O=C([O-])c1ccccc1C(=O)[O-]
REMARK SMILES IDX 4 1 9 2 5 3 8 4 6 5 7 6 2 7 1 8 3 9 10 10 11 11 12 12
REMARK H PARENT
REMARK Flexibility Score: inf
ROOT
ATOM      1  C   UNL     1      16.444  43.101  -0.217  1.00  0.00     0.006 A 
ATOM      2  C   UNL     1      16.406  43.982   0.900  1.00  0.00     0.006 A 
ATOM      3  C   UNL     1      17.633  42.400  -0.494  1.00  0.00     0.010 A 
ATOM      4  C   UNL     1      17.536  44.081   1.733  1.00  0.00     0.010 A 
ATOM      5  C   UNL     1      18.748  42.531   0.334  1.00  0.00     0.001 A 
ATOM      6  C   UNL     1      18.696  43.359   1.452  1.00  0.00     0.001 A 
ENDROOT
BRANCH   1   7
ATOM      7  C   UNL     1      15.264  42.827  -1.068  1.00  0.00     0.072 C 
ATOM      8  O   UNL     1      14.484  41.875  -0.803  1.00  0.00    -0.545 OA
ATOM      9  O   UNL     1      15.040  43.584  -2.213  1.00  0.00    -0.545 OA
ENDBRANCH   1   7
BRANCH   2  10
ATOM     10  C   UNL     1      15.248  44.861   1.186  1.00  0.00     0.072 C 
ATOM     11  O   UNL     1      14.545  44.670   2.214  1.00  0.00    -0.545 OA
ATOM     12  O   UNL     1      14.961  45.945   0.365  1.00  0.00    -0.545 OA
ENDBRANCH   2  10
TORSDOF 2
ENDMDL
MODEL 7
REMARK VINA RESULT:    -3.642     22.625     24.061
REMARK INTER + INTRA:          -4.234
REMARK INTER:                  -4.042
REMARK INTRA:                  -0.192
REMARK UNBOUND:                -0.166
REMARK SMILES O=C([O-])c1ccccc1C(=O)[O-]
REMARK SMILES IDX 4 1 9 2 5 3 8 4 6 5 7 6 2 7 1 8 3 9 10 10 11 11 12 12
REMARK H PARENT
REMARK Flexibility Score: inf
ROOT
ATOM      1  C   UNL     1      15.910  45.075  -0.075  1.00  0.00     0.006 A 
ATOM      2  C   UNL     1      15.829  44.413   1.182  1.00  0.00     0.006 A 
ATOM      3  C   UNL     1      17.174  45.289  -0.655  1.00  0.00     0.010 A 
ATOM      4  C   UNL     1      17.009  43.934   1.781  1.00  0.00     0.010 A 
ATOM      5  C   UNL     1      18.333  44.825  -0.031  1.00  0.00     0.001 A 
ATOM      6  C   UNL     1      18.250  44.138   1.177  1.00  0.00     0.001 A 
ENDROOT
BRANCH   1   7
ATOM      7  C   UNL     1      14.716  45.491  -0.845  1.00  0.00     0.072 C 
ATOM      8  O   UNL     1      14.351  46.696  -0.871  1.00  0.00    -0.545 OA
ATOM      9  O   UNL     1      13.941  44.538  -1.499  1.00  0.00    -0.545 OA
ENDBRANCH   1   7
BRANCH   2  10
ATOM     10  C   UNL     1      14.558  44.268   1.929  1.00  0.00     0.072 C 
ATOM     11  O   UNL     1      14.041  43.129   2.085  1.00  0.00    -0.545 OA
ATOM     12  O   UNL     1      13.954  45.370   2.521  1.00  0.00    -0.545 OA
ENDBRANCH   2  10
TORSDOF 2
ENDMDL
MODEL 8
REMARK VINA RESULT:    -3.635      9.805     11.458
REMARK INTER + INTRA:          -4.226
REMARK INTER:                  -4.031
REMARK INTRA:                  -0.195
REMARK UNBOUND:                -0.166
REMARK SMILES O=C([O-])c1ccccc1C(=O)[O-]
REMARK SMILES IDX 4 1 9 2 5 3 8 4 6 5 7 6 2 7 1 8 3 9 10 10 11 11 12 12
REMARK H PARENT
REMARK Flexibility Score: inf
ROOT
ATOM      1  C   UNL     1      33.154  58.096  -0.212  1.00  0.00     0.006 A 
ATOM      2  C   UNL     1      33.138  59.377  -0.832  1.00  0.00     0.006 A 
ATOM      3  C   UNL     1      33.414  56.959  -1.000  1.00  0.00     0.010 A 
ATOM      4  C   UNL     1      33.445  59.479  -2.201  1.00  0.00     0.010 A 
ATOM      5  C   UNL     1      33.694  57.082  -2.361  1.00  0.00     0.001 A 
ATOM      6  C   UNL     1      33.722  58.340  -2.958  1.00  0.00     0.001 A 
ENDROOT
BRANCH   1   7
ATOM      7  C   UNL     1      32.980  57.904   1.246  1.00  0.00     0.072 C 
ATOM      8  O   UNL     1      31.875  57.531   1.720  1.00  0.00    -0.545 OA
ATOM      9  O   UNL     1      34.023  58.198   2.117  1.00  0.00    -0.545 OA
ENDBRANCH   1   7
BRANCH   2  10
ATOM     10  C   UNL     1      32.739  60.608  -0.112  1.00  0.00     0.072 C 
ATOM     11  O   UNL     1      31.565  61.054  -0.221  1.00  0.00    -0.545 OA
ATOM     12  O   UNL     1      33.626  61.250   0.743  1.00  0.00    -0.545 OA
ENDBRANCH   2  10
TORSDOF 2
ENDMDL
MODEL 9
REMARK VINA RESULT:    -3.633     22.581     23.966
REMARK INTER + INTRA:          -4.224
REMARK INTER:                  -4.087
REMARK INTRA:                  -0.137
REMARK UNBOUND:                -0.166
REMARK SMILES O=C([O-])c1ccccc1C(=O)[O-]
REMARK SMILES IDX 4 1 9 2 5 3 8 4 6 5 7 6 2 7 1 8 3 9 10 10 11 11 12 12
REMARK H PARENT
REMARK Flexibility Score: inf
ROOT
ATOM      1  C   UNL     1      15.812  44.485   1.166  1.00  0.00     0.006 A 
ATOM      2  C   UNL     1      15.924  45.110  -0.107  1.00  0.00     0.006 A 
ATOM      3  C   UNL     1      16.972  43.990   1.789  1.00  0.00     0.010 A 
ATOM      4  C   UNL     1      17.199  45.274  -0.680  1.00  0.00     0.010 A 
ATOM      5  C   UNL     1      18.224  44.143   1.192  1.00  0.00     0.001 A 
ATOM      6  C   UNL     1      18.339  44.795  -0.033  1.00  0.00     0.001 A 
ENDROOT
BRANCH   1   7
ATOM      7  C   UNL     1      14.534  44.391   1.908  1.00  0.00     0.072 C 
ATOM      8  O   UNL     1      13.992  45.419   2.394  1.00  0.00    -0.545 OA
ATOM      9  O   UNL     1      13.948  43.150   2.133  1.00  0.00    -0.545 OA
ENDBRANCH   1   7
BRANCH   2  10
ATOM     10  C   UNL     1      14.745  45.535  -0.896  1.00  0.00     0.072 C 
ATOM     11  O   UNL     1      14.530  46.759  -1.106  1.00  0.00    -0.545 OA
ATOM     12  O   UNL     1      13.898  44.594  -1.469  1.00  0.00    -0.545 OA
ENDBRANCH   2  10
TORSDOF 2
ENDMDL
