MODEL 1
REMARK VINA RESULT:    -2.666      0.000      0.000
REMARK INTER + INTRA:          -2.666
REMARK INTER:                  -2.666
REMARK INTRA:                   0.000
REMARK UNBOUND:                 0.000
REMARK SMILES CC(=O)[O-]
REMARK SMILES IDX 1 1 2 2 3 3 4 4
REMARK H PARENT
REMARK Flexibility Score: inf
ROOT
ATOM      1  C   UNL     1       6.041  13.990 -19.261  1.00  0.00     0.063 C 
ATOM      2  C   UNL     1       6.842  12.941 -19.954  1.00  0.00     0.038 C 
ATOM      3  O   UNL     1       6.529  12.572 -21.117  1.00  0.00    -0.550 OA
ATOM      4  O   UNL     1       7.902  12.329 -19.299  1.00  0.00    -0.550 OA
ENDROOT
TORSDOF 0
ENDMDL
MODEL 2
REMARK VINA RESULT:    -2.597     11.928     12.243
REMARK INTER + INTRA:          -2.597
REMARK INTER:                  -2.597
REMARK INTRA:                   0.000
REMARK UNBOUND:                 0.000
REMARK SMILES CC(=O)[O-]
REMARK SMILES IDX 1 1 2 2 3 3 4 4
REMARK H PARENT
REMARK Flexibility Score: inf
ROOT
ATOM      1  C   UNL     1       3.631   9.530  -9.993  1.00  0.00     0.063 C 
ATOM      2  C   UNL     1       2.763   9.949  -8.855  1.00  0.00     0.038 C 
ATOM      3  O   UNL     1       1.515   9.798  -8.924  1.00  0.00    -0.550 OA
ATOM      4  O   UNL     1       3.323  10.557  -7.740  1.00  0.00    -0.550 OA
ENDROOT
TORSDOF 0
ENDMDL
MODEL 3
REMARK VINA RESULT:    -2.585     11.998     12.369
REMARK INTER + INTRA:          -2.585
REMARK INTER:                  -2.585
REMARK INTRA:                   0.000
REMARK UNBOUND:                 0.000
REMARK SMILES CC(=O)[O-]
REMARK SMILES IDX 1 1 2 2 3 3 4 4
REMARK H PARENT
REMARK Flexibility Score: inf
ROOT
ATOM      1  C   UNL     1       3.584   9.550  -9.954  1.00  0.00     0.063 C 
ATOM      2  C   UNL     1       2.732  10.012  -8.820  1.00  0.00     0.038 C 
ATOM      3  O   UNL     1       3.264  10.506  -7.791  1.00  0.00    -0.550 OA
ATOM      4  O   UNL     1       1.355   9.849  -8.873  1.00  0.00    -0.550 OA
ENDROOT
TORSDOF 0
ENDMDL
MODEL 4
REMARK VINA RESULT:    -2.572     11.969     12.472
REMARK INTER + INTRA:          -2.572
REMARK INTER:                  -2.572
REMARK INTRA:                   0.000
REMARK UNBOUND:                 0.000
REMARK SMILES CC(=O)[O-]
REMARK SMILES IDX 1 1 2 2 3 3 4 4
REMARK H PARENT
REMARK Flexibility Score: inf
ROOT
ATOM      1  C   UNL     1       1.046   9.979  -8.517  1.00  0.00     0.063 C 
ATOM      2  C   UNL     1       2.526   9.999  -8.700  1.00  0.00     0.038 C 
ATOM      3  O   UNL     1       3.259  10.567  -7.848  1.00  0.00    -0.550 OA
ATOM      4  O   UNL     1       3.094   9.440  -9.836  1.00  0.00    -0.550 OA
ENDROOT
TORSDOF 0
ENDMDL
MODEL 5
REMARK VINA RESULT:    -2.552     12.061     12.496
REMARK INTER + INTRA:          -2.552
REMARK INTER:                  -2.552
REMARK INTRA:                   0.000
REMARK UNBOUND:                 0.000
REMARK SMILES CC(=O)[O-]
REMARK SMILES IDX 1 1 2 2 3 3 4 4
REMARK H PARENT
REMARK Flexibility Score: inf
ROOT
ATOM      1  C   UNL     1       1.094   9.968  -8.424  1.00  0.00     0.063 C 
ATOM      2  C   UNL     1       2.570  10.046  -8.623  1.00  0.00     0.038 C 
ATOM      3  O   UNL     1       3.095   9.547  -9.653  1.00  0.00    -0.550 OA
ATOM      4  O   UNL     1       3.374  10.619  -7.649  1.00  0.00    -0.550 OA
ENDROOT
TORSDOF 0
ENDMDL
MODEL 6
REMARK VINA RESULT:    -2.494      1.274      1.746
REMARK INTER + INTRA:          -2.494
REMARK INTER:                  -2.494
REMARK INTRA:                   0.000
REMARK UNBOUND:                 0.000
REMARK SMILES CC(=O)[O-]
REMARK SMILES IDX 1 1 2 2 3 3 4 4
REMARK H PARENT
REMARK Flexibility Score: inf
ROOT
ATOM      1  C   UNL     1       6.737  12.247 -21.531  1.00  0.00     0.063 C 
ATOM      2  C   UNL     1       6.772  12.930 -20.205  1.00  0.00     0.038 C 
ATOM      3  O   UNL     1       6.032  13.926 -19.988  1.00  0.00    -0.550 OA
ATOM      4  O   UNL     1       7.659  12.504 -19.226  1.00  0.00    -0.550 OA
ENDROOT
TORSDOF 0
ENDMDL
MODEL 7
REMARK VINA RESULT:    -2.478      1.469      2.072
REMARK INTER + INTRA:          -2.478
REMARK INTER:                  -2.478
REMARK INTRA:                   0.000
REMARK UNBOUND:                 0.000
REMARK SMILES CC(=O)[O-]
REMARK SMILES IDX 1 1 2 2 3 3 4 4
REMARK H PARENT
REMARK Flexibility Score: inf
ROOT
ATOM      1  C   UNL     1       6.685  12.494 -21.108  1.00  0.00     0.063 C 
ATOM      2  C   UNL     1       7.023  12.822 -19.693  1.00  0.00     0.038 C 
ATOM      3  O   UNL     1       8.043  12.316 -19.154  1.00  0.00    -0.550 OA
ATOM      4  O   UNL     1       6.185  13.641 -18.949  1.00  0.00    -0.550 OA
ENDROOT
TORSDOF 0
ENDMDL
MODEL 8
REMARK VINA RESULT:    -2.381      1.441      1.777
REMARK INTER + INTRA:          -2.381
REMARK INTER:                  -2.381
REMARK INTRA:                   0.000
REMARK UNBOUND:                 0.000
REMARK SMILES CC(=O)[O-]
REMARK SMILES IDX 1 1 2 2 3 3 4 4
REMARK H PARENT
REMARK Flexibility Score: inf
ROOT
ATOM      1  C   UNL     1       8.019  12.316 -19.531  1.00  0.00     0.063 C 
ATOM      2  C   UNL     1       6.796  12.926 -20.128  1.00  0.00     0.038 C 
ATOM      3  O   UNL     1       6.401  12.563 -21.268  1.00  0.00    -0.550 OA
ATOM      4  O   UNL     1       6.122  13.935 -19.455  1.00  0.00    -0.550 OA
ENDROOT
TORSDOF 0
ENDMDL
MODEL 9
REMARK VINA RESULT:    -0.215      8.940      9.001
REMARK INTER + INTRA:          -0.215
REMARK INTER:                  -0.215
REMARK INTRA:                   0.000
REMARK UNBOUND:                 0.000
REMARK SMILES CC(=O)[O-]
REMARK SMILES IDX 1 1 2 2 3 3 4 4
REMARK H PARENT
REMARK Flexibility Score: inf
ROOT
ATOM      1  C   UNL     1      11.967  17.861 -22.995  1.00  0.00     0.063 C 
ATOM      2  C   UNL     1      12.321  19.301 -22.846  1.00  0.00     0.038 C 
ATOM      3  O   UNL     1      12.010  20.125 -23.746  1.00  0.00    -0.550 OA
ATOM      4  O   UNL     1      13.044  19.729 -21.741  1.00  0.00    -0.550 OA
ENDROOT
TORSDOF 0
ENDMDL
