MODEL 1
REMARK VINA RESULT:    -2.855      0.000      0.000
REMARK INTER + INTRA:         -10.384
REMARK INTER:                  -6.527
REMARK INTRA:                  -3.857
REMARK UNBOUND:                -3.857
REMARK SMILES CCCCCCCCCCCCCCCCCCCCCCCC(=O)[O-]
REMARK SMILES IDX 13 1 14 2 15 3 16 4 17 5 18 6 19 7 20 8 21 9 22 10 23 11
REMARK SMILES IDX 24 12 25 13 26 14 12 15 11 16 10 17 9 18 8 19 7 20 6 21 5 22
REMARK SMILES IDX 4 23 3 24 2 25 1 26
REMARK H PARENT
REMARK Flexibility Score: inf
ROOT
ATOM      1  C   UNL     1       6.386   4.382   4.317  1.00  0.00     0.000 C 
ENDROOT
BRANCH   1   2
ATOM      2  C   UNL     1       6.079   2.901   4.055  1.00  0.00     0.000 C 
BRANCH   2   3
ATOM      3  C   UNL     1       6.836   1.999   5.042  1.00  0.00     0.000 C 
BRANCH   3   4
ATOM      4  C   UNL     1       7.703   0.945   4.320  1.00  0.00     0.000 C 
BRANCH   4   5
ATOM      5  C   UNL     1       9.212   1.103   4.575  1.00  0.00     0.000 C 
BRANCH   5   6
ATOM      6  C   UNL     1       9.922  -0.240   4.808  1.00  0.00     0.000 C 
BRANCH   6   7
ATOM      7  C   UNL     1       8.946  -1.413   5.012  1.00  0.00     0.000 C 
BRANCH   7   8
ATOM      8  C   UNL     1       9.579  -2.706   5.562  1.00  0.00     0.000 C 
BRANCH   8   9
ATOM      9  C   UNL     1       8.954  -3.162   6.892  1.00  0.00     0.000 C 
BRANCH   9  10
ATOM     10  C   UNL     1       8.488  -4.626   6.856  1.00  0.00     0.006 C 
BRANCH  10  11
ATOM     11  C   UNL     1       9.008  -5.380   5.623  1.00  0.00     0.053 C 
BRANCH  11  12
ATOM     12  C   UNL     1       8.046  -6.452   5.217  1.00  0.00     0.041 C 
ATOM     13  O   UNL     1       8.292  -7.179   4.218  1.00  0.00    -0.550 OA
ATOM     14  O   UNL     1       6.877  -6.651   5.943  1.00  0.00    -0.550 OA
ENDBRANCH  11  12
ENDBRANCH  10  11
ENDBRANCH   9  10
ENDBRANCH   8   9
ENDBRANCH   7   8
ENDBRANCH   6   7
ENDBRANCH   5   6
ENDBRANCH   4   5
ENDBRANCH   3   4
ENDBRANCH   2   3
ENDBRANCH   1   2
BRANCH   1  15
ATOM     15  C   UNL     1       7.220   4.589   5.593  1.00  0.00     0.000 C 
BRANCH  15  16
ATOM     16  C   UNL     1       8.674   4.983   5.282  1.00  0.00     0.000 C 
BRANCH  16  17
ATOM     17  C   UNL     1       9.670   4.397   6.295  1.00  0.00     0.000 C 
BRANCH  17  18
ATOM     18  C   UNL     1       8.974   3.803   7.528  1.00  0.00    -0.000 C 
BRANCH  18  19
ATOM     19  C   UNL     1       9.723   2.561   8.033  1.00  0.00    -0.000 C 
BRANCH  19  20
ATOM     20  C   UNL     1       8.830   1.623   8.862  1.00  0.00    -0.000 C 
BRANCH  20  21
ATOM     21  C   UNL     1       8.580   0.240   8.229  1.00  0.00    -0.000 C 
BRANCH  21  22
ATOM     22  C   UNL     1       7.089  -0.162   8.183  1.00  0.00    -0.000 C 
BRANCH  22  23
ATOM     23  C   UNL     1       6.257   0.571   9.251  1.00  0.00    -0.000 C 
BRANCH  23  24
ATOM     24  C   UNL     1       4.752   0.582   8.928  1.00  0.00    -0.000 C 
BRANCH  24  25
ATOM     25  C   UNL     1       4.290   1.796   8.100  1.00  0.00    -0.003 C 
ATOM     26  C   UNL     1       5.180   3.026   8.288  1.00  0.00     0.004 C 
ENDBRANCH  24  25
ENDBRANCH  23  24
ENDBRANCH  22  23
ENDBRANCH  21  22
ENDBRANCH  20  21
ENDBRANCH  19  20
ENDBRANCH  18  19
ENDBRANCH  17  18
ENDBRANCH  16  17
ENDBRANCH  15  16
ENDBRANCH   1  15
TORSDOF 22
ENDMDL
MODEL 2
REMARK VINA RESULT:    -2.842      1.405      2.685
REMARK INTER + INTRA:         -10.354
REMARK INTER:                  -7.211
REMARK INTRA:                  -3.143
REMARK UNBOUND:                -3.857
REMARK SMILES CCCCCCCCCCCCCCCCCCCCCCCC(=O)[O-]
REMARK SMILES IDX 13 1 14 2 15 3 16 4 17 5 18 6 19 7 20 8 21 9 22 10 23 11
REMARK SMILES IDX 24 12 25 13 26 14 12 15 11 16 10 17 9 18 8 19 7 20 6 21 5 22
REMARK SMILES IDX 4 23 3 24 2 25 1 26
REMARK H PARENT
REMARK Flexibility Score: inf
ROOT
ATOM      1  C   UNL     1       6.369   2.540   5.000  1.00  0.00     0.000 C 
ENDROOT
BRANCH   1   2
ATOM      2  C   UNL     1       7.277   1.500   4.329  1.00  0.00     0.000 C 
BRANCH   2   3
ATOM      3  C   UNL     1       8.759   1.833   4.562  1.00  0.00     0.000 C 
BRANCH   3   4
ATOM      4  C   UNL     1       9.676   0.621   4.292  1.00  0.00     0.000 C 
BRANCH   4   5
ATOM      5  C   UNL     1       8.917  -0.707   4.125  1.00  0.00     0.000 C 
BRANCH   5   6
ATOM      6  C   UNL     1       9.486  -1.836   5.000  1.00  0.00     0.000 C 
BRANCH   6   7
ATOM      7  C   UNL     1       8.620  -2.138   6.237  1.00  0.00     0.000 C 
BRANCH   7   8
ATOM      8  C   UNL     1       8.719  -3.579   6.771  1.00  0.00     0.000 C 
BRANCH   8   9
ATOM      9  C   UNL     1       9.831  -4.397   6.091  1.00  0.00     0.000 C 
BRANCH   9  10
ATOM     10  C   UNL     1       9.290  -5.624   5.342  1.00  0.00     0.006 C 
BRANCH  10  11
ATOM     11  C   UNL     1       9.844  -5.735   3.914  1.00  0.00     0.053 C 
BRANCH  11  12
ATOM     12  C   UNL     1       9.248  -6.911   3.207  1.00  0.00     0.041 C 
ATOM     13  O   UNL     1       8.629  -6.751   2.121  1.00  0.00    -0.550 OA
ATOM     14  O   UNL     1       9.376  -8.187   3.745  1.00  0.00    -0.550 OA
ENDBRANCH  11  12
ENDBRANCH  10  11
ENDBRANCH   9  10
ENDBRANCH   8   9
ENDBRANCH   7   8
ENDBRANCH   6   7
ENDBRANCH   5   6
ENDBRANCH   4   5
ENDBRANCH   3   4
ENDBRANCH   2   3
ENDBRANCH   1   2
BRANCH   1  15
ATOM     15  C   UNL     1       6.375   3.887   4.259  1.00  0.00     0.000 C 
BRANCH  15  16
ATOM     16  C   UNL     1       6.748   5.060   5.183  1.00  0.00     0.000 C 
BRANCH  16  17
ATOM     17  C   UNL     1       6.973   4.613   6.636  1.00  0.00     0.000 C 
BRANCH  17  18
ATOM     18  C   UNL     1       5.864   5.099   7.579  1.00  0.00    -0.000 C 
BRANCH  18  19
ATOM     19  C   UNL     1       6.173   4.708   9.032  1.00  0.00    -0.000 C 
BRANCH  19  20
ATOM     20  C   UNL     1       5.101   3.791   9.645  1.00  0.00    -0.000 C 
BRANCH  20  21
ATOM     21  C   UNL     1       4.126   3.167   8.627  1.00  0.00    -0.000 C 
BRANCH  21  22
ATOM     22  C   UNL     1       4.567   1.780   8.113  1.00  0.00    -0.000 C 
BRANCH  22  23
ATOM     23  C   UNL     1       4.914   0.817   9.264  1.00  0.00    -0.000 C 
BRANCH  23  24
ATOM     24  C   UNL     1       6.185  -0.007   8.988  1.00  0.00    -0.000 C 
BRANCH  24  25
ATOM     25  C   UNL     1       7.114   0.600   7.921  1.00  0.00    -0.003 C 
ATOM     26  C   UNL     1       8.146   1.570   8.503  1.00  0.00     0.004 C 
ENDBRANCH  24  25
ENDBRANCH  23  24
ENDBRANCH  22  23
ENDBRANCH  21  22
ENDBRANCH  20  21
ENDBRANCH  19  20
ENDBRANCH  18  19
ENDBRANCH  17  18
ENDBRANCH  16  17
ENDBRANCH  15  16
ENDBRANCH   1  15
TORSDOF 22
ENDMDL
MODEL 3
REMARK VINA RESULT:    -2.832     12.504     15.699
REMARK INTER + INTRA:         -10.333
REMARK INTER:                  -8.361
REMARK INTRA:                  -1.971
REMARK UNBOUND:                -3.857
REMARK SMILES CCCCCCCCCCCCCCCCCCCCCCCC(=O)[O-]
REMARK SMILES IDX 13 1 14 2 15 3 16 4 17 5 18 6 19 7 20 8 21 9 22 10 23 11
REMARK SMILES IDX 24 12 25 13 26 14 12 15 11 16 10 17 9 18 8 19 7 20 6 21 5 22
REMARK SMILES IDX 4 23 3 24 2 25 1 26
REMARK H PARENT
REMARK Flexibility Score: inf
ROOT
ATOM      1  C   UNL     1      -4.492  -7.606   8.299  1.00  0.00     0.000 C 
ENDROOT
BRANCH   1   2
ATOM      2  C   UNL     1      -4.381  -7.858   6.789  1.00  0.00     0.000 C 
BRANCH   2   3
ATOM      3  C   UNL     1      -5.211  -9.082   6.373  1.00  0.00     0.000 C 
BRANCH   3   4
ATOM      4  C   UNL     1      -5.811  -9.819   7.590  1.00  0.00     0.000 C 
BRANCH   4   5
ATOM      5  C   UNL     1      -5.136 -11.168   7.892  1.00  0.00     0.000 C 
BRANCH   5   6
ATOM      6  C   UNL     1      -4.419 -11.186   9.252  1.00  0.00     0.000 C 
BRANCH   6   7
ATOM      7  C   UNL     1      -3.358 -12.297   9.362  1.00  0.00     0.000 C 
BRANCH   7   8
ATOM      8  C   UNL     1      -2.064 -12.049   8.565  1.00  0.00     0.000 C 
BRANCH   8   9
ATOM      9  C   UNL     1      -1.114 -11.055   9.255  1.00  0.00     0.000 C 
BRANCH   9  10
ATOM     10  C   UNL     1      -1.302  -9.613   8.758  1.00  0.00     0.006 C 
BRANCH  10  11
ATOM     11  C   UNL     1      -0.112  -8.709   9.114  1.00  0.00     0.053 C 
BRANCH  11  12
ATOM     12  C   UNL     1       1.172  -9.317   8.643  1.00  0.00     0.041 C 
ATOM     13  O   UNL     1       1.472  -9.297   7.420  1.00  0.00    -0.550 OA
ATOM     14  O   UNL     1       2.039  -9.906   9.557  1.00  0.00    -0.550 OA
ENDBRANCH  11  12
ENDBRANCH  10  11
ENDBRANCH   9  10
ENDBRANCH   8   9
ENDBRANCH   7   8
ENDBRANCH   6   7
ENDBRANCH   5   6
ENDBRANCH   4   5
ENDBRANCH   3   4
ENDBRANCH   2   3
ENDBRANCH   1   2
BRANCH   1  15
ATOM     15  C   UNL     1      -5.376  -6.390   8.626  1.00  0.00     0.000 C 
BRANCH  15  16
ATOM     16  C   UNL     1      -6.495  -6.733   9.624  1.00  0.00     0.000 C 
BRANCH  16  17
ATOM     17  C   UNL     1      -7.522  -5.598   9.766  1.00  0.00     0.000 C 
BRANCH  17  18
ATOM     18  C   UNL     1      -7.113  -4.335   8.995  1.00  0.00    -0.000 C 
BRANCH  18  19
ATOM     19  C   UNL     1      -8.113  -3.196   9.244  1.00  0.00    -0.000 C 
BRANCH  19  20
ATOM     20  C   UNL     1      -9.280  -3.198   8.242  1.00  0.00    -0.000 C 
BRANCH  20  21
ATOM     21  C   UNL     1      -9.961  -1.830   8.039  1.00  0.00    -0.000 C 
BRANCH  21  22
ATOM     22  C   UNL     1      -9.929  -0.928   9.292  1.00  0.00    -0.000 C 
BRANCH  22  23
ATOM     23  C   UNL     1      -9.382   0.477   8.983  1.00  0.00    -0.000 C 
BRANCH  23  24
ATOM     24  C   UNL     1      -7.968   0.443   8.372  1.00  0.00    -0.000 C 
BRANCH  24  25
ATOM     25  C   UNL     1      -7.747   1.454   7.231  1.00  0.00    -0.003 C 
ATOM     26  C   UNL     1      -8.844   1.408   6.165  1.00  0.00     0.004 C 
ENDBRANCH  24  25
ENDBRANCH  23  24
ENDBRANCH  22  23
ENDBRANCH  21  22
ENDBRANCH  20  21
ENDBRANCH  19  20
ENDBRANCH  18  19
ENDBRANCH  17  18
ENDBRANCH  16  17
ENDBRANCH  15  16
ENDBRANCH   1  15
TORSDOF 22
ENDMDL
MODEL 4
REMARK VINA RESULT:    -2.827      3.117      6.878
REMARK INTER + INTRA:         -10.321
REMARK INTER:                  -7.303
REMARK INTRA:                  -3.019
REMARK UNBOUND:                -3.857
REMARK SMILES CCCCCCCCCCCCCCCCCCCCCCCC(=O)[O-]
REMARK SMILES IDX 13 1 14 2 15 3 16 4 17 5 18 6 19 7 20 8 21 9 22 10 23 11
REMARK SMILES IDX 24 12 25 13 26 14 12 15 11 16 10 17 9 18 8 19 7 20 6 21 5 22
REMARK SMILES IDX 4 23 3 24 2 25 1 26
REMARK H PARENT
REMARK Flexibility Score: inf
ROOT
ATOM      1  C   UNL     1       7.897   0.556   5.232  1.00  0.00     0.000 C 
ENDROOT
BRANCH   1   2
ATOM      2  C   UNL     1       7.706   1.648   4.171  1.00  0.00     0.000 C 
BRANCH   2   3
ATOM      3  C   UNL     1       6.300   2.261   4.258  1.00  0.00     0.000 C 
BRANCH   3   4
ATOM      4  C   UNL     1       6.341   3.800   4.365  1.00  0.00     0.000 C 
BRANCH   4   5
ATOM      5  C   UNL     1       7.604   4.340   5.057  1.00  0.00     0.000 C 
BRANCH   5   6
ATOM      6  C   UNL     1       7.302   5.036   6.395  1.00  0.00     0.000 C 
BRANCH   6   7
ATOM      7  C   UNL     1       6.484   4.159   7.361  1.00  0.00     0.000 C 
BRANCH   7   8
ATOM      8  C   UNL     1       5.293   4.864   8.038  1.00  0.00     0.000 C 
BRANCH   8   9
ATOM      9  C   UNL     1       4.479   3.929   8.948  1.00  0.00     0.000 C 
BRANCH   9  10
ATOM     10  C   UNL     1       4.159   2.583   8.280  1.00  0.00     0.006 C 
BRANCH  10  11
ATOM     11  C   UNL     1       3.259   1.693   9.150  1.00  0.00     0.053 C 
BRANCH  11  12
ATOM     12  C   UNL     1       1.933   1.478   8.489  1.00  0.00     0.041 C 
ATOM     13  O   UNL     1       0.867   1.650   9.136  1.00  0.00    -0.550 OA
ATOM     14  O   UNL     1       1.874   1.087   7.156  1.00  0.00    -0.550 OA
ENDBRANCH  11  12
ENDBRANCH  10  11
ENDBRANCH   9  10
ENDBRANCH   8   9
ENDBRANCH   7   8
ENDBRANCH   6   7
ENDBRANCH   5   6
ENDBRANCH   4   5
ENDBRANCH   3   4
ENDBRANCH   2   3
ENDBRANCH   1   2
BRANCH   1  15
ATOM     15  C   UNL     1       8.985   0.920   6.257  1.00  0.00     0.000 C 
BRANCH  15  16
ATOM     16  C   UNL     1       8.416   1.091   7.676  1.00  0.00     0.000 C 
BRANCH  16  17
ATOM     17  C   UNL     1       6.994   0.524   7.811  1.00  0.00     0.000 C 
BRANCH  17  18
ATOM     18  C   UNL     1       6.927  -0.674   8.769  1.00  0.00    -0.000 C 
BRANCH  18  19
ATOM     19  C   UNL     1       8.249  -0.836   9.533  1.00  0.00    -0.000 C 
BRANCH  19  20
ATOM     20  C   UNL     1       9.045  -2.077   9.092  1.00  0.00    -0.000 C 
BRANCH  20  21
ATOM     21  C   UNL     1       8.280  -3.039   8.161  1.00  0.00    -0.000 C 
BRANCH  21  22
ATOM     22  C   UNL     1       8.762  -2.997   6.694  1.00  0.00    -0.000 C 
BRANCH  22  23
ATOM     23  C   UNL     1       9.105  -4.398   6.156  1.00  0.00    -0.000 C 
BRANCH  23  24
ATOM     24  C   UNL     1       8.311  -5.516   6.857  1.00  0.00    -0.000 C 
BRANCH  24  25
ATOM     25  C   UNL     1       7.356  -6.291   5.931  1.00  0.00    -0.003 C 
ATOM     26  C   UNL     1       6.317  -7.117   6.695  1.00  0.00     0.004 C 
ENDBRANCH  24  25
ENDBRANCH  23  24
ENDBRANCH  22  23
ENDBRANCH  21  22
ENDBRANCH  20  21
ENDBRANCH  19  20
ENDBRANCH  18  19
ENDBRANCH  17  18
ENDBRANCH  16  17
ENDBRANCH  15  16
ENDBRANCH   1  15
TORSDOF 22
ENDMDL
MODEL 5
REMARK VINA RESULT:    -2.789      3.338      7.749
REMARK INTER + INTRA:         -10.233
REMARK INTER:                  -7.722
REMARK INTRA:                  -2.511
REMARK UNBOUND:                -3.857
REMARK SMILES CCCCCCCCCCCCCCCCCCCCCCCC(=O)[O-]
REMARK SMILES IDX 13 1 14 2 15 3 16 4 17 5 18 6 19 7 20 8 21 9 22 10 23 11
REMARK SMILES IDX 24 12 25 13 26 14 12 15 11 16 10 17 9 18 8 19 7 20 6 21 5 22
REMARK SMILES IDX 4 23 3 24 2 25 1 26
REMARK H PARENT
REMARK Flexibility Score: inf
ROOT
ATOM      1  C   UNL     1       7.124  -1.235   8.615  1.00  0.00     0.000 C 
ENDROOT
BRANCH   1   2
ATOM      2  C   UNL     1       5.969  -0.737   9.494  1.00  0.00     0.000 C 
BRANCH   2   3
ATOM      3  C   UNL     1       5.760   0.776   9.324  1.00  0.00     0.000 C 
BRANCH   3   4
ATOM      4  C   UNL     1       4.331   1.117   8.850  1.00  0.00     0.000 C 
BRANCH   4   5
ATOM      5  C   UNL     1       4.029   2.625   8.827  1.00  0.00     0.000 C 
BRANCH   5   6
ATOM      6  C   UNL     1       5.217   3.480   9.299  1.00  0.00     0.000 C 
BRANCH   6   7
ATOM      7  C   UNL     1       5.390   4.776   8.487  1.00  0.00     0.000 C 
BRANCH   7   8
ATOM      8  C   UNL     1       5.902   4.584   7.047  1.00  0.00     0.000 C 
BRANCH   8   9
ATOM      9  C   UNL     1       7.013   3.525   6.940  1.00  0.00     0.000 C 
BRANCH   9  10
ATOM     10  C   UNL     1       6.582   2.295   6.126  1.00  0.00     0.006 C 
BRANCH  10  11
ATOM     11  C   UNL     1       7.061   2.357   4.668  1.00  0.00     0.053 C 
BRANCH  11  12
ATOM     12  C   UNL     1       5.956   2.819   3.770  1.00  0.00     0.041 C 
ATOM     13  O   UNL     1       5.908   4.019   3.390  1.00  0.00    -0.550 OA
ATOM     14  O   UNL     1       4.978   1.924   3.351  1.00  0.00    -0.550 OA
ENDBRANCH  11  12
ENDBRANCH  10  11
ENDBRANCH   9  10
ENDBRANCH   8   9
ENDBRANCH   7   8
ENDBRANCH   6   7
ENDBRANCH   5   6
ENDBRANCH   4   5
ENDBRANCH   3   4
ENDBRANCH   2   3
ENDBRANCH   1   2
BRANCH   1  15
ATOM     15  C   UNL     1       8.259  -0.203   8.502  1.00  0.00     0.000 C 
BRANCH  15  16
ATOM     16  C   UNL     1       8.996  -0.291   7.154  1.00  0.00     0.000 C 
BRANCH  16  17
ATOM     17  C   UNL     1       8.282  -1.215   6.155  1.00  0.00     0.000 C 
BRANCH  17  18
ATOM     18  C   UNL     1       9.256  -2.137   5.407  1.00  0.00    -0.000 C 
BRANCH  18  19
ATOM     19  C   UNL     1       9.741  -3.274   6.319  1.00  0.00    -0.000 C 
BRANCH  19  20
ATOM     20  C   UNL     1       9.326  -4.665   5.811  1.00  0.00    -0.000 C 
BRANCH  20  21
ATOM     21  C   UNL     1       8.143  -5.303   6.565  1.00  0.00    -0.000 C 
BRANCH  21  22
ATOM     22  C   UNL     1       7.430  -6.420   5.772  1.00  0.00    -0.000 C 
BRANCH  22  23
ATOM     23  C   UNL     1       6.835  -7.498   6.695  1.00  0.00    -0.000 C 
BRANCH  23  24
ATOM     24  C   UNL     1       5.399  -7.171   7.144  1.00  0.00    -0.000 C 
BRANCH  24  25
ATOM     25  C   UNL     1       4.505  -8.406   7.361  1.00  0.00    -0.003 C 
ATOM     26  C   UNL     1       5.245  -9.729   7.146  1.00  0.00     0.004 C 
ENDBRANCH  24  25
ENDBRANCH  23  24
ENDBRANCH  22  23
ENDBRANCH  21  22
ENDBRANCH  20  21
ENDBRANCH  19  20
ENDBRANCH  18  19
ENDBRANCH  17  18
ENDBRANCH  16  17
ENDBRANCH  15  16
ENDBRANCH   1  15
TORSDOF 22
ENDMDL
MODEL 6
REMARK VINA RESULT:    -2.694      9.181     13.120
REMARK INTER + INTRA:         -10.016
REMARK INTER:                  -7.971
REMARK INTRA:                  -2.045
REMARK UNBOUND:                -3.857
REMARK SMILES CCCCCCCCCCCCCCCCCCCCCCCC(=O)[O-]
REMARK SMILES IDX 13 1 14 2 15 3 16 4 17 5 18 6 19 7 20 8 21 9 22 10 23 11
REMARK SMILES IDX 24 12 25 13 26 14 12 15 11 16 10 17 9 18 8 19 7 20 6 21 5 22
REMARK SMILES IDX 4 23 3 24 2 25 1 26
REMARK H PARENT
REMARK Flexibility Score: inf
ROOT
ATOM      1  C   UNL     1       2.170  -9.969   7.239  1.00  0.00     0.000 C 
ENDROOT
BRANCH   1   2
ATOM      2  C   UNL     1       3.493 -10.745   7.284  1.00  0.00     0.000 C 
BRANCH   2   3
ATOM      3  C   UNL     1       3.756 -11.304   8.691  1.00  0.00     0.000 C 
BRANCH   3   4
ATOM      4  C   UNL     1       5.125 -10.857   9.248  1.00  0.00     0.000 C 
BRANCH   4   5
ATOM      5  C   UNL     1       5.061  -9.574  10.095  1.00  0.00     0.000 C 
BRANCH   5   6
ATOM      6  C   UNL     1       6.026  -8.484   9.602  1.00  0.00     0.000 C 
BRANCH   6   7
ATOM      7  C   UNL     1       5.352  -7.452   8.678  1.00  0.00     0.000 C 
BRANCH   7   8
ATOM      8  C   UNL     1       5.472  -7.745   7.170  1.00  0.00     0.000 C 
BRANCH   8   9
ATOM      9  C   UNL     1       6.683  -8.628   6.824  1.00  0.00     0.000 C 
BRANCH   9  10
ATOM     10  C   UNL     1       7.795  -7.852   6.102  1.00  0.00     0.006 C 
BRANCH  10  11
ATOM     11  C   UNL     1       7.370  -6.424   5.728  1.00  0.00     0.053 C 
BRANCH  11  12
ATOM     12  C   UNL     1       8.547  -5.500   5.755  1.00  0.00     0.041 C 
ATOM     13  O   UNL     1       9.655  -5.871   5.285  1.00  0.00    -0.550 OA
ATOM     14  O   UNL     1       8.421  -4.227   6.299  1.00  0.00    -0.550 OA
ENDBRANCH  11  12
ENDBRANCH  10  11
ENDBRANCH   9  10
ENDBRANCH   8   9
ENDBRANCH   7   8
ENDBRANCH   6   7
ENDBRANCH   5   6
ENDBRANCH   4   5
ENDBRANCH   3   4
ENDBRANCH   2   3
ENDBRANCH   1   2
BRANCH   1  15
ATOM     15  C   UNL     1       1.813  -9.342   8.598  1.00  0.00     0.000 C 
BRANCH  15  16
ATOM     16  C   UNL     1       0.301  -9.099   8.749  1.00  0.00     0.000 C 
BRANCH  16  17
ATOM     17  C   UNL     1      -0.493 -10.408   8.885  1.00  0.00     0.000 C 
BRANCH  17  18
ATOM     18  C   UNL     1      -1.999 -10.167   9.061  1.00  0.00    -0.000 C 
BRANCH  18  19
ATOM     19  C   UNL     1      -2.432  -8.878   8.346  1.00  0.00    -0.000 C 
BRANCH  19  20
ATOM     20  C   UNL     1      -3.629  -8.192   9.026  1.00  0.00    -0.000 C 
BRANCH  20  21
ATOM     21  C   UNL     1      -4.581  -7.450   8.067  1.00  0.00    -0.000 C 
BRANCH  21  22
ATOM     22  C   UNL     1      -4.431  -7.876   6.590  1.00  0.00    -0.000 C 
BRANCH  22  23
ATOM     23  C   UNL     1      -5.267  -9.126   6.259  1.00  0.00    -0.000 C 
BRANCH  23  24
ATOM     24  C   UNL     1      -6.120  -9.603   7.449  1.00  0.00    -0.000 C 
BRANCH  24  25
ATOM     25  C   UNL     1      -6.895 -10.909   7.190  1.00  0.00    -0.003 C 
ATOM     26  C   UNL     1      -7.719 -10.873   5.901  1.00  0.00     0.004 C 
ENDBRANCH  24  25
ENDBRANCH  23  24
ENDBRANCH  22  23
ENDBRANCH  21  22
ENDBRANCH  20  21
ENDBRANCH  19  20
ENDBRANCH  18  19
ENDBRANCH  17  18
ENDBRANCH  16  17
ENDBRANCH  15  16
ENDBRANCH   1  15
TORSDOF 22
ENDMDL
MODEL 7
REMARK VINA RESULT:    -2.677      8.070     11.998
REMARK INTER + INTRA:          -9.977
REMARK INTER:                  -7.671
REMARK INTRA:                  -2.306
REMARK UNBOUND:                -3.857
REMARK SMILES CCCCCCCCCCCCCCCCCCCCCCCC(=O)[O-]
REMARK SMILES IDX 13 1 14 2 15 3 16 4 17 5 18 6 19 7 20 8 21 9 22 10 23 11
REMARK SMILES IDX 24 12 25 13 26 14 12 15 11 16 10 17 9 18 8 19 7 20 6 21 5 22
REMARK SMILES IDX 4 23 3 24 2 25 1 26
REMARK H PARENT
REMARK Flexibility Score: inf
ROOT
ATOM      1  C   UNL     1       4.031 -10.506   6.884  1.00  0.00     0.000 C 
ENDROOT
BRANCH   1   2
ATOM      2  C   UNL     1       5.111  -9.851   7.755  1.00  0.00     0.000 C 
BRANCH   2   3
ATOM      3  C   UNL     1       5.812  -8.712   7.000  1.00  0.00     0.000 C 
BRANCH   3   4
ATOM      4  C   UNL     1       5.232  -7.329   7.364  1.00  0.00     0.000 C 
BRANCH   4   5
ATOM      5  C   UNL     1       4.904  -7.168   8.858  1.00  0.00     0.000 C 
BRANCH   5   6
ATOM      6  C   UNL     1       5.771  -6.102   9.549  1.00  0.00     0.000 C 
BRANCH   6   7
ATOM      7  C   UNL     1       7.272  -6.253   9.243  1.00  0.00     0.000 C 
BRANCH   7   8
ATOM      8  C   UNL     1       7.970  -4.977   8.735  1.00  0.00     0.000 C 
BRANCH   8   9
ATOM      9  C   UNL     1       9.149  -5.272   7.793  1.00  0.00     0.000 C 
BRANCH   9  10
ATOM     10  C   UNL     1       8.931  -6.536   6.947  1.00  0.00     0.006 C 
BRANCH  10  11
ATOM     11  C   UNL     1       8.227  -6.239   5.615  1.00  0.00     0.053 C 
BRANCH  11  12
ATOM     12  C   UNL     1       8.589  -7.265   4.587  1.00  0.00     0.041 C 
ATOM     13  O   UNL     1       8.713  -6.935   3.378  1.00  0.00    -0.550 OA
ATOM     14  O   UNL     1       8.790  -8.588   4.964  1.00  0.00    -0.550 OA
ENDBRANCH  11  12
ENDBRANCH  10  11
ENDBRANCH   9  10
ENDBRANCH   8   9
ENDBRANCH   7   8
ENDBRANCH   6   7
ENDBRANCH   5   6
ENDBRANCH   4   5
ENDBRANCH   3   4
ENDBRANCH   2   3
ENDBRANCH   1   2
BRANCH   1  15
ATOM     15  C   UNL     1       2.647 -10.489   7.556  1.00  0.00     0.000 C 
BRANCH  15  16
ATOM     16  C   UNL     1       2.728 -10.117   9.047  1.00  0.00     0.000 C 
BRANCH  16  17
ATOM     17  C   UNL     1       1.594  -9.174   9.478  1.00  0.00     0.000 C 
BRANCH  17  18
ATOM     18  C   UNL     1       0.351  -9.301   8.586  1.00  0.00    -0.000 C 
BRANCH  18  19
ATOM     19  C   UNL     1      -0.933  -9.133   9.411  1.00  0.00    -0.000 C 
BRANCH  19  20
ATOM     20  C   UNL     1      -2.171  -8.863   8.539  1.00  0.00    -0.000 C 
BRANCH  20  21
ATOM     21  C   UNL     1      -3.277  -8.035   9.223  1.00  0.00    -0.000 C 
BRANCH  21  22
ATOM     22  C   UNL     1      -4.512  -7.789   8.329  1.00  0.00    -0.000 C 
BRANCH  22  23
ATOM     23  C   UNL     1      -4.200  -8.002   6.836  1.00  0.00    -0.000 C 
BRANCH  23  24
ATOM     24  C   UNL     1      -5.222  -8.920   6.141  1.00  0.00    -0.000 C 
BRANCH  24  25
ATOM     25  C   UNL     1      -6.141  -9.692   7.106  1.00  0.00    -0.003 C 
ATOM     26  C   UNL     1      -5.596 -11.072   7.481  1.00  0.00     0.004 C 
ENDBRANCH  24  25
ENDBRANCH  23  24
ENDBRANCH  22  23
ENDBRANCH  21  22
ENDBRANCH  20  21
ENDBRANCH  19  20
ENDBRANCH  18  19
ENDBRANCH  17  18
ENDBRANCH  16  17
ENDBRANCH  15  16
ENDBRANCH   1  15
TORSDOF 22
ENDMDL
MODEL 8
REMARK VINA RESULT:    -2.638      1.671      2.829
REMARK INTER + INTRA:          -9.889
REMARK INTER:                  -6.441
REMARK INTRA:                  -3.448
REMARK UNBOUND:                -3.857
REMARK SMILES CCCCCCCCCCCCCCCCCCCCCCCC(=O)[O-]
REMARK SMILES IDX 13 1 14 2 15 3 16 4 17 5 18 6 19 7 20 8 21 9 22 10 23 11
REMARK SMILES IDX 24 12 25 13 26 14 12 15 11 16 10 17 9 18 8 19 7 20 6 21 5 22
REMARK SMILES IDX 4 23 3 24 2 25 1 26
REMARK H PARENT
REMARK Flexibility Score: inf
ROOT
ATOM      1  C   UNL     1       7.379   1.555   4.167  1.00  0.00     0.000 C 
ENDROOT
BRANCH   1   2
ATOM      2  C   UNL     1       7.747   0.244   4.876  1.00  0.00     0.000 C 
BRANCH   2   3
ATOM      3  C   UNL     1       9.021  -0.369   4.273  1.00  0.00     0.000 C 
BRANCH   3   4
ATOM      4  C   UNL     1       9.435  -1.672   4.989  1.00  0.00     0.000 C 
BRANCH   4   5
ATOM      5  C   UNL     1       8.656  -1.940   6.289  1.00  0.00     0.000 C 
BRANCH   5   6
ATOM      6  C   UNL     1       8.677  -3.421   6.703  1.00  0.00     0.000 C 
BRANCH   6   7
ATOM      7  C   UNL     1       9.423  -4.319   5.700  1.00  0.00     0.000 C 
BRANCH   7   8
ATOM      8  C   UNL     1       9.037  -5.810   5.742  1.00  0.00     0.000 C 
BRANCH   8   9
ATOM      9  C   UNL     1       7.542  -6.036   6.024  1.00  0.00     0.000 C 
BRANCH   9  10
ATOM     10  C   UNL     1       7.299  -7.010   7.187  1.00  0.00     0.006 C 
BRANCH  10  11
ATOM     11  C   UNL     1       6.285  -8.108   6.834  1.00  0.00     0.053 C 
BRANCH  11  12
ATOM     12  C   UNL     1       4.991  -7.882   7.552  1.00  0.00     0.041 C 
ATOM     13  O   UNL     1       4.922  -7.035   8.482  1.00  0.00    -0.550 OA
ATOM     14  O   UNL     1       3.860  -8.607   7.193  1.00  0.00    -0.550 OA
ENDBRANCH  11  12
ENDBRANCH  10  11
ENDBRANCH   9  10
ENDBRANCH   8   9
ENDBRANCH   7   8
ENDBRANCH   6   7
ENDBRANCH   5   6
ENDBRANCH   4   5
ENDBRANCH   3   4
ENDBRANCH   2   3
ENDBRANCH   1   2
BRANCH   1  15
ATOM     15  C   UNL     1       6.339   2.372   4.953  1.00  0.00     0.000 C 
BRANCH  15  16
ATOM     16  C   UNL     1       6.903   3.717   5.443  1.00  0.00     0.000 C 
BRANCH  16  17
ATOM     17  C   UNL     1       8.422   3.827   5.234  1.00  0.00     0.000 C 
BRANCH  17  18
ATOM     18  C   UNL     1       9.203   3.756   6.554  1.00  0.00    -0.000 C 
BRANCH  18  19
ATOM     19  C   UNL     1      10.118   2.522   6.581  1.00  0.00    -0.000 C 
BRANCH  19  20
ATOM     20  C   UNL     1       9.664   1.466   7.603  1.00  0.00    -0.000 C 
BRANCH  20  21
ATOM     21  C   UNL     1       8.332   1.781   8.311  1.00  0.00    -0.000 C 
BRANCH  21  22
ATOM     22  C   UNL     1       7.715   0.569   9.043  1.00  0.00    -0.000 C 
BRANCH  22  23
ATOM     23  C   UNL     1       6.404   0.100   8.387  1.00  0.00    -0.000 C 
BRANCH  23  24
ATOM     24  C   UNL     1       5.159   0.755   9.013  1.00  0.00    -0.000 C 
BRANCH  24  25
ATOM     25  C   UNL     1       4.526   1.864   8.152  1.00  0.00    -0.003 C 
ATOM     26  C   UNL     1       4.916   3.273   8.604  1.00  0.00     0.004 C 
ENDBRANCH  24  25
ENDBRANCH  23  24
ENDBRANCH  22  23
ENDBRANCH  21  22
ENDBRANCH  20  21
ENDBRANCH  19  20
ENDBRANCH  18  19
ENDBRANCH  17  18
ENDBRANCH  16  17
ENDBRANCH  15  16
ENDBRANCH   1  15
TORSDOF 22
ENDMDL
MODEL 9
REMARK VINA RESULT:    -2.548      1.679      4.816
REMARK INTER + INTRA:          -9.683
REMARK INTER:                  -5.886
REMARK INTRA:                  -3.797
REMARK UNBOUND:                -3.857
REMARK SMILES CCCCCCCCCCCCCCCCCCCCCCCC(=O)[O-]
REMARK SMILES IDX 13 1 14 2 15 3 16 4 17 5 18 6 19 7 20 8 21 9 22 10 23 11
REMARK SMILES IDX 24 12 25 13 26 14 12 15 11 16 10 17 9 18 8 19 7 20 6 21 5 22
REMARK SMILES IDX 4 23 3 24 2 25 1 26
REMARK H PARENT
REMARK Flexibility Score: inf
ROOT
ATOM      1  C   UNL     1       8.472  -0.084   8.233  1.00  0.00     0.000 C 
ENDROOT
BRANCH   1   2
ATOM      2  C   UNL     1       7.843  -0.762   7.008  1.00  0.00     0.000 C 
BRANCH   2   3
ATOM      3  C   UNL     1       8.816  -1.768   6.375  1.00  0.00     0.000 C 
BRANCH   3   4
ATOM      4  C   UNL     1       8.631  -3.193   6.939  1.00  0.00     0.000 C 
BRANCH   4   5
ATOM      5  C   UNL     1       9.699  -3.595   7.970  1.00  0.00     0.000 C 
BRANCH   5   6
ATOM      6  C   UNL     1       9.124  -3.784   9.384  1.00  0.00     0.000 C 
BRANCH   6   7
ATOM      7  C   UNL     1       7.585  -3.830   9.410  1.00  0.00     0.000 C 
BRANCH   7   8
ATOM      8  C   UNL     1       6.977  -5.169   9.869  1.00  0.00     0.000 C 
BRANCH   8   9
ATOM      9  C   UNL     1       7.855  -6.381   9.515  1.00  0.00     0.000 C 
BRANCH   9  10
ATOM     10  C   UNL     1       7.401  -7.086   8.228  1.00  0.00     0.006 C 
BRANCH  10  11
ATOM     11  C   UNL     1       8.448  -7.000   7.107  1.00  0.00     0.053 C 
BRANCH  11  12
ATOM     12  C   UNL     1       7.784  -6.838   5.776  1.00  0.00     0.041 C 
ATOM     13  O   UNL     1       6.799  -6.063   5.650  1.00  0.00    -0.550 OA
ATOM     14  O   UNL     1       8.252  -7.543   4.673  1.00  0.00    -0.550 OA
ENDBRANCH  11  12
ENDBRANCH  10  11
ENDBRANCH   9  10
ENDBRANCH   8   9
ENDBRANCH   7   8
ENDBRANCH   6   7
ENDBRANCH   5   6
ENDBRANCH   4   5
ENDBRANCH   3   4
ENDBRANCH   2   3
ENDBRANCH   1   2
BRANCH   1  15
ATOM     15  C   UNL     1       7.509  -0.031   9.431  1.00  0.00     0.000 C 
BRANCH  15  16
ATOM     16  C   UNL     1       6.091  -0.501   9.061  1.00  0.00     0.000 C 
BRANCH  16  17
ATOM     17  C   UNL     1       5.016   0.534   9.431  1.00  0.00     0.000 C 
BRANCH  17  18
ATOM     18  C   UNL     1       4.591   1.393   8.232  1.00  0.00    -0.000 C 
BRANCH  18  19
ATOM     19  C   UNL     1       4.610   2.885   8.595  1.00  0.00    -0.000 C 
BRANCH  19  20
ATOM     20  C   UNL     1       5.909   3.311   9.300  1.00  0.00    -0.000 C 
BRANCH  20  21
ATOM     21  C   UNL     1       7.074   3.664   8.353  1.00  0.00    -0.000 C 
BRANCH  21  22
ATOM     22  C   UNL     1       6.757   4.824   7.384  1.00  0.00    -0.000 C 
BRANCH  22  23
ATOM     23  C   UNL     1       6.768   4.371   5.913  1.00  0.00    -0.000 C 
BRANCH  23  24
ATOM     24  C   UNL     1       7.471   3.015   5.713  1.00  0.00    -0.000 C 
BRANCH  24  25
ATOM     25  C   UNL     1       6.655   1.992   4.900  1.00  0.00    -0.003 C 
ATOM     26  C   UNL     1       5.921   2.617   3.711  1.00  0.00     0.004 C 
ENDBRANCH  24  25
ENDBRANCH  23  24
ENDBRANCH  22  23
ENDBRANCH  21  22
ENDBRANCH  20  21
ENDBRANCH  19  20
ENDBRANCH  18  19
ENDBRANCH  17  18
ENDBRANCH  16  17
ENDBRANCH  15  16
ENDBRANCH   1  15
TORSDOF 22
ENDMDL
