MODEL 1
REMARK VINA RESULT:    -4.698      0.000      0.000
REMARK INTER + INTRA:         -12.729
REMARK INTER:                 -10.192
REMARK INTRA:                  -2.537
REMARK UNBOUND:                -2.537
REMARK SMILES CCCCCCCCCCCCCCCCCCCCCC(=O)[O-]
REMARK SMILES IDX 12 1 11 2 10 3 9 4 8 5 7 6 6 7 5 8 4 9 3 10 2 11 1 12 13 13
REMARK SMILES IDX 14 14 15 15 16 16 17 17 18 18 19 19 20 20 21 21 22 22 23 23
REMARK SMILES IDX 24 24
REMARK H PARENT
REMARK Flexibility Score: inf
ROOT
ATOM      1  C   UNL     1      97.519  86.852  80.918  1.00  0.00     0.000 C 
ENDROOT
BRANCH   1   2
ATOM      2  C   UNL     1      98.272  85.510  80.804  1.00  0.00     0.000 C 
BRANCH   2   3
ATOM      3  C   UNL     1      97.633  84.409  81.664  1.00  0.00     0.000 C 
BRANCH   3   4
ATOM      4  C   UNL     1      98.698  83.444  82.199  1.00  0.00    -0.000 C 
BRANCH   4   5
ATOM      5  C   UNL     1     100.092  83.814  81.675  1.00  0.00    -0.000 C 
BRANCH   5   6
ATOM      6  C   UNL     1     101.113  83.859  82.818  1.00  0.00    -0.000 C 
BRANCH   6   7
ATOM      7  C   UNL     1     100.430  84.198  84.152  1.00  0.00    -0.000 C 
BRANCH   7   8
ATOM      8  C   UNL     1     100.622  85.667  84.564  1.00  0.00    -0.000 C 
BRANCH   8   9
ATOM      9  C   UNL     1      99.422  86.551  84.181  1.00  0.00    -0.000 C 
BRANCH   9  10
ATOM     10  C   UNL     1      98.342  86.585  85.277  1.00  0.00    -0.000 C 
BRANCH  10  11
ATOM     11  C   UNL     1      96.953  86.195  84.753  1.00  0.00    -0.003 C 
ATOM     12  C   UNL     1      96.460  84.908  85.409  1.00  0.00     0.004 C 
ENDBRANCH  10  11
ENDBRANCH   9  10
ENDBRANCH   8   9
ENDBRANCH   7   8
ENDBRANCH   6   7
ENDBRANCH   5   6
ENDBRANCH   4   5
ENDBRANCH   3   4
ENDBRANCH   2   3
ENDBRANCH   1   2
BRANCH   1  13
ATOM     13  C   UNL     1      95.996  86.729  80.712  1.00  0.00     0.000 C 
BRANCH  13  14
ATOM     14  C   UNL     1      95.561  86.348  79.286  1.00  0.00     0.000 C 
BRANCH  14  15
ATOM     15  C   UNL     1      94.148  85.745  79.234  1.00  0.00     0.000 C 
BRANCH  15  16
ATOM     16  C   UNL     1      94.158  84.219  79.039  1.00  0.00     0.000 C 
BRANCH  16  17
ATOM     17  C   UNL     1      93.319  83.452  80.084  1.00  0.00     0.000 C 
BRANCH  17  18
ATOM     18  C   UNL     1      92.306  84.363  80.799  1.00  0.00     0.000 C 
BRANCH  18  19
ATOM     19  C   UNL     1      90.934  84.403  80.101  1.00  0.00     0.000 C 
BRANCH  19  20
ATOM     20  C   UNL     1      89.721  84.257  81.038  1.00  0.00     0.006 C 
BRANCH  20  21
ATOM     21  C   UNL     1      88.388  84.570  80.347  1.00  0.00     0.053 C 
BRANCH  21  22
ATOM     22  C   UNL     1      87.910  83.386  79.569  1.00  0.00     0.041 C 
ATOM     23  O   UNL     1      87.864  83.427  78.310  1.00  0.00    -0.550 OA
ATOM     24  O   UNL     1      87.491  82.240  80.235  1.00  0.00    -0.550 OA
ENDBRANCH  21  22
ENDBRANCH  20  21
ENDBRANCH  19  20
ENDBRANCH  18  19
ENDBRANCH  17  18
ENDBRANCH  16  17
ENDBRANCH  15  16
ENDBRANCH  14  15
ENDBRANCH  13  14
ENDBRANCH   1  13
TORSDOF 20
ENDMDL
MODEL 2
REMARK VINA RESULT:    -4.662      4.466      8.614
REMARK INTER + INTRA:         -12.650
REMARK INTER:                  -9.712
REMARK INTRA:                  -2.938
REMARK UNBOUND:                -2.537
REMARK SMILES CCCCCCCCCCCCCCCCCCCCCC(=O)[O-]
REMARK SMILES IDX 12 1 11 2 10 3 9 4 8 5 7 6 6 7 5 8 4 9 3 10 2 11 1 12 13 13
REMARK SMILES IDX 14 14 15 15 16 16 17 17 18 18 19 19 20 20 21 21 22 22 23 23
REMARK SMILES IDX 24 24
REMARK H PARENT
REMARK Flexibility Score: inf
ROOT
ATOM      1  C   UNL     1      98.278  87.299  83.183  1.00  0.00     0.000 C 
ENDROOT
BRANCH   1   2
ATOM      2  C   UNL     1      98.559  87.774  81.742  1.00  0.00     0.000 C 
BRANCH   2   3
ATOM      3  C   UNL     1      97.915  86.857  80.691  1.00  0.00     0.000 C 
BRANCH   3   4
ATOM      4  C   UNL     1      96.646  87.494  80.113  1.00  0.00    -0.000 C 
BRANCH   4   5
ATOM      5  C   UNL     1      95.882  86.501  79.228  1.00  0.00    -0.000 C 
BRANCH   5   6
ATOM      6  C   UNL     1      95.510  85.239  80.016  1.00  0.00    -0.000 C 
BRANCH   6   7
ATOM      7  C   UNL     1      94.583  84.331  79.194  1.00  0.00    -0.000 C 
BRANCH   7   8
ATOM      8  C   UNL     1      93.413  83.769  80.020  1.00  0.00    -0.000 C 
BRANCH   8   9
ATOM      9  C   UNL     1      92.089  84.503  79.745  1.00  0.00    -0.000 C 
BRANCH   9  10
ATOM     10  C   UNL     1      91.798  85.605  80.779  1.00  0.00    -0.000 C 
BRANCH  10  11
ATOM     11  C   UNL     1      92.428  85.313  82.149  1.00  0.00    -0.003 C 
ATOM     12  C   UNL     1      93.291  86.482  82.616  1.00  0.00     0.004 C 
ENDBRANCH  10  11
ENDBRANCH   9  10
ENDBRANCH   8   9
ENDBRANCH   7   8
ENDBRANCH   6   7
ENDBRANCH   5   6
ENDBRANCH   4   5
ENDBRANCH   3   4
ENDBRANCH   2   3
ENDBRANCH   1   2
BRANCH   1  13
ATOM     13  C   UNL     1      97.102  86.308  83.292  1.00  0.00     0.000 C 
BRANCH  13  14
ATOM     14  C   UNL     1      97.500  84.862  83.633  1.00  0.00     0.000 C 
BRANCH  14  15
ATOM     15  C   UNL     1      97.576  83.955  82.393  1.00  0.00     0.000 C 
BRANCH  15  16
ATOM     16  C   UNL     1      98.910  83.196  82.291  1.00  0.00     0.000 C 
BRANCH  16  17
ATOM     17  C   UNL     1     100.082  84.062  81.780  1.00  0.00     0.000 C 
BRANCH  17  18
ATOM     18  C   UNL     1     101.349  83.888  82.635  1.00  0.00     0.000 C 
BRANCH  18  19
ATOM     19  C   UNL     1     101.829  85.203  83.277  1.00  0.00     0.000 C 
BRANCH  19  20
ATOM     20  C   UNL     1     101.189  85.536  84.638  1.00  0.00     0.006 C 
BRANCH  20  21
ATOM     21  C   UNL     1     100.678  84.295  85.380  1.00  0.00     0.053 C 
BRANCH  21  22
ATOM     22  C   UNL     1     100.257  84.652  86.770  1.00  0.00     0.041 C 
ATOM     23  O   UNL     1      99.038  84.641  87.089  1.00  0.00    -0.550 OA
ATOM     24  O   UNL     1     101.211  85.022  87.711  1.00  0.00    -0.550 OA
ENDBRANCH  21  22
ENDBRANCH  20  21
ENDBRANCH  19  20
ENDBRANCH  18  19
ENDBRANCH  17  18
ENDBRANCH  16  17
ENDBRANCH  15  16
ENDBRANCH  14  15
ENDBRANCH  13  14
ENDBRANCH   1  13
TORSDOF 20
ENDMDL
MODEL 3
REMARK VINA RESULT:    -4.554      2.253      5.060
REMARK INTER + INTRA:         -12.416
REMARK INTER:                  -9.183
REMARK INTRA:                  -3.233
REMARK UNBOUND:                -2.537
REMARK SMILES CCCCCCCCCCCCCCCCCCCCCC(=O)[O-]
REMARK SMILES IDX 12 1 11 2 10 3 9 4 8 5 7 6 6 7 5 8 4 9 3 10 2 11 1 12 13 13
REMARK SMILES IDX 14 14 15 15 16 16 17 17 18 18 19 19 20 20 21 21 22 22 23 23
REMARK SMILES IDX 24 24
REMARK H PARENT
REMARK Flexibility Score: inf
ROOT
ATOM      1  C   UNL     1     101.830  85.116  83.567  1.00  0.00     0.000 C 
ENDROOT
BRANCH   1   2
ATOM      2  C   UNL     1     100.926  86.032  84.417  1.00  0.00     0.000 C 
BRANCH   2   3
ATOM      3  C   UNL     1     101.059  85.747  85.921  1.00  0.00     0.000 C 
BRANCH   3   4
ATOM      4  C   UNL     1      99.820  86.234  86.682  1.00  0.00    -0.000 C 
BRANCH   4   5
ATOM      5  C   UNL     1      98.816  85.094  86.892  1.00  0.00    -0.000 C 
BRANCH   5   6
ATOM      6  C   UNL     1      97.629  85.559  87.744  1.00  0.00    -0.000 C 
BRANCH   6   7
ATOM      7  C   UNL     1      96.325  85.536  86.932  1.00  0.00    -0.000 C 
BRANCH   7   8
ATOM      8  C   UNL     1      96.487  84.851  85.564  1.00  0.00    -0.000 C 
BRANCH   8   9
ATOM      9  C   UNL     1      96.116  85.776  84.391  1.00  0.00    -0.000 C 
BRANCH   9  10
ATOM     10  C   UNL     1      96.510  87.241  84.647  1.00  0.00    -0.000 C 
BRANCH  10  11
ATOM     11  C   UNL     1      97.791  87.648  83.905  1.00  0.00    -0.003 C 
ATOM     12  C   UNL     1      98.266  89.030  84.346  1.00  0.00     0.004 C 
ENDBRANCH  10  11
ENDBRANCH   9  10
ENDBRANCH   8   9
ENDBRANCH   7   8
ENDBRANCH   6   7
ENDBRANCH   5   6
ENDBRANCH   4   5
ENDBRANCH   3   4
ENDBRANCH   2   3
ENDBRANCH   1   2
BRANCH   1  13
ATOM     13  C   UNL     1     101.055  84.056  82.759  1.00  0.00     0.000 C 
BRANCH  13  14
ATOM     14  C   UNL     1      99.578  83.889  83.154  1.00  0.00     0.000 C 
BRANCH  14  15
ATOM     15  C   UNL     1      98.727  83.263  82.037  1.00  0.00     0.000 C 
BRANCH  15  16
ATOM     16  C   UNL     1      97.599  84.191  81.555  1.00  0.00     0.000 C 
BRANCH  16  17
ATOM     17  C   UNL     1      98.103  85.504  80.917  1.00  0.00     0.000 C 
BRANCH  17  18
ATOM     18  C   UNL     1      96.970  86.288  80.231  1.00  0.00     0.000 C 
BRANCH  18  19
ATOM     19  C   UNL     1      95.593  85.617  80.383  1.00  0.00     0.000 C 
BRANCH  19  20
ATOM     20  C   UNL     1      94.997  85.049  79.082  1.00  0.00     0.006 C 
BRANCH  20  21
ATOM     21  C   UNL     1      94.093  83.833  79.317  1.00  0.00     0.053 C 
BRANCH  21  22
ATOM     22  C   UNL     1      92.707  84.271  79.672  1.00  0.00     0.041 C 
ATOM     23  O   UNL     1      92.261  84.093  80.837  1.00  0.00    -0.550 OA
ATOM     24  O   UNL     1      91.895  84.856  78.707  1.00  0.00    -0.550 OA
ENDBRANCH  21  22
ENDBRANCH  20  21
ENDBRANCH  19  20
ENDBRANCH  18  19
ENDBRANCH  17  18
ENDBRANCH  16  17
ENDBRANCH  15  16
ENDBRANCH  14  15
ENDBRANCH  13  14
ENDBRANCH   1  13
TORSDOF 20
ENDMDL
MODEL 4
REMARK VINA RESULT:    -4.550      2.741      4.550
REMARK INTER + INTRA:         -12.406
REMARK INTER:                  -9.018
REMARK INTRA:                  -3.388
REMARK UNBOUND:                -2.537
REMARK SMILES CCCCCCCCCCCCCCCCCCCCCC(=O)[O-]
REMARK SMILES IDX 12 1 11 2 10 3 9 4 8 5 7 6 6 7 5 8 4 9 3 10 2 11 1 12 13 13
REMARK SMILES IDX 14 14 15 15 16 16 17 17 18 18 19 19 20 20 21 21 22 22 23 23
REMARK SMILES IDX 24 24
REMARK H PARENT
REMARK Flexibility Score: inf
ROOT
ATOM      1  C   UNL     1      94.739  86.240  83.065  1.00  0.00     0.000 C 
ENDROOT
BRANCH   1   2
ATOM      2  C   UNL     1      95.818  86.636  84.095  1.00  0.00     0.000 C 
BRANCH   2   3
ATOM      3  C   UNL     1      96.014  85.562  85.176  1.00  0.00     0.000 C 
BRANCH   3   4
ATOM      4  C   UNL     1      97.478  85.112  85.241  1.00  0.00    -0.000 C 
BRANCH   4   5
ATOM      5  C   UNL     1      98.405  86.144  84.586  1.00  0.00    -0.000 C 
BRANCH   5   6
ATOM      6  C   UNL     1      99.872  85.852  84.918  1.00  0.00    -0.000 C 
BRANCH   6   7
ATOM      7  C   UNL     1     100.666  85.511  83.647  1.00  0.00    -0.000 C 
BRANCH   7   8
ATOM      8  C   UNL     1     100.580  84.022  83.271  1.00  0.00    -0.000 C 
BRANCH   8   9
ATOM      9  C   UNL     1      99.862  83.791  81.930  1.00  0.00    -0.000 C 
BRANCH   9  10
ATOM     10  C   UNL     1      98.419  83.288  82.112  1.00  0.00    -0.000 C 
BRANCH  10  11
ATOM     11  C   UNL     1      97.376  84.266  81.552  1.00  0.00    -0.003 C 
ATOM     12  C   UNL     1      98.043  85.510  80.973  1.00  0.00     0.004 C 
ENDBRANCH  10  11
ENDBRANCH   9  10
ENDBRANCH   8   9
ENDBRANCH   7   8
ENDBRANCH   6   7
ENDBRANCH   5   6
ENDBRANCH   4   5
ENDBRANCH   3   4
ENDBRANCH   2   3
ENDBRANCH   1   2
BRANCH   1  13
ATOM     13  C   UNL     1      93.684  87.338  82.820  1.00  0.00     0.000 C 
BRANCH  13  14
ATOM     14  C   UNL     1      92.248  86.961  83.224  1.00  0.00     0.000 C 
BRANCH  14  15
ATOM     15  C   UNL     1      92.169  85.609  83.952  1.00  0.00     0.000 C 
BRANCH  15  16
ATOM     16  C   UNL     1      90.944  84.777  83.531  1.00  0.00     0.000 C 
BRANCH  16  17
ATOM     17  C   UNL     1      90.231  85.314  82.271  1.00  0.00     0.000 C 
BRANCH  17  18
ATOM     18  C   UNL     1      90.065  84.230  81.191  1.00  0.00     0.000 C 
BRANCH  18  19
ATOM     19  C   UNL     1      90.952  84.469  79.955  1.00  0.00     0.000 C 
BRANCH  19  20
ATOM     20  C   UNL     1      92.454  84.635  80.253  1.00  0.00     0.006 C 
BRANCH  20  21
ATOM     21  C   UNL     1      93.076  85.842  79.541  1.00  0.00     0.053 C 
BRANCH  21  22
ATOM     22  C   UNL     1      94.509  85.572  79.205  1.00  0.00     0.041 C 
ATOM     23  O   UNL     1      94.938  84.388  79.153  1.00  0.00    -0.550 OA
ATOM     24  O   UNL     1      95.380  86.630  78.972  1.00  0.00    -0.550 OA
ENDBRANCH  21  22
ENDBRANCH  20  21
ENDBRANCH  19  20
ENDBRANCH  18  19
ENDBRANCH  17  18
ENDBRANCH  16  17
ENDBRANCH  15  16
ENDBRANCH  14  15
ENDBRANCH  13  14
ENDBRANCH   1  13
TORSDOF 20
ENDMDL
MODEL 5
REMARK VINA RESULT:    -4.539      2.843      3.721
REMARK INTER + INTRA:         -12.383
REMARK INTER:                  -9.693
REMARK INTRA:                  -2.690
REMARK UNBOUND:                -2.537
REMARK SMILES CCCCCCCCCCCCCCCCCCCCCC(=O)[O-]
REMARK SMILES IDX 12 1 11 2 10 3 9 4 8 5 7 6 6 7 5 8 4 9 3 10 2 11 1 12 13 13
REMARK SMILES IDX 14 14 15 15 16 16 17 17 18 18 19 19 20 20 21 21 22 22 23 23
REMARK SMILES IDX 24 24
REMARK H PARENT
REMARK Flexibility Score: inf
ROOT
ATOM      1  C   UNL     1      95.541  87.259  82.174  1.00  0.00     0.000 C 
ENDROOT
BRANCH   1   2
ATOM      2  C   UNL     1      96.691  87.513  81.179  1.00  0.00     0.000 C 
BRANCH   2   3
ATOM      3  C   UNL     1      98.008  86.863  81.632  1.00  0.00     0.000 C 
BRANCH   3   4
ATOM      4  C   UNL     1      98.255  85.547  80.885  1.00  0.00    -0.000 C 
BRANCH   4   5
ATOM      5  C   UNL     1      97.746  84.348  81.695  1.00  0.00    -0.000 C 
BRANCH   5   6
ATOM      6  C   UNL     1      98.841  83.287  81.850  1.00  0.00    -0.000 C 
BRANCH   6   7
ATOM      7  C   UNL     1     100.206  83.940  82.120  1.00  0.00    -0.000 C 
BRANCH   7   8
ATOM      8  C   UNL     1     100.559  83.985  83.617  1.00  0.00    -0.000 C 
BRANCH   8   9
ATOM      9  C   UNL     1     101.723  84.945  83.921  1.00  0.00    -0.000 C 
BRANCH   9  10
ATOM     10  C   UNL     1     101.330  86.052  84.914  1.00  0.00    -0.000 C 
BRANCH  10  11
ATOM     11  C   UNL     1     100.657  87.251  84.229  1.00  0.00    -0.003 C 
ATOM     12  C   UNL     1     101.370  87.612  82.929  1.00  0.00     0.004 C 
ENDBRANCH  10  11
ENDBRANCH   9  10
ENDBRANCH   8   9
ENDBRANCH   7   8
ENDBRANCH   6   7
ENDBRANCH   5   6
ENDBRANCH   4   5
ENDBRANCH   3   4
ENDBRANCH   2   3
ENDBRANCH   1   2
BRANCH   1  13
ATOM     13  C   UNL     1      94.519  86.211  81.688  1.00  0.00     0.000 C 
BRANCH  13  14
ATOM     14  C   UNL     1      94.508  85.971  80.168  1.00  0.00     0.000 C 
BRANCH  14  15
ATOM     15  C   UNL     1      94.689  84.490  79.797  1.00  0.00     0.000 C 
BRANCH  15  16
ATOM     16  C   UNL     1      93.400  83.850  79.254  1.00  0.00     0.000 C 
BRANCH  16  17
ATOM     17  C   UNL     1      92.279  84.869  78.950  1.00  0.00     0.000 C 
BRANCH  17  18
ATOM     18  C   UNL     1      90.997  84.578  79.749  1.00  0.00     0.000 C 
BRANCH  18  19
ATOM     19  C   UNL     1      91.273  84.192  81.214  1.00  0.00     0.000 C 
BRANCH  19  20
ATOM     20  C   UNL     1      91.071  85.326  82.236  1.00  0.00     0.006 C 
BRANCH  20  21
ATOM     21  C   UNL     1      91.014  84.824  83.684  1.00  0.00     0.053 C 
BRANCH  21  22
ATOM     22  C   UNL     1      91.781  85.738  84.586  1.00  0.00     0.041 C 
ATOM     23  O   UNL     1      92.997  85.516  84.833  1.00  0.00    -0.550 OA
ATOM     24  O   UNL     1      91.147  86.825  85.176  1.00  0.00    -0.550 OA
ENDBRANCH  21  22
ENDBRANCH  20  21
ENDBRANCH  19  20
ENDBRANCH  18  19
ENDBRANCH  17  18
ENDBRANCH  16  17
ENDBRANCH  15  16
ENDBRANCH  14  15
ENDBRANCH  13  14
ENDBRANCH   1  13
TORSDOF 20
ENDMDL
MODEL 6
REMARK VINA RESULT:    -4.514      4.485      8.962
REMARK INTER + INTRA:         -12.330
REMARK INTER:                  -9.188
REMARK INTRA:                  -3.142
REMARK UNBOUND:                -2.537
REMARK SMILES CCCCCCCCCCCCCCCCCCCCCC(=O)[O-]
REMARK SMILES IDX 12 1 11 2 10 3 9 4 8 5 7 6 6 7 5 8 4 9 3 10 2 11 1 12 13 13
REMARK SMILES IDX 14 14 15 15 16 16 17 17 18 18 19 19 20 20 21 21 22 22 23 23
REMARK SMILES IDX 24 24
REMARK H PARENT
REMARK Flexibility Score: inf
ROOT
ATOM      1  C   UNL     1      94.355  86.400  82.709  1.00  0.00     0.000 C 
ENDROOT
BRANCH   1   2
ATOM      2  C   UNL     1      93.170  87.229  83.247  1.00  0.00     0.000 C 
BRANCH   2   3
ATOM      3  C   UNL     1      92.005  86.344  83.714  1.00  0.00     0.000 C 
BRANCH   3   4
ATOM      4  C   UNL     1      91.845  85.122  82.802  1.00  0.00    -0.000 C 
BRANCH   4   5
ATOM      5  C   UNL     1      90.470  85.116  82.121  1.00  0.00    -0.000 C 
BRANCH   5   6
ATOM      6  C   UNL     1      90.444  84.130  80.948  1.00  0.00    -0.000 C 
BRANCH   6   7
ATOM      7  C   UNL     1      89.830  84.779  79.698  1.00  0.00    -0.000 C 
BRANCH   7   8
ATOM      8  C   UNL     1      90.650  85.975  79.184  1.00  0.00    -0.000 C 
BRANCH   8   9
ATOM      9  C   UNL     1      91.966  85.546  78.512  1.00  0.00    -0.000 C 
BRANCH   9  10
ATOM     10  C   UNL     1      93.206  85.973  79.317  1.00  0.00    -0.000 C 
BRANCH  10  11
ATOM     11  C   UNL     1      94.340  84.940  79.252  1.00  0.00    -0.003 C 
ATOM     12  C   UNL     1      93.988  83.687  80.049  1.00  0.00     0.004 C 
ENDBRANCH  10  11
ENDBRANCH   9  10
ENDBRANCH   8   9
ENDBRANCH   7   8
ENDBRANCH   6   7
ENDBRANCH   5   6
ENDBRANCH   4   5
ENDBRANCH   3   4
ENDBRANCH   2   3
ENDBRANCH   1   2
BRANCH   1  13
ATOM     13  C   UNL     1      95.562  86.347  83.667  1.00  0.00     0.000 C 
BRANCH  13  14
ATOM     14  C   UNL     1      96.905  86.763  83.045  1.00  0.00     0.000 C 
BRANCH  14  15
ATOM     15  C   UNL     1      96.948  86.553  81.523  1.00  0.00     0.000 C 
BRANCH  15  16
ATOM     16  C   UNL     1      97.877  85.398  81.107  1.00  0.00     0.000 C 
BRANCH  16  17
ATOM     17  C   UNL     1      97.360  84.004  81.523  1.00  0.00     0.000 C 
BRANCH  17  18
ATOM     18  C   UNL     1      98.420  83.199  82.296  1.00  0.00     0.000 C 
BRANCH  18  19
ATOM     19  C   UNL     1      99.838  83.783  82.160  1.00  0.00     0.000 C 
BRANCH  19  20
ATOM     20  C   UNL     1     100.549  84.086  83.492  1.00  0.00     0.006 C 
BRANCH  20  21
ATOM     21  C   UNL     1      99.690  84.917  84.454  1.00  0.00     0.053 C 
BRANCH  21  22
ATOM     22  C   UNL     1     100.082  84.646  85.872  1.00  0.00     0.041 C 
ATOM     23  O   UNL     1     100.789  83.643  86.158  1.00  0.00    -0.550 OA
ATOM     24  O   UNL     1      99.646  85.491  86.887  1.00  0.00    -0.550 OA
ENDBRANCH  21  22
ENDBRANCH  20  21
ENDBRANCH  19  20
ENDBRANCH  18  19
ENDBRANCH  17  18
ENDBRANCH  16  17
ENDBRANCH  15  16
ENDBRANCH  14  15
ENDBRANCH  13  14
ENDBRANCH   1  13
TORSDOF 20
ENDMDL
MODEL 7
REMARK VINA RESULT:    -4.500      4.285      8.517
REMARK INTER + INTRA:         -12.299
REMARK INTER:                  -9.534
REMARK INTRA:                  -2.765
REMARK UNBOUND:                -2.537
REMARK SMILES CCCCCCCCCCCCCCCCCCCCCC(=O)[O-]
REMARK SMILES IDX 12 1 11 2 10 3 9 4 8 5 7 6 6 7 5 8 4 9 3 10 2 11 1 12 13 13
REMARK SMILES IDX 14 14 15 15 16 16 17 17 18 18 19 19 20 20 21 21 22 22 23 23
REMARK SMILES IDX 24 24
REMARK H PARENT
REMARK Flexibility Score: inf
ROOT
ATOM      1  C   UNL     1      97.001  88.523  82.512  1.00  0.00     0.000 C 
ENDROOT
BRANCH   1   2
ATOM      2  C   UNL     1      95.615  87.920  82.204  1.00  0.00     0.000 C 
BRANCH   2   3
ATOM      3  C   UNL     1      95.174  86.901  83.266  1.00  0.00     0.000 C 
BRANCH   3   4
ATOM      4  C   UNL     1      94.234  85.852  82.660  1.00  0.00    -0.000 C 
BRANCH   4   5
ATOM      5  C   UNL     1      94.041  86.084  81.156  1.00  0.00    -0.000 C 
BRANCH   5   6
ATOM      6  C   UNL     1      94.427  84.836  80.355  1.00  0.00    -0.000 C 
BRANCH   6   7
ATOM      7  C   UNL     1      93.188  83.992  80.020  1.00  0.00    -0.000 C 
BRANCH   7   8
ATOM      8  C   UNL     1      92.166  84.749  79.155  1.00  0.00    -0.000 C 
BRANCH   8   9
ATOM      9  C   UNL     1      90.733  84.644  79.704  1.00  0.00    -0.000 C 
BRANCH   9  10
ATOM     10  C   UNL     1      90.691  84.108  81.145  1.00  0.00    -0.000 C 
BRANCH  10  11
ATOM     11  C   UNL     1      90.437  85.213  82.181  1.00  0.00    -0.003 C 
ATOM     12  C   UNL     1      91.003  84.827  83.545  1.00  0.00     0.004 C 
ENDBRANCH  10  11
ENDBRANCH   9  10
ENDBRANCH   8   9
ENDBRANCH   7   8
ENDBRANCH   6   7
ENDBRANCH   5   6
ENDBRANCH   4   5
ENDBRANCH   3   4
ENDBRANCH   2   3
ENDBRANCH   1   2
BRANCH   1  13
ATOM     13  C   UNL     1      98.137  87.941  81.646  1.00  0.00     0.000 C 
BRANCH  13  14
ATOM     14  C   UNL     1      97.687  86.928  80.579  1.00  0.00     0.000 C 
BRANCH  14  15
ATOM     15  C   UNL     1      98.431  85.586  80.678  1.00  0.00     0.000 C 
BRANCH  15  16
ATOM     16  C   UNL     1      97.676  84.548  81.527  1.00  0.00     0.000 C 
BRANCH  16  17
ATOM     17  C   UNL     1      98.589  83.464  82.141  1.00  0.00     0.000 C 
BRANCH  17  18
ATOM     18  C   UNL     1     100.072  83.691  81.799  1.00  0.00     0.000 C 
BRANCH  18  19
ATOM     19  C   UNL     1     100.929  84.042  83.029  1.00  0.00     0.000 C 
BRANCH  19  20
ATOM     20  C   UNL     1     100.164  84.712  84.186  1.00  0.00     0.006 C 
BRANCH  20  21
ATOM     21  C   UNL     1     100.743  84.370  85.565  1.00  0.00     0.053 C 
BRANCH  21  22
ATOM     22  C   UNL     1      99.740  84.649  86.638  1.00  0.00     0.041 C 
ATOM     23  O   UNL     1     100.082  84.631  87.851  1.00  0.00    -0.550 OA
ATOM     24  O   UNL     1      98.416  84.906  86.302  1.00  0.00    -0.550 OA
ENDBRANCH  21  22
ENDBRANCH  20  21
ENDBRANCH  19  20
ENDBRANCH  18  19
ENDBRANCH  17  18
ENDBRANCH  16  17
ENDBRANCH  15  16
ENDBRANCH  14  15
ENDBRANCH  13  14
ENDBRANCH   1  13
TORSDOF 20
ENDMDL
MODEL 8
REMARK VINA RESULT:    -4.497      1.560      3.429
REMARK INTER + INTRA:         -12.293
REMARK INTER:                  -9.744
REMARK INTRA:                  -2.549
REMARK UNBOUND:                -2.537
REMARK SMILES CCCCCCCCCCCCCCCCCCCCCC(=O)[O-]
REMARK SMILES IDX 12 1 11 2 10 3 9 4 8 5 7 6 6 7 5 8 4 9 3 10 2 11 1 12 13 13
REMARK SMILES IDX 14 14 15 15 16 16 17 17 18 18 19 19 20 20 21 21 22 22 23 23
REMARK SMILES IDX 24 24
REMARK H PARENT
REMARK Flexibility Score: inf
ROOT
ATOM      1  C   UNL     1      99.850  84.005  81.632  1.00  0.00     0.000 C 
ENDROOT
BRANCH   1   2
ATOM      2  C   UNL     1     100.945  83.763  82.691  1.00  0.00     0.000 C 
BRANCH   2   3
ATOM      3  C   UNL     1     101.246  85.023  83.517  1.00  0.00     0.000 C 
BRANCH   3   4
ATOM      4  C   UNL     1     100.994  84.773  85.009  1.00  0.00    -0.000 C 
BRANCH   4   5
ATOM      5  C   UNL     1      99.512  84.961  85.359  1.00  0.00    -0.000 C 
BRANCH   5   6
ATOM      6  C   UNL     1      98.920  86.161  84.611  1.00  0.00    -0.000 C 
BRANCH   6   7
ATOM      7  C   UNL     1      97.394  86.215  84.778  1.00  0.00    -0.000 C 
BRANCH   7   8
ATOM      8  C   UNL     1      96.794  84.869  85.216  1.00  0.00    -0.000 C 
BRANCH   8   9
ATOM      9  C   UNL     1      95.751  85.022  86.337  1.00  0.00    -0.000 C 
BRANCH   9  10
ATOM     10  C   UNL     1      96.010  86.256  87.218  1.00  0.00    -0.000 C 
BRANCH  10  11
ATOM     11  C   UNL     1      96.433  85.886  88.647  1.00  0.00    -0.003 C 
ATOM     12  C   UNL     1      97.907  85.493  88.699  1.00  0.00     0.004 C 
ENDBRANCH  10  11
ENDBRANCH   9  10
ENDBRANCH   8   9
ENDBRANCH   7   8
ENDBRANCH   6   7
ENDBRANCH   5   6
ENDBRANCH   4   5
ENDBRANCH   3   4
ENDBRANCH   2   3
ENDBRANCH   1   2
BRANCH   1  13
ATOM     13  C   UNL     1      98.486  83.384  81.996  1.00  0.00     0.000 C 
BRANCH  13  14
ATOM     14  C   UNL     1      97.267  84.272  81.695  1.00  0.00     0.000 C 
BRANCH  14  15
ATOM     15  C   UNL     1      97.611  85.478  80.806  1.00  0.00     0.000 C 
BRANCH  15  16
ATOM     16  C   UNL     1      96.394  86.018  80.036  1.00  0.00     0.000 C 
BRANCH  16  17
ATOM     17  C   UNL     1      95.355  84.934  79.673  1.00  0.00     0.000 C 
BRANCH  17  18
ATOM     18  C   UNL     1      93.911  85.414  79.900  1.00  0.00     0.000 C 
BRANCH  18  19
ATOM     19  C   UNL     1      92.969  84.290  80.371  1.00  0.00     0.000 C 
BRANCH  19  20
ATOM     20  C   UNL     1      91.797  84.750  81.258  1.00  0.00     0.006 C 
BRANCH  20  21
ATOM     21  C   UNL     1      90.554  83.863  81.115  1.00  0.00     0.053 C 
BRANCH  21  22
ATOM     22  C   UNL     1      89.625  84.425  80.086  1.00  0.00     0.041 C 
ATOM     23  O   UNL     1      88.680  83.727  79.631  1.00  0.00    -0.550 OA
ATOM     24  O   UNL     1      89.818  85.716  79.607  1.00  0.00    -0.550 OA
ENDBRANCH  21  22
ENDBRANCH  20  21
ENDBRANCH  19  20
ENDBRANCH  18  19
ENDBRANCH  17  18
ENDBRANCH  16  17
ENDBRANCH  15  16
ENDBRANCH  14  15
ENDBRANCH  13  14
ENDBRANCH   1  13
TORSDOF 20
ENDMDL
MODEL 9
REMARK VINA RESULT:    -4.458      3.686      7.837
REMARK INTER + INTRA:         -12.207
REMARK INTER:                  -9.161
REMARK INTRA:                  -3.046
REMARK UNBOUND:                -2.537
REMARK SMILES CCCCCCCCCCCCCCCCCCCCCC(=O)[O-]
REMARK SMILES IDX 12 1 11 2 10 3 9 4 8 5 7 6 6 7 5 8 4 9 3 10 2 11 1 12 13 13
REMARK SMILES IDX 14 14 15 15 16 16 17 17 18 18 19 19 20 20 21 21 22 22 23 23
REMARK SMILES IDX 24 24
REMARK H PARENT
REMARK Flexibility Score: inf
ROOT
ATOM      1  C   UNL     1      97.921  84.289  81.623  1.00  0.00     0.000 C 
ENDROOT
BRANCH   1   2
ATOM      2  C   UNL     1      98.497  85.625  81.110  1.00  0.00     0.000 C 
BRANCH   2   3
ATOM      3  C   UNL     1      97.437  86.486  80.407  1.00  0.00     0.000 C 
BRANCH   3   4
ATOM      4  C   UNL     1      96.025  85.975  80.714  1.00  0.00    -0.000 C 
BRANCH   4   5
ATOM      5  C   UNL     1      95.274  85.614  79.426  1.00  0.00    -0.000 C 
BRANCH   5   6
ATOM      6  C   UNL     1      94.582  84.253  79.557  1.00  0.00    -0.000 C 
BRANCH   6   7
ATOM      7  C   UNL     1      93.122  84.329  79.086  1.00  0.00    -0.000 C 
BRANCH   7   8
ATOM      8  C   UNL     1      92.122  83.886  80.168  1.00  0.00    -0.000 C 
BRANCH   8   9
ATOM      9  C   UNL     1      91.503  85.074  80.925  1.00  0.00    -0.000 C 
BRANCH   9  10
ATOM     10  C   UNL     1      91.872  85.079  82.418  1.00  0.00    -0.000 C 
BRANCH  10  11
ATOM     11  C   UNL     1      92.718  86.297  82.816  1.00  0.00    -0.003 C 
ATOM     12  C   UNL     1      93.069  86.260  84.301  1.00  0.00     0.004 C 
ENDBRANCH  10  11
ENDBRANCH   9  10
ENDBRANCH   8   9
ENDBRANCH   7   8
ENDBRANCH   6   7
ENDBRANCH   5   6
ENDBRANCH   4   5
ENDBRANCH   3   4
ENDBRANCH   2   3
ENDBRANCH   1   2
BRANCH   1  13
ATOM     13  C   UNL     1      98.965  83.385  82.309  1.00  0.00     0.000 C 
BRANCH  13  14
ATOM     14  C   UNL     1     100.420  83.872  82.198  1.00  0.00     0.000 C 
BRANCH  14  15
ATOM     15  C   UNL     1     101.000  84.329  83.546  1.00  0.00     0.000 C 
BRANCH  15  16
ATOM     16  C   UNL     1     101.338  85.830  83.572  1.00  0.00     0.000 C 
BRANCH  16  17
ATOM     17  C   UNL     1     100.480  86.644  84.565  1.00  0.00     0.000 C 
BRANCH  17  18
ATOM     18  C   UNL     1      99.236  85.866  85.032  1.00  0.00     0.000 C 
BRANCH  18  19
ATOM     19  C   UNL     1      97.917  86.594  84.717  1.00  0.00     0.000 C 
BRANCH  19  20
ATOM     20  C   UNL     1      96.685  85.681  84.576  1.00  0.00     0.006 C 
BRANCH  20  21
ATOM     21  C   UNL     1      96.454  84.793  85.805  1.00  0.00     0.053 C 
BRANCH  21  22
ATOM     22  C   UNL     1      96.235  85.631  87.024  1.00  0.00     0.041 C 
ATOM     23  O   UNL     1      96.952  85.467  88.047  1.00  0.00    -0.550 OA
ATOM     24  O   UNL     1      95.221  86.582  87.041  1.00  0.00    -0.550 OA
ENDBRANCH  21  22
ENDBRANCH  20  21
ENDBRANCH  19  20
ENDBRANCH  18  19
ENDBRANCH  17  18
ENDBRANCH  16  17
ENDBRANCH  15  16
ENDBRANCH  14  15
ENDBRANCH  13  14
ENDBRANCH   1  13
TORSDOF 20
ENDMDL
