MODEL 1
REMARK VINA RESULT:    -3.953      0.000      0.000
REMARK INTER + INTRA:          -5.036
REMARK INTER:                  -4.877
REMARK INTRA:                  -0.159
REMARK UNBOUND:                -0.159
REMARK SMILES CCCCCC(=O)[O-]
REMARK SMILES IDX 4 1 5 2 6 3 7 4 8 5 3 6 2 7 1 8
REMARK H PARENT
REMARK Flexibility Score: inf
ROOT
ATOM      1  C   UNL     1      25.319  35.693 147.305  1.00  0.00     0.006 C 
ENDROOT
BRANCH   1   2
ATOM      2  C   UNL     1      24.012  34.896 147.331  1.00  0.00     0.053 C 
BRANCH   2   3
ATOM      3  C   UNL     1      24.099  33.781 148.325  1.00  0.00     0.041 C 
ATOM      4  O   UNL     1      24.150  34.034 149.558  1.00  0.00    -0.550 OA
ATOM      5  O   UNL     1      24.076  32.461 147.893  1.00  0.00    -0.550 OA
ENDBRANCH   2   3
ENDBRANCH   1   2
BRANCH   1   6
ATOM      6  C   UNL     1      25.064  37.177 147.592  1.00  0.00     0.000 C 
BRANCH   6   7
ATOM      7  C   UNL     1      23.562  37.487 147.599  1.00  0.00    -0.003 C 
ATOM      8  C   UNL     1      23.309  38.991 147.628  1.00  0.00     0.004 C 
ENDBRANCH   6   7
ENDBRANCH   1   6
TORSDOF 4
ENDMDL
MODEL 2
REMARK VINA RESULT:    -3.941      0.152      1.149
REMARK INTER + INTRA:          -5.021
REMARK INTER:                  -4.875
REMARK INTRA:                  -0.146
REMARK UNBOUND:                -0.159
REMARK SMILES CCCCCC(=O)[O-]
REMARK SMILES IDX 4 1 5 2 6 3 7 4 8 5 3 6 2 7 1 8
REMARK H PARENT
REMARK Flexibility Score: inf
ROOT
ATOM      1  C   UNL     1      25.262  35.756 147.316  1.00  0.00     0.006 C 
ENDROOT
BRANCH   1   2
ATOM      2  C   UNL     1      23.936  34.991 147.276  1.00  0.00     0.053 C 
BRANCH   2   3
ATOM      3  C   UNL     1      23.997  33.792 148.168  1.00  0.00     0.041 C 
ATOM      4  O   UNL     1      23.967  32.634 147.676  1.00  0.00    -0.550 OA
ATOM      5  O   UNL     1      24.135  33.953 149.541  1.00  0.00    -0.550 OA
ENDBRANCH   2   3
ENDBRANCH   1   2
BRANCH   1   6
ATOM      6  C   UNL     1      25.034  37.237 147.636  1.00  0.00     0.000 C 
BRANCH   6   7
ATOM      7  C   UNL     1      23.542  37.588 147.589  1.00  0.00    -0.003 C 
ATOM      8  C   UNL     1      23.329  39.098 147.604  1.00  0.00     0.004 C 
ENDBRANCH   6   7
ENDBRANCH   1   6
TORSDOF 4
ENDMDL
MODEL 3
REMARK VINA RESULT:    -3.816      1.081      1.566
REMARK INTER + INTRA:          -4.868
REMARK INTER:                  -4.743
REMARK INTRA:                  -0.125
REMARK UNBOUND:                -0.159
REMARK SMILES CCCCCC(=O)[O-]
REMARK SMILES IDX 4 1 5 2 6 3 7 4 8 5 3 6 2 7 1 8
REMARK H PARENT
REMARK Flexibility Score: inf
ROOT
ATOM      1  C   UNL     1      23.657  35.502 147.368  1.00  0.00     0.006 C 
ENDROOT
BRANCH   1   2
ATOM      2  C   UNL     1      24.839  34.551 147.581  1.00  0.00     0.053 C 
BRANCH   2   3
ATOM      3  C   UNL     1      24.914  34.122 149.012  1.00  0.00     0.041 C 
ATOM      4  O   UNL     1      23.985  33.439 149.518  1.00  0.00    -0.550 OA
ATOM      5  O   UNL     1      26.033  34.435 149.773  1.00  0.00    -0.550 OA
ENDBRANCH   2   3
ENDBRANCH   1   2
BRANCH   1   6
ATOM      6  C   UNL     1      23.779  36.739 148.265  1.00  0.00     0.000 C 
BRANCH   6   7
ATOM      7  C   UNL     1      24.283  37.949 147.470  1.00  0.00    -0.003 C 
ATOM      8  C   UNL     1      23.356  39.148 147.641  1.00  0.00     0.004 C 
ENDBRANCH   6   7
ENDBRANCH   1   6
TORSDOF 4
ENDMDL
MODEL 4
REMARK VINA RESULT:    -3.752      2.634      4.375
REMARK INTER + INTRA:          -4.788
REMARK INTER:                  -4.682
REMARK INTRA:                  -0.106
REMARK UNBOUND:                -0.159
REMARK SMILES CCCCCC(=O)[O-]
REMARK SMILES IDX 4 1 5 2 6 3 7 4 8 5 3 6 2 7 1 8
REMARK H PARENT
REMARK Flexibility Score: inf
ROOT
ATOM      1  C   UNL     1      24.269  35.926 148.238  1.00  0.00     0.006 C 
ENDROOT
BRANCH   1   2
ATOM      2  C   UNL     1      24.284  37.255 147.476  1.00  0.00     0.053 C 
BRANCH   2   3
ATOM      3  C   UNL     1      23.333  38.226 148.100  1.00  0.00     0.041 C 
ATOM      4  O   UNL     1      23.033  39.293 147.501  1.00  0.00    -0.550 OA
ATOM      5  O   UNL     1      22.740  37.932 149.321  1.00  0.00    -0.550 OA
ENDBRANCH   2   3
ENDBRANCH   1   2
BRANCH   1   6
ATOM      6  C   UNL     1      23.749  34.789 147.351  1.00  0.00     0.000 C 
BRANCH   6   7
ATOM      7  C   UNL     1      23.989  33.425 148.008  1.00  0.00    -0.003 C 
ATOM      8  C   UNL     1      24.292  33.573 149.495  1.00  0.00     0.004 C 
ENDBRANCH   6   7
ENDBRANCH   1   6
TORSDOF 4
ENDMDL
MODEL 5
REMARK VINA RESULT:    -3.685      1.395      2.000
REMARK INTER + INTRA:          -4.706
REMARK INTER:                  -4.622
REMARK INTRA:                  -0.084
REMARK UNBOUND:                -0.159
REMARK SMILES CCCCCC(=O)[O-]
REMARK SMILES IDX 4 1 5 2 6 3 7 4 8 5 3 6 2 7 1 8
REMARK H PARENT
REMARK Flexibility Score: inf
ROOT
ATOM      1  C   UNL     1      24.302  37.258 147.598  1.00  0.00     0.006 C 
ENDROOT
BRANCH   1   2
ATOM      2  C   UNL     1      23.622  35.901 147.395  1.00  0.00     0.053 C 
BRANCH   2   3
ATOM      3  C   UNL     1      24.485  34.800 147.924  1.00  0.00     0.041 C 
ATOM      4  O   UNL     1      25.578  34.526 147.362  1.00  0.00    -0.550 OA
ATOM      5  O   UNL     1      24.107  34.108 149.067  1.00  0.00    -0.550 OA
ENDBRANCH   2   3
ENDBRANCH   1   2
BRANCH   1   6
ATOM      6  C   UNL     1      23.267  38.356 147.873  1.00  0.00     0.000 C 
BRANCH   6   7
ATOM      7  C   UNL     1      23.880  39.749 147.690  1.00  0.00    -0.003 C 
ATOM      8  C   UNL     1      25.390  39.667 147.499  1.00  0.00     0.004 C 
ENDBRANCH   6   7
ENDBRANCH   1   6
TORSDOF 4
ENDMDL
MODEL 6
REMARK VINA RESULT:    -3.645      3.651      5.393
REMARK INTER + INTRA:          -4.656
REMARK INTER:                  -4.585
REMARK INTRA:                  -0.072
REMARK UNBOUND:                -0.159
REMARK SMILES CCCCCC(=O)[O-]
REMARK SMILES IDX 4 1 5 2 6 3 7 4 8 5 3 6 2 7 1 8
REMARK H PARENT
REMARK Flexibility Score: inf
ROOT
ATOM      1  C   UNL     1      23.398  38.754 147.747  1.00  0.00     0.006 C 
ENDROOT
BRANCH   1   2
ATOM      2  C   UNL     1      24.196  40.059 147.824  1.00  0.00     0.053 C 
BRANCH   2   3
ATOM      3  C   UNL     1      24.206  40.584 149.225  1.00  0.00     0.041 C 
ATOM      4  O   UNL     1      24.310  39.792 150.198  1.00  0.00    -0.550 OA
ATOM      5  O   UNL     1      24.148  41.953 149.455  1.00  0.00    -0.550 OA
ENDBRANCH   2   3
ENDBRANCH   1   2
BRANCH   1   6
ATOM      6  C   UNL     1      24.312  37.570 147.415  1.00  0.00     0.000 C 
BRANCH   6   7
ATOM      7  C   UNL     1      23.530  36.251 147.424  1.00  0.00    -0.003 C 
ATOM      8  C   UNL     1      24.469  35.052 147.342  1.00  0.00     0.004 C 
ENDBRANCH   6   7
ENDBRANCH   1   6
TORSDOF 4
ENDMDL
MODEL 7
REMARK VINA RESULT:    -3.565      1.236      1.549
REMARK INTER + INTRA:          -4.558
REMARK INTER:                  -4.341
REMARK INTRA:                  -0.217
REMARK UNBOUND:                -0.159
REMARK SMILES CCCCCC(=O)[O-]
REMARK SMILES IDX 4 1 5 2 6 3 7 4 8 5 3 6 2 7 1 8
REMARK H PARENT
REMARK Flexibility Score: inf
ROOT
ATOM      1  C   UNL     1      25.957  35.550 148.838  1.00  0.00     0.006 C 
ENDROOT
BRANCH   1   2
ATOM      2  C   UNL     1      25.956  34.026 148.682  1.00  0.00     0.053 C 
BRANCH   2   3
ATOM      3  C   UNL     1      24.570  33.486 148.837  1.00  0.00     0.041 C 
ATOM      4  O   UNL     1      24.131  33.184 149.978  1.00  0.00    -0.550 OA
ATOM      5  O   UNL     1      23.744  33.361 147.726  1.00  0.00    -0.550 OA
ENDBRANCH   2   3
ENDBRANCH   1   2
BRANCH   1   6
ATOM      6  C   UNL     1      25.897  36.243 147.472  1.00  0.00     0.000 C 
BRANCH   6   7
ATOM      7  C   UNL     1      24.922  37.426 147.496  1.00  0.00    -0.003 C 
ATOM      8  C   UNL     1      23.480  36.950 147.637  1.00  0.00     0.004 C 
ENDBRANCH   6   7
ENDBRANCH   1   6
TORSDOF 4
ENDMDL
MODEL 8
REMARK VINA RESULT:    -3.525      2.170      2.371
REMARK INTER + INTRA:          -4.508
REMARK INTER:                  -4.408
REMARK INTRA:                  -0.101
REMARK UNBOUND:                -0.159
REMARK SMILES CCCCCC(=O)[O-]
REMARK SMILES IDX 4 1 5 2 6 3 7 4 8 5 3 6 2 7 1 8
REMARK H PARENT
REMARK Flexibility Score: inf
ROOT
ATOM      1  C   UNL     1      25.049  35.182 147.523  1.00  0.00     0.006 C 
ENDROOT
BRANCH   1   2
ATOM      2  C   UNL     1      25.318  34.727 148.960  1.00  0.00     0.053 C 
BRANCH   2   3
ATOM      3  C   UNL     1      26.781  34.795 149.265  1.00  0.00     0.041 C 
ATOM      4  O   UNL     1      27.242  35.746 149.949  1.00  0.00    -0.550 OA
ATOM      5  O   UNL     1      27.629  33.782 148.834  1.00  0.00    -0.550 OA
ENDBRANCH   2   3
ENDBRANCH   1   2
BRANCH   1   6
ATOM      6  C   UNL     1      23.927  36.225 147.477  1.00  0.00     0.000 C 
BRANCH   6   7
ATOM      7  C   UNL     1      24.492  37.647 147.564  1.00  0.00    -0.003 C 
ATOM      8  C   UNL     1      23.374  38.682 147.640  1.00  0.00     0.004 C 
ENDBRANCH   6   7
ENDBRANCH   1   6
TORSDOF 4
ENDMDL
MODEL 9
REMARK VINA RESULT:    -3.472      3.843      5.486
REMARK INTER + INTRA:          -4.443
REMARK INTER:                  -4.286
REMARK INTRA:                  -0.157
REMARK UNBOUND:                -0.159
REMARK SMILES CCCCCC(=O)[O-]
REMARK SMILES IDX 4 1 5 2 6 3 7 4 8 5 3 6 2 7 1 8
REMARK H PARENT
REMARK Flexibility Score: inf
ROOT
ATOM      1  C   UNL     1      23.624  39.691 147.637  1.00  0.00     0.006 C 
ENDROOT
BRANCH   1   2
ATOM      2  C   UNL     1      25.122  39.949 147.821  1.00  0.00     0.053 C 
BRANCH   2   3
ATOM      3  C   UNL     1      25.374  40.674 149.105  1.00  0.00     0.041 C 
ATOM      4  O   UNL     1      26.027  41.751 149.107  1.00  0.00    -0.550 OA
ATOM      5  O   UNL     1      24.847  40.186 150.294  1.00  0.00    -0.550 OA
ENDBRANCH   2   3
ENDBRANCH   1   2
BRANCH   1   6
ATOM      6  C   UNL     1      23.296  38.204 147.814  1.00  0.00     0.000 C 
BRANCH   6   7
ATOM      7  C   UNL     1      24.519  37.330 147.513  1.00  0.00    -0.003 C 
ATOM      8  C   UNL     1      24.147  35.852 147.482  1.00  0.00     0.004 C 
ENDBRANCH   6   7
ENDBRANCH   1   6
TORSDOF 4
ENDMDL
