MODEL 1
REMARK VINA RESULT:    -5.950      0.000      0.000
REMARK INTER + INTRA:          -7.675
REMARK INTER:                  -7.341
REMARK INTRA:                  -0.334
REMARK UNBOUND:                -0.334
REMARK SMILES O=c1c(O)c(-c2cc(O)c(O)c(O)c2)oc2cc(O)cc(O)c12
REMARK SMILES IDX 5 1 3 2 2 3 1 4 23 5 21 6 20 7 18 8 17 9 16 10 15 11 6 12
REMARK SMILES IDX 7 13 8 14 14 15 10 16 12 17 9 18 11 20 13 22 4 24 22 26
REMARK SMILES IDX 19 28
REMARK H PARENT 9 19 11 21 13 23 4 25 22 27 19 29
REMARK Flexibility Score: inf
ROOT
ATOM      1  C   UNL     1     -13.470  15.883 -25.160  1.00  0.00     0.180 A 
ATOM      2  C   UNL     1     -14.290  16.475 -24.179  1.00  0.00     0.208 A 
ATOM      3  C   UNL     1     -14.231  17.866 -23.996  1.00  0.00     0.238 A 
ATOM      4  O   UNL     1     -14.970  18.409 -23.130  1.00  0.00    -0.285 OA
ATOM      5  C   UNL     1     -13.345  18.635 -24.777  1.00  0.00     0.111 A 
ATOM      6  C   UNL     1     -13.222  20.040 -24.652  1.00  0.00     0.134 A 
ATOM      7  C   UNL     1     -12.308  20.734 -25.459  1.00  0.00     0.093 A 
ATOM      8  C   UNL     1     -11.517  20.052 -26.386  1.00  0.00     0.123 A 
ATOM      9  C   UNL     1     -11.634  18.664 -26.515  1.00  0.00     0.094 A 
ATOM     10  C   UNL     1     -12.540  17.955 -25.721  1.00  0.00     0.146 A 
ATOM     11  O   UNL     1     -12.634  16.638 -25.867  1.00  0.00    -0.452 OA
ENDROOT
BRANCH   1  12
ATOM     12  C   UNL     1     -13.488  14.426 -25.424  1.00  0.00     0.029 A 
ATOM     13  C   UNL     1     -12.785  13.526 -24.610  1.00  0.00     0.062 A 
ATOM     14  C   UNL     1     -12.835  12.149 -24.864  1.00  0.00     0.162 A 
ATOM     15  C   UNL     1     -14.272  13.926 -26.474  1.00  0.00     0.062 A 
ATOM     16  C   UNL     1     -13.599  11.654 -25.928  1.00  0.00     0.200 A 
ATOM     17  C   UNL     1     -14.331  12.553 -26.740  1.00  0.00     0.162 A 
BRANCH  14  18
ATOM     18  O   UNL     1     -12.126  11.264 -24.054  1.00  0.00    -0.504 OA
ATOM     19  H   UNL     1     -12.150  11.331 -23.043  1.00  0.00     0.293 HD
ENDBRANCH  14  18
BRANCH  16  20
ATOM     20  O   UNL     1     -13.608  10.273 -26.141  1.00  0.00    -0.502 OA
ATOM     21  H   UNL     1     -14.265   9.638 -25.712  1.00  0.00     0.293 HD
ENDBRANCH  16  20
BRANCH  17  22
ATOM     22  O   UNL     1     -15.122  12.130 -27.810  1.00  0.00    -0.504 OA
ATOM     23  H   UNL     1     -14.884  12.269 -28.780  1.00  0.00     0.293 HD
ENDBRANCH  17  22
ENDBRANCH   1  12
BRANCH   2  24
ATOM     24  O   UNL     1     -15.125  15.685 -23.386  1.00  0.00    -0.502 OA
ATOM     25  H   UNL     1     -15.725  14.968 -23.775  1.00  0.00     0.293 HD
ENDBRANCH   2  24
BRANCH   6  26
ATOM     26  O   UNL     1     -13.997  20.750 -23.734  1.00  0.00    -0.507 OA
ATOM     27  H   UNL     1     -14.878  21.175 -23.997  1.00  0.00     0.293 HD
ENDBRANCH   6  26
BRANCH   8  28
ATOM     28  O   UNL     1     -10.616  20.764 -27.176  1.00  0.00    -0.508 OA
ATOM     29  H   UNL     1     -10.677  21.771 -27.273  1.00  0.00     0.293 HD
ENDBRANCH   8  28
TORSDOF 7
ENDMDL
MODEL 2
REMARK VINA RESULT:    -5.795      1.702      6.979
REMARK INTER + INTRA:          -7.484
REMARK INTER:                  -7.209
REMARK INTRA:                  -0.275
REMARK UNBOUND:                -0.334
REMARK SMILES O=c1c(O)c(-c2cc(O)c(O)c(O)c2)oc2cc(O)cc(O)c12
REMARK SMILES IDX 5 1 3 2 2 3 1 4 23 5 21 6 20 7 18 8 17 9 16 10 15 11 6 12
REMARK SMILES IDX 7 13 8 14 14 15 10 16 12 17 9 18 11 20 13 22 4 24 22 26
REMARK SMILES IDX 19 28
REMARK H PARENT 9 19 11 21 13 23 4 25 22 27 19 29
REMARK Flexibility Score: inf
ROOT
ATOM      1  C   UNL     1     -12.129  16.686 -24.757  1.00  0.00     0.180 A 
ATOM      2  C   UNL     1     -11.841  16.109 -23.505  1.00  0.00     0.208 A 
ATOM      3  C   UNL     1     -12.210  14.775 -23.271  1.00  0.00     0.238 A 
ATOM      4  O   UNL     1     -11.946  14.244 -22.158  1.00  0.00    -0.285 OA
ATOM      5  C   UNL     1     -12.876  14.050 -24.279  1.00  0.00     0.111 A 
ATOM      6  C   UNL     1     -13.286  12.703 -24.123  1.00  0.00     0.134 A 
ATOM      7  C   UNL     1     -13.952  12.052 -25.171  1.00  0.00     0.093 A 
ATOM      8  C   UNL     1     -14.218  12.719 -26.369  1.00  0.00     0.123 A 
ATOM      9  C   UNL     1     -13.815  14.049 -26.531  1.00  0.00     0.094 A 
ATOM     10  C   UNL     1     -13.148  14.715 -25.498  1.00  0.00     0.146 A 
ATOM     11  O   UNL     1     -12.772  15.975 -25.679  1.00  0.00    -0.452 OA
ENDROOT
BRANCH   1  12
ATOM     12  C   UNL     1     -11.755  18.080 -25.085  1.00  0.00     0.029 A 
ATOM     13  C   UNL     1     -10.415  18.454 -25.269  1.00  0.00     0.062 A 
ATOM     14  C   UNL     1     -10.084  19.773 -25.602  1.00  0.00     0.162 A 
ATOM     15  C   UNL     1     -12.762  19.038 -25.276  1.00  0.00     0.062 A 
ATOM     16  C   UNL     1     -11.090  20.735 -25.768  1.00  0.00     0.200 A 
ATOM     17  C   UNL     1     -12.446  20.360 -25.609  1.00  0.00     0.162 A 
BRANCH  14  18
ATOM     18  O   UNL     1      -8.749  20.137 -25.774  1.00  0.00    -0.504 OA
ATOM     19  H   UNL     1      -8.440  20.654 -26.588  1.00  0.00     0.293 HD
ENDBRANCH  14  18
BRANCH  16  20
ATOM     20  O   UNL     1     -10.704  22.038 -26.093  1.00  0.00    -0.502 OA
ATOM     21  H   UNL     1     -10.472  22.343 -27.027  1.00  0.00     0.293 HD
ENDBRANCH  16  20
BRANCH  17  22
ATOM     22  O   UNL     1     -13.500  21.261 -25.770  1.00  0.00    -0.504 OA
ATOM     23  H   UNL     1     -13.763  21.955 -25.086  1.00  0.00     0.293 HD
ENDBRANCH  17  22
ENDBRANCH   1  12
BRANCH   2  24
ATOM     24  O   UNL     1     -11.223  16.865 -22.505  1.00  0.00    -0.502 OA
ATOM     25  H   UNL     1     -11.739  17.272 -21.735  1.00  0.00     0.293 HD
ENDBRANCH   2  24
BRANCH   6  26
ATOM     26  O   UNL     1     -13.036  12.009 -22.938  1.00  0.00    -0.507 OA
ATOM     27  H   UNL     1     -12.209  11.438 -22.819  1.00  0.00     0.293 HD
ENDBRANCH   6  26
BRANCH   8  28
ATOM     28  O   UNL     1     -14.883  12.050 -27.395  1.00  0.00    -0.508 OA
ATOM     29  H   UNL     1     -14.379  11.627 -28.166  1.00  0.00     0.293 HD
ENDBRANCH   8  28
TORSDOF 7
ENDMDL
MODEL 3
REMARK VINA RESULT:    -5.712     17.372     19.829
REMARK INTER + INTRA:          -7.381
REMARK INTER:                  -7.113
REMARK INTRA:                  -0.268
REMARK UNBOUND:                -0.334
REMARK SMILES O=c1c(O)c(-c2cc(O)c(O)c(O)c2)oc2cc(O)cc(O)c12
REMARK SMILES IDX 5 1 3 2 2 3 1 4 23 5 21 6 20 7 18 8 17 9 16 10 15 11 6 12
REMARK SMILES IDX 7 13 8 14 14 15 10 16 12 17 9 18 11 20 13 22 4 24 22 26
REMARK SMILES IDX 19 28
REMARK H PARENT 9 19 11 21 13 23 4 25 22 27 19 29
REMARK Flexibility Score: inf
ROOT
ATOM      1  C   UNL     1      -0.325  13.129 -38.274  1.00  0.00     0.180 A 
ATOM      2  C   UNL     1      -1.520  13.567 -37.671  1.00  0.00     0.208 A 
ATOM      3  C   UNL     1      -2.540  12.634 -37.429  1.00  0.00     0.238 A 
ATOM      4  O   UNL     1      -3.610  13.012 -36.878  1.00  0.00    -0.285 OA
ATOM      5  C   UNL     1      -2.358  11.289 -37.810  1.00  0.00     0.111 A 
ATOM      6  C   UNL     1      -3.338  10.287 -37.605  1.00  0.00     0.134 A 
ATOM      7  C   UNL     1      -3.086   8.971 -38.022  1.00  0.00     0.093 A 
ATOM      8  C   UNL     1      -1.877   8.639 -38.637  1.00  0.00     0.123 A 
ATOM      9  C   UNL     1      -0.905   9.624 -38.842  1.00  0.00     0.094 A 
ATOM     10  C   UNL     1      -1.137  10.940 -38.432  1.00  0.00     0.146 A 
ATOM     11  O   UNL     1      -0.195  11.855 -38.633  1.00  0.00    -0.452 OA
ENDROOT
BRANCH   1  12
ATOM     12  C   UNL     1       0.803  14.049 -38.544  1.00  0.00     0.029 A 
ATOM     13  C   UNL     1       0.727  15.021 -39.552  1.00  0.00     0.062 A 
ATOM     14  C   UNL     1       1.797  15.898 -39.777  1.00  0.00     0.162 A 
ATOM     15  C   UNL     1       1.949  13.991 -37.738  1.00  0.00     0.062 A 
ATOM     16  C   UNL     1       2.951  15.821 -38.986  1.00  0.00     0.200 A 
ATOM     17  C   UNL     1       3.026  14.859 -37.951  1.00  0.00     0.162 A 
BRANCH  14  18
ATOM     18  O   UNL     1       1.716  16.855 -40.787  1.00  0.00    -0.504 OA
ATOM     19  H   UNL     1       1.691  16.594 -41.766  1.00  0.00     0.293 HD
ENDBRANCH  14  18
BRANCH  16  20
ATOM     20  O   UNL     1       3.991  16.715 -39.257  1.00  0.00    -0.502 OA
ATOM     21  H   UNL     1       4.967  16.456 -39.284  1.00  0.00     0.293 HD
ENDBRANCH  16  20
BRANCH  17  22
ATOM     22  O   UNL     1       4.138  14.733 -37.117  1.00  0.00    -0.504 OA
ATOM     23  H   UNL     1       4.133  14.941 -36.129  1.00  0.00     0.293 HD
ENDBRANCH  17  22
ENDBRANCH   1  12
BRANCH   2  24
ATOM     24  O   UNL     1      -1.694  14.915 -37.347  1.00  0.00    -0.502 OA
ATOM     25  H   UNL     1      -2.340  15.222 -36.630  1.00  0.00     0.293 HD
ENDBRANCH   2  24
BRANCH   6  26
ATOM     26  O   UNL     1      -4.557  10.587 -36.994  1.00  0.00    -0.507 OA
ATOM     27  H   UNL     1      -4.884  11.540 -36.900  1.00  0.00     0.293 HD
ENDBRANCH   6  26
BRANCH   8  28
ATOM     28  O   UNL     1      -1.651   7.325 -39.042  1.00  0.00    -0.508 OA
ATOM     29  H   UNL     1      -1.983   6.538 -38.498  1.00  0.00     0.293 HD
ENDBRANCH   8  28
TORSDOF 7
ENDMDL
MODEL 4
REMARK VINA RESULT:    -5.651     14.003     15.666
REMARK INTER + INTRA:          -7.306
REMARK INTER:                  -6.967
REMARK INTRA:                  -0.339
REMARK UNBOUND:                -0.334
REMARK SMILES O=c1c(O)c(-c2cc(O)c(O)c(O)c2)oc2cc(O)cc(O)c12
REMARK SMILES IDX 5 1 3 2 2 3 1 4 23 5 21 6 20 7 18 8 17 9 16 10 15 11 6 12
REMARK SMILES IDX 7 13 8 14 14 15 10 16 12 17 9 18 11 20 13 22 4 24 22 26
REMARK SMILES IDX 19 28
REMARK H PARENT 9 19 11 21 13 23 4 25 22 27 19 29
REMARK Flexibility Score: inf
ROOT
ATOM      1  C   UNL     1      -7.372  11.007 -38.752  1.00  0.00     0.180 A 
ATOM      2  C   UNL     1      -8.004  11.603 -39.861  1.00  0.00     0.208 A 
ATOM      3  C   UNL     1      -8.745  12.780 -39.668  1.00  0.00     0.238 A 
ATOM      4  O   UNL     1      -9.305  13.329 -40.656  1.00  0.00    -0.285 OA
ATOM      5  C   UNL     1      -8.859  13.327 -38.375  1.00  0.00     0.111 A 
ATOM      6  C   UNL     1      -9.590  14.507 -38.095  1.00  0.00     0.134 A 
ATOM      7  C   UNL     1      -9.665  14.984 -36.778  1.00  0.00     0.093 A 
ATOM      8  C   UNL     1      -9.025  14.306 -35.738  1.00  0.00     0.123 A 
ATOM      9  C   UNL     1      -8.301  13.140 -36.008  1.00  0.00     0.094 A 
ATOM     10  C   UNL     1      -8.213  12.650 -37.314  1.00  0.00     0.146 A 
ATOM     11  O   UNL     1      -7.515  11.544 -37.544  1.00  0.00    -0.452 OA
ENDROOT
BRANCH   1  12
ATOM     12  C   UNL     1      -6.559   9.776 -38.878  1.00  0.00     0.029 A 
ATOM     13  C   UNL     1      -7.103   8.511 -38.615  1.00  0.00     0.062 A 
ATOM     14  C   UNL     1      -6.322   7.356 -38.762  1.00  0.00     0.162 A 
ATOM     15  C   UNL     1      -5.234   9.869 -39.327  1.00  0.00     0.062 A 
ATOM     16  C   UNL     1      -4.991   7.453 -39.188  1.00  0.00     0.200 A 
ATOM     17  C   UNL     1      -4.442   8.725 -39.479  1.00  0.00     0.162 A 
BRANCH  14  18
ATOM     18  O   UNL     1      -6.869   6.103 -38.490  1.00  0.00    -0.504 OA
ATOM     19  H   UNL     1      -6.335   5.251 -38.617  1.00  0.00     0.293 HD
ENDBRANCH  14  18
BRANCH  16  20
ATOM     20  O   UNL     1      -4.255   6.271 -39.312  1.00  0.00    -0.502 OA
ATOM     21  H   UNL     1      -4.133   5.600 -38.568  1.00  0.00     0.293 HD
ENDBRANCH  16  20
BRANCH  17  22
ATOM     22  O   UNL     1      -3.128   8.896 -39.919  1.00  0.00    -0.504 OA
ATOM     23  H   UNL     1      -2.469   8.142 -40.042  1.00  0.00     0.293 HD
ENDBRANCH  17  22
ENDBRANCH   1  12
BRANCH   2  24
ATOM     24  O   UNL     1      -7.915  11.013 -41.125  1.00  0.00    -0.502 OA
ATOM     25  H   UNL     1      -7.856  11.559 -41.975  1.00  0.00     0.293 HD
ENDBRANCH   2  24
BRANCH   6  26
ATOM     26  O   UNL     1     -10.242  15.207 -39.112  1.00  0.00    -0.507 OA
ATOM     27  H   UNL     1     -11.243  15.140 -39.248  1.00  0.00     0.293 HD
ENDBRANCH   6  26
BRANCH   8  28
ATOM     28  O   UNL     1      -9.115  14.800 -34.438  1.00  0.00    -0.508 OA
ATOM     29  H   UNL     1      -8.674  15.672 -34.171  1.00  0.00     0.293 HD
ENDBRANCH   8  28
TORSDOF 7
ENDMDL
MODEL 5
REMARK VINA RESULT:    -5.623      2.081      3.397
REMARK INTER + INTRA:          -7.272
REMARK INTER:                  -6.924
REMARK INTRA:                  -0.348
REMARK UNBOUND:                -0.334
REMARK SMILES O=c1c(O)c(-c2cc(O)c(O)c(O)c2)oc2cc(O)cc(O)c12
REMARK SMILES IDX 5 1 3 2 2 3 1 4 23 5 21 6 20 7 18 8 17 9 16 10 15 11 6 12
REMARK SMILES IDX 7 13 8 14 14 15 10 16 12 17 9 18 11 20 13 22 4 24 22 26
REMARK SMILES IDX 19 28
REMARK H PARENT 9 19 11 21 13 23 4 25 22 27 19 29
REMARK Flexibility Score: inf
ROOT
ATOM      1  C   UNL     1     -13.787  13.862 -25.974  1.00  0.00     0.180 A 
ATOM      2  C   UNL     1     -14.071  13.689 -24.605  1.00  0.00     0.208 A 
ATOM      3  C   UNL     1     -14.394  14.815 -23.832  1.00  0.00     0.238 A 
ATOM      4  O   UNL     1     -14.662  14.671 -22.608  1.00  0.00    -0.285 OA
ATOM      5  C   UNL     1     -14.409  16.091 -24.431  1.00  0.00     0.111 A 
ATOM      6  C   UNL     1     -14.720  17.277 -23.721  1.00  0.00     0.134 A 
ATOM      7  C   UNL     1     -14.704  18.511 -24.387  1.00  0.00     0.093 A 
ATOM      8  C   UNL     1     -14.382  18.584 -25.744  1.00  0.00     0.123 A 
ATOM      9  C   UNL     1     -14.074  17.416 -26.451  1.00  0.00     0.094 A 
ATOM     10  C   UNL     1     -14.087  16.176 -25.806  1.00  0.00     0.146 A 
ATOM     11  O   UNL     1     -13.795  15.083 -26.501  1.00  0.00    -0.452 OA
ENDROOT
BRANCH   1  12
ATOM     12  C   UNL     1     -13.455  12.722 -26.858  1.00  0.00     0.029 A 
ATOM     13  C   UNL     1     -14.457  11.901 -27.397  1.00  0.00     0.062 A 
ATOM     14  C   UNL     1     -14.124  10.841 -28.251  1.00  0.00     0.162 A 
ATOM     15  C   UNL     1     -12.119  12.491 -27.214  1.00  0.00     0.062 A 
ATOM     16  C   UNL     1     -12.785  10.596 -28.586  1.00  0.00     0.200 A 
ATOM     17  C   UNL     1     -11.771  11.435 -28.065  1.00  0.00     0.162 A 
BRANCH  14  18
ATOM     18  O   UNL     1     -15.125  10.025 -28.775  1.00  0.00    -0.504 OA
ATOM     19  H   UNL     1     -15.922   9.736 -28.219  1.00  0.00     0.293 HD
ENDBRANCH  14  18
BRANCH  16  20
ATOM     20  O   UNL     1     -12.508   9.522 -29.435  1.00  0.00    -0.502 OA
ATOM     21  H   UNL     1     -13.194   9.078 -30.029  1.00  0.00     0.293 HD
ENDBRANCH  16  20
BRANCH  17  22
ATOM     22  O   UNL     1     -10.419  11.259 -28.365  1.00  0.00    -0.504 OA
ATOM     23  H   UNL     1      -9.974  11.609 -29.200  1.00  0.00     0.293 HD
ENDBRANCH  17  22
ENDBRANCH   1  12
BRANCH   2  24
ATOM     24  O   UNL     1     -14.002  12.420 -24.024  1.00  0.00    -0.502 OA
ATOM     25  H   UNL     1     -14.809  11.813 -23.949  1.00  0.00     0.293 HD
ENDBRANCH   2  24
BRANCH   6  26
ATOM     26  O   UNL     1     -15.044  17.238 -22.364  1.00  0.00    -0.507 OA
ATOM     27  H   UNL     1     -14.378  17.501 -21.649  1.00  0.00     0.293 HD
ENDBRANCH   6  26
BRANCH   8  28
ATOM     28  O   UNL     1     -14.372  19.822 -26.383  1.00  0.00    -0.508 OA
ATOM     29  H   UNL     1     -13.520  20.365 -26.473  1.00  0.00     0.293 HD
ENDBRANCH   8  28
TORSDOF 7
ENDMDL
MODEL 6
REMARK VINA RESULT:    -5.572     13.183     15.014
REMARK INTER + INTRA:          -7.208
REMARK INTER:                  -6.856
REMARK INTRA:                  -0.352
REMARK UNBOUND:                -0.334
REMARK SMILES O=c1c(O)c(-c2cc(O)c(O)c(O)c2)oc2cc(O)cc(O)c12
REMARK SMILES IDX 5 1 3 2 2 3 1 4 23 5 21 6 20 7 18 8 17 9 16 10 15 11 6 12
REMARK SMILES IDX 7 13 8 14 14 15 10 16 12 17 9 18 11 20 13 22 4 24 22 26
REMARK SMILES IDX 19 28
REMARK H PARENT 9 19 11 21 13 23 4 25 22 27 19 29
REMARK Flexibility Score: inf
ROOT
ATOM      1  C   UNL     1      -8.855  10.630 -38.636  1.00  0.00     0.180 A 
ATOM      2  C   UNL     1      -8.853  11.238 -39.908  1.00  0.00     0.208 A 
ATOM      3  C   UNL     1      -8.737  12.634 -39.992  1.00  0.00     0.238 A 
ATOM      4  O   UNL     1      -8.722  13.188 -41.125  1.00  0.00    -0.285 OA
ATOM      5  C   UNL     1      -8.645  13.398 -38.811  1.00  0.00     0.111 A 
ATOM      6  C   UNL     1      -8.530  14.810 -38.809  1.00  0.00     0.134 A 
ATOM      7  C   UNL     1      -8.453  15.500 -37.590  1.00  0.00     0.093 A 
ATOM      8  C   UNL     1      -8.491  14.809 -36.377  1.00  0.00     0.123 A 
ATOM      9  C   UNL     1      -8.604  13.415 -36.372  1.00  0.00     0.094 A 
ATOM     10  C   UNL     1      -8.680  12.708 -37.576  1.00  0.00     0.146 A 
ATOM     11  O   UNL     1      -8.782  11.385 -37.544  1.00  0.00    -0.452 OA
ENDROOT
BRANCH   1  12
ATOM     12  C   UNL     1      -8.956   9.163 -38.466  1.00  0.00     0.029 A 
ATOM     13  C   UNL     1      -7.831   8.334 -38.594  1.00  0.00     0.062 A 
ATOM     14  C   UNL     1      -7.943   6.950 -38.407  1.00  0.00     0.162 A 
ATOM     15  C   UNL     1     -10.187   8.593 -38.111  1.00  0.00     0.062 A 
ATOM     16  C   UNL     1      -9.179   6.379 -38.076  1.00  0.00     0.200 A 
ATOM     17  C   UNL     1     -10.313   7.212 -37.921  1.00  0.00     0.162 A 
BRANCH  14  18
ATOM     18  O   UNL     1      -6.822   6.133 -38.544  1.00  0.00    -0.504 OA
ATOM     19  H   UNL     1      -6.905   5.127 -38.630  1.00  0.00     0.293 HD
ENDBRANCH  14  18
BRANCH  16  20
ATOM     20  O   UNL     1      -9.237   4.993 -37.907  1.00  0.00    -0.502 OA
ATOM     21  H   UNL     1      -9.129   4.526 -37.018  1.00  0.00     0.293 HD
ENDBRANCH  16  20
BRANCH  17  22
ATOM     22  O   UNL     1     -11.573   6.715 -37.581  1.00  0.00    -0.504 OA
ATOM     23  H   UNL     1     -11.735   5.793 -37.203  1.00  0.00     0.293 HD
ENDBRANCH  17  22
ENDBRANCH   1  12
BRANCH   2  24
ATOM     24  O   UNL     1      -8.994  10.462 -41.061  1.00  0.00    -0.502 OA
ATOM     25  H   UNL     1      -9.218   9.475 -41.027  1.00  0.00     0.293 HD
ENDBRANCH   2  24
BRANCH   6  26
ATOM     26  O   UNL     1      -8.490  15.529 -40.004  1.00  0.00    -0.507 OA
ATOM     27  H   UNL     1      -8.885  16.459 -40.080  1.00  0.00     0.293 HD
ENDBRANCH   6  26
BRANCH   8  28
ATOM     28  O   UNL     1      -8.414  15.518 -35.180  1.00  0.00    -0.508 OA
ATOM     29  H   UNL     1      -7.734  15.283 -34.467  1.00  0.00     0.293 HD
ENDBRANCH   8  28
TORSDOF 7
ENDMDL
MODEL 7
REMARK VINA RESULT:    -5.528     12.485     15.795
REMARK INTER + INTRA:          -7.155
REMARK INTER:                  -6.857
REMARK INTRA:                  -0.298
REMARK UNBOUND:                -0.334
REMARK SMILES O=c1c(O)c(-c2cc(O)c(O)c(O)c2)oc2cc(O)cc(O)c12
REMARK SMILES IDX 5 1 3 2 2 3 1 4 23 5 21 6 20 7 18 8 17 9 16 10 15 11 6 12
REMARK SMILES IDX 7 13 8 14 14 15 10 16 12 17 9 18 11 20 13 22 4 24 22 26
REMARK SMILES IDX 19 28
REMARK H PARENT 9 19 11 21 13 23 4 25 22 27 19 29
REMARK Flexibility Score: inf
ROOT
ATOM      1  C   UNL     1      -8.936  11.807 -37.967  1.00  0.00     0.180 A 
ATOM      2  C   UNL     1      -8.748  11.613 -39.350  1.00  0.00     0.208 A 
ATOM      3  C   UNL     1      -8.936  10.329 -39.887  1.00  0.00     0.238 A 
ATOM      4  O   UNL     1      -8.782  10.146 -41.125  1.00  0.00    -0.285 OA
ATOM      5  C   UNL     1      -9.287   9.262 -39.035  1.00  0.00     0.111 A 
ATOM      6  C   UNL     1      -9.490   7.938 -39.495  1.00  0.00     0.134 A 
ATOM      7  C   UNL     1      -9.828   6.928 -38.582  1.00  0.00     0.093 A 
ATOM      8  C   UNL     1      -9.966   7.215 -37.223  1.00  0.00     0.123 A 
ATOM      9  C   UNL     1      -9.767   8.520 -36.761  1.00  0.00     0.094 A 
ATOM     10  C   UNL     1      -9.431   9.541 -37.655  1.00  0.00     0.146 A 
ATOM     11  O   UNL     1      -9.253  10.773 -37.192  1.00  0.00    -0.452 OA
ENDROOT
BRANCH   1  12
ATOM     12  C   UNL     1      -8.775  13.133 -37.330  1.00  0.00     0.029 A 
ATOM     13  C   UNL     1      -9.884  13.879 -36.905  1.00  0.00     0.062 A 
ATOM     14  C   UNL     1      -9.709  15.123 -36.284  1.00  0.00     0.162 A 
ATOM     15  C   UNL     1      -7.486  13.632 -37.091  1.00  0.00     0.062 A 
ATOM     16  C   UNL     1      -8.421  15.630 -36.067  1.00  0.00     0.200 A 
ATOM     17  C   UNL     1      -7.296  14.872 -36.472  1.00  0.00     0.162 A 
BRANCH  14  18
ATOM     18  O   UNL     1     -10.818  15.861 -35.872  1.00  0.00    -0.504 OA
ATOM     19  H   UNL     1     -11.731  15.435 -35.767  1.00  0.00     0.293 HD
ENDBRANCH  14  18
BRANCH  16  20
ATOM     20  O   UNL     1      -8.303  16.878 -35.450  1.00  0.00    -0.502 OA
ATOM     21  H   UNL     1      -7.423  17.339 -35.270  1.00  0.00     0.293 HD
ENDBRANCH  16  20
BRANCH  17  22
ATOM     22  O   UNL     1      -5.984  15.308 -36.278  1.00  0.00    -0.504 OA
ATOM     23  H   UNL     1      -5.195  14.693 -36.146  1.00  0.00     0.293 HD
ENDBRANCH  17  22
ENDBRANCH   1  12
BRANCH   2  24
ATOM     24  O   UNL     1      -8.353  12.677 -40.165  1.00  0.00    -0.502 OA
ATOM     25  H   UNL     1      -7.764  13.429 -39.828  1.00  0.00     0.293 HD
ENDBRANCH   2  24
BRANCH   6  26
ATOM     26  O   UNL     1      -9.359   7.620 -40.848  1.00  0.00    -0.507 OA
ATOM     27  H   UNL     1      -9.143   6.680 -41.155  1.00  0.00     0.293 HD
ENDBRANCH   6  26
BRANCH   8  28
ATOM     28  O   UNL     1     -10.301   6.193 -36.336  1.00  0.00    -0.508 OA
ATOM     29  H   UNL     1      -9.847   6.103 -35.435  1.00  0.00     0.293 HD
ENDBRANCH   8  28
TORSDOF 7
ENDMDL
MODEL 8
REMARK VINA RESULT:    -5.515     16.698     19.415
REMARK INTER + INTRA:          -7.138
REMARK INTER:                  -6.790
REMARK INTRA:                  -0.347
REMARK UNBOUND:                -0.334
REMARK SMILES O=c1c(O)c(-c2cc(O)c(O)c(O)c2)oc2cc(O)cc(O)c12
REMARK SMILES IDX 5 1 3 2 2 3 1 4 23 5 21 6 20 7 18 8 17 9 16 10 15 11 6 12
REMARK SMILES IDX 7 13 8 14 14 15 10 16 12 17 9 18 11 20 13 22 4 24 22 26
REMARK SMILES IDX 19 28
REMARK H PARENT 9 19 11 21 13 23 4 25 22 27 19 29
REMARK Flexibility Score: inf
ROOT
ATOM      1  C   UNL     1      -3.982   7.843 -38.917  1.00  0.00     0.180 A 
ATOM      2  C   UNL     1      -3.102   8.017 -40.003  1.00  0.00     0.208 A 
ATOM      3  C   UNL     1      -1.815   7.459 -39.929  1.00  0.00     0.238 A 
ATOM      4  O   UNL     1      -1.022   7.598 -40.900  1.00  0.00    -0.285 OA
ATOM      5  C   UNL     1      -1.424   6.760 -38.769  1.00  0.00     0.111 A 
ATOM      6  C   UNL     1      -0.145   6.172 -38.613  1.00  0.00     0.134 A 
ATOM      7  C   UNL     1       0.171   5.499 -37.424  1.00  0.00     0.093 A 
ATOM      8  C   UNL     1      -0.762   5.403 -36.390  1.00  0.00     0.123 A 
ATOM      9  C   UNL     1      -2.028   5.981 -36.538  1.00  0.00     0.094 A 
ATOM     10  C   UNL     1      -2.363   6.654 -37.716  1.00  0.00     0.146 A 
ATOM     11  O   UNL     1      -3.573   7.189 -37.833  1.00  0.00    -0.452 OA
ENDROOT
BRANCH   1  12
ATOM     12  C   UNL     1      -5.360   8.384 -38.927  1.00  0.00     0.029 A 
ATOM     13  C   UNL     1      -6.458   7.579 -39.263  1.00  0.00     0.062 A 
ATOM     14  C   UNL     1      -7.757   8.105 -39.245  1.00  0.00     0.162 A 
ATOM     15  C   UNL     1      -5.582   9.712 -38.536  1.00  0.00     0.062 A 
ATOM     16  C   UNL     1      -7.975   9.439 -38.878  1.00  0.00     0.200 A 
ATOM     17  C   UNL     1      -6.874  10.251 -38.514  1.00  0.00     0.162 A 
BRANCH  14  18
ATOM     18  O   UNL     1      -8.842   7.300 -39.589  1.00  0.00    -0.504 OA
ATOM     19  H   UNL     1      -8.766   6.578 -40.297  1.00  0.00     0.293 HD
ENDBRANCH  14  18
BRANCH  16  20
ATOM     20  O   UNL     1      -9.288   9.915 -38.883  1.00  0.00    -0.502 OA
ATOM     21  H   UNL     1     -10.002   9.598 -39.524  1.00  0.00     0.293 HD
ENDBRANCH  16  20
BRANCH  17  22
ATOM     22  O   UNL     1      -7.016  11.585 -38.126  1.00  0.00    -0.504 OA
ATOM     23  H   UNL     1      -6.269  12.263 -38.144  1.00  0.00     0.293 HD
ENDBRANCH  17  22
ENDBRANCH   1  12
BRANCH   2  24
ATOM     24  O   UNL     1      -3.496   8.756 -41.121  1.00  0.00    -0.502 OA
ATOM     25  H   UNL     1      -2.911   9.473 -41.531  1.00  0.00     0.293 HD
ENDBRANCH   2  24
BRANCH   6  26
ATOM     26  O   UNL     1       0.810   6.251 -39.628  1.00  0.00    -0.507 OA
ATOM     27  H   UNL     1       1.388   7.073 -39.752  1.00  0.00     0.293 HD
ENDBRANCH   6  26
BRANCH   8  28
ATOM     28  O   UNL     1      -0.423   4.731 -35.218  1.00  0.00    -0.508 OA
ATOM     29  H   UNL     1      -0.487   3.722 -35.148  1.00  0.00     0.293 HD
ENDBRANCH   8  28
TORSDOF 7
ENDMDL
