MODEL 1
REMARK VINA RESULT:    -4.303      0.000      0.000
REMARK INTER + INTRA:          -4.303
REMARK INTER:                  -4.303
REMARK INTRA:                   0.000
REMARK UNBOUND:                 0.000
REMARK SMILES CC1(C)[C@@H]2CC[C@@]1(C)C(=O)C2
REMARK SMILES IDX 1 1 2 2 4 3 5 4 6 5 7 6 9 7 10 8 11 9 8 10 3 11
REMARK H PARENT
REMARK Flexibility Score: inf
ROOT
ATOM      1  C   UNL     1       7.878   2.112 109.008  1.00  0.00     0.012 C 
ATOM      2  C   UNL     1       6.486   1.657 108.471  1.00  0.00    -0.020 C 
ATOM      3  C   UNL     1       5.634   0.900 109.520  1.00  0.00     0.003 C 
ATOM      4  C   UNL     1       4.274   0.724 108.791  1.00  0.00     0.005 C 
ATOM      5  C   UNL     1       4.141   2.037 107.980  1.00  0.00     0.015 C 
ATOM      6  C   UNL     1       5.445   2.789 108.337  1.00  0.00     0.032 C 
ATOM      7  C   UNL     1       5.277   3.186 109.782  1.00  0.00     0.139 C 
ATOM      8  O   UNL     1       4.998   4.303 110.193  1.00  0.00    -0.299 OA
ATOM      9  C   UNL     1       5.403   1.960 110.632  1.00  0.00     0.080 C 
ATOM     10  C   UNL     1       5.804   3.938 107.387  1.00  0.00     0.020 C 
ATOM     11  C   UNL     1       6.759   0.839 107.173  1.00  0.00     0.012 C 
ENDROOT
TORSDOF 0
ENDMDL
MODEL 2
REMARK VINA RESULT:    -4.243      1.527      2.926
REMARK INTER + INTRA:          -4.243
REMARK INTER:                  -4.243
REMARK INTRA:                   0.000
REMARK UNBOUND:                 0.000
REMARK SMILES CC1(C)[C@@H]2CC[C@@]1(C)C(=O)C2
REMARK SMILES IDX 1 1 2 2 4 3 5 4 6 5 7 6 9 7 10 8 11 9 8 10 3 11
REMARK H PARENT
REMARK Flexibility Score: inf
ROOT
ATOM      1  C   UNL     1       4.469   0.942 109.098  1.00  0.00     0.012 C 
ATOM      2  C   UNL     1       4.727   2.180 108.185  1.00  0.00    -0.020 C 
ATOM      3  C   UNL     1       4.901   3.504 108.970  1.00  0.00     0.003 C 
ATOM      4  C   UNL     1       5.307   4.509 107.858  1.00  0.00     0.005 C 
ATOM      5  C   UNL     1       6.179   3.648 106.911  1.00  0.00     0.015 C 
ATOM      6  C   UNL     1       6.152   2.260 107.594  1.00  0.00     0.032 C 
ATOM      7  C   UNL     1       6.966   2.433 108.852  1.00  0.00     0.139 C 
ATOM      8  O   UNL     1       8.112   2.047 109.025  1.00  0.00    -0.299 OA
ATOM      9  C   UNL     1       6.176   3.255 109.823  1.00  0.00     0.080 C 
ATOM     10  C   UNL     1       6.585   1.094 106.697  1.00  0.00     0.020 C 
ATOM     11  C   UNL     1       3.567   2.212 107.146  1.00  0.00     0.012 C 
ENDROOT
TORSDOF 0
ENDMDL
MODEL 3
REMARK VINA RESULT:    -4.242      3.174      4.476
REMARK INTER + INTRA:          -4.242
REMARK INTER:                  -4.242
REMARK INTRA:                   0.000
REMARK UNBOUND:                 0.000
REMARK SMILES CC1(C)[C@@H]2CC[C@@]1(C)C(=O)C2
REMARK SMILES IDX 1 1 2 2 4 3 5 4 6 5 7 6 9 7 10 8 11 9 8 10 3 11
REMARK H PARENT
REMARK Flexibility Score: inf
ROOT
ATOM      1  C   UNL     1       4.236   6.196 107.929  1.00  0.00     0.012 C 
ATOM      2  C   UNL     1       4.096   4.686 107.563  1.00  0.00    -0.020 C 
ATOM      3  C   UNL     1       2.640   4.255 107.255  1.00  0.00     0.003 C 
ATOM      4  C   UNL     1       2.815   2.791 106.766  1.00  0.00     0.005 C 
ATOM      5  C   UNL     1       4.154   2.840 105.990  1.00  0.00     0.015 C 
ATOM      6  C   UNL     1       4.580   4.319 106.143  1.00  0.00     0.032 C 
ATOM      7  C   UNL     1       3.596   5.094 105.304  1.00  0.00     0.139 C 
ATOM      8  O   UNL     1       3.811   5.568 104.198  1.00  0.00    -0.299 OA
ATOM      9  C   UNL     1       2.271   5.095 106.002  1.00  0.00     0.080 C 
ATOM     10  C   UNL     1       6.056   4.598 105.832  1.00  0.00     0.020 C 
ATOM     11  C   UNL     1       4.757   3.886 108.725  1.00  0.00     0.012 C 
ENDROOT
TORSDOF 0
ENDMDL
MODEL 4
REMARK VINA RESULT:    -4.237      1.249      2.841
REMARK INTER + INTRA:          -4.237
REMARK INTER:                  -4.237
REMARK INTRA:                   0.000
REMARK UNBOUND:                 0.000
REMARK SMILES CC1(C)[C@@H]2CC[C@@]1(C)C(=O)C2
REMARK SMILES IDX 1 1 2 2 4 3 5 4 6 5 7 6 9 7 10 8 11 9 8 10 3 11
REMARK H PARENT
REMARK Flexibility Score: inf
ROOT
ATOM      1  C   UNL     1       4.245   2.472 107.699  1.00  0.00     0.012 C 
ATOM      2  C   UNL     1       5.593   1.736 107.971  1.00  0.00    -0.020 C 
ATOM      3  C   UNL     1       6.720   2.672 108.472  1.00  0.00     0.003 C 
ATOM      4  C   UNL     1       7.861   1.677 108.819  1.00  0.00     0.005 C 
ATOM      5  C   UNL     1       7.096   0.451 109.377  1.00  0.00     0.015 C 
ATOM      6  C   UNL     1       5.618   0.895 109.267  1.00  0.00     0.032 C 
ATOM      7  C   UNL     1       5.463   1.978 110.305  1.00  0.00     0.139 C 
ATOM      8  O   UNL     1       4.923   1.856 111.395  1.00  0.00    -0.299 OA
ATOM      9  C   UNL     1       6.175   3.205 109.826  1.00  0.00     0.080 C 
ATOM     10  C   UNL     1       4.596  -0.245 109.361  1.00  0.00     0.020 C 
ATOM     11  C   UNL     1       5.948   0.965 106.664  1.00  0.00     0.012 C 
ENDROOT
TORSDOF 0
ENDMDL
MODEL 5
REMARK VINA RESULT:    -4.177      1.524      2.870
REMARK INTER + INTRA:          -4.177
REMARK INTER:                  -4.177
REMARK INTRA:                   0.000
REMARK UNBOUND:                 0.000
REMARK SMILES CC1(C)[C@@H]2CC[C@@]1(C)C(=O)C2
REMARK SMILES IDX 1 1 2 2 4 3 5 4 6 5 7 6 9 7 10 8 11 9 8 10 3 11
REMARK H PARENT
REMARK Flexibility Score: inf
ROOT
ATOM      1  C   UNL     1       6.994   2.094 106.679  1.00  0.00     0.012 C 
ATOM      2  C   UNL     1       6.676   2.244 108.198  1.00  0.00    -0.020 C 
ATOM      3  C   UNL     1       6.062   3.617 108.570  1.00  0.00     0.003 C 
ATOM      4  C   UNL     1       5.695   3.431 110.068  1.00  0.00     0.005 C 
ATOM      5  C   UNL     1       5.247   1.950 110.136  1.00  0.00     0.015 C 
ATOM      6  C   UNL     1       5.425   1.475 108.675  1.00  0.00     0.032 C 
ATOM      7  C   UNL     1       4.346   2.190 107.902  1.00  0.00     0.139 C 
ATOM      8  O   UNL     1       3.299   1.699 107.507  1.00  0.00    -0.299 OA
ATOM      9  C   UNL     1       4.719   3.636 107.789  1.00  0.00     0.080 C 
ATOM     10  C   UNL     1       5.450  -0.048 108.493  1.00  0.00     0.020 C 
ATOM     11  C   UNL     1       7.996   1.918 108.960  1.00  0.00     0.012 C 
ENDROOT
TORSDOF 0
ENDMDL
MODEL 6
REMARK VINA RESULT:    -4.105      2.262      3.883
REMARK INTER + INTRA:          -4.105
REMARK INTER:                  -4.105
REMARK INTRA:                   0.000
REMARK UNBOUND:                 0.000
REMARK SMILES CC1(C)[C@@H]2CC[C@@]1(C)C(=O)C2
REMARK SMILES IDX 1 1 2 2 4 3 5 4 6 5 7 6 9 7 10 8 11 9 8 10 3 11
REMARK H PARENT
REMARK Flexibility Score: inf
ROOT
ATOM      1  C   UNL     1       6.654   2.416 107.696  1.00  0.00     0.012 C 
ATOM      2  C   UNL     1       5.475   3.408 107.938  1.00  0.00    -0.020 C 
ATOM      3  C   UNL     1       5.646   4.764 107.209  1.00  0.00     0.003 C 
ATOM      4  C   UNL     1       4.287   5.468 107.476  1.00  0.00     0.005 C 
ATOM      5  C   UNL     1       3.274   4.297 107.435  1.00  0.00     0.015 C 
ATOM      6  C   UNL     1       4.181   3.074 107.163  1.00  0.00     0.032 C 
ATOM      7  C   UNL     1       4.653   3.252 105.742  1.00  0.00     0.139 C 
ATOM      8  O   UNL     1       4.235   2.650 104.765  1.00  0.00    -0.299 OA
ATOM      9  C   UNL     1       5.649   4.371 105.706  1.00  0.00     0.080 C 
ATOM     10  C   UNL     1       3.536   1.715 107.465  1.00  0.00     0.020 C 
ATOM     11  C   UNL     1       5.317   3.538 109.483  1.00  0.00     0.012 C 
ENDROOT
TORSDOF 0
ENDMDL
MODEL 7
REMARK VINA RESULT:    -4.102      1.480      2.742
REMARK INTER + INTRA:          -4.102
REMARK INTER:                  -4.102
REMARK INTRA:                   0.000
REMARK UNBOUND:                 0.000
REMARK SMILES CC1(C)[C@@H]2CC[C@@]1(C)C(=O)C2
REMARK SMILES IDX 1 1 2 2 4 3 5 4 6 5 7 6 9 7 10 8 11 9 8 10 3 11
REMARK H PARENT
REMARK Flexibility Score: inf
ROOT
ATOM      1  C   UNL     1       4.622   4.364 109.219  1.00  0.00     0.012 C 
ATOM      2  C   UNL     1       5.498   3.465 108.293  1.00  0.00    -0.020 C 
ATOM      3  C   UNL     1       6.759   2.898 108.992  1.00  0.00     0.003 C 
ATOM      4  C   UNL     1       7.333   1.929 107.923  1.00  0.00     0.005 C 
ATOM      5  C   UNL     1       6.060   1.341 107.264  1.00  0.00     0.015 C 
ATOM      6  C   UNL     1       4.922   2.057 108.030  1.00  0.00     0.032 C 
ATOM      7  C   UNL     1       4.967   1.473 109.420  1.00  0.00     0.139 C 
ATOM      8  O   UNL     1       4.199   0.637 109.874  1.00  0.00    -0.299 OA
ATOM      9  C   UNL     1       6.176   2.007 110.124  1.00  0.00     0.080 C 
ATOM     10  C   UNL     1       3.551   1.996 107.346  1.00  0.00     0.020 C 
ATOM     11  C   UNL     1       5.809   4.311 107.022  1.00  0.00     0.012 C 
ENDROOT
TORSDOF 0
ENDMDL
MODEL 8
REMARK VINA RESULT:    -4.077      2.826      4.353
REMARK INTER + INTRA:          -4.077
REMARK INTER:                  -4.077
REMARK INTRA:                   0.000
REMARK UNBOUND:                 0.000
REMARK SMILES CC1(C)[C@@H]2CC[C@@]1(C)C(=O)C2
REMARK SMILES IDX 1 1 2 2 4 3 5 4 6 5 7 6 9 7 10 8 11 9 8 10 3 11
REMARK H PARENT
REMARK Flexibility Score: inf
ROOT
ATOM      1  C   UNL     1       3.842   3.143 104.303  1.00  0.00     0.012 C 
ATOM      2  C   UNL     1       3.732   4.233 105.414  1.00  0.00    -0.020 C 
ATOM      3  C   UNL     1       2.621   3.947 106.454  1.00  0.00     0.003 C 
ATOM      4  C   UNL     1       2.846   5.066 107.508  1.00  0.00     0.005 C 
ATOM      5  C   UNL     1       4.387   5.217 107.532  1.00  0.00     0.015 C 
ATOM      6  C   UNL     1       4.846   4.177 106.483  1.00  0.00     0.032 C 
ATOM      7  C   UNL     1       4.559   2.839 107.115  1.00  0.00     0.139 C 
ATOM      8  O   UNL     1       5.383   2.092 107.622  1.00  0.00    -0.299 OA
ATOM      9  C   UNL     1       3.077   2.619 107.119  1.00  0.00     0.080 C 
ATOM     10  C   UNL     1       6.283   4.362 105.981  1.00  0.00     0.020 C 
ATOM     11  C   UNL     1       3.573   5.598 104.680  1.00  0.00     0.012 C 
ENDROOT
TORSDOF 0
ENDMDL
MODEL 9
REMARK VINA RESULT:    -4.003      2.470      3.242
REMARK INTER + INTRA:          -4.003
REMARK INTER:                  -4.003
REMARK INTRA:                   0.000
REMARK UNBOUND:                 0.000
REMARK SMILES CC1(C)[C@@H]2CC[C@@]1(C)C(=O)C2
REMARK SMILES IDX 1 1 2 2 4 3 5 4 6 5 7 6 9 7 10 8 11 9 8 10 3 11
REMARK H PARENT
REMARK Flexibility Score: inf
ROOT
ATOM      1  C   UNL     1       6.441   4.414 105.814  1.00  0.00     0.012 C 
ATOM      2  C   UNL     1       5.104   3.643 106.044  1.00  0.00    -0.020 C 
ATOM      3  C   UNL     1       4.981   3.023 107.458  1.00  0.00     0.003 C 
ATOM      4  C   UNL     1       3.525   2.483 107.467  1.00  0.00     0.005 C 
ATOM      5  C   UNL     1       2.755   3.542 106.640  1.00  0.00     0.015 C 
ATOM      6  C   UNL     1       3.868   4.544 106.253  1.00  0.00     0.032 C 
ATOM      7  C   UNL     1       4.237   5.228 107.546  1.00  0.00     0.139 C 
ATOM      8  O   UNL     1       3.902   6.353 107.885  1.00  0.00    -0.299 OA
ATOM      9  C   UNL     1       4.997   4.259 108.399  1.00  0.00     0.080 C 
ATOM     10  C   UNL     1       3.509   5.490 105.100  1.00  0.00     0.020 C 
ATOM     11  C   UNL     1       4.989   2.604 104.888  1.00  0.00     0.012 C 
ENDROOT
TORSDOF 0
ENDMDL
