MODEL 1
REMARK VINA RESULT:    -4.258      0.000      0.000
REMARK INTER + INTRA:          -5.727
REMARK INTER:                  -5.502
REMARK INTRA:                  -0.225
REMARK UNBOUND:                -0.225
REMARK SMILES CCCCCCC(=O)[O-]
REMARK SMILES IDX 5 1 6 2 7 3 8 4 9 5 4 6 3 7 2 8 1 9
REMARK H PARENT
REMARK Flexibility Score: inf
ROOT
ATOM      1  C   UNL     1     135.984 133.889 114.495  1.00  0.00     0.006 C 
ENDROOT
BRANCH   1   2
ATOM      2  C   UNL     1     136.703 133.469 115.782  1.00  0.00     0.053 C 
BRANCH   2   3
ATOM      3  C   UNL     1     136.504 134.470 116.881  1.00  0.00     0.041 C 
ATOM      4  O   UNL     1     136.999 135.624 116.785  1.00  0.00    -0.550 OA
ATOM      5  O   UNL     1     135.744 134.137 117.995  1.00  0.00    -0.550 OA
ENDBRANCH   2   3
ENDBRANCH   1   2
BRANCH   1   6
ATOM      6  C   UNL     1     134.625 133.190 114.333  1.00  0.00     0.000 C 
BRANCH   6   7
ATOM      7  C   UNL     1     133.505 134.009 114.990  1.00  0.00    -0.000 C 
BRANCH   7   8
ATOM      8  C   UNL     1     133.438 135.450 114.462  1.00  0.00    -0.003 C 
ATOM      9  C   UNL     1     132.075 135.798 113.865  1.00  0.00     0.004 C 
ENDBRANCH   7   8
ENDBRANCH   6   7
ENDBRANCH   1   6
TORSDOF 5
ENDMDL
MODEL 2
REMARK VINA RESULT:    -4.254      9.177     10.562
REMARK INTER + INTRA:          -5.722
REMARK INTER:                  -5.448
REMARK INTRA:                  -0.274
REMARK UNBOUND:                -0.225
REMARK SMILES CCCCCCC(=O)[O-]
REMARK SMILES IDX 5 1 6 2 7 3 8 4 9 5 4 6 3 7 2 8 1 9
REMARK H PARENT
REMARK Flexibility Score: inf
ROOT
ATOM      1  C   UNL     1     140.572 142.584 114.388  1.00  0.00     0.006 C 
ENDROOT
BRANCH   1   2
ATOM      2  C   UNL     1     139.751 142.987 115.618  1.00  0.00     0.053 C 
BRANCH   2   3
ATOM      3  C   UNL     1     139.895 141.994 116.731  1.00  0.00     0.041 C 
ATOM      4  O   UNL     1     139.385 140.847 116.628  1.00  0.00    -0.550 OA
ATOM      5  O   UNL     1     140.621 142.324 117.869  1.00  0.00    -0.550 OA
ENDBRANCH   2   3
ENDBRANCH   1   2
BRANCH   1   6
ATOM      6  C   UNL     1     141.901 143.349 114.298  1.00  0.00     0.000 C 
BRANCH   6   7
ATOM      7  C   UNL     1     143.020 142.594 115.031  1.00  0.00    -0.000 C 
BRANCH   7   8
ATOM      8  C   UNL     1     143.020 141.089 114.718  1.00  0.00    -0.003 C 
ATOM      9  C   UNL     1     144.234 140.656 113.898  1.00  0.00     0.004 C 
ENDBRANCH   7   8
ENDBRANCH   6   7
ENDBRANCH   1   6
TORSDOF 5
ENDMDL
MODEL 3
REMARK VINA RESULT:    -4.218     10.017     10.984
REMARK INTER + INTRA:          -5.676
REMARK INTER:                  -5.366
REMARK INTRA:                  -0.310
REMARK UNBOUND:                -0.225
REMARK SMILES CCCCCCC(=O)[O-]
REMARK SMILES IDX 5 1 6 2 7 3 8 4 9 5 4 6 3 7 2 8 1 9
REMARK H PARENT
REMARK Flexibility Score: inf
ROOT
ATOM      1  C   UNL     1     142.118 143.278 114.216  1.00  0.00     0.006 C 
ENDROOT
BRANCH   1   2
ATOM      2  C   UNL     1     140.653 142.834 114.130  1.00  0.00     0.053 C 
BRANCH   2   3
ATOM      3  C   UNL     1     139.849 143.347 115.285  1.00  0.00     0.041 C 
ATOM      4  O   UNL     1     139.394 144.521 115.270  1.00  0.00    -0.550 OA
ATOM      5  O   UNL     1     139.574 142.518 116.365  1.00  0.00    -0.550 OA
ENDBRANCH   2   3
ENDBRANCH   1   2
BRANCH   1   6
ATOM      6  C   UNL     1     142.886 142.543 115.324  1.00  0.00     0.000 C 
BRANCH   6   7
ATOM      7  C   UNL     1     143.016 141.047 115.004  1.00  0.00    -0.000 C 
BRANCH   7   8
ATOM      8  C   UNL     1     144.054 140.765 113.906  1.00  0.00    -0.003 C 
ATOM      9  C   UNL     1     143.473 139.980 112.731  1.00  0.00     0.004 C 
ENDBRANCH   7   8
ENDBRANCH   6   7
ENDBRANCH   1   6
TORSDOF 5
ENDMDL
MODEL 4
REMARK VINA RESULT:    -4.170      1.270      2.774
REMARK INTER + INTRA:          -5.614
REMARK INTER:                  -5.232
REMARK INTRA:                  -0.382
REMARK UNBOUND:                -0.225
REMARK SMILES CCCCCCC(=O)[O-]
REMARK SMILES IDX 5 1 6 2 7 3 8 4 9 5 4 6 3 7 2 8 1 9
REMARK H PARENT
REMARK Flexibility Score: inf
ROOT
ATOM      1  C   UNL     1     134.384 136.488 116.257  1.00  0.00     0.006 C 
ENDROOT
BRANCH   1   2
ATOM      2  C   UNL     1     135.044 135.501 117.228  1.00  0.00     0.053 C 
BRANCH   2   3
ATOM      3  C   UNL     1     136.540 135.566 117.153  1.00  0.00     0.041 C 
ATOM      4  O   UNL     1     137.238 135.280 118.162  1.00  0.00    -0.550 OA
ATOM      5  O   UNL     1     137.163 135.909 115.960  1.00  0.00    -0.550 OA
ENDBRANCH   2   3
ENDBRANCH   1   2
BRANCH   1   6
ATOM      6  C   UNL     1     133.673 135.776 115.097  1.00  0.00     0.000 C 
BRANCH   6   7
ATOM      7  C   UNL     1     133.700 134.253 115.288  1.00  0.00    -0.000 C 
BRANCH   7   8
ATOM      8  C   UNL     1     134.403 133.524 114.131  1.00  0.00    -0.003 C 
ATOM      9  C   UNL     1     135.764 132.957 114.530  1.00  0.00     0.004 C 
ENDBRANCH   7   8
ENDBRANCH   6   7
ENDBRANCH   1   6
TORSDOF 5
ENDMDL
MODEL 5
REMARK VINA RESULT:    -4.150      8.568      9.783
REMARK INTER + INTRA:          -5.588
REMARK INTER:                  -5.224
REMARK INTRA:                  -0.364
REMARK UNBOUND:                -0.225
REMARK SMILES CCCCCCC(=O)[O-]
REMARK SMILES IDX 5 1 6 2 7 3 8 4 9 5 4 6 3 7 2 8 1 9
REMARK H PARENT
REMARK Flexibility Score: inf
ROOT
ATOM      1  C   UNL     1     142.126 140.165 116.129  1.00  0.00     0.006 C 
ENDROOT
BRANCH   1   2
ATOM      2  C   UNL     1     141.446 141.086 117.149  1.00  0.00     0.053 C 
BRANCH   2   3
ATOM      3  C   UNL     1     139.952 140.985 117.079  1.00  0.00     0.041 C 
ATOM      4  O   UNL     1     139.254 141.188 118.107  1.00  0.00    -0.550 OA
ATOM      5  O   UNL     1     139.330 140.698 115.871  1.00  0.00    -0.550 OA
ENDBRANCH   2   3
ENDBRANCH   1   2
BRANCH   1   6
ATOM      6  C   UNL     1     142.734 140.945 114.954  1.00  0.00     0.000 C 
BRANCH   6   7
ATOM      7  C   UNL     1     142.817 142.445 115.274  1.00  0.00    -0.000 C 
BRANCH   7   8
ATOM      8  C   UNL     1     141.991 143.303 114.303  1.00  0.00    -0.003 C 
ATOM      9  C   UNL     1     141.173 142.464 113.323  1.00  0.00     0.004 C 
ENDBRANCH   7   8
ENDBRANCH   6   7
ENDBRANCH   1   6
TORSDOF 5
ENDMDL
MODEL 6
REMARK VINA RESULT:    -4.054      1.980      2.894
REMARK INTER + INTRA:          -5.464
REMARK INTER:                  -5.181
REMARK INTRA:                  -0.283
REMARK UNBOUND:                -0.225
REMARK SMILES CCCCCCC(=O)[O-]
REMARK SMILES IDX 5 1 6 2 7 3 8 4 9 5 4 6 3 7 2 8 1 9
REMARK H PARENT
REMARK Flexibility Score: inf
ROOT
ATOM      1  C   UNL     1     134.009 133.708 115.051  1.00  0.00     0.006 C 
ENDROOT
BRANCH   1   2
ATOM      2  C   UNL     1     135.245 133.366 114.211  1.00  0.00     0.053 C 
BRANCH   2   3
ATOM      3  C   UNL     1     136.425 133.029 115.070  1.00  0.00     0.041 C 
ATOM      4  O   UNL     1     136.954 133.912 115.796  1.00  0.00    -0.550 OA
ATOM      5  O   UNL     1     136.921 131.732 115.095  1.00  0.00    -0.550 OA
ENDBRANCH   2   3
ENDBRANCH   1   2
BRANCH   1   6
ATOM      6  C   UNL     1     133.467 135.112 114.744  1.00  0.00     0.000 C 
BRANCH   6   7
ATOM      7  C   UNL     1     134.447 136.195 115.218  1.00  0.00    -0.000 C 
BRANCH   7   8
ATOM      8  C   UNL     1     134.158 136.668 116.652  1.00  0.00    -0.003 C 
ATOM      9  C   UNL     1     135.133 136.085 117.673  1.00  0.00     0.004 C 
ENDBRANCH   7   8
ENDBRANCH   6   7
ENDBRANCH   1   6
TORSDOF 5
ENDMDL
MODEL 7
REMARK VINA RESULT:    -4.030      9.734     10.518
REMARK INTER + INTRA:          -5.433
REMARK INTER:                  -5.090
REMARK INTRA:                  -0.343
REMARK UNBOUND:                -0.225
REMARK SMILES CCCCCCC(=O)[O-]
REMARK SMILES IDX 5 1 6 2 7 3 8 4 9 5 4 6 3 7 2 8 1 9
REMARK H PARENT
REMARK Flexibility Score: inf
ROOT
ATOM      1  C   UNL     1     143.013 140.672 114.960  1.00  0.00     0.006 C 
ENDROOT
BRANCH   1   2
ATOM      2  C   UNL     1     143.187 142.166 114.663  1.00  0.00     0.053 C 
BRANCH   2   3
ATOM      3  C   UNL     1     142.036 142.714 113.875  1.00  0.00     0.041 C 
ATOM      4  O   UNL     1     141.824 142.314 112.700  1.00  0.00    -0.550 OA
ATOM      5  O   UNL     1     141.178 143.642 114.451  1.00  0.00    -0.550 OA
ENDBRANCH   2   3
ENDBRANCH   1   2
BRANCH   1   6
ATOM      6  C   UNL     1     141.746 140.386 115.780  1.00  0.00     0.000 C 
BRANCH   6   7
ATOM      7  C   UNL     1     142.102 139.839 117.170  1.00  0.00    -0.000 C 
BRANCH   7   8
ATOM      8  C   UNL     1     141.463 140.652 118.307  1.00  0.00    -0.003 C 
ATOM      9  C   UNL     1     140.937 142.009 117.839  1.00  0.00     0.004 C 
ENDBRANCH   7   8
ENDBRANCH   6   7
ENDBRANCH   1   6
TORSDOF 5
ENDMDL
MODEL 8
REMARK VINA RESULT:    -3.987      1.636      2.512
REMARK INTER + INTRA:          -5.377
REMARK INTER:                  -5.026
REMARK INTRA:                  -0.351
REMARK UNBOUND:                -0.225
REMARK SMILES CCCCCCC(=O)[O-]
REMARK SMILES IDX 5 1 6 2 7 3 8 4 9 5 4 6 3 7 2 8 1 9
REMARK H PARENT
REMARK Flexibility Score: inf
ROOT
ATOM      1  C   UNL     1     133.807 135.731 115.361  1.00  0.00     0.006 C 
ENDROOT
BRANCH   1   2
ATOM      2  C   UNL     1     134.310 134.327 115.719  1.00  0.00     0.053 C 
BRANCH   2   3
ATOM      3  C   UNL     1     135.754 134.340 116.119  1.00  0.00     0.041 C 
ATOM      4  O   UNL     1     136.652 134.479 115.248  1.00  0.00    -0.550 OA
ATOM      5  O   UNL     1     136.105 134.231 117.459  1.00  0.00    -0.550 OA
ENDBRANCH   2   3
ENDBRANCH   1   2
BRANCH   1   6
ATOM      6  C   UNL     1     132.799 135.711 114.202  1.00  0.00     0.000 C 
BRANCH   6   7
ATOM      7  C   UNL     1     133.132 134.592 113.204  1.00  0.00    -0.000 C 
BRANCH   7   8
ATOM      8  C   UNL     1     133.991 135.085 112.029  1.00  0.00    -0.003 C 
ATOM      9  C   UNL     1     135.350 134.389 111.960  1.00  0.00     0.004 C 
ENDBRANCH   7   8
ENDBRANCH   6   7
ENDBRANCH   1   6
TORSDOF 5
ENDMDL
MODEL 9
REMARK VINA RESULT:    -3.972      2.471      4.165
REMARK INTER + INTRA:          -5.357
REMARK INTER:                  -5.090
REMARK INTRA:                  -0.267
REMARK UNBOUND:                -0.225
REMARK SMILES CCCCCCC(=O)[O-]
REMARK SMILES IDX 5 1 6 2 7 3 8 4 9 5 4 6 3 7 2 8 1 9
REMARK H PARENT
REMARK Flexibility Score: inf
ROOT
ATOM      1  C   UNL     1     133.477 135.663 115.028  1.00  0.00     0.006 C 
ENDROOT
BRANCH   1   2
ATOM      2  C   UNL     1     133.692 134.157 115.219  1.00  0.00     0.053 C 
BRANCH   2   3
ATOM      3  C   UNL     1     134.738 133.623 114.288  1.00  0.00     0.041 C 
ATOM      4  O   UNL     1     135.701 132.948 114.737  1.00  0.00    -0.550 OA
ATOM      5  O   UNL     1     134.631 133.844 112.921  1.00  0.00    -0.550 OA
ENDBRANCH   2   3
ENDBRANCH   1   2
BRANCH   1   6
ATOM      6  C   UNL     1     134.616 136.495 115.637  1.00  0.00     0.000 C 
BRANCH   6   7
ATOM      7  C   UNL     1     134.748 136.227 117.143  1.00  0.00    -0.000 C 
BRANCH   7   8
ATOM      8  C   UNL     1     136.158 135.757 117.538  1.00  0.00    -0.003 C 
ATOM      9  C   UNL     1     136.356 135.693 119.051  1.00  0.00     0.004 C 
ENDBRANCH   7   8
ENDBRANCH   6   7
ENDBRANCH   1   6
TORSDOF 5
ENDMDL
