MODEL 1
REMARK VINA RESULT:     3.463      0.000      0.000
REMARK INTER + INTRA:           4.643
REMARK INTER:                   4.070
REMARK INTRA:                   0.573
REMARK UNBOUND:                 0.573
REMARK SMILES O=c1c(O)c(-c2ccc(O)cc2)oc2cc(O)cc(O)c12
REMARK SMILES IDX 5 1 3 2 2 3 1 4 21 5 19 6 18 7 16 8 15 9 14 10 13 11 6 12
REMARK SMILES IDX 7 13 8 14 9 15 12 16 11 17 10 18 4 20 20 22 17 24
REMARK H PARENT 10 19 4 21 20 23 17 25
REMARK Flexibility Score: inf
ROOT
ATOM      1  C   UNL     1      31.672  36.842  47.113  1.00  0.00     0.180 A 
ATOM      2  C   UNL     1      30.310  36.495  47.189  1.00  0.00     0.208 A 
ATOM      3  C   UNL     1      29.351  37.519  47.248  1.00  0.00     0.238 A 
ATOM      4  O   UNL     1      28.127  37.222  47.305  1.00  0.00    -0.285 OA
ATOM      5  C   UNL     1      29.770  38.866  47.250  1.00  0.00     0.111 A 
ATOM      6  C   UNL     1      28.869  39.957  47.312  1.00  0.00     0.134 A 
ATOM      7  C   UNL     1      29.364  41.268  47.320  1.00  0.00     0.093 A 
ATOM      8  C   UNL     1      30.739  41.512  47.268  1.00  0.00     0.123 A 
ATOM      9  C   UNL     1      31.633  40.439  47.207  1.00  0.00     0.094 A 
ATOM     10  C   UNL     1      31.159  39.123  47.196  1.00  0.00     0.146 A 
ATOM     11  O   UNL     1      32.029  38.122  47.132  1.00  0.00    -0.452 OA
ENDROOT
BRANCH   1  12
ATOM     12  C   UNL     1      32.740  35.821  47.028  1.00  0.00     0.021 A 
ATOM     13  C   UNL     1      34.097  36.183  46.940  1.00  0.00     0.016 A 
ATOM     14  C   UNL     1      35.089  35.199  46.886  1.00  0.00     0.047 A 
ATOM     15  C   UNL     1      34.743  33.846  46.932  1.00  0.00     0.115 A 
ATOM     16  C   UNL     1      32.401  34.459  47.094  1.00  0.00     0.016 A 
ATOM     17  C   UNL     1      33.395  33.477  47.039  1.00  0.00     0.047 A 
BRANCH  15  18
ATOM     18  O   UNL     1      35.742  32.877  46.875  1.00  0.00    -0.508 OA
ATOM     19  H   UNL     1      36.085  32.420  47.711  1.00  0.00     0.293 HD
ENDBRANCH  15  18
ENDBRANCH   1  12
BRANCH   2  20
ATOM     20  O   UNL     1      29.923  35.153  47.235  1.00  0.00    -0.502 OA
ATOM     21  H   UNL     1      29.054  34.824  46.833  1.00  0.00     0.293 HD
ENDBRANCH   2  20
BRANCH   6  22
ATOM     22  O   UNL     1      27.489  39.748  47.366  1.00  0.00    -0.507 OA
ATOM     23  H   UNL     1      26.948  39.545  46.534  1.00  0.00     0.293 HD
ENDBRANCH   6  22
BRANCH   8  24
ATOM     24  O   UNL     1      31.205  42.825  47.278  1.00  0.00    -0.508 OA
ATOM     25  H   UNL     1      32.157  43.047  47.543  1.00  0.00     0.293 HD
ENDBRANCH   8  24
TORSDOF 5
ENDMDL
MODEL 2
REMARK VINA RESULT:     5.869      1.967      3.848
REMARK INTER + INTRA:           7.471
REMARK INTER:                   6.977
REMARK INTRA:                   0.494
REMARK UNBOUND:                 0.573
REMARK SMILES O=c1c(O)c(-c2ccc(O)cc2)oc2cc(O)cc(O)c12
REMARK SMILES IDX 5 1 3 2 2 3 1 4 21 5 19 6 18 7 16 8 15 9 14 10 13 11 6 12
REMARK SMILES IDX 7 13 8 14 9 15 12 16 11 17 10 18 4 20 20 22 17 24
REMARK H PARENT 10 19 4 21 20 23 17 25
REMARK Flexibility Score: inf
ROOT
ATOM      1  C   UNL     1      32.099  35.642  47.002  1.00  0.00     0.180 A 
ATOM      2  C   UNL     1      31.974  37.044  47.047  1.00  0.00     0.208 A 
ATOM      3  C   UNL     1      30.691  37.609  47.116  1.00  0.00     0.238 A 
ATOM      4  O   UNL     1      30.566  38.862  47.168  1.00  0.00    -0.285 OA
ATOM      5  C   UNL     1      29.559  36.768  47.119  1.00  0.00     0.111 A 
ATOM      6  C   UNL     1      28.232  37.256  47.183  1.00  0.00     0.134 A 
ATOM      7  C   UNL     1      27.157  36.355  47.172  1.00  0.00     0.093 A 
ATOM      8  C   UNL     1      27.382  34.978  47.098  1.00  0.00     0.123 A 
ATOM      9  C   UNL     1      28.691  34.490  47.035  1.00  0.00     0.094 A 
ATOM     10  C   UNL     1      29.776  35.372  47.046  1.00  0.00     0.146 A 
ATOM     11  O   UNL     1      31.009  34.882  46.991  1.00  0.00    -0.452 OA
ENDROOT
BRANCH   1  12
ATOM     12  C   UNL     1      33.418  34.972  46.947  1.00  0.00     0.021 A 
ATOM     13  C   UNL     1      34.615  35.710  46.902  1.00  0.00     0.016 A 
ATOM     14  C   UNL     1      35.849  35.053  46.875  1.00  0.00     0.047 A 
ATOM     15  C   UNL     1      35.906  33.657  46.906  1.00  0.00     0.115 A 
ATOM     16  C   UNL     1      33.483  33.569  46.998  1.00  0.00     0.016 A 
ATOM     17  C   UNL     1      34.719  32.915  46.970  1.00  0.00     0.047 A 
BRANCH  15  18
ATOM     18  O   UNL     1      37.143  33.017  46.877  1.00  0.00    -0.508 OA
ATOM     19  H   UNL     1      37.216  32.008  46.831  1.00  0.00     0.293 HD
ENDBRANCH  15  18
ENDBRANCH   1  12
BRANCH   2  20
ATOM     20  O   UNL     1      33.109  37.857  46.993  1.00  0.00    -0.502 OA
ATOM     21  H   UNL     1      33.697  37.916  46.170  1.00  0.00     0.293 HD
ENDBRANCH   2  20
BRANCH   6  22
ATOM     22  O   UNL     1      27.972  38.626  47.256  1.00  0.00    -0.507 OA
ATOM     23  H   UNL     1      27.763  39.174  46.430  1.00  0.00     0.293 HD
ENDBRANCH   6  22
BRANCH   8  24
ATOM     24  O   UNL     1      26.297  34.104  47.088  1.00  0.00    -0.508 OA
ATOM     25  H   UNL     1      25.851  33.805  47.947  1.00  0.00     0.293 HD
ENDBRANCH   8  24
TORSDOF 5
ENDMDL
