MODEL 1
REMARK VINA RESULT:    -2.730      0.000      0.000
REMARK INTER + INTRA:          -3.247
REMARK INTER:                  -3.208
REMARK INTRA:                  -0.039
REMARK UNBOUND:                -0.039
REMARK SMILES CCCCC(=O)[O-]
REMARK SMILES IDX 4 1 5 2 6 3 7 4 3 5 2 6 1 7
REMARK H PARENT
REMARK Flexibility Score: inf
ROOT
ATOM      1  C   UNL     1      32.033   2.220   2.151  1.00  0.00     0.053 C 
ENDROOT
BRANCH   1   2
ATOM      2  C   UNL     1      32.129   3.127   0.962  1.00  0.00     0.041 C 
ATOM      3  O   UNL     1      31.182   3.907   0.681  1.00  0.00    -0.550 OA
ATOM      4  O   UNL     1      33.253   3.087   0.146  1.00  0.00    -0.550 OA
ENDBRANCH   1   2
BRANCH   1   5
ATOM      5  C   UNL     1      31.635   0.795   1.746  1.00  0.00     0.006 C 
BRANCH   5   6
ATOM      6  C   UNL     1      32.719  -0.234   2.101  1.00  0.00    -0.003 C 
ATOM      7  C   UNL     1      32.101  -1.516   2.653  1.00  0.00     0.004 C 
ENDBRANCH   5   6
ENDBRANCH   1   5
TORSDOF 3
ENDMDL
MODEL 2
REMARK VINA RESULT:    -2.711      8.226      9.194
REMARK INTER + INTRA:          -3.225
REMARK INTER:                  -3.172
REMARK INTRA:                  -0.053
REMARK UNBOUND:                -0.039
REMARK SMILES CCCCC(=O)[O-]
REMARK SMILES IDX 4 1 5 2 6 3 7 4 3 5 2 6 1 7
REMARK H PARENT
REMARK Flexibility Score: inf
ROOT
ATOM      1  C   UNL     1      34.742   8.007  -3.786  1.00  0.00     0.053 C 
ENDROOT
BRANCH   1   2
ATOM      2  C   UNL     1      34.856   8.293  -2.319  1.00  0.00     0.041 C 
ATOM      3  O   UNL     1      35.925   8.760  -1.845  1.00  0.00    -0.550 OA
ATOM      4  O   UNL     1      33.792   8.012  -1.471  1.00  0.00    -0.550 OA
ENDBRANCH   1   2
BRANCH   1   5
ATOM      5  C   UNL     1      36.010   8.419  -4.545  1.00  0.00     0.006 C 
BRANCH   5   6
ATOM      6  C   UNL     1      36.279   7.516  -5.758  1.00  0.00    -0.003 C 
ATOM      7  C   UNL     1      35.538   6.188  -5.630  1.00  0.00     0.004 C 
ENDBRANCH   5   6
ENDBRANCH   1   5
TORSDOF 3
ENDMDL
MODEL 3
REMARK VINA RESULT:    -2.710     10.103     11.231
REMARK INTER + INTRA:          -3.224
REMARK INTER:                  -3.118
REMARK INTRA:                  -0.107
REMARK UNBOUND:                -0.039
REMARK SMILES CCCCC(=O)[O-]
REMARK SMILES IDX 4 1 5 2 6 3 7 4 3 5 2 6 1 7
REMARK H PARENT
REMARK Flexibility Score: inf
ROOT
ATOM      1  C   UNL     1      31.112   7.264  -6.991  1.00  0.00     0.053 C 
ENDROOT
BRANCH   1   2
ATOM      2  C   UNL     1      31.868   6.100  -7.557  1.00  0.00     0.041 C 
ATOM      3  O   UNL     1      32.404   5.258  -6.790  1.00  0.00    -0.550 OA
ATOM      4  O   UNL     1      32.006   5.964  -8.932  1.00  0.00    -0.550 OA
ENDBRANCH   1   2
BRANCH   1   5
ATOM      5  C   UNL     1      29.596   7.038  -7.048  1.00  0.00     0.006 C 
BRANCH   5   6
ATOM      6  C   UNL     1      28.903   7.996  -8.028  1.00  0.00    -0.003 C 
ATOM      7  C   UNL     1      28.686   7.333  -9.385  1.00  0.00     0.004 C 
ENDBRANCH   5   6
ENDBRANCH   1   5
TORSDOF 3
ENDMDL
MODEL 4
REMARK VINA RESULT:    -2.663     11.496     11.967
REMARK INTER + INTRA:          -3.169
REMARK INTER:                  -3.067
REMARK INTRA:                  -0.102
REMARK UNBOUND:                -0.039
REMARK SMILES CCCCC(=O)[O-]
REMARK SMILES IDX 4 1 5 2 6 3 7 4 3 5 2 6 1 7
REMARK H PARENT
REMARK Flexibility Score: inf
ROOT
ATOM      1  C   UNL     1      23.425  -0.964  -6.642  1.00  0.00     0.053 C 
ENDROOT
BRANCH   1   2
ATOM      2  C   UNL     1      23.689  -0.892  -5.169  1.00  0.00     0.041 C 
ATOM      3  O   UNL     1      23.282  -1.807  -4.406  1.00  0.00    -0.550 OA
ATOM      4  O   UNL     1      24.357   0.203  -4.635  1.00  0.00    -0.550 OA
ENDBRANCH   1   2
BRANCH   1   5
ATOM      5  C   UNL     1      23.143  -2.401  -7.099  1.00  0.00     0.006 C 
BRANCH   5   6
ATOM      6  C   UNL     1      24.323  -3.006  -7.873  1.00  0.00    -0.003 C 
ATOM      7  C   UNL     1      25.170  -3.902  -6.972  1.00  0.00     0.004 C 
ENDBRANCH   5   6
ENDBRANCH   1   5
TORSDOF 3
ENDMDL
MODEL 5
REMARK VINA RESULT:    -2.653      7.924      9.334
REMARK INTER + INTRA:          -3.157
REMARK INTER:                  -3.142
REMARK INTRA:                  -0.015
REMARK UNBOUND:                -0.039
REMARK SMILES CCCCC(=O)[O-]
REMARK SMILES IDX 4 1 5 2 6 3 7 4 3 5 2 6 1 7
REMARK H PARENT
REMARK Flexibility Score: inf
ROOT
ATOM      1  C   UNL     1      33.807   4.990  -6.444  1.00  0.00     0.053 C 
ENDROOT
BRANCH   1   2
ATOM      2  C   UNL     1      34.543   5.133  -5.147  1.00  0.00     0.041 C 
ATOM      3  O   UNL     1      34.198   4.455  -4.144  1.00  0.00    -0.550 OA
ATOM      4  O   UNL     1      35.589   6.040  -5.038  1.00  0.00    -0.550 OA
ENDBRANCH   1   2
BRANCH   1   5
ATOM      5  C   UNL     1      33.033   6.265  -6.802  1.00  0.00     0.006 C 
BRANCH   5   6
ATOM      6  C   UNL     1      31.781   5.968  -7.641  1.00  0.00    -0.003 C 
ATOM      7  C   UNL     1      30.564   6.710  -7.095  1.00  0.00     0.004 C 
ENDBRANCH   5   6
ENDBRANCH   1   5
TORSDOF 3
ENDMDL
MODEL 6
REMARK VINA RESULT:    -2.604     10.943     11.783
REMARK INTER + INTRA:          -3.100
REMARK INTER:                  -3.066
REMARK INTRA:                  -0.034
REMARK UNBOUND:                -0.039
REMARK SMILES CCCCC(=O)[O-]
REMARK SMILES IDX 4 1 5 2 6 3 7 4 3 5 2 6 1 7
REMARK H PARENT
REMARK Flexibility Score: inf
ROOT
ATOM      1  C   UNL     1      40.492   2.716  -7.129  1.00  0.00     0.053 C 
ENDROOT
BRANCH   1   2
ATOM      2  C   UNL     1      40.802   1.841  -5.952  1.00  0.00     0.041 C 
ATOM      3  O   UNL     1      41.942   1.876  -5.419  1.00  0.00    -0.550 OA
ATOM      4  O   UNL     1      39.841   0.964  -5.466  1.00  0.00    -0.550 OA
ENDBRANCH   1   2
BRANCH   1   5
ATOM      5  C   UNL     1      39.688   3.956  -6.718  1.00  0.00     0.006 C 
BRANCH   5   6
ATOM      6  C   UNL     1      38.343   4.046  -7.455  1.00  0.00    -0.003 C 
ATOM      7  C   UNL     1      37.486   5.180  -6.898  1.00  0.00     0.004 C 
ENDBRANCH   5   6
ENDBRANCH   1   5
TORSDOF 3
ENDMDL
MODEL 7
REMARK VINA RESULT:    -2.580      2.085      3.094
REMARK INTER + INTRA:          -3.071
REMARK INTER:                  -2.959
REMARK INTRA:                  -0.113
REMARK UNBOUND:                -0.039
REMARK SMILES CCCCC(=O)[O-]
REMARK SMILES IDX 4 1 5 2 6 3 7 4 3 5 2 6 1 7
REMARK H PARENT
REMARK Flexibility Score: inf
ROOT
ATOM      1  C   UNL     1      33.423   2.646   1.364  1.00  0.00     0.053 C 
ENDROOT
BRANCH   1   2
ATOM      2  C   UNL     1      31.968   2.793   1.041  1.00  0.00     0.041 C 
ATOM      3  O   UNL     1      31.496   3.920   0.737  1.00  0.00    -0.550 OA
ATOM      4  O   UNL     1      31.126   1.690   1.108  1.00  0.00    -0.550 OA
ENDBRANCH   1   2
BRANCH   1   5
ATOM      5  C   UNL     1      33.639   1.908   2.691  1.00  0.00     0.006 C 
BRANCH   5   6
ATOM      6  C   UNL     1      33.410   2.820   3.906  1.00  0.00    -0.003 C 
ATOM      7  C   UNL     1      34.176   4.132   3.760  1.00  0.00     0.004 C 
ENDBRANCH   5   6
ENDBRANCH   1   5
TORSDOF 3
ENDMDL
MODEL 8
REMARK VINA RESULT:    -2.579      9.298     10.354
REMARK INTER + INTRA:          -3.070
REMARK INTER:                  -3.047
REMARK INTRA:                  -0.024
REMARK UNBOUND:                -0.039
REMARK SMILES CCCCC(=O)[O-]
REMARK SMILES IDX 4 1 5 2 6 3 7 4 3 5 2 6 1 7
REMARK H PARENT
REMARK Flexibility Score: inf
ROOT
ATOM      1  C   UNL     1      31.872   5.715  -7.252  1.00  0.00     0.053 C 
ENDROOT
BRANCH   1   2
ATOM      2  C   UNL     1      33.219   5.736  -6.598  1.00  0.00     0.041 C 
ATOM      3  O   UNL     1      33.757   6.831  -6.287  1.00  0.00    -0.550 OA
ATOM      4  O   UNL     1      33.896   4.546  -6.361  1.00  0.00    -0.550 OA
ENDBRANCH   1   2
BRANCH   1   5
ATOM      5  C   UNL     1      31.184   7.084  -7.179  1.00  0.00     0.006 C 
BRANCH   5   6
ATOM      6  C   UNL     1      29.659   6.961  -7.041  1.00  0.00    -0.003 C 
ATOM      7  C   UNL     1      28.944   7.664  -8.192  1.00  0.00     0.004 C 
ENDBRANCH   5   6
ENDBRANCH   1   5
TORSDOF 3
ENDMDL
MODEL 9
REMARK VINA RESULT:    -2.563      2.329      2.746
REMARK INTER + INTRA:          -3.051
REMARK INTER:                  -3.011
REMARK INTRA:                  -0.041
REMARK UNBOUND:                -0.039
REMARK SMILES CCCCC(=O)[O-]
REMARK SMILES IDX 4 1 5 2 6 3 7 4 3 5 2 6 1 7
REMARK H PARENT
REMARK Flexibility Score: inf
ROOT
ATOM      1  C   UNL     1      33.438   2.537   1.353  1.00  0.00     0.053 C 
ENDROOT
BRANCH   1   2
ATOM      2  C   UNL     1      31.980   2.748   1.079  1.00  0.00     0.041 C 
ATOM      3  O   UNL     1      31.171   1.788   1.174  1.00  0.00    -0.550 OA
ATOM      4  O   UNL     1      31.521   3.999   0.686  1.00  0.00    -0.550 OA
ENDBRANCH   1   2
BRANCH   1   5
ATOM      5  C   UNL     1      33.803   2.903   2.798  1.00  0.00     0.006 C 
BRANCH   5   6
ATOM      6  C   UNL     1      34.967   2.057   3.335  1.00  0.00    -0.003 C 
ATOM      7  C   UNL     1      35.528   1.142   2.250  1.00  0.00     0.004 C 
ENDBRANCH   5   6
ENDBRANCH   1   5
TORSDOF 3
ENDMDL
