MODEL 1
REMARK VINA RESULT:    -4.175      0.000      0.000
REMARK INTER + INTRA:          -7.717
REMARK INTER:                  -6.616
REMARK INTRA:                  -1.101
REMARK UNBOUND:                -1.101
REMARK SMILES CCCCCCCCCCCC(=O)[O-]
REMARK SMILES IDX 7 1 8 2 9 3 10 4 11 5 12 6 13 7 14 8 6 9 5 10 4 11 3 12 2 13
REMARK SMILES IDX 1 14
REMARK H PARENT
REMARK Flexibility Score: inf
ROOT
ATOM      1  C   UNL     1      15.922 -35.379  20.546  1.00  0.00     0.000 C 
ENDROOT
BRANCH   1   2
ATOM      2  C   UNL     1      14.933 -34.255  20.195  1.00  0.00     0.000 C 
BRANCH   2   3
ATOM      3  C   UNL     1      14.563 -33.391  21.411  1.00  0.00     0.000 C 
BRANCH   3   4
ATOM      4  C   UNL     1      13.850 -32.106  20.972  1.00  0.00     0.006 C 
BRANCH   4   5
ATOM      5  C   UNL     1      14.278 -30.916  21.837  1.00  0.00     0.053 C 
BRANCH   5   6
ATOM      6  C   UNL     1      13.346 -30.747  22.994  1.00  0.00     0.041 C 
ATOM      7  O   UNL     1      12.195 -30.268  22.816  1.00  0.00    -0.550 OA
ATOM      8  O   UNL     1      13.730 -31.162  24.263  1.00  0.00    -0.550 OA
ENDBRANCH   5   6
ENDBRANCH   4   5
ENDBRANCH   3   4
ENDBRANCH   2   3
ENDBRANCH   1   2
BRANCH   1   9
ATOM      9  C   UNL     1      16.950 -35.633  19.429  1.00  0.00     0.000 C 
BRANCH   9  10
ATOM     10  C   UNL     1      17.825 -34.402  19.140  1.00  0.00    -0.000 C 
BRANCH  10  11
ATOM     11  C   UNL     1      19.076 -34.341  20.030  1.00  0.00    -0.000 C 
BRANCH  11  12
ATOM     12  C   UNL     1      19.266 -32.936  20.613  1.00  0.00    -0.000 C 
BRANCH  12  13
ATOM     13  C   UNL     1      17.955 -32.142  20.572  1.00  0.00    -0.003 C 
ATOM     14  C   UNL     1      18.049 -30.879  21.423  1.00  0.00     0.004 C 
ENDBRANCH  12  13
ENDBRANCH  11  12
ENDBRANCH  10  11
ENDBRANCH   9  10
ENDBRANCH   1   9
TORSDOF 10
ENDMDL
MODEL 2
REMARK VINA RESULT:    -4.095      6.832      7.784
REMARK INTER + INTRA:          -7.589
REMARK INTER:                  -7.068
REMARK INTRA:                  -0.521
REMARK UNBOUND:                -1.101
REMARK SMILES CCCCCCCCCCCC(=O)[O-]
REMARK SMILES IDX 7 1 8 2 9 3 10 4 11 5 12 6 13 7 14 8 6 9 5 10 4 11 3 12 2 13
REMARK SMILES IDX 1 14
REMARK H PARENT
REMARK Flexibility Score: inf
ROOT
ATOM      1  C   UNL     1      18.214 -36.946  26.315  1.00  0.00     0.000 C 
ENDROOT
BRANCH   1   2
ATOM      2  C   UNL     1      17.002 -36.222  25.707  1.00  0.00     0.000 C 
BRANCH   2   3
ATOM      3  C   UNL     1      17.228 -35.817  24.241  1.00  0.00     0.000 C 
BRANCH   3   4
ATOM      4  C   UNL     1      16.751 -34.381  23.991  1.00  0.00     0.006 C 
BRANCH   4   5
ATOM      5  C   UNL     1      15.285 -34.358  23.547  1.00  0.00     0.053 C 
BRANCH   5   6
ATOM      6  C   UNL     1      15.190 -34.315  22.055  1.00  0.00     0.041 C 
ATOM      7  O   UNL     1      14.564 -33.382  21.487  1.00  0.00    -0.550 OA
ATOM      8  O   UNL     1      15.833 -35.278  21.289  1.00  0.00    -0.550 OA
ENDBRANCH   5   6
ENDBRANCH   4   5
ENDBRANCH   3   4
ENDBRANCH   2   3
ENDBRANCH   1   2
BRANCH   1   9
ATOM      9  C   UNL     1      17.908 -38.409  26.679  1.00  0.00     0.000 C 
BRANCH   9  10
ATOM     10  C   UNL     1      16.446 -38.619  27.105  1.00  0.00    -0.000 C 
BRANCH  10  11
ATOM     11  C   UNL     1      16.184 -38.193  28.557  1.00  0.00    -0.000 C 
BRANCH  11  12
ATOM     12  C   UNL     1      16.968 -39.074  29.537  1.00  0.00    -0.000 C 
BRANCH  12  13
ATOM     13  C   UNL     1      17.899 -38.228  30.413  1.00  0.00    -0.003 C 
ATOM     14  C   UNL     1      19.279 -38.868  30.529  1.00  0.00     0.004 C 
ENDBRANCH  12  13
ENDBRANCH  11  12
ENDBRANCH  10  11
ENDBRANCH   9  10
ENDBRANCH   1   9
TORSDOF 10
ENDMDL
MODEL 3
REMARK VINA RESULT:    -4.080      6.757      8.312
REMARK INTER + INTRA:          -7.566
REMARK INTER:                  -6.968
REMARK INTRA:                  -0.598
REMARK UNBOUND:                -1.101
REMARK SMILES CCCCCCCCCCCC(=O)[O-]
REMARK SMILES IDX 7 1 8 2 9 3 10 4 11 5 12 6 13 7 14 8 6 9 5 10 4 11 3 12 2 13
REMARK SMILES IDX 1 14
REMARK H PARENT
REMARK Flexibility Score: inf
ROOT
ATOM      1  C   UNL     1      17.462 -36.290  25.781  1.00  0.00     0.000 C 
ENDROOT
BRANCH   1   2
ATOM      2  C   UNL     1      17.269 -35.918  24.302  1.00  0.00     0.000 C 
BRANCH   2   3
ATOM      3  C   UNL     1      18.273 -36.625  23.377  1.00  0.00     0.000 C 
BRANCH   3   4
ATOM      4  C   UNL     1      18.092 -36.170  21.924  1.00  0.00     0.006 C 
BRANCH   4   5
ATOM      5  C   UNL     1      18.245 -37.348  20.956  1.00  0.00     0.053 C 
BRANCH   5   6
ATOM      6  C   UNL     1      17.442 -37.115  19.717  1.00  0.00     0.041 C 
ATOM      7  O   UNL     1      17.552 -37.895  18.734  1.00  0.00    -0.550 OA
ATOM      8  O   UNL     1      16.534 -36.064  19.663  1.00  0.00    -0.550 OA
ENDBRANCH   5   6
ENDBRANCH   4   5
ENDBRANCH   3   4
ENDBRANCH   2   3
ENDBRANCH   1   2
BRANCH   1   9
ATOM      9  C   UNL     1      18.262 -37.592  25.965  1.00  0.00     0.000 C 
BRANCH   9  10
ATOM     10  C   UNL     1      17.498 -38.644  26.784  1.00  0.00    -0.000 C 
BRANCH  10  11
ATOM     11  C   UNL     1      16.066 -38.204  27.129  1.00  0.00    -0.000 C 
BRANCH  11  12
ATOM     12  C   UNL     1      15.852 -38.175  28.647  1.00  0.00    -0.000 C 
BRANCH  12  13
ATOM     13  C   UNL     1      16.824 -39.125  29.357  1.00  0.00    -0.003 C 
ATOM     14  C   UNL     1      17.719 -38.368  30.334  1.00  0.00     0.004 C 
ENDBRANCH  12  13
ENDBRANCH  11  12
ENDBRANCH  10  11
ENDBRANCH   9  10
ENDBRANCH   1   9
TORSDOF 10
ENDMDL
MODEL 4
REMARK VINA RESULT:    -4.054      3.251      5.058
REMARK INTER + INTRA:          -7.524
REMARK INTER:                  -5.974
REMARK INTRA:                  -1.550
REMARK UNBOUND:                -1.101
REMARK SMILES CCCCCCCCCCCC(=O)[O-]
REMARK SMILES IDX 7 1 8 2 9 3 10 4 11 5 12 6 13 7 14 8 6 9 5 10 4 11 3 12 2 13
REMARK SMILES IDX 1 14
REMARK H PARENT
REMARK Flexibility Score: inf
ROOT
ATOM      1  C   UNL     1      15.250 -32.689  23.953  1.00  0.00     0.000 C 
ENDROOT
BRANCH   1   2
ATOM      2  C   UNL     1      15.001 -33.769  22.887  1.00  0.00     0.000 C 
BRANCH   2   3
ATOM      3  C   UNL     1      14.555 -33.179  21.539  1.00  0.00     0.000 C 
BRANCH   3   4
ATOM      4  C   UNL     1      14.890 -34.133  20.387  1.00  0.00     0.006 C 
BRANCH   4   5
ATOM      5  C   UNL     1      15.839 -35.243  20.850  1.00  0.00     0.053 C 
BRANCH   5   6
ATOM      6  C   UNL     1      16.699 -35.704  19.717  1.00  0.00     0.041 C 
ATOM      7  O   UNL     1      17.355 -34.870  19.039  1.00  0.00    -0.550 OA
ATOM      8  O   UNL     1      16.816 -37.060  19.440  1.00  0.00    -0.550 OA
ENDBRANCH   5   6
ENDBRANCH   4   5
ENDBRANCH   3   4
ENDBRANCH   2   3
ENDBRANCH   1   2
BRANCH   1   9
ATOM      9  C   UNL     1      14.748 -31.301  23.518  1.00  0.00     0.000 C 
BRANCH   9  10
ATOM     10  C   UNL     1      15.877 -30.260  23.451  1.00  0.00    -0.000 C 
BRANCH  10  11
ATOM     11  C   UNL     1      16.208 -29.836  22.012  1.00  0.00    -0.000 C 
BRANCH  11  12
ATOM     12  C   UNL     1      17.672 -30.144  21.673  1.00  0.00    -0.000 C 
BRANCH  12  13
ATOM     13  C   UNL     1      17.786 -31.435  20.853  1.00  0.00    -0.003 C 
ATOM     14  C   UNL     1      18.372 -32.568  21.690  1.00  0.00     0.004 C 
ENDBRANCH  12  13
ENDBRANCH  11  12
ENDBRANCH  10  11
ENDBRANCH   9  10
ENDBRANCH   1   9
TORSDOF 10
ENDMDL
MODEL 5
REMARK VINA RESULT:    -4.052      2.336      3.555
REMARK INTER + INTRA:          -7.522
REMARK INTER:                  -5.879
REMARK INTRA:                  -1.642
REMARK UNBOUND:                -1.101
REMARK SMILES CCCCCCCCCCCC(=O)[O-]
REMARK SMILES IDX 7 1 8 2 9 3 10 4 11 5 12 6 13 7 14 8 6 9 5 10 4 11 3 12 2 13
REMARK SMILES IDX 1 14
REMARK H PARENT
REMARK Flexibility Score: inf
ROOT
ATOM      1  C   UNL     1      19.176 -37.194  22.108  1.00  0.00     0.000 C 
ENDROOT
BRANCH   1   2
ATOM      2  C   UNL     1      18.861 -35.929  22.924  1.00  0.00     0.000 C 
BRANCH   2   3
ATOM      3  C   UNL     1      17.374 -35.822  23.300  1.00  0.00     0.000 C 
BRANCH   3   4
ATOM      4  C   UNL     1      16.801 -34.462  22.882  1.00  0.00     0.006 C 
BRANCH   4   5
ATOM      5  C   UNL     1      15.399 -34.616  22.285  1.00  0.00     0.053 C 
BRANCH   5   6
ATOM      6  C   UNL     1      14.784 -33.276  22.039  1.00  0.00     0.041 C 
ATOM      7  O   UNL     1      14.966 -32.334  22.856  1.00  0.00    -0.550 OA
ATOM      8  O   UNL     1      14.048 -33.050  20.883  1.00  0.00    -0.550 OA
ENDBRANCH   5   6
ENDBRANCH   4   5
ENDBRANCH   3   4
ENDBRANCH   2   3
ENDBRANCH   1   2
BRANCH   1   9
ATOM      9  C   UNL     1      18.044 -37.567  21.134  1.00  0.00     0.000 C 
BRANCH   9  10
ATOM     10  C   UNL     1      18.253 -36.975  19.731  1.00  0.00    -0.000 C 
BRANCH  10  11
ATOM     11  C   UNL     1      17.181 -35.941  19.357  1.00  0.00    -0.000 C 
BRANCH  11  12
ATOM     12  C   UNL     1      17.766 -34.523  19.348  1.00  0.00    -0.000 C 
BRANCH  12  13
ATOM     13  C   UNL     1      19.298 -34.560  19.410  1.00  0.00    -0.003 C 
ATOM     14  C   UNL     1      19.839 -33.461  20.319  1.00  0.00     0.004 C 
ENDBRANCH  12  13
ENDBRANCH  11  12
ENDBRANCH  10  11
ENDBRANCH   9  10
ENDBRANCH   1   9
TORSDOF 10
ENDMDL
MODEL 6
REMARK VINA RESULT:    -4.051      3.532      5.771
REMARK INTER + INTRA:          -7.521
REMARK INTER:                  -6.207
REMARK INTRA:                  -1.314
REMARK UNBOUND:                -1.101
REMARK SMILES CCCCCCCCCCCC(=O)[O-]
REMARK SMILES IDX 7 1 8 2 9 3 10 4 11 5 12 6 13 7 14 8 6 9 5 10 4 11 3 12 2 13
REMARK SMILES IDX 1 14
REMARK H PARENT
REMARK Flexibility Score: inf
ROOT
ATOM      1  C   UNL     1      15.874 -33.081  24.172  1.00  0.00     0.000 C 
ENDROOT
BRANCH   1   2
ATOM      2  C   UNL     1      15.308 -34.265  23.372  1.00  0.00     0.000 C 
BRANCH   2   3
ATOM      3  C   UNL     1      16.229 -34.696  22.219  1.00  0.00     0.000 C 
BRANCH   3   4
ATOM      4  C   UNL     1      15.411 -35.077  20.979  1.00  0.00     0.006 C 
BRANCH   4   5
ATOM      5  C   UNL     1      16.060 -34.530  19.703  1.00  0.00     0.053 C 
BRANCH   5   6
ATOM      6  C   UNL     1      17.291 -35.310  19.366  1.00  0.00     0.041 C 
ATOM      7  O   UNL     1      17.229 -36.558  19.214  1.00  0.00    -0.550 OA
ATOM      8  O   UNL     1      18.499 -34.653  19.172  1.00  0.00    -0.550 OA
ENDBRANCH   5   6
ENDBRANCH   4   5
ENDBRANCH   3   4
ENDBRANCH   2   3
ENDBRANCH   1   2
BRANCH   1   9
ATOM      9  C   UNL     1      16.471 -31.987  23.269  1.00  0.00     0.000 C 
BRANCH   9  10
ATOM     10  C   UNL     1      15.868 -30.600  23.543  1.00  0.00    -0.000 C 
BRANCH  10  11
ATOM     11  C   UNL     1      14.391 -30.666  23.959  1.00  0.00    -0.000 C 
BRANCH  11  12
ATOM     12  C   UNL     1      13.474 -30.307  22.783  1.00  0.00    -0.000 C 
BRANCH  12  13
ATOM     13  C   UNL     1      12.872 -31.567  22.150  1.00  0.00    -0.003 C 
ATOM     14  C   UNL     1      13.568 -31.911  20.837  1.00  0.00     0.004 C 
ENDBRANCH  12  13
ENDBRANCH  11  12
ENDBRANCH  10  11
ENDBRANCH   9  10
ENDBRANCH   1   9
TORSDOF 10
ENDMDL
MODEL 7
REMARK VINA RESULT:    -3.987      1.808      2.972
REMARK INTER + INTRA:          -7.418
REMARK INTER:                  -5.861
REMARK INTRA:                  -1.557
REMARK UNBOUND:                -1.101
REMARK SMILES CCCCCCCCCCCC(=O)[O-]
REMARK SMILES IDX 7 1 8 2 9 3 10 4 11 5 12 6 13 7 14 8 6 9 5 10 4 11 3 12 2 13
REMARK SMILES IDX 1 14
REMARK H PARENT
REMARK Flexibility Score: inf
ROOT
ATOM      1  C   UNL     1      17.673 -34.311  19.218  1.00  0.00     0.000 C 
ENDROOT
BRANCH   1   2
ATOM      2  C   UNL     1      16.890 -35.614  19.447  1.00  0.00     0.000 C 
BRANCH   2   3
ATOM      3  C   UNL     1      15.727 -35.441  20.437  1.00  0.00     0.000 C 
BRANCH   3   4
ATOM      4  C   UNL     1      15.089 -34.054  20.295  1.00  0.00     0.006 C 
BRANCH   4   5
ATOM      5  C   UNL     1      14.740 -33.466  21.666  1.00  0.00     0.053 C 
BRANCH   5   6
ATOM      6  C   UNL     1      13.781 -32.328  21.519  1.00  0.00     0.041 C 
ATOM      7  O   UNL     1      13.647 -31.488  22.448  1.00  0.00    -0.550 OA
ATOM      8  O   UNL     1      13.070 -32.166  20.336  1.00  0.00    -0.550 OA
ENDBRANCH   5   6
ENDBRANCH   4   5
ENDBRANCH   3   4
ENDBRANCH   2   3
ENDBRANCH   1   2
BRANCH   1   9
ATOM      9  C   UNL     1      19.170 -34.455  19.546  1.00  0.00     0.000 C 
BRANCH   9  10
ATOM     10  C   UNL     1      19.671 -33.367  20.508  1.00  0.00    -0.000 C 
BRANCH  10  11
ATOM     11  C   UNL     1      18.633 -32.994  21.577  1.00  0.00    -0.000 C 
BRANCH  11  12
ATOM     12  C   UNL     1      18.954 -33.673  22.913  1.00  0.00    -0.000 C 
BRANCH  12  13
ATOM     13  C   UNL     1      17.922 -34.758  23.241  1.00  0.00    -0.003 C 
ATOM     14  C   UNL     1      18.440 -36.143  22.864  1.00  0.00     0.004 C 
ENDBRANCH  12  13
ENDBRANCH  11  12
ENDBRANCH  10  11
ENDBRANCH   9  10
ENDBRANCH   1   9
TORSDOF 10
ENDMDL
MODEL 8
REMARK VINA RESULT:    -3.970      3.071      5.775
REMARK INTER + INTRA:          -7.391
REMARK INTER:                  -6.422
REMARK INTRA:                  -0.969
REMARK UNBOUND:                -1.101
REMARK SMILES CCCCCCCCCCCC(=O)[O-]
REMARK SMILES IDX 7 1 8 2 9 3 10 4 11 5 12 6 13 7 14 8 6 9 5 10 4 11 3 12 2 13
REMARK SMILES IDX 1 14
REMARK H PARENT
REMARK Flexibility Score: inf
ROOT
ATOM      1  C   UNL     1      17.184 -31.160  22.529  1.00  0.00     0.000 C 
ENDROOT
BRANCH   1   2
ATOM      2  C   UNL     1      17.155 -32.520  21.812  1.00  0.00     0.000 C 
BRANCH   2   3
ATOM      3  C   UNL     1      17.960 -32.517  20.503  1.00  0.00     0.000 C 
BRANCH   3   4
ATOM      4  C   UNL     1      18.331 -33.945  20.085  1.00  0.00     0.006 C 
BRANCH   4   5
ATOM      5  C   UNL     1      17.292 -34.523  19.119  1.00  0.00     0.053 C 
BRANCH   5   6
ATOM      6  C   UNL     1      16.542 -35.644  19.764  1.00  0.00     0.041 C 
ATOM      7  O   UNL     1      15.581 -35.399  20.541  1.00  0.00    -0.550 OA
ATOM      8  O   UNL     1      16.873 -36.961  19.471  1.00  0.00    -0.550 OA
ENDBRANCH   5   6
ENDBRANCH   4   5
ENDBRANCH   3   4
ENDBRANCH   2   3
ENDBRANCH   1   2
BRANCH   1   9
ATOM      9  C   UNL     1      16.317 -31.143  23.801  1.00  0.00     0.000 C 
BRANCH   9  10
ATOM     10  C   UNL     1      15.729 -32.523  24.134  1.00  0.00    -0.000 C 
BRANCH  10  11
ATOM     11  C   UNL     1      14.199 -32.563  24.007  1.00  0.00    -0.000 C 
BRANCH  11  12
ATOM     12  C   UNL     1      13.642 -31.181  23.646  1.00  0.00    -0.000 C 
BRANCH  12  13
ATOM     13  C   UNL     1      12.778 -31.249  22.382  1.00  0.00    -0.003 C 
ATOM     14  C   UNL     1      13.496 -31.996  21.262  1.00  0.00     0.004 C 
ENDBRANCH  12  13
ENDBRANCH  11  12
ENDBRANCH  10  11
ENDBRANCH   9  10
ENDBRANCH   1   9
TORSDOF 10
ENDMDL
