MODEL 1
REMARK VINA RESULT:    -5.556      0.000      0.000
REMARK INTER + INTRA:          -7.383
REMARK INTER:                  -7.180
REMARK INTRA:                  -0.203
REMARK UNBOUND:                -0.203
REMARK SMILES CCO[C@@H]1O[C@H](CO)[C@@H](O)[C@@H](O)[C@H]1O
REMARK SMILES IDX 4 1 13 2 11 3 9 4 6 5 5 6 3 7 2 8 1 9 14 10 12 12 7 14 8 15
REMARK SMILES IDX 10 17
REMARK H PARENT 14 11 12 13 8 16 10 18
REMARK Flexibility Score: inf
ROOT
ATOM      1  C   UNL     1      13.604  -0.876   7.031  1.00  0.00     0.281 C 
ATOM      2  C   UNL     1      14.875  -1.512   7.632  1.00  0.00     0.202 C 
ATOM      3  C   UNL     1      14.622  -2.967   8.051  1.00  0.00     0.179 C 
ATOM      4  C   UNL     1      13.963  -3.764   6.914  1.00  0.00     0.177 C 
ATOM      5  C   UNL     1      12.749  -3.001   6.325  1.00  0.00     0.178 C 
ATOM      6  O   UNL     1      13.051  -1.653   5.973  1.00  0.00    -0.341 OA
ENDROOT
BRANCH   1   7
ATOM      7  O   UNL     1      12.651  -0.636   8.054  1.00  0.00    -0.350 OA
BRANCH   7   8
ATOM      8  C   UNL     1      12.778   0.674   8.578  1.00  0.00     0.160 C 
ATOM      9  C   UNL     1      12.981   1.677   7.448  1.00  0.00     0.035 C 
ENDBRANCH   7   8
ENDBRANCH   1   7
BRANCH   2  10
ATOM     10  O   UNL     1      15.975  -1.412   6.757  1.00  0.00    -0.385 OA
ATOM     11  H   UNL     1      16.358  -2.317   6.627  1.00  0.00     0.211 HD
ENDBRANCH   2  10
BRANCH   3  12
ATOM     12  O   UNL     1      15.832  -3.566   8.438  1.00  0.00    -0.387 OA
ATOM     13  H   UNL     1      16.247  -3.932   7.614  1.00  0.00     0.211 HD
ENDBRANCH   3  12
BRANCH   5  14
ATOM     14  C   UNL     1      11.470  -3.117   7.184  1.00  0.00     0.191 C 
BRANCH  14  15
ATOM     15  O   UNL     1      10.752  -4.274   6.844  1.00  0.00    -0.394 OA
ATOM     16  H   UNL     1      10.536  -4.743   7.691  1.00  0.00     0.210 HD
ENDBRANCH  14  15
ENDBRANCH   5  14
BRANCH   4  17
ATOM     17  O   UNL     1      14.906  -4.018   5.902  1.00  0.00    -0.387 OA
ATOM     18  H   UNL     1      14.789  -3.312   5.213  1.00  0.00     0.211 HD
ENDBRANCH   4  17
TORSDOF 7
ENDMDL
MODEL 2
REMARK VINA RESULT:    -5.475     12.729     15.224
REMARK INTER + INTRA:          -7.279
REMARK INTER:                  -7.069
REMARK INTRA:                  -0.210
REMARK UNBOUND:                -0.203
REMARK SMILES CCO[C@@H]1O[C@H](CO)[C@@H](O)[C@@H](O)[C@H]1O
REMARK SMILES IDX 4 1 13 2 11 3 9 4 6 5 5 6 3 7 2 8 1 9 14 10 12 12 7 14 8 15
REMARK SMILES IDX 10 17
REMARK H PARENT 14 11 12 13 8 16 10 18
REMARK Flexibility Score: inf
ROOT
ATOM      1  C   UNL     1       6.517   4.017  17.884  1.00  0.00     0.281 C 
ATOM      2  C   UNL     1       7.200   3.696  19.230  1.00  0.00     0.202 C 
ATOM      3  C   UNL     1       8.127   4.838  19.668  1.00  0.00     0.179 C 
ATOM      4  C   UNL     1       7.405   6.193  19.605  1.00  0.00     0.177 C 
ATOM      5  C   UNL     1       6.684   6.380  18.245  1.00  0.00     0.178 C 
ATOM      6  O   UNL     1       5.853   5.277  17.894  1.00  0.00    -0.341 OA
ENDROOT
BRANCH   1   7
ATOM      7  O   UNL     1       7.462   3.934  16.830  1.00  0.00    -0.350 OA
BRANCH   7   8
ATOM      8  C   UNL     1       7.648   2.594  16.409  1.00  0.00     0.160 C 
ATOM      9  C   UNL     1       6.327   2.005  15.927  1.00  0.00     0.035 C 
ENDBRANCH   7   8
ENDBRANCH   1   7
BRANCH   2  10
ATOM     10  O   UNL     1       6.260   3.383  20.233  1.00  0.00    -0.385 OA
ATOM     11  H   UNL     1       5.443   3.025  19.798  1.00  0.00     0.211 HD
ENDBRANCH   2  10
BRANCH   3  12
ATOM     12  O   UNL     1       8.602   4.591  20.967  1.00  0.00    -0.387 OA
ATOM     13  H   UNL     1       7.948   3.984  21.401  1.00  0.00     0.211 HD
ENDBRANCH   3  12
BRANCH   5  14
ATOM     14  C   UNL     1       7.629   6.799  17.097  1.00  0.00     0.191 C 
BRANCH  14  15
ATOM     15  O   UNL     1       7.764   8.195  17.055  1.00  0.00    -0.394 OA
ATOM     16  H   UNL     1       8.012   8.436  16.125  1.00  0.00     0.210 HD
ENDBRANCH  14  15
ENDBRANCH   5  14
BRANCH   4  17
ATOM     17  O   UNL     1       6.476   6.287  20.656  1.00  0.00    -0.387 OA
ATOM     18  H   UNL     1       6.843   6.939  21.310  1.00  0.00     0.211 HD
ENDBRANCH   4  17
TORSDOF 7
ENDMDL
MODEL 3
REMARK VINA RESULT:    -4.983      2.031      2.441
REMARK INTER + INTRA:          -6.643
REMARK INTER:                  -6.217
REMARK INTRA:                  -0.426
REMARK UNBOUND:                -0.203
REMARK SMILES CCO[C@@H]1O[C@H](CO)[C@@H](O)[C@@H](O)[C@H]1O
REMARK SMILES IDX 4 1 13 2 11 3 9 4 6 5 5 6 3 7 2 8 1 9 14 10 12 12 7 14 8 15
REMARK SMILES IDX 10 17
REMARK H PARENT 14 11 12 13 8 16 10 18
REMARK Flexibility Score: inf
ROOT
ATOM      1  C   UNL     1      15.856  -1.496   8.329  1.00  0.00     0.281 C 
ATOM      2  C   UNL     1      16.610  -2.836   8.456  1.00  0.00     0.202 C 
ATOM      3  C   UNL     1      15.657  -4.027   8.283  1.00  0.00     0.179 C 
ATOM      4  C   UNL     1      14.802  -3.872   7.016  1.00  0.00     0.177 C 
ATOM      5  C   UNL     1      14.157  -2.464   6.944  1.00  0.00     0.178 C 
ATOM      6  O   UNL     1      15.095  -1.407   7.128  1.00  0.00    -0.341 OA
ENDROOT
BRANCH   1   7
ATOM      7  O   UNL     1      15.047  -1.284   9.475  1.00  0.00    -0.350 OA
BRANCH   7   8
ATOM      8  C   UNL     1      15.596  -0.284  10.315  1.00  0.00     0.160 C 
ATOM      9  C   UNL     1      15.595   1.063   9.601  1.00  0.00     0.035 C 
ENDBRANCH   7   8
ENDBRANCH   1   7
BRANCH   2  10
ATOM     10  O   UNL     1      17.697  -2.912   7.562  1.00  0.00    -0.385 OA
ATOM     11  H   UNL     1      17.392  -3.360   6.732  1.00  0.00     0.211 HD
ENDBRANCH   2  10
BRANCH   3  12
ATOM     12  O   UNL     1      16.394  -5.221   8.239  1.00  0.00    -0.387 OA
ATOM     13  H   UNL     1      15.737  -5.961   8.154  1.00  0.00     0.211 HD
ENDBRANCH   3  12
BRANCH   5  14
ATOM     14  C   UNL     1      12.907  -2.310   7.840  1.00  0.00     0.191 C 
BRANCH  14  15
ATOM     15  O   UNL     1      12.509  -0.965   7.902  1.00  0.00    -0.394 OA
ATOM     16  H   UNL     1      12.885  -0.513   7.103  1.00  0.00     0.210 HD
ENDBRANCH  14  15
ENDBRANCH   5  14
BRANCH   4  17
ATOM     17  O   UNL     1      15.594  -4.095   5.876  1.00  0.00    -0.387 OA
ATOM     18  H   UNL     1      16.518  -4.276   6.196  1.00  0.00     0.211 HD
ENDBRANCH   4  17
TORSDOF 7
ENDMDL
MODEL 4
REMARK VINA RESULT:    -4.860     16.525     18.070
REMARK INTER + INTRA:          -6.485
REMARK INTER:                  -6.075
REMARK INTRA:                  -0.410
REMARK UNBOUND:                -0.203
REMARK SMILES CCO[C@@H]1O[C@H](CO)[C@@H](O)[C@@H](O)[C@H]1O
REMARK SMILES IDX 4 1 13 2 11 3 9 4 6 5 5 6 3 7 2 8 1 9 14 10 12 12 7 14 8 15
REMARK SMILES IDX 10 17
REMARK H PARENT 14 11 12 13 8 16 10 18
REMARK Flexibility Score: inf
ROOT
ATOM      1  C   UNL     1      18.804  -3.675  24.188  1.00  0.00     0.281 C 
ATOM      2  C   UNL     1      19.160  -2.271  23.656  1.00  0.00     0.202 C 
ATOM      3  C   UNL     1      17.982  -1.301  23.817  1.00  0.00     0.179 C 
ATOM      4  C   UNL     1      17.425  -1.339  25.249  1.00  0.00     0.177 C 
ATOM      5  C   UNL     1      17.180  -2.797  25.716  1.00  0.00     0.178 C 
ATOM      6  O   UNL     1      18.309  -3.645  25.524  1.00  0.00    -0.341 OA
ENDROOT
BRANCH   1   7
ATOM      7  O   UNL     1      17.890  -4.309  23.308  1.00  0.00    -0.350 OA
BRANCH   7   8
ATOM      8  C   UNL     1      18.457  -4.497  22.024  1.00  0.00     0.160 C 
ATOM      9  C   UNL     1      19.334  -5.744  22.012  1.00  0.00     0.035 C 
ENDBRANCH   7   8
ENDBRANCH   1   7
BRANCH   2  10
ATOM     10  O   UNL     1      20.330  -1.765  24.257  1.00  0.00    -0.385 OA
ATOM     11  H   UNL     1      20.859  -2.527  24.608  1.00  0.00     0.211 HD
ENDBRANCH   2  10
BRANCH   3  12
ATOM     12  O   UNL     1      18.389  -0.000  23.480  1.00  0.00    -0.387 OA
ATOM     13  H   UNL     1      19.150   0.226  24.076  1.00  0.00     0.211 HD
ENDBRANCH   3  12
BRANCH   5  14
ATOM     14  C   UNL     1      15.875  -3.412  25.164  1.00  0.00     0.191 C 
BRANCH  14  15
ATOM     15  O   UNL     1      15.782  -4.767  25.518  1.00  0.00    -0.394 OA
ATOM     16  H   UNL     1      15.469  -4.802  26.459  1.00  0.00     0.210 HD
ENDBRANCH  14  15
ENDBRANCH   5  14
BRANCH   4  17
ATOM     17  O   UNL     1      18.321  -0.700  26.125  1.00  0.00    -0.387 OA
ATOM     18  H   UNL     1      17.774  -0.170  26.764  1.00  0.00     0.211 HD
ENDBRANCH   4  17
TORSDOF 7
ENDMDL
MODEL 5
REMARK VINA RESULT:    -4.821     15.321     16.899
REMARK INTER + INTRA:          -6.434
REMARK INTER:                  -5.975
REMARK INTRA:                  -0.459
REMARK UNBOUND:                -0.203
REMARK SMILES CCO[C@@H]1O[C@H](CO)[C@@H](O)[C@@H](O)[C@H]1O
REMARK SMILES IDX 4 1 13 2 11 3 9 4 6 5 5 6 3 7 2 8 1 9 14 10 12 12 7 14 8 15
REMARK SMILES IDX 10 17
REMARK H PARENT 14 11 12 13 8 16 10 18
REMARK Flexibility Score: inf
ROOT
ATOM      1  C   UNL     1      18.850  -2.862  22.789  1.00  0.00     0.281 C 
ATOM      2  C   UNL     1      18.111  -3.154  21.466  1.00  0.00     0.202 C 
ATOM      3  C   UNL     1      16.730  -3.773  21.727  1.00  0.00     0.179 C 
ATOM      4  C   UNL     1      15.938  -2.947  22.754  1.00  0.00     0.177 C 
ATOM      5  C   UNL     1      16.798  -2.639  24.007  1.00  0.00     0.178 C 
ATOM      6  O   UNL     1      18.071  -2.081  23.691  1.00  0.00    -0.341 OA
ENDROOT
BRANCH   1   7
ATOM      7  O   UNL     1      19.275  -4.077  23.385  1.00  0.00    -0.350 OA
BRANCH   7   8
ATOM      8  C   UNL     1      20.629  -4.003  23.794  1.00  0.00     0.160 C 
ATOM      9  C   UNL     1      20.882  -4.960  24.953  1.00  0.00     0.035 C 
ENDBRANCH   7   8
ENDBRANCH   1   7
BRANCH   2  10
ATOM     10  O   UNL     1      18.015  -2.006  20.655  1.00  0.00    -0.385 OA
ATOM     11  H   UNL     1      17.139  -1.573  20.823  1.00  0.00     0.211 HD
ENDBRANCH   2  10
BRANCH   3  12
ATOM     12  O   UNL     1      16.020  -3.873  20.520  1.00  0.00    -0.387 OA
ATOM     13  H   UNL     1      16.511  -4.522  19.951  1.00  0.00     0.211 HD
ENDBRANCH   3  12
BRANCH   5  14
ATOM     14  C   UNL     1      16.898  -3.822  24.995  1.00  0.00     0.191 C 
BRANCH  14  15
ATOM     15  O   UNL     1      17.809  -3.530  26.022  1.00  0.00    -0.394 OA
ATOM     16  H   UNL     1      18.307  -4.366  26.216  1.00  0.00     0.210 HD
ENDBRANCH  14  15
ENDBRANCH   5  14
BRANCH   4  17
ATOM     17  O   UNL     1      15.502  -1.747  22.165  1.00  0.00    -0.387 OA
ATOM     18  H   UNL     1      15.724  -1.801  21.198  1.00  0.00     0.211 HD
ENDBRANCH   4  17
TORSDOF 7
ENDMDL
MODEL 6
REMARK VINA RESULT:    -4.713      5.556      8.057
REMARK INTER + INTRA:          -6.294
REMARK INTER:                  -5.868
REMARK INTRA:                  -0.426
REMARK UNBOUND:                -0.203
REMARK SMILES CCO[C@@H]1O[C@H](CO)[C@@H](O)[C@@H](O)[C@H]1O
REMARK SMILES IDX 4 1 13 2 11 3 9 4 6 5 5 6 3 7 2 8 1 9 14 10 12 12 7 14 8 15
REMARK SMILES IDX 10 17
REMARK H PARENT 14 11 12 13 8 16 10 18
REMARK Flexibility Score: inf
ROOT
ATOM      1  C   UNL     1      13.142   4.662   8.153  1.00  0.00     0.281 C 
ATOM      2  C   UNL     1      12.662   6.072   7.751  1.00  0.00     0.202 C 
ATOM      3  C   UNL     1      11.130   6.164   7.772  1.00  0.00     0.179 C 
ATOM      4  C   UNL     1      10.562   5.629   9.097  1.00  0.00     0.177 C 
ATOM      5  C   UNL     1      11.170   4.247   9.449  1.00  0.00     0.178 C 
ATOM      6  O   UNL     1      12.594   4.230   9.395  1.00  0.00    -0.341 OA
ENDROOT
BRANCH   1   7
ATOM      7  O   UNL     1      12.863   3.740   7.111  1.00  0.00    -0.350 OA
BRANCH   7   8
ATOM      8  C   UNL     1      14.011   2.982   6.774  1.00  0.00     0.160 C 
ATOM      9  C   UNL     1      14.943   3.803   5.890  1.00  0.00     0.035 C 
ENDBRANCH   7   8
ENDBRANCH   1   7
BRANCH   2  10
ATOM     10  O   UNL     1      13.249   7.073   8.551  1.00  0.00    -0.385 OA
ATOM     11  H   UNL     1      12.690   7.890   8.494  1.00  0.00     0.211 HD
ENDBRANCH   2  10
BRANCH   3  12
ATOM     12  O   UNL     1      10.732   7.495   7.565  1.00  0.00    -0.387 OA
ATOM     13  H   UNL     1      11.561   8.026   7.441  1.00  0.00     0.211 HD
ENDBRANCH   3  12
BRANCH   5  14
ATOM     14  C   UNL     1      10.532   3.075   8.670  1.00  0.00     0.191 C 
BRANCH  14  15
ATOM     15  O   UNL     1      11.258   1.892   8.882  1.00  0.00    -0.394 OA
ATOM     16  H   UNL     1      11.418   1.486   7.990  1.00  0.00     0.210 HD
ENDBRANCH  14  15
ENDBRANCH   5  14
BRANCH   4  17
ATOM     17  O   UNL     1      10.823   6.545  10.131  1.00  0.00    -0.387 OA
ATOM     18  H   UNL     1      11.234   6.032  10.876  1.00  0.00     0.211 HD
ENDBRANCH   4  17
TORSDOF 7
ENDMDL
MODEL 7
REMARK VINA RESULT:    -4.601     11.824     14.129
REMARK INTER + INTRA:          -6.149
REMARK INTER:                  -5.692
REMARK INTRA:                  -0.457
REMARK UNBOUND:                -0.203
REMARK SMILES CCO[C@@H]1O[C@H](CO)[C@@H](O)[C@@H](O)[C@H]1O
REMARK SMILES IDX 4 1 13 2 11 3 9 4 6 5 5 6 3 7 2 8 1 9 14 10 12 12 7 14 8 15
REMARK SMILES IDX 10 17
REMARK H PARENT 14 11 12 13 8 16 10 18
REMARK Flexibility Score: inf
ROOT
ATOM      1  C   UNL     1       7.257   2.017  18.921  1.00  0.00     0.281 C 
ATOM      2  C   UNL     1       7.470   3.275  19.790  1.00  0.00     0.202 C 
ATOM      3  C   UNL     1       7.780   4.502  18.923  1.00  0.00     0.179 C 
ATOM      4  C   UNL     1       6.754   4.654  17.789  1.00  0.00     0.177 C 
ATOM      5  C   UNL     1       6.553   3.315  17.033  1.00  0.00     0.178 C 
ATOM      6  O   UNL     1       6.284   2.216  17.900  1.00  0.00    -0.341 OA
ENDROOT
BRANCH   1   7
ATOM      7  O   UNL     1       8.496   1.585  18.382  1.00  0.00    -0.350 OA
BRANCH   7   8
ATOM      8  C   UNL     1       8.620   0.175  18.444  1.00  0.00     0.160 C 
ATOM      9  C   UNL     1       9.716  -0.300  17.497  1.00  0.00     0.035 C 
ENDBRANCH   7   8
ENDBRANCH   1   7
BRANCH   2  10
ATOM     10  O   UNL     1       6.375   3.511  20.645  1.00  0.00    -0.385 OA
ATOM     11  H   UNL     1       6.402   4.459  20.937  1.00  0.00     0.211 HD
ENDBRANCH   2  10
BRANCH   3  12
ATOM     12  O   UNL     1       7.805   5.655  19.725  1.00  0.00    -0.387 OA
ATOM     13  H   UNL     1       7.648   6.428  19.121  1.00  0.00     0.211 HD
ENDBRANCH   3  12
BRANCH   5  14
ATOM     14  C   UNL     1       7.673   3.007  16.015  1.00  0.00     0.191 C 
BRANCH  14  15
ATOM     15  O   UNL     1       7.484   1.738  15.445  1.00  0.00    -0.394 OA
ATOM     16  H   UNL     1       8.211   1.605  14.783  1.00  0.00     0.210 HD
ENDBRANCH  14  15
ENDBRANCH   5  14
BRANCH   4  17
ATOM     17  O   UNL     1       5.527   5.096  18.315  1.00  0.00    -0.387 OA
ATOM     18  H   UNL     1       5.537   6.089  18.280  1.00  0.00     0.211 HD
ENDBRANCH   4  17
TORSDOF 7
ENDMDL
MODEL 8
REMARK VINA RESULT:    -4.587      5.650      7.966
REMARK INTER + INTRA:          -6.132
REMARK INTER:                  -5.703
REMARK INTRA:                  -0.429
REMARK UNBOUND:                -0.203
REMARK SMILES CCO[C@@H]1O[C@H](CO)[C@@H](O)[C@@H](O)[C@H]1O
REMARK SMILES IDX 4 1 13 2 11 3 9 4 6 5 5 6 3 7 2 8 1 9 14 10 12 12 7 14 8 15
REMARK SMILES IDX 10 17
REMARK H PARENT 14 11 12 13 8 16 10 18
REMARK Flexibility Score: inf
ROOT
ATOM      1  C   UNL     1      12.253   4.475   8.608  1.00  0.00     0.281 C 
ATOM      2  C   UNL     1      12.026   5.997   8.486  1.00  0.00     0.202 C 
ATOM      3  C   UNL     1      12.449   6.512   7.104  1.00  0.00     0.179 C 
ATOM      4  C   UNL     1      11.829   5.664   5.982  1.00  0.00     0.177 C 
ATOM      5  C   UNL     1      12.042   4.150   6.243  1.00  0.00     0.178 C 
ATOM      6  O   UNL     1      11.642   3.744   7.549  1.00  0.00    -0.341 OA
ENDROOT
BRANCH   1   7
ATOM      7  O   UNL     1      13.641   4.199   8.699  1.00  0.00    -0.350 OA
BRANCH   7   8
ATOM      8  C   UNL     1      13.912   3.255   9.720  1.00  0.00     0.160 C 
ATOM      9  C   UNL     1      14.310   3.970  11.006  1.00  0.00     0.035 C 
ENDBRANCH   7   8
ENDBRANCH   1   7
BRANCH   2  10
ATOM     10  O   UNL     1      10.694   6.352   8.783  1.00  0.00    -0.385 OA
ATOM     11  H   UNL     1      10.390   5.815   9.559  1.00  0.00     0.211 HD
ENDBRANCH   2  10
BRANCH   3  12
ATOM     12  O   UNL     1      12.078   7.860   6.967  1.00  0.00    -0.387 OA
ATOM     13  H   UNL     1      11.683   8.139   7.834  1.00  0.00     0.211 HD
ENDBRANCH   3  12
BRANCH   5  14
ATOM     14  C   UNL     1      13.458   3.653   5.875  1.00  0.00     0.191 C 
BRANCH  14  15
ATOM     15  O   UNL     1      13.613   2.304   6.232  1.00  0.00    -0.394 OA
ATOM     16  H   UNL     1      14.120   1.865   5.499  1.00  0.00     0.210 HD
ENDBRANCH  14  15
ENDBRANCH   5  14
BRANCH   4  17
ATOM     17  O   UNL     1      10.455   5.943   5.878  1.00  0.00    -0.387 OA
ATOM     18  H   UNL     1      10.120   6.101   6.800  1.00  0.00     0.211 HD
ENDBRANCH   4  17
TORSDOF 7
ENDMDL
