MODEL 1
REMARK VINA RESULT:    -8.698      0.000      0.000
REMARK INTER + INTRA:          -8.825
REMARK INTER:                  -9.461
REMARK INTRA:                   0.636
REMARK UNBOUND:                 0.636
REMARK SMILES C[C@H]1[C@H]2C3=CC[C@@H]4[C@]5(C)CC[C@H](O)C(C)(C)[C@@H]5CC[C@]4(C)[C@@]3(C)CC[C@]2(C(=O)[O-])CC[C@@H]1C
REMARK SMILES IDX 26 1 30 2 25 3 3 4 31 5 24 6 4 7 2 8 32 9 22 10 5 11 1 12
REMARK SMILES IDX 33 13 23 14 20 15 6 16 7 17 19 18 21 19 8 20 18 21 17 22
REMARK SMILES IDX 10 23 9 24 14 25 11 26 12 27 15 28 16 29 27 30 28 31 29 32
REMARK SMILES IDX 13 33
REMARK H PARENT 13 34
REMARK Flexibility Score: inf
ROOT
ATOM      1  C   UNL     1       3.706  -7.889  13.814  1.00  0.00     0.017 C 
ATOM      2  C   UNL     1       5.138  -8.371  13.442  1.00  0.00     0.014 C 
ATOM      3  C   UNL     1       2.832  -7.971  12.542  1.00  0.00     0.014 C 
ATOM      4  C   UNL     1       3.122  -8.867  14.888  1.00  0.00     0.030 C 
ATOM      5  C   UNL     1       6.067  -8.443  14.661  1.00  0.00     0.004 C 
ATOM      6  C   UNL     1       1.373  -7.586  12.820  1.00  0.00     0.013 C 
ATOM      7  C   UNL     1       1.599  -8.701  15.122  1.00  0.00    -0.063 C 
ATOM      8  C   UNL     1       4.046  -9.015  16.154  1.00  0.00    -0.003 C 
ATOM      9  C   UNL     1       5.517  -9.361  15.771  1.00  0.00    -0.011 C 
ATOM     10  C   UNL     1       0.665  -8.455  13.922  1.00  0.00    -0.006 C 
ATOM     11  C   UNL     1       1.033  -9.140  16.271  1.00  0.00    -0.027 C 
ATOM     12  C   UNL     1       4.005  -7.814  17.119  1.00  0.00     0.008 C 
ATOM     13  C   UNL     1       5.685 -10.848  15.403  1.00  0.00     0.008 C 
ATOM     14  C   UNL     1       0.401  -9.847  13.268  1.00  0.00     0.017 C 
ATOM     15  C   UNL     1      -0.687  -7.735  14.447  1.00  0.00    -0.020 C 
ATOM     16  C   UNL     1      -0.425  -9.495  16.384  1.00  0.00     0.032 C 
ATOM     17  C   UNL     1      -1.393  -8.537  15.628  1.00  0.00     0.006 C 
ATOM     18  C   UNL     1      -1.671  -7.498  13.274  1.00  0.00     0.008 C 
ATOM     19  C   UNL     1      -0.344  -6.314  15.029  1.00  0.00     0.012 C 
ATOM     20  C   UNL     1      -2.858  -9.125  15.363  1.00  0.00    -0.025 C 
ATOM     21  C   UNL     1      -3.067  -7.064  13.715  1.00  0.00     0.005 C 
ATOM     22  C   UNL     1      -3.795  -7.981  14.766  1.00  0.00     0.003 C 
ATOM     23  C   UNL     1      -2.857 -10.371  14.423  1.00  0.00     0.010 C 
ATOM     24  C   UNL     1      -3.397  -9.586  16.759  1.00  0.00     0.012 C 
ATOM     25  C   UNL     1      -5.241  -8.471  14.279  1.00  0.00    -0.006 C 
ATOM     26  C   UNL     1      -4.257 -10.841  13.998  1.00  0.00     0.033 C 
ATOM     27  C   UNL     1      -5.092  -9.717  13.353  1.00  0.00     0.120 C 
ATOM     28  C   UNL     1      -6.174  -8.808  15.494  1.00  0.00     0.014 C 
ATOM     29  C   UNL     1      -6.011  -7.348  13.505  1.00  0.00     0.014 C 
ENDROOT
BRANCH   1  30
ATOM     30  C   UNL     1       3.755  -6.431  14.271  1.00  0.00     0.048 C 
ATOM     31  O   UNL     1       4.632  -5.650  13.816  1.00  0.00    -0.550 OA
ATOM     32  O   UNL     1       2.777  -5.910  15.106  1.00  0.00    -0.550 OA
ENDBRANCH   1  30
BRANCH  27  33
ATOM     33  O   UNL     1      -4.500  -9.351  12.131  1.00  0.00    -0.393 OA
ATOM     34  H   UNL     1      -4.341  -8.372  12.164  1.00  0.00     0.210 HD
ENDBRANCH  27  33
TORSDOF 2
ENDMDL
MODEL 2
REMARK VINA RESULT:    -8.232      1.391      7.955
REMARK INTER + INTRA:          -8.317
REMARK INTER:                  -8.937
REMARK INTRA:                   0.619
REMARK UNBOUND:                 0.636
REMARK SMILES C[C@H]1[C@H]2C3=CC[C@@H]4[C@]5(C)CC[C@H](O)C(C)(C)[C@@H]5CC[C@]4(C)[C@@]3(C)CC[C@]2(C(=O)[O-])CC[C@@H]1C
REMARK SMILES IDX 26 1 30 2 25 3 3 4 31 5 24 6 4 7 2 8 32 9 22 10 5 11 1 12
REMARK SMILES IDX 33 13 23 14 20 15 6 16 7 17 19 18 21 19 8 20 18 21 17 22
REMARK SMILES IDX 10 23 9 24 14 25 11 26 12 27 15 28 16 29 27 30 28 31 29 32
REMARK SMILES IDX 13 33
REMARK H PARENT 13 34
REMARK Flexibility Score: inf
ROOT
ATOM      1  C   UNL     1      -4.875  -7.808  14.475  1.00  0.00     0.017 C 
ATOM      2  C   UNL     1      -6.348  -7.637  14.945  1.00  0.00     0.014 C 
ATOM      3  C   UNL     1      -4.079  -6.572  14.952  1.00  0.00     0.014 C 
ATOM      4  C   UNL     1      -4.283  -9.082  15.167  1.00  0.00     0.030 C 
ATOM      5  C   UNL     1      -7.210  -8.866  14.627  1.00  0.00     0.004 C 
ATOM      6  C   UNL     1      -2.588  -6.677  14.603  1.00  0.00     0.013 C 
ATOM      7  C   UNL     1      -2.744  -9.202  15.044  1.00  0.00    -0.063 C 
ATOM      8  C   UNL     1      -5.142 -10.376  14.910  1.00  0.00    -0.003 C 
ATOM      9  C   UNL     1      -6.648 -10.160  15.248  1.00  0.00    -0.011 C 
ATOM     10  C   UNL     1      -1.867  -7.944  15.190  1.00  0.00    -0.006 C 
ATOM     11  C   UNL     1      -2.137 -10.404  15.195  1.00  0.00    -0.027 C 
ATOM     12  C   UNL     1      -4.985 -10.978  13.499  1.00  0.00     0.008 C 
ATOM     13  C   UNL     1      -6.914 -10.215  16.765  1.00  0.00     0.008 C 
ATOM     14  C   UNL     1      -1.712  -7.682  16.720  1.00  0.00     0.017 C 
ATOM     15  C   UNL     1      -0.452  -8.201  14.446  1.00  0.00    -0.020 C 
ATOM     16  C   UNL     1      -0.697 -10.551  15.602  1.00  0.00     0.032 C 
ATOM     17  C   UNL     1       0.277  -9.526  14.946  1.00  0.00     0.006 C 
ATOM     18  C   UNL     1       0.477  -6.969  14.597  1.00  0.00     0.008 C 
ATOM     19  C   UNL     1      -0.687  -8.389  12.902  1.00  0.00     0.012 C 
ATOM     20  C   UNL     1       1.692  -9.372  15.679  1.00  0.00    -0.025 C 
ATOM     21  C   UNL     1       1.916  -7.221  14.153  1.00  0.00     0.005 C 
ATOM     22  C   UNL     1       2.653  -8.451  14.801  1.00  0.00     0.003 C 
ATOM     23  C   UNL     1       1.573  -8.805  17.128  1.00  0.00     0.010 C 
ATOM     24  C   UNL     1       2.283 -10.818  15.783  1.00  0.00     0.012 C 
ATOM     25  C   UNL     1       4.042  -8.058  15.496  1.00  0.00    -0.006 C 
ATOM     26  C   UNL     1       2.920  -8.468  17.785  1.00  0.00     0.033 C 
ATOM     27  C   UNL     1       3.776  -7.510  16.933  1.00  0.00     0.120 C 
ATOM     28  C   UNL     1       5.022  -9.281  15.557  1.00  0.00     0.014 C 
ATOM     29  C   UNL     1       4.825  -6.979  14.675  1.00  0.00     0.014 C 
ENDROOT
BRANCH   1  30
ATOM     30  C   UNL     1      -4.822  -7.855  12.949  1.00  0.00     0.048 C 
ATOM     31  O   UNL     1      -5.596  -7.136  12.262  1.00  0.00    -0.550 OA
ATOM     32  O   UNL     1      -3.855  -8.600  12.289  1.00  0.00    -0.550 OA
ENDBRANCH   1  30
BRANCH  27  33
ATOM     33  O   UNL     1       3.136  -6.259  16.870  1.00  0.00    -0.393 OA
ATOM     34  H   UNL     1       2.840  -6.035  17.791  1.00  0.00     0.210 HD
ENDBRANCH  27  33
TORSDOF 2
ENDMDL
MODEL 3
REMARK VINA RESULT:    -8.125      3.315      9.775
REMARK INTER + INTRA:          -8.202
REMARK INTER:                  -9.037
REMARK INTRA:                   0.835
REMARK UNBOUND:                 0.636
REMARK SMILES C[C@H]1[C@H]2C3=CC[C@@H]4[C@]5(C)CC[C@H](O)C(C)(C)[C@@H]5CC[C@]4(C)[C@@]3(C)CC[C@]2(C(=O)[O-])CC[C@@H]1C
REMARK SMILES IDX 26 1 30 2 25 3 3 4 31 5 24 6 4 7 2 8 32 9 22 10 5 11 1 12
REMARK SMILES IDX 33 13 23 14 20 15 6 16 7 17 19 18 21 19 8 20 18 21 17 22
REMARK SMILES IDX 10 23 9 24 14 25 11 26 12 27 15 28 16 29 27 30 28 31 29 32
REMARK SMILES IDX 13 33
REMARK H PARENT 13 34
REMARK Flexibility Score: inf
ROOT
ATOM      1  C   UNL     1      -9.284  -6.342  13.981  1.00  0.00     0.017 C 
ATOM      2  C   UNL     1     -10.402  -5.262  14.030  1.00  0.00     0.014 C 
ATOM      3  C   UNL     1      -8.445  -6.099  12.705  1.00  0.00     0.014 C 
ATOM      4  C   UNL     1      -8.361  -6.150  15.231  1.00  0.00     0.030 C 
ATOM      5  C   UNL     1     -11.230  -5.334  15.320  1.00  0.00     0.004 C 
ATOM      6  C   UNL     1      -7.262  -7.071  12.600  1.00  0.00     0.013 C 
ATOM      7  C   UNL     1      -7.032  -6.942  15.155  1.00  0.00    -0.063 C 
ATOM      8  C   UNL     1      -9.153  -6.177  16.591  1.00  0.00    -0.003 C 
ATOM      9  C   UNL     1     -10.362  -5.193  16.587  1.00  0.00    -0.011 C 
ATOM     10  C   UNL     1      -6.270  -7.027  13.819  1.00  0.00    -0.006 C 
ATOM     11  C   UNL     1      -6.341  -7.229  16.283  1.00  0.00    -0.027 C 
ATOM     12  C   UNL     1      -9.598  -7.582  17.043  1.00  0.00     0.008 C 
ATOM     13  C   UNL     1      -9.922  -3.733  16.807  1.00  0.00     0.008 C 
ATOM     14  C   UNL     1      -5.470  -5.695  13.675  1.00  0.00     0.017 C 
ATOM     15  C   UNL     1      -5.320  -8.338  13.837  1.00  0.00    -0.020 C 
ATOM     16  C   UNL     1      -4.863  -7.510  16.292  1.00  0.00     0.032 C 
ATOM     17  C   UNL     1      -4.355  -8.382  15.105  1.00  0.00     0.006 C 
ATOM     18  C   UNL     1      -4.507  -8.444  12.522  1.00  0.00     0.008 C 
ATOM     19  C   UNL     1      -6.203  -9.637  13.917  1.00  0.00     0.012 C 
ATOM     20  C   UNL     1      -2.777  -8.323  14.847  1.00  0.00    -0.025 C 
ATOM     21  C   UNL     1      -3.402  -9.497  12.559  1.00  0.00     0.005 C 
ATOM     22  C   UNL     1      -2.372  -9.401  13.744  1.00  0.00     0.003 C 
ATOM     23  C   UNL     1      -2.277  -6.904  14.428  1.00  0.00     0.010 C 
ATOM     24  C   UNL     1      -2.103  -8.675  16.216  1.00  0.00     0.012 C 
ATOM     25  C   UNL     1      -0.849  -9.331  13.251  1.00  0.00    -0.006 C 
ATOM     26  C   UNL     1      -0.805  -6.858  13.991  1.00  0.00     0.033 C 
ATOM     27  C   UNL     1      -0.485  -7.863  12.867  1.00  0.00     0.120 C 
ATOM     28  C   UNL     1       0.137  -9.863  14.348  1.00  0.00     0.014 C 
ATOM     29  C   UNL     1      -0.590 -10.261  12.017  1.00  0.00     0.014 C 
ENDROOT
BRANCH   1  30
ATOM     30  C   UNL     1      -9.911  -7.732  13.887  1.00  0.00     0.048 C 
ATOM     31  O   UNL     1     -11.136  -7.861  13.619  1.00  0.00    -0.550 OA
ATOM     32  O   UNL     1      -9.134  -8.876  13.986  1.00  0.00    -0.550 OA
ENDBRANCH   1  30
BRANCH  27  33
ATOM     33  O   UNL     1      -1.171  -7.478  11.700  1.00  0.00    -0.393 OA
ATOM     34  H   UNL     1      -2.106  -7.275  11.964  1.00  0.00     0.210 HD
ENDBRANCH  27  33
TORSDOF 2
ENDMDL
MODEL 4
REMARK VINA RESULT:    -8.036      2.188      8.843
REMARK INTER + INTRA:          -8.105
REMARK INTER:                  -8.894
REMARK INTRA:                   0.789
REMARK UNBOUND:                 0.636
REMARK SMILES C[C@H]1[C@H]2C3=CC[C@@H]4[C@]5(C)CC[C@H](O)C(C)(C)[C@@H]5CC[C@]4(C)[C@@]3(C)CC[C@]2(C(=O)[O-])CC[C@@H]1C
REMARK SMILES IDX 26 1 30 2 25 3 3 4 31 5 24 6 4 7 2 8 32 9 22 10 5 11 1 12
REMARK SMILES IDX 33 13 23 14 20 15 6 16 7 17 19 18 21 19 8 20 18 21 17 22
REMARK SMILES IDX 10 23 9 24 14 25 11 26 12 27 15 28 16 29 27 30 28 31 29 32
REMARK SMILES IDX 13 33
REMARK H PARENT 13 34
REMARK Flexibility Score: inf
ROOT
ATOM      1  C   UNL     1      -7.706  -7.621  15.207  1.00  0.00     0.017 C 
ATOM      2  C   UNL     1      -8.982  -7.169  15.975  1.00  0.00     0.014 C 
ATOM      3  C   UNL     1      -6.908  -6.354  14.825  1.00  0.00     0.014 C 
ATOM      4  C   UNL     1      -6.833  -8.491  16.174  1.00  0.00     0.030 C 
ATOM      5  C   UNL     1      -9.796  -8.356  16.507  1.00  0.00     0.004 C 
ATOM      6  C   UNL     1      -5.586  -6.695  14.125  1.00  0.00     0.013 C 
ATOM      7  C   UNL     1      -5.396  -8.747  15.657  1.00  0.00    -0.063 C 
ATOM      8  C   UNL     1      -7.620  -9.709  16.786  1.00  0.00    -0.003 C 
ATOM      9  C   UNL     1      -8.970  -9.272  17.433  1.00  0.00    -0.011 C 
ATOM     10  C   UNL     1      -4.621  -7.613  14.961  1.00  0.00    -0.006 C 
ATOM     11  C   UNL     1      -4.676  -9.792  16.130  1.00  0.00    -0.027 C 
ATOM     12  C   UNL     1      -7.842 -10.882  15.811  1.00  0.00     0.008 C 
ATOM     13  C   UNL     1      -8.767  -8.632  18.819  1.00  0.00     0.008 C 
ATOM     14  C   UNL     1      -4.040  -6.708  16.093  1.00  0.00     0.017 C 
ATOM     15  C   UNL     1      -3.476  -8.260  14.017  1.00  0.00    -0.020 C 
ATOM     16  C   UNL     1      -3.172  -9.832  16.104  1.00  0.00     0.032 C 
ATOM     17  C   UNL     1      -2.525  -9.267  14.804  1.00  0.00     0.006 C 
ATOM     18  C   UNL     1      -2.648  -7.149  13.321  1.00  0.00     0.008 C 
ATOM     19  C   UNL     1      -4.143  -9.099  12.866  1.00  0.00     0.012 C 
ATOM     20  C   UNL     1      -0.974  -8.892  14.927  1.00  0.00    -0.025 C 
ATOM     21  C   UNL     1      -1.391  -7.660  12.622  1.00  0.00     0.005 C 
ATOM     22  C   UNL     1      -0.397  -8.518  13.488  1.00  0.00     0.003 C 
ATOM     23  C   UNL     1      -0.702  -7.735  15.939  1.00  0.00     0.010 C 
ATOM     24  C   UNL     1      -0.262 -10.175  15.474  1.00  0.00     0.012 C 
ATOM     25  C   UNL     1       1.099  -7.944  13.483  1.00  0.00    -0.006 C 
ATOM     26  C   UNL     1       0.748  -7.225  15.938  1.00  0.00     0.033 C 
ATOM     27  C   UNL     1       1.229  -6.800  14.537  1.00  0.00     0.120 C 
ATOM     28  C   UNL     1       2.149  -9.071  13.776  1.00  0.00     0.014 C 
ATOM     29  C   UNL     1       1.511  -7.392  12.076  1.00  0.00     0.014 C 
ENDROOT
BRANCH   1  30
ATOM     30  C   UNL     1      -8.106  -8.344  13.921  1.00  0.00     0.048 C 
ATOM     31  O   UNL     1      -7.285  -9.098  13.333  1.00  0.00    -0.550 OA
ATOM     32  O   UNL     1      -9.403  -8.275  13.435  1.00  0.00    -0.550 OA
ENDBRANCH   1  30
BRANCH  27  33
ATOM     33  O   UNL     1       0.499  -5.670  14.126  1.00  0.00    -0.393 OA
ATOM     34  H   UNL     1       0.050  -5.303  14.932  1.00  0.00     0.210 HD
ENDBRANCH  27  33
TORSDOF 2
ENDMDL
MODEL 5
REMARK VINA RESULT:    -7.992      1.663      2.165
REMARK INTER + INTRA:          -8.056
REMARK INTER:                  -8.784
REMARK INTRA:                   0.728
REMARK UNBOUND:                 0.636
REMARK SMILES C[C@H]1[C@H]2C3=CC[C@@H]4[C@]5(C)CC[C@H](O)C(C)(C)[C@@H]5CC[C@]4(C)[C@@]3(C)CC[C@]2(C(=O)[O-])CC[C@@H]1C
REMARK SMILES IDX 26 1 30 2 25 3 3 4 31 5 24 6 4 7 2 8 32 9 22 10 5 11 1 12
REMARK SMILES IDX 33 13 23 14 20 15 6 16 7 17 19 18 21 19 8 20 18 21 17 22
REMARK SMILES IDX 10 23 9 24 14 25 11 26 12 27 15 28 16 29 27 30 28 31 29 32
REMARK SMILES IDX 13 33
REMARK H PARENT 13 34
REMARK Flexibility Score: inf
ROOT
ATOM      1  C   UNL     1       3.261  -8.912  11.792  1.00  0.00     0.017 C 
ATOM      2  C   UNL     1       4.697  -9.348  11.383  1.00  0.00     0.014 C 
ATOM      3  C   UNL     1       2.257  -9.782  11.001  1.00  0.00     0.014 C 
ATOM      4  C   UNL     1       3.077  -9.201  13.321  1.00  0.00     0.030 C 
ATOM      5  C   UNL     1       5.781  -8.628  12.196  1.00  0.00     0.004 C 
ATOM      6  C   UNL     1       0.803  -9.482  11.390  1.00  0.00     0.013 C 
ATOM      7  C   UNL     1       1.607  -9.114  13.801  1.00  0.00    -0.063 C 
ATOM      8  C   UNL     1       4.180  -8.519  14.212  1.00  0.00    -0.003 C 
ATOM      9  C   UNL     1       5.622  -8.843  13.714  1.00  0.00    -0.011 C 
ATOM     10  C   UNL     1       0.480  -9.679  12.915  1.00  0.00    -0.006 C 
ATOM     11  C   UNL     1       1.326  -8.912  15.110  1.00  0.00    -0.027 C 
ATOM     12  C   UNL     1       4.001  -7.000  14.402  1.00  0.00     0.008 C 
ATOM     13  C   UNL     1       6.075 -10.255  14.131  1.00  0.00     0.008 C 
ATOM     14  C   UNL     1       0.454 -11.221  13.154  1.00  0.00     0.017 C 
ATOM     15  C   UNL     1      -0.913  -8.954  13.310  1.00  0.00    -0.020 C 
ATOM     16  C   UNL     1       0.022  -9.315  15.742  1.00  0.00     0.032 C 
ATOM     17  C   UNL     1      -1.240  -9.051  14.866  1.00  0.00     0.006 C 
ATOM     18  C   UNL     1      -2.082  -9.518  12.463  1.00  0.00     0.008 C 
ATOM     19  C   UNL     1      -0.829  -7.419  12.977  1.00  0.00     0.012 C 
ATOM     20  C   UNL     1      -2.551  -9.856  15.307  1.00  0.00    -0.025 C 
ATOM     21  C   UNL     1      -3.463  -9.081  12.946  1.00  0.00     0.005 C 
ATOM     22  C   UNL     1      -3.802  -9.348  14.459  1.00  0.00     0.003 C 
ATOM     23  C   UNL     1      -2.395 -11.403  15.171  1.00  0.00     0.010 C 
ATOM     24  C   UNL     1      -2.764  -9.534  16.824  1.00  0.00     0.012 C 
ATOM     25  C   UNL     1      -5.150 -10.191  14.663  1.00  0.00    -0.006 C 
ATOM     26  C   UNL     1      -3.695 -12.190  15.404  1.00  0.00     0.033 C 
ATOM     27  C   UNL     1      -4.850 -11.713  14.502  1.00  0.00     0.120 C 
ATOM     28  C   UNL     1      -5.797  -9.912  16.064  1.00  0.00     0.014 C 
ATOM     29  C   UNL     1      -6.261  -9.777  13.639  1.00  0.00     0.014 C 
ENDROOT
BRANCH   1  30
ATOM     30  C   UNL     1       3.035  -7.450  11.411  1.00  0.00     0.048 C 
ATOM     31  O   UNL     1       2.244  -6.732  12.079  1.00  0.00    -0.550 OA
ATOM     32  O   UNL     1       3.771  -6.853  10.398  1.00  0.00    -0.550 OA
ENDBRANCH   1  30
BRANCH  27  33
ATOM     33  O   UNL     1      -4.538 -12.012  13.163  1.00  0.00    -0.393 OA
ATOM     34  H   UNL     1      -3.567 -12.216  13.128  1.00  0.00     0.210 HD
ENDBRANCH  27  33
TORSDOF 2
ENDMDL
MODEL 6
REMARK VINA RESULT:    -7.989      3.760     10.579
REMARK INTER + INTRA:          -8.054
REMARK INTER:                  -8.730
REMARK INTRA:                   0.676
REMARK UNBOUND:                 0.636
REMARK SMILES C[C@H]1[C@H]2C3=CC[C@@H]4[C@]5(C)CC[C@H](O)C(C)(C)[C@@H]5CC[C@]4(C)[C@@]3(C)CC[C@]2(C(=O)[O-])CC[C@@H]1C
REMARK SMILES IDX 26 1 30 2 25 3 3 4 31 5 24 6 4 7 2 8 32 9 22 10 5 11 1 12
REMARK SMILES IDX 33 13 23 14 20 15 6 16 7 17 19 18 21 19 8 20 18 21 17 22
REMARK SMILES IDX 10 23 9 24 14 25 11 26 12 27 15 28 16 29 27 30 28 31 29 32
REMARK SMILES IDX 13 33
REMARK H PARENT 13 34
REMARK Flexibility Score: inf
ROOT
ATOM      1  C   UNL     1     -10.071  -5.790  13.228  1.00  0.00     0.017 C 
ATOM      2  C   UNL     1     -11.313  -4.863  13.097  1.00  0.00     0.014 C 
ATOM      3  C   UNL     1      -8.898  -5.121  12.476  1.00  0.00     0.014 C 
ATOM      4  C   UNL     1      -9.697  -5.899  14.745  1.00  0.00     0.030 C 
ATOM      5  C   UNL     1     -12.512  -5.374  13.907  1.00  0.00     0.004 C 
ATOM      6  C   UNL     1      -7.596  -5.923  12.608  1.00  0.00     0.013 C 
ATOM      7  C   UNL     1      -8.304  -6.527  15.002  1.00  0.00    -0.063 C 
ATOM      8  C   UNL     1     -10.896  -6.384  15.641  1.00  0.00    -0.003 C 
ATOM      9  C   UNL     1     -12.186  -5.541  15.405  1.00  0.00    -0.011 C 
ATOM     10  C   UNL     1      -7.120  -6.158  14.088  1.00  0.00    -0.006 C 
ATOM     11  C   UNL     1      -8.013  -7.074  16.206  1.00  0.00    -0.027 C 
ATOM     12  C   UNL     1     -11.206  -7.890  15.534  1.00  0.00     0.008 C 
ATOM     13  C   UNL     1     -12.126  -4.178  16.121  1.00  0.00     0.008 C 
ATOM     14  C   UNL     1      -6.579  -4.783  14.589  1.00  0.00     0.017 C 
ATOM     15  C   UNL     1      -6.014  -7.338  14.159  1.00  0.00    -0.020 C 
ATOM     16  C   UNL     1      -6.607  -7.228  16.719  1.00  0.00     0.032 C 
ATOM     17  C   UNL     1      -5.564  -7.673  15.650  1.00  0.00     0.006 C 
ATOM     18  C   UNL     1      -4.787  -6.991  13.277  1.00  0.00     0.008 C 
ATOM     19  C   UNL     1      -6.614  -8.670  13.575  1.00  0.00     0.012 C 
ATOM     20  C   UNL     1      -4.035  -7.416  16.048  1.00  0.00    -0.025 C 
ATOM     21  C   UNL     1      -3.592  -7.918  13.487  1.00  0.00     0.005 C 
ATOM     22  C   UNL     1      -3.079  -8.091  14.964  1.00  0.00     0.003 C 
ATOM     23  C   UNL     1      -3.690  -5.902  16.209  1.00  0.00     0.010 C 
ATOM     24  C   UNL     1      -3.832  -8.098  17.442  1.00  0.00     0.012 C 
ATOM     25  C   UNL     1      -1.520  -7.760  15.132  1.00  0.00    -0.006 C 
ATOM     26  C   UNL     1      -2.193  -5.615  16.402  1.00  0.00     0.033 C 
ATOM     27  C   UNL     1      -1.321  -6.220  15.284  1.00  0.00     0.120 C 
ATOM     28  C   UNL     1      -0.902  -8.509  16.363  1.00  0.00     0.014 C 
ATOM     29  C   UNL     1      -0.679  -8.266  13.912  1.00  0.00     0.014 C 
ENDROOT
BRANCH   1  30
ATOM     30  C   UNL     1     -10.359  -7.138  12.568  1.00  0.00     0.048 C 
ATOM     31  O   UNL     1     -11.215  -7.226  11.647  1.00  0.00    -0.550 OA
ATOM     32  O   UNL     1      -9.615  -8.265  12.886  1.00  0.00    -0.550 OA
ENDBRANCH   1  30
BRANCH  27  33
ATOM     33  O   UNL     1      -1.612  -5.566  14.072  1.00  0.00    -0.393 OA
ATOM     34  H   UNL     1      -2.467  -5.078  14.202  1.00  0.00     0.210 HD
ENDBRANCH  27  33
TORSDOF 2
ENDMDL
MODEL 7
REMARK VINA RESULT:    -7.814      1.619      2.015
REMARK INTER + INTRA:          -7.863
REMARK INTER:                  -8.590
REMARK INTRA:                   0.727
REMARK UNBOUND:                 0.636
REMARK SMILES C[C@H]1[C@H]2C3=CC[C@@H]4[C@]5(C)CC[C@H](O)C(C)(C)[C@@H]5CC[C@]4(C)[C@@]3(C)CC[C@]2(C(=O)[O-])CC[C@@H]1C
REMARK SMILES IDX 26 1 30 2 25 3 3 4 31 5 24 6 4 7 2 8 32 9 22 10 5 11 1 12
REMARK SMILES IDX 33 13 23 14 20 15 6 16 7 17 19 18 21 19 8 20 18 21 17 22
REMARK SMILES IDX 10 23 9 24 14 25 11 26 12 27 15 28 16 29 27 30 28 31 29 32
REMARK SMILES IDX 13 33
REMARK H PARENT 13 34
REMARK Flexibility Score: inf
ROOT
ATOM      1  C   UNL     1       3.268  -8.203  14.860  1.00  0.00     0.017 C 
ATOM      2  C   UNL     1       4.633  -8.653  14.265  1.00  0.00     0.014 C 
ATOM      3  C   UNL     1       2.641  -7.179  13.886  1.00  0.00     0.014 C 
ATOM      4  C   UNL     1       2.332  -9.455  14.942  1.00  0.00     0.030 C 
ATOM      5  C   UNL     1       5.296  -9.762  15.093  1.00  0.00     0.004 C 
ATOM      6  C   UNL     1       1.248  -6.726  14.346  1.00  0.00     0.013 C 
ATOM      7  C   UNL     1       0.847  -9.109  15.216  1.00  0.00    -0.063 C 
ATOM      8  C   UNL     1       2.967 -10.647  15.750  1.00  0.00    -0.003 C 
ATOM      9  C   UNL     1       4.397 -11.005  15.243  1.00  0.00    -0.011 C 
ATOM     10  C   UNL     1       0.207  -7.891  14.524  1.00  0.00    -0.006 C 
ATOM     11  C   UNL     1       0.010 -10.042  15.729  1.00  0.00    -0.027 C 
ATOM     12  C   UNL     1       2.967 -10.454  17.279  1.00  0.00     0.008 C 
ATOM     13  C   UNL     1       4.361 -11.831  13.943  1.00  0.00     0.008 C 
ATOM     14  C   UNL     1      -0.178  -8.347  13.082  1.00  0.00     0.017 C 
ATOM     15  C   UNL     1      -1.067  -7.399  15.394  1.00  0.00    -0.020 C 
ATOM     16  C   UNL     1      -1.483  -9.992  15.553  1.00  0.00     0.032 C 
ATOM     17  C   UNL     1      -2.109  -8.570  15.675  1.00  0.00     0.006 C 
ATOM     18  C   UNL     1      -1.762  -6.193  14.713  1.00  0.00     0.008 C 
ATOM     19  C   UNL     1      -0.587  -6.894  16.804  1.00  0.00     0.012 C 
ATOM     20  C   UNL     1      -3.582  -8.425  15.066  1.00  0.00    -0.025 C 
ATOM     21  C   UNL     1      -3.114  -5.833  15.324  1.00  0.00     0.005 C 
ATOM     22  C   UNL     1      -4.174  -6.990  15.432  1.00  0.00     0.003 C 
ATOM     23  C   UNL     1      -3.632  -8.656  13.523  1.00  0.00     0.010 C 
ATOM     24  C   UNL     1      -4.440  -9.547  15.740  1.00  0.00     0.012 C 
ATOM     25  C   UNL     1      -5.571  -6.632  14.733  1.00  0.00    -0.006 C 
ATOM     26  C   UNL     1      -4.992  -8.337  12.882  1.00  0.00     0.033 C 
ATOM     27  C   UNL     1      -5.481  -6.910  13.200  1.00  0.00     0.120 C 
ATOM     28  C   UNL     1      -6.755  -7.445  15.361  1.00  0.00     0.014 C 
ATOM     29  C   UNL     1      -5.972  -5.135  14.958  1.00  0.00     0.014 C 
ENDROOT
BRANCH   1  30
ATOM     30  C   UNL     1       3.492  -7.513  16.205  1.00  0.00     0.048 C 
ATOM     31  O   UNL     1       2.658  -7.653  17.139  1.00  0.00    -0.550 OA
ATOM     32  O   UNL     1       4.662  -6.814  16.464  1.00  0.00    -0.550 OA
ENDBRANCH   1  30
BRANCH  27  33
ATOM     33  O   UNL     1      -4.619  -5.984  12.584  1.00  0.00    -0.393 OA
ATOM     34  H   UNL     1      -4.837  -5.089  12.956  1.00  0.00     0.210 HD
ENDBRANCH  27  33
TORSDOF 2
ENDMDL
MODEL 8
REMARK VINA RESULT:    -7.806      2.213      4.208
REMARK INTER + INTRA:          -7.855
REMARK INTER:                  -8.472
REMARK INTRA:                   0.617
REMARK UNBOUND:                 0.636
REMARK SMILES C[C@H]1[C@H]2C3=CC[C@@H]4[C@]5(C)CC[C@H](O)C(C)(C)[C@@H]5CC[C@]4(C)[C@@]3(C)CC[C@]2(C(=O)[O-])CC[C@@H]1C
REMARK SMILES IDX 26 1 30 2 25 3 3 4 31 5 24 6 4 7 2 8 32 9 22 10 5 11 1 12
REMARK SMILES IDX 33 13 23 14 20 15 6 16 7 17 19 18 21 19 8 20 18 21 17 22
REMARK SMILES IDX 10 23 9 24 14 25 11 26 12 27 15 28 16 29 27 30 28 31 29 32
REMARK SMILES IDX 13 33
REMARK H PARENT 13 34
REMARK Flexibility Score: inf
ROOT
ATOM      1  C   UNL     1      -0.447  -7.795  14.141  1.00  0.00     0.017 C 
ATOM      2  C   UNL     1       0.894  -8.432  13.676  1.00  0.00     0.014 C 
ATOM      3  C   UNL     1      -1.480  -7.980  13.006  1.00  0.00     0.014 C 
ATOM      4  C   UNL     1      -0.948  -8.572  15.405  1.00  0.00     0.030 C 
ATOM      5  C   UNL     1       1.964  -8.410  14.775  1.00  0.00     0.004 C 
ATOM      6  C   UNL     1      -2.866  -7.450  13.396  1.00  0.00     0.013 C 
ATOM      7  C   UNL     1      -2.415  -8.260  15.790  1.00  0.00    -0.063 C 
ATOM      8  C   UNL     1       0.119  -8.620  16.561  1.00  0.00    -0.003 C 
ATOM      9  C   UNL     1       1.506  -9.126  16.061  1.00  0.00    -0.011 C 
ATOM     10  C   UNL     1      -3.478  -8.106  14.686  1.00  0.00    -0.006 C 
ATOM     11  C   UNL     1      -2.857  -8.495  17.049  1.00  0.00    -0.027 C 
ATOM     12  C   UNL     1       0.274  -7.300  17.343  1.00  0.00     0.008 C 
ATOM     13  C   UNL     1       1.537 -10.657  15.892  1.00  0.00     0.008 C 
ATOM     14  C   UNL     1      -3.907  -9.549  14.273  1.00  0.00     0.017 C 
ATOM     15  C   UNL     1      -4.707  -7.220  15.258  1.00  0.00    -0.020 C 
ATOM     16  C   UNL     1      -4.307  -8.719  17.382  1.00  0.00     0.032 C 
ATOM     17  C   UNL     1      -5.304  -7.799  16.617  1.00  0.00     0.006 C 
ATOM     18  C   UNL     1      -5.817  -7.068  14.187  1.00  0.00     0.008 C 
ATOM     19  C   UNL     1      -4.208  -5.765  15.587  1.00  0.00     0.012 C 
ATOM     20  C   UNL     1      -6.823  -8.303  16.612  1.00  0.00    -0.025 C 
ATOM     21  C   UNL     1      -7.117  -6.473  14.723  1.00  0.00     0.005 C 
ATOM     22  C   UNL     1      -7.759  -7.182  15.973  1.00  0.00     0.003 C 
ATOM     23  C   UNL     1      -7.016  -9.661  15.866  1.00  0.00     0.010 C 
ATOM     24  C   UNL     1      -7.206  -8.530  18.113  1.00  0.00     0.012 C 
ATOM     25  C   UNL     1      -9.282  -7.620  15.734  1.00  0.00    -0.006 C 
ATOM     26  C   UNL     1      -8.485 -10.075  15.681  1.00  0.00     0.033 C 
ATOM     27  C   UNL     1      -9.326  -8.987  14.984  1.00  0.00     0.120 C 
ATOM     28  C   UNL     1     -10.071  -7.718  17.086  1.00  0.00     0.014 C 
ATOM     29  C   UNL     1     -10.075  -6.555  14.904  1.00  0.00     0.014 C 
ENDROOT
BRANCH   1  30
ATOM     30  C   UNL     1      -0.254  -6.297  14.377  1.00  0.00     0.048 C 
ATOM     31  O   UNL     1       0.498  -5.626  13.621  1.00  0.00    -0.550 OA
ATOM     32  O   UNL     1      -0.980  -5.626  15.350  1.00  0.00    -0.550 OA
ENDBRANCH   1  30
BRANCH  27  33
ATOM     33  O   UNL     1      -8.873  -8.835  13.661  1.00  0.00    -0.393 OA
ATOM     34  H   UNL     1      -9.224  -9.606  13.142  1.00  0.00     0.210 HD
ENDBRANCH  27  33
TORSDOF 2
ENDMDL
MODEL 9
REMARK VINA RESULT:    -7.702      3.764      6.607
REMARK INTER + INTRA:          -7.742
REMARK INTER:                  -8.361
REMARK INTRA:                   0.620
REMARK UNBOUND:                 0.636
REMARK SMILES C[C@H]1[C@H]2C3=CC[C@@H]4[C@]5(C)CC[C@H](O)C(C)(C)[C@@H]5CC[C@]4(C)[C@@]3(C)CC[C@]2(C(=O)[O-])CC[C@@H]1C
REMARK SMILES IDX 26 1 30 2 25 3 3 4 31 5 24 6 4 7 2 8 32 9 22 10 5 11 1 12
REMARK SMILES IDX 33 13 23 14 20 15 6 16 7 17 19 18 21 19 8 20 18 21 17 22
REMARK SMILES IDX 10 23 9 24 14 25 11 26 12 27 15 28 16 29 27 30 28 31 29 32
REMARK SMILES IDX 13 33
REMARK H PARENT 13 34
REMARK Flexibility Score: inf
ROOT
ATOM      1  C   UNL     1      -2.990  -8.840  13.465  1.00  0.00     0.017 C 
ATOM      2  C   UNL     1      -1.889  -9.883  13.119  1.00  0.00     0.014 C 
ATOM      3  C   UNL     1      -4.184  -9.078  12.512  1.00  0.00     0.014 C 
ATOM      4  C   UNL     1      -3.465  -9.095  14.935  1.00  0.00     0.030 C 
ATOM      5  C   UNL     1      -0.697  -9.816  14.084  1.00  0.00     0.004 C 
ATOM      6  C   UNL     1      -5.362  -8.144  12.821  1.00  0.00     0.013 C 
ATOM      7  C   UNL     1      -4.768  -8.346  15.310  1.00  0.00    -0.063 C 
ATOM      8  C   UNL     1      -2.283  -9.076  15.975  1.00  0.00    -0.003 C 
ATOM      9  C   UNL     1      -1.114 -10.018  15.554  1.00  0.00    -0.011 C 
ATOM     10  C   UNL     1      -5.916  -8.253  14.288  1.00  0.00    -0.006 C 
ATOM     11  C   UNL     1      -5.072  -8.112  16.609  1.00  0.00    -0.027 C 
ATOM     12  C   UNL     1      -1.751  -7.669  16.312  1.00  0.00     0.008 C 
ATOM     13  C   UNL     1      -1.427 -11.497  15.851  1.00  0.00     0.008 C 
ATOM     14  C   UNL     1      -6.688  -9.607  14.357  1.00  0.00     0.017 C 
ATOM     15  C   UNL     1      -6.842  -6.976  14.652  1.00  0.00    -0.020 C 
ATOM     16  C   UNL     1      -6.477  -7.881  17.095  1.00  0.00     0.032 C 
ATOM     17  C   UNL     1      -7.355  -6.997  16.160  1.00  0.00     0.006 C 
ATOM     18  C   UNL     1      -8.032  -6.863  13.665  1.00  0.00     0.008 C 
ATOM     19  C   UNL     1      -6.010  -5.650  14.493  1.00  0.00     0.012 C 
ATOM     20  C   UNL     1      -8.932  -7.103  16.413  1.00  0.00    -0.025 C 
ATOM     21  C   UNL     1      -9.092  -5.850  14.087  1.00  0.00     0.005 C 
ATOM     22  C   UNL     1      -9.691  -6.011  15.533  1.00  0.00     0.003 C 
ATOM     23  C   UNL     1      -9.505  -8.526  16.124  1.00  0.00     0.010 C 
ATOM     24  C   UNL     1      -9.145  -6.808  17.935  1.00  0.00     0.012 C 
ATOM     25  C   UNL     1     -11.290  -6.119  15.544  1.00  0.00    -0.006 C 
ATOM     26  C   UNL     1     -11.038  -8.610  16.173  1.00  0.00     0.033 C 
ATOM     27  C   UNL     1     -11.722  -7.588  15.243  1.00  0.00     0.120 C 
ATOM     28  C   UNL     1     -11.890  -5.649  16.914  1.00  0.00     0.014 C 
ATOM     29  C   UNL     1     -11.949  -5.167  14.489  1.00  0.00     0.014 C 
ENDROOT
BRANCH   1  30
ATOM     30  C   UNL     1      -2.458  -7.428  13.226  1.00  0.00     0.048 C 
ATOM     31  O   UNL     1      -1.718  -7.185  12.235  1.00  0.00    -0.550 OA
ATOM     32  O   UNL     1      -2.861  -6.367  14.024  1.00  0.00    -0.550 OA
ENDBRANCH   1  30
BRANCH  27  33
ATOM     33  O   UNL     1     -11.432  -7.920  13.907  1.00  0.00    -0.393 OA
ATOM     34  H   UNL     1     -10.629  -7.399  13.644  1.00  0.00     0.210 HD
ENDBRANCH  27  33
TORSDOF 2
ENDMDL
