MODEL 1
REMARK VINA RESULT:    -7.696      0.000      0.000
REMARK INTER + INTRA:         -14.460
REMARK INTER:                 -12.645
REMARK INTRA:                  -1.815
REMARK UNBOUND:                -1.815
REMARK SMILES C[C@H]1O[C@@H](OC[C@@H]2O[C@@H](Oc3c(-c4ccc(O)c(O)c4)oc4cc(O)cc(O)c4c3=O)[C@H](O)[C@@H](O)[C@H]2O)[C@H](O)[C@H](O)[C@H]1O
REMARK SMILES IDX 7 1 36 2 34 3 32 4 9 5 8 6 6 7 5 8 4 9 1 10 2 11 42 12 3 13
REMARK SMILES IDX 40 14 38 15 43 16 41 18 39 20 37 22 35 24 10 26 11 27 12 28
REMARK SMILES IDX 30 29 21 30 29 31 31 32 22 33 27 34 23 35 26 36 24 37 13 38
REMARK SMILES IDX 20 39 14 40 18 41 15 42 16 43 19 44 17 46 28 48 25 50 33 52
REMARK H PARENT 43 17 41 19 39 21 37 23 35 25 19 45 17 47 28 49 25 51 33 53
REMARK Flexibility Score: inf
ROOT
ATOM      1  C   UNL     1     -13.874 -33.986 -15.090  1.00  0.00     0.180 C 
ATOM      2  C   UNL     1     -14.648 -34.889 -14.101  1.00  0.00     0.177 C 
ATOM      3  C   UNL     1     -15.839 -34.119 -13.499  1.00  0.00     0.180 C 
ATOM      4  C   UNL     1     -15.426 -32.703 -13.016  1.00  0.00     0.214 C 
ATOM      5  C   UNL     1     -13.937 -32.404 -13.293  1.00  0.00     0.339 C 
ATOM      6  O   UNL     1     -13.601 -32.653 -14.642  1.00  0.00    -0.332 OA
ENDROOT
BRANCH   1   7
ATOM      7  C   UNL     1     -12.577 -34.638 -15.571  1.00  0.00     0.198 C 
BRANCH   7   8
ATOM      8  O   UNL     1     -11.753 -34.965 -14.469  1.00  0.00    -0.347 OA
BRANCH   8   9
ATOM      9  C   UNL     1     -10.430 -34.478 -14.654  1.00  0.00     0.281 C 
ATOM     10  C   UNL     1     -10.524 -37.124 -13.033  1.00  0.00     0.041 C 
ATOM     11  C   UNL     1      -9.344 -36.192 -13.378  1.00  0.00     0.150 C 
ATOM     12  C   UNL     1      -8.964 -35.202 -12.255  1.00  0.00     0.174 C 
ATOM     13  O   UNL     1      -9.499 -35.559 -14.643  1.00  0.00    -0.344 OA
ATOM     14  C   UNL     1      -9.944 -34.012 -12.211  1.00  0.00     0.179 C 
ATOM     15  C   UNL     1     -10.082 -33.398 -13.605  1.00  0.00     0.202 C 
BRANCH  12  16
ATOM     16  O   UNL     1      -8.946 -35.868 -11.018  1.00  0.00    -0.388 OA
ATOM     17  H   UNL     1      -8.394 -35.318 -10.404  1.00  0.00     0.211 HD
ENDBRANCH  12  16
BRANCH  14  18
ATOM     18  O   UNL     1      -9.453 -33.038 -11.322  1.00  0.00    -0.387 OA
ATOM     19  H   UNL     1      -8.507 -32.861 -11.573  1.00  0.00     0.211 HD
ENDBRANCH  14  18
BRANCH  15  20
ATOM     20  O   UNL     1      -8.878 -32.761 -13.955  1.00  0.00    -0.385 OA
ATOM     21  H   UNL     1      -8.325 -33.433 -14.432  1.00  0.00     0.211 HD
ENDBRANCH  15  20
ENDBRANCH   8   9
ENDBRANCH   7   8
ENDBRANCH   1   7
BRANCH   2  22
ATOM     22  O   UNL     1     -15.101 -36.050 -14.759  1.00  0.00    -0.387 OA
ATOM     23  H   UNL     1     -15.151 -36.768 -14.079  1.00  0.00     0.211 HD
ENDBRANCH   2  22
BRANCH   3  24
ATOM     24  O   UNL     1     -16.917 -34.061 -14.402  1.00  0.00    -0.387 OA
ATOM     25  H   UNL     1     -16.651 -33.476 -15.168  1.00  0.00     0.211 HD
ENDBRANCH   3  24
BRANCH   5  26
ATOM     26  O   UNL     1     -13.592 -31.057 -12.948  1.00  0.00    -0.454 OA
BRANCH  26  27
ATOM     27  C   UNL     1     -13.067 -30.637 -11.713  1.00  0.00     0.214 A 
ATOM     28  C   UNL     1     -13.123 -29.272 -11.361  1.00  0.00     0.180 A 
ATOM     29  C   UNL     1     -12.470 -31.539 -10.814  1.00  0.00     0.239 A 
ATOM     30  O   UNL     1     -12.596 -28.863 -10.211  1.00  0.00    -0.452 OA
ATOM     31  C   UNL     1     -11.891 -31.058  -9.619  1.00  0.00     0.111 A 
ATOM     32  O   UNL     1     -12.446 -32.772 -11.091  1.00  0.00    -0.285 OA
ATOM     33  C   UNL     1     -11.998 -29.676  -9.350  1.00  0.00     0.146 A 
ATOM     34  C   UNL     1     -11.192 -31.881  -8.705  1.00  0.00     0.134 A 
ATOM     35  C   UNL     1     -11.454 -29.141  -8.173  1.00  0.00     0.094 A 
ATOM     36  C   UNL     1     -10.623 -31.323  -7.551  1.00  0.00     0.093 A 
ATOM     37  C   UNL     1     -10.756 -29.956  -7.281  1.00  0.00     0.123 A 
BRANCH  28  38
ATOM     38  C   UNL     1     -13.640 -28.227 -12.284  1.00  0.00     0.025 A 
ATOM     39  C   UNL     1     -12.972 -27.859 -13.473  1.00  0.00     0.062 A 
ATOM     40  C   UNL     1     -14.799 -27.517 -11.909  1.00  0.00     0.016 A 
ATOM     41  C   UNL     1     -13.420 -26.765 -14.231  1.00  0.00     0.158 A 
ATOM     42  C   UNL     1     -15.233 -26.421 -12.654  1.00  0.00     0.051 A 
ATOM     43  C   UNL     1     -14.545 -26.031 -13.810  1.00  0.00     0.157 A 
BRANCH  41  44
ATOM     44  O   UNL     1     -12.717 -26.399 -15.380  1.00  0.00    -0.504 OA
ATOM     45  H   UNL     1     -12.806 -26.911 -16.250  1.00  0.00     0.293 HD
ENDBRANCH  41  44
BRANCH  43  46
ATOM     46  O   UNL     1     -14.969 -24.905 -14.522  1.00  0.00    -0.504 OA
ATOM     47  H   UNL     1     -14.408 -24.515 -15.278  1.00  0.00     0.293 HD
ENDBRANCH  43  46
ENDBRANCH  28  38
BRANCH  34  48
ATOM     48  O   UNL     1     -11.034 -33.243  -8.956  1.00  0.00    -0.507 OA
ATOM     49  H   UNL     1     -11.010 -33.629  -9.894  1.00  0.00     0.293 HD
ENDBRANCH  34  48
BRANCH  37  50
ATOM     50  O   UNL     1     -10.200 -29.426  -6.121  1.00  0.00    -0.508 OA
ATOM     51  H   UNL     1      -9.213 -29.518  -5.916  1.00  0.00     0.293 HD
ENDBRANCH  37  50
ENDBRANCH  26  27
ENDBRANCH   5  26
BRANCH   4  52
ATOM     52  O   UNL     1     -15.654 -32.593 -11.631  1.00  0.00    -0.384 OA
ATOM     53  H   UNL     1     -16.281 -31.841 -11.488  1.00  0.00     0.211 HD
ENDBRANCH   4  52
TORSDOF 16
ENDMDL
MODEL 2
REMARK VINA RESULT:    -7.441      1.581      6.264
REMARK INTER + INTRA:         -14.041
REMARK INTER:                 -14.183
REMARK INTRA:                   0.142
REMARK UNBOUND:                -1.815
REMARK SMILES C[C@H]1O[C@@H](OC[C@@H]2O[C@@H](Oc3c(-c4ccc(O)c(O)c4)oc4cc(O)cc(O)c4c3=O)[C@H](O)[C@@H](O)[C@H]2O)[C@H](O)[C@H](O)[C@H]1O
REMARK SMILES IDX 7 1 36 2 34 3 32 4 9 5 8 6 6 7 5 8 4 9 1 10 2 11 42 12 3 13
REMARK SMILES IDX 40 14 38 15 43 16 41 18 39 20 37 22 35 24 10 26 11 27 12 28
REMARK SMILES IDX 30 29 21 30 29 31 31 32 22 33 27 34 23 35 26 36 24 37 13 38
REMARK SMILES IDX 20 39 14 40 18 41 15 42 16 43 19 44 17 46 28 48 25 50 33 52
REMARK H PARENT 43 17 41 19 39 21 37 23 35 25 19 45 17 47 28 49 25 51 33 53
REMARK Flexibility Score: inf
ROOT
ATOM      1  C   UNL     1     -10.925 -34.644 -13.300  1.00  0.00     0.180 C 
ATOM      2  C   UNL     1      -9.391 -34.741 -13.118  1.00  0.00     0.177 C 
ATOM      3  C   UNL     1      -9.047 -34.973 -11.635  1.00  0.00     0.180 C 
ATOM      4  C   UNL     1      -9.827 -34.009 -10.702  1.00  0.00     0.214 C 
ATOM      5  C   UNL     1     -10.782 -33.084 -11.489  1.00  0.00     0.339 C 
ATOM      6  O   UNL     1     -11.619 -33.821 -12.356  1.00  0.00    -0.332 OA
ENDROOT
BRANCH   1   7
ATOM      7  C   UNL     1     -11.310 -34.227 -14.720  1.00  0.00     0.198 C 
BRANCH   7   8
ATOM      8  O   UNL     1     -12.369 -35.032 -15.198  1.00  0.00    -0.347 OA
BRANCH   8   9
ATOM      9  C   UNL     1     -13.161 -35.530 -14.127  1.00  0.00     0.281 C 
ATOM     10  C   UNL     1     -14.091 -36.577 -16.896  1.00  0.00     0.041 C 
ATOM     11  C   UNL     1     -14.702 -36.757 -15.491  1.00  0.00     0.150 C 
ATOM     12  C   UNL     1     -15.858 -35.785 -15.170  1.00  0.00     0.174 C 
ATOM     13  O   UNL     1     -13.715 -36.800 -14.468  1.00  0.00    -0.344 OA
ATOM     14  C   UNL     1     -15.320 -34.387 -14.801  1.00  0.00     0.179 C 
ATOM     15  C   UNL     1     -14.249 -34.510 -13.717  1.00  0.00     0.202 C 
BRANCH  12  16
ATOM     16  O   UNL     1     -16.730 -35.701 -16.268  1.00  0.00    -0.388 OA
ATOM     17  H   UNL     1     -16.204 -35.950 -17.071  1.00  0.00     0.211 HD
ENDBRANCH  12  16
BRANCH  14  18
ATOM     18  O   UNL     1     -16.378 -33.594 -14.319  1.00  0.00    -0.387 OA
ATOM     19  H   UNL     1     -16.404 -33.708 -13.331  1.00  0.00     0.211 HD
ENDBRANCH  14  18
BRANCH  15  20
ATOM     20  O   UNL     1     -14.849 -34.911 -12.510  1.00  0.00    -0.385 OA
ATOM     21  H   UNL     1     -15.102 -35.864 -12.617  1.00  0.00     0.211 HD
ENDBRANCH  15  20
ENDBRANCH   8   9
ENDBRANCH   7   8
ENDBRANCH   1   7
BRANCH   2  22
ATOM     22  O   UNL     1      -8.875 -35.788 -13.908  1.00  0.00    -0.387 OA
ATOM     23  H   UNL     1      -9.439 -36.584 -13.739  1.00  0.00     0.211 HD
ENDBRANCH   2  22
BRANCH   3  24
ATOM     24  O   UNL     1      -9.248 -36.317 -11.269  1.00  0.00    -0.387 OA
ATOM     25  H   UNL     1      -8.822 -36.896 -11.963  1.00  0.00     0.211 HD
ENDBRANCH   3  24
BRANCH   5  26
ATOM     26  O   UNL     1     -11.581 -32.278 -10.614  1.00  0.00    -0.454 OA
BRANCH  26  27
ATOM     27  C   UNL     1     -12.073 -30.993 -10.908  1.00  0.00     0.214 A 
ATOM     28  C   UNL     1     -11.698 -29.902 -10.096  1.00  0.00     0.180 A 
ATOM     29  C   UNL     1     -12.946 -30.760 -11.986  1.00  0.00     0.239 A 
ATOM     30  O   UNL     1     -12.188 -28.691 -10.346  1.00  0.00    -0.452 OA
ATOM     31  C   UNL     1     -13.471 -29.467 -12.195  1.00  0.00     0.111 A 
ATOM     32  O   UNL     1     -13.263 -31.716 -12.749  1.00  0.00    -0.285 OA
ATOM     33  C   UNL     1     -13.036 -28.436 -11.334  1.00  0.00     0.146 A 
ATOM     34  C   UNL     1     -14.424 -29.164 -13.197  1.00  0.00     0.134 A 
ATOM     35  C   UNL     1     -13.512 -27.127 -11.500  1.00  0.00     0.094 A 
ATOM     36  C   UNL     1     -14.916 -27.858 -13.326  1.00  0.00     0.093 A 
ATOM     37  C   UNL     1     -14.460 -26.837 -12.482  1.00  0.00     0.123 A 
BRANCH  28  38
ATOM     38  C   UNL     1     -10.863 -30.061  -8.875  1.00  0.00     0.025 A 
ATOM     39  C   UNL     1     -10.729 -31.292  -8.196  1.00  0.00     0.062 A 
ATOM     40  C   UNL     1     -10.252 -28.914  -8.329  1.00  0.00     0.016 A 
ATOM     41  C   UNL     1     -10.053 -31.356  -6.966  1.00  0.00     0.158 A 
ATOM     42  C   UNL     1      -9.596 -28.976  -7.100  1.00  0.00     0.051 A 
ATOM     43  C   UNL     1      -9.500 -30.189  -6.407  1.00  0.00     0.157 A 
BRANCH  41  44
ATOM     44  O   UNL     1      -9.971 -32.578  -6.298  1.00  0.00    -0.504 OA
ATOM     45  H   UNL     1     -10.796 -33.075  -5.983  1.00  0.00     0.293 HD
ENDBRANCH  41  44
BRANCH  43  46
ATOM     46  O   UNL     1      -8.875 -30.225  -5.157  1.00  0.00    -0.504 OA
ATOM     47  H   UNL     1      -8.093 -29.609  -4.939  1.00  0.00     0.293 HD
ENDBRANCH  43  46
ENDBRANCH  28  38
BRANCH  34  48
ATOM     48  O   UNL     1     -14.904 -30.164 -14.042  1.00  0.00    -0.507 OA
ATOM     49  H   UNL     1     -14.345 -30.964 -14.318  1.00  0.00     0.293 HD
ENDBRANCH  34  48
BRANCH  37  50
ATOM     50  O   UNL     1     -14.948 -25.545 -12.640  1.00  0.00    -0.508 OA
ATOM     51  H   UNL     1     -14.506 -24.753 -12.190  1.00  0.00     0.293 HD
ENDBRANCH  37  50
ENDBRANCH  26  27
ENDBRANCH   5  26
BRANCH   4  52
ATOM     52  O   UNL     1      -8.918 -33.207  -9.986  1.00  0.00    -0.384 OA
ATOM     53  H   UNL     1      -8.069 -33.711  -9.909  1.00  0.00     0.211 HD
ENDBRANCH   4  52
TORSDOF 16
ENDMDL
MODEL 3
REMARK VINA RESULT:    -7.290      2.019      7.150
REMARK INTER + INTRA:         -13.793
REMARK INTER:                 -11.511
REMARK INTRA:                  -2.281
REMARK UNBOUND:                -1.815
REMARK SMILES C[C@H]1O[C@@H](OC[C@@H]2O[C@@H](Oc3c(-c4ccc(O)c(O)c4)oc4cc(O)cc(O)c4c3=O)[C@H](O)[C@@H](O)[C@H]2O)[C@H](O)[C@H](O)[C@H]1O
REMARK SMILES IDX 7 1 36 2 34 3 32 4 9 5 8 6 6 7 5 8 4 9 1 10 2 11 42 12 3 13
REMARK SMILES IDX 40 14 38 15 43 16 41 18 39 20 37 22 35 24 10 26 11 27 12 28
REMARK SMILES IDX 30 29 21 30 29 31 31 32 22 33 27 34 23 35 26 36 24 37 13 38
REMARK SMILES IDX 20 39 14 40 18 41 15 42 16 43 19 44 17 46 28 48 25 50 33 52
REMARK H PARENT 43 17 41 19 39 21 37 23 35 25 19 45 17 47 28 49 25 51 33 53
REMARK Flexibility Score: inf
ROOT
ATOM      1  C   UNL     1      -9.246 -32.277 -10.333  1.00  0.00     0.180 C 
ATOM      2  C   UNL     1      -9.874 -33.345  -9.406  1.00  0.00     0.177 C 
ATOM      3  C   UNL     1     -10.365 -34.545 -10.236  1.00  0.00     0.180 C 
ATOM      4  C   UNL     1     -11.181 -34.095 -11.477  1.00  0.00     0.214 C 
ATOM      5  C   UNL     1     -11.263 -32.557 -11.592  1.00  0.00     0.339 C 
ATOM      6  O   UNL     1      -9.984 -31.963 -11.519  1.00  0.00    -0.332 OA
ENDROOT
BRANCH   1   7
ATOM      7  C   UNL     1      -8.913 -30.987  -9.582  1.00  0.00     0.198 C 
BRANCH   7   8
ATOM      8  O   UNL     1      -9.346 -31.074  -8.239  1.00  0.00    -0.347 OA
BRANCH   8   9
ATOM      9  C   UNL     1      -9.318 -29.802  -7.606  1.00  0.00     0.281 C 
ATOM     10  C   UNL     1     -12.202 -30.867  -8.036  1.00  0.00     0.041 C 
ATOM     11  C   UNL     1     -11.695 -29.513  -7.499  1.00  0.00     0.150 C 
ATOM     12  C   UNL     1     -11.667 -28.380  -8.549  1.00  0.00     0.174 C 
ATOM     13  O   UNL     1     -10.471 -29.632  -6.782  1.00  0.00    -0.344 OA
ATOM     14  C   UNL     1     -10.444 -28.516  -9.478  1.00  0.00     0.179 C 
ATOM     15  C   UNL     1      -9.170 -28.665  -8.644  1.00  0.00     0.202 C 
BRANCH  12  16
ATOM     16  O   UNL     1     -12.855 -28.396  -9.298  1.00  0.00    -0.388 OA
ATOM     17  H   UNL     1     -12.970 -27.485  -9.673  1.00  0.00     0.211 HD
ENDBRANCH  12  16
BRANCH  14  18
ATOM     18  O   UNL     1     -10.339 -27.365 -10.280  1.00  0.00    -0.387 OA
ATOM     19  H   UNL     1     -10.629 -27.619 -11.198  1.00  0.00     0.211 HD
ENDBRANCH  14  18
BRANCH  15  20
ATOM     20  O   UNL     1      -8.897 -27.452  -7.989  1.00  0.00    -0.385 OA
ATOM     21  H   UNL     1      -8.208 -27.645  -7.300  1.00  0.00     0.211 HD
ENDBRANCH  15  20
ENDBRANCH   8   9
ENDBRANCH   7   8
ENDBRANCH   1   7
BRANCH   2  22
ATOM     22  O   UNL     1      -8.930 -33.768  -8.448  1.00  0.00    -0.387 OA
ATOM     23  H   UNL     1      -8.213 -33.086  -8.426  1.00  0.00     0.211 HD
ENDBRANCH   2  22
BRANCH   3  24
ATOM     24  O   UNL     1      -9.297 -35.386 -10.600  1.00  0.00    -0.387 OA
ATOM     25  H   UNL     1      -9.676 -36.204 -11.030  1.00  0.00     0.211 HD
ENDBRANCH   3  24
BRANCH   5  26
ATOM     26  O   UNL     1     -11.919 -32.149 -12.799  1.00  0.00    -0.454 OA
BRANCH  26  27
ATOM     27  C   UNL     1     -13.019 -31.276 -12.877  1.00  0.00     0.214 A 
ATOM     28  C   UNL     1     -14.258 -31.758 -13.351  1.00  0.00     0.180 A 
ATOM     29  C   UNL     1     -12.922 -29.922 -12.509  1.00  0.00     0.239 A 
ATOM     30  O   UNL     1     -15.293 -30.930 -13.461  1.00  0.00    -0.452 OA
ATOM     31  C   UNL     1     -14.034 -29.068 -12.676  1.00  0.00     0.111 A 
ATOM     32  O   UNL     1     -11.834 -29.479 -12.045  1.00  0.00    -0.285 OA
ATOM     33  C   UNL     1     -15.233 -29.642 -13.153  1.00  0.00     0.146 A 
ATOM     34  C   UNL     1     -13.996 -27.678 -12.417  1.00  0.00     0.134 A 
ATOM     35  C   UNL     1     -16.377 -28.847 -13.327  1.00  0.00     0.094 A 
ATOM     36  C   UNL     1     -15.138 -26.893 -12.631  1.00  0.00     0.093 A 
ATOM     37  C   UNL     1     -16.329 -27.474 -13.082  1.00  0.00     0.123 A 
BRANCH  28  38
ATOM     38  C   UNL     1     -14.437 -33.145 -13.860  1.00  0.00     0.025 A 
ATOM     39  C   UNL     1     -13.553 -33.736 -14.790  1.00  0.00     0.062 A 
ATOM     40  C   UNL     1     -15.583 -33.861 -13.460  1.00  0.00     0.016 A 
ATOM     41  C   UNL     1     -13.850 -34.990 -15.353  1.00  0.00     0.158 A 
ATOM     42  C   UNL     1     -15.883 -35.097 -14.031  1.00  0.00     0.051 A 
ATOM     43  C   UNL     1     -15.028 -35.664 -14.986  1.00  0.00     0.157 A 
BRANCH  41  44
ATOM     44  O   UNL     1     -12.980 -35.532 -16.299  1.00  0.00    -0.504 OA
ATOM     45  H   UNL     1     -12.939 -35.187 -17.251  1.00  0.00     0.293 HD
ENDBRANCH  41  44
BRANCH  43  46
ATOM     46  O   UNL     1     -15.366 -36.885 -15.579  1.00  0.00    -0.504 OA
ATOM     47  H   UNL     1     -15.985 -36.926 -16.387  1.00  0.00     0.293 HD
ENDBRANCH  43  46
ENDBRANCH  28  38
BRANCH  34  48
ATOM     48  O   UNL     1     -12.819 -27.071 -11.980  1.00  0.00    -0.507 OA
ATOM     49  H   UNL     1     -12.765 -26.088 -11.739  1.00  0.00     0.293 HD
ENDBRANCH  34  48
BRANCH  37  50
ATOM     50  O   UNL     1     -17.455 -26.680 -13.269  1.00  0.00    -0.508 OA
ATOM     51  H   UNL     1     -18.263 -27.016 -13.778  1.00  0.00     0.293 HD
ENDBRANCH  37  50
ENDBRANCH  26  27
ENDBRANCH   5  26
BRANCH   4  52
ATOM     52  O   UNL     1     -12.490 -34.608 -11.392  1.00  0.00    -0.384 OA
ATOM     53  H   UNL     1     -12.421 -35.586 -11.263  1.00  0.00     0.211 HD
ENDBRANCH   4  52
TORSDOF 16
ENDMDL
MODEL 4
REMARK VINA RESULT:    -7.183      2.264      6.234
REMARK INTER + INTRA:         -13.617
REMARK INTER:                 -12.165
REMARK INTRA:                  -1.452
REMARK UNBOUND:                -1.815
REMARK SMILES C[C@H]1O[C@@H](OC[C@@H]2O[C@@H](Oc3c(-c4ccc(O)c(O)c4)oc4cc(O)cc(O)c4c3=O)[C@H](O)[C@@H](O)[C@H]2O)[C@H](O)[C@H](O)[C@H]1O
REMARK SMILES IDX 7 1 36 2 34 3 32 4 9 5 8 6 6 7 5 8 4 9 1 10 2 11 42 12 3 13
REMARK SMILES IDX 40 14 38 15 43 16 41 18 39 20 37 22 35 24 10 26 11 27 12 28
REMARK SMILES IDX 30 29 21 30 29 31 31 32 22 33 27 34 23 35 26 36 24 37 13 38
REMARK SMILES IDX 20 39 14 40 18 41 15 42 16 43 19 44 17 46 28 48 25 50 33 52
REMARK H PARENT 43 17 41 19 39 21 37 23 35 25 19 45 17 47 28 49 25 51 33 53
REMARK Flexibility Score: inf
ROOT
ATOM      1  C   UNL     1     -13.079 -29.315  -9.013  1.00  0.00     0.180 C 
ATOM      2  C   UNL     1     -12.582 -27.857  -8.869  1.00  0.00     0.177 C 
ATOM      3  C   UNL     1     -13.128 -26.993 -10.021  1.00  0.00     0.180 C 
ATOM      4  C   UNL     1     -12.948 -27.686 -11.398  1.00  0.00     0.214 C 
ATOM      5  C   UNL     1     -12.303 -29.084 -11.267  1.00  0.00     0.339 C 
ATOM      6  O   UNL     1     -12.987 -29.883 -10.325  1.00  0.00    -0.332 OA
ENDROOT
BRANCH   1   7
ATOM      7  C   UNL     1     -12.415 -30.252  -8.003  1.00  0.00     0.198 C 
BRANCH   7   8
ATOM      8  O   UNL     1     -11.189 -29.706  -7.559  1.00  0.00    -0.347 OA
BRANCH   8   9
ATOM      9  C   UNL     1     -10.273 -30.730  -7.194  1.00  0.00     0.281 C 
ATOM     10  C   UNL     1      -9.499 -29.311  -9.844  1.00  0.00     0.041 C 
ATOM     11  C   UNL     1      -8.876 -30.528  -9.131  1.00  0.00     0.150 C 
ATOM     12  C   UNL     1      -9.337 -31.895  -9.683  1.00  0.00     0.174 C 
ATOM     13  O   UNL     1      -8.975 -30.442  -7.714  1.00  0.00    -0.344 OA
ATOM     14  C   UNL     1     -10.742 -32.258  -9.161  1.00  0.00     0.179 C 
ATOM     15  C   UNL     1     -10.784 -32.120  -7.638  1.00  0.00     0.202 C 
BRANCH  12  16
ATOM     16  O   UNL     1      -9.327 -31.871 -11.087  1.00  0.00    -0.388 OA
ATOM     17  H   UNL     1      -8.920 -31.007 -11.356  1.00  0.00     0.211 HD
ENDBRANCH  12  16
BRANCH  14  18
ATOM     18  O   UNL     1     -11.040 -33.587  -9.513  1.00  0.00    -0.387 OA
ATOM     19  H   UNL     1     -12.028 -33.690  -9.468  1.00  0.00     0.211 HD
ENDBRANCH  14  18
BRANCH  15  20
ATOM     20  O   UNL     1      -9.995 -33.128  -7.056  1.00  0.00    -0.385 OA
ATOM     21  H   UNL     1      -9.612 -32.749  -6.222  1.00  0.00     0.211 HD
ENDBRANCH  15  20
ENDBRANCH   8   9
ENDBRANCH   7   8
ENDBRANCH   1   7
BRANCH   2  22
ATOM     22  O   UNL     1     -12.990 -27.327  -7.627  1.00  0.00    -0.387 OA
ATOM     23  H   UNL     1     -12.903 -26.343  -7.689  1.00  0.00     0.211 HD
ENDBRANCH   2  22
BRANCH   3  24
ATOM     24  O   UNL     1     -14.470 -26.634  -9.798  1.00  0.00    -0.387 OA
ATOM     25  H   UNL     1     -15.035 -27.449  -9.919  1.00  0.00     0.211 HD
ENDBRANCH   3  24
BRANCH   5  26
ATOM     26  O   UNL     1     -12.244 -29.762 -12.527  1.00  0.00    -0.454 OA
BRANCH  26  27
ATOM     27  C   UNL     1     -13.178 -30.706 -12.992  1.00  0.00     0.214 A 
ATOM     28  C   UNL     1     -14.315 -30.266 -13.703  1.00  0.00     0.180 A 
ATOM     29  C   UNL     1     -13.024 -32.084 -12.758  1.00  0.00     0.239 A 
ATOM     30  O   UNL     1     -15.221 -31.149 -14.114  1.00  0.00    -0.452 OA
ATOM     31  C   UNL     1     -14.026 -32.984 -13.180  1.00  0.00     0.111 A 
ATOM     32  O   UNL     1     -11.993 -32.502 -12.158  1.00  0.00    -0.285 OA
ATOM     33  C   UNL     1     -15.126 -32.452 -13.888  1.00  0.00     0.146 A 
ATOM     34  C   UNL     1     -13.994 -34.372 -12.906  1.00  0.00     0.134 A 
ATOM     35  C   UNL     1     -16.148 -33.299 -14.345  1.00  0.00     0.094 A 
ATOM     36  C   UNL     1     -15.042 -35.197 -13.339  1.00  0.00     0.093 A 
ATOM     37  C   UNL     1     -16.117 -34.665 -14.061  1.00  0.00     0.123 A 
BRANCH  28  38
ATOM     38  C   UNL     1     -14.622 -28.826 -13.914  1.00  0.00     0.025 A 
ATOM     39  C   UNL     1     -13.833 -27.989 -14.734  1.00  0.00     0.062 A 
ATOM     40  C   UNL     1     -15.694 -28.259 -13.195  1.00  0.00     0.016 A 
ATOM     41  C   UNL     1     -14.077 -26.606 -14.781  1.00  0.00     0.158 A 
ATOM     42  C   UNL     1     -15.924 -26.884 -13.230  1.00  0.00     0.051 A 
ATOM     43  C   UNL     1     -15.114 -26.049 -14.011  1.00  0.00     0.157 A 
BRANCH  41  44
ATOM     44  O   UNL     1     -13.257 -25.798 -15.568  1.00  0.00    -0.504 OA
ATOM     45  H   UNL     1     -12.365 -25.450 -15.235  1.00  0.00     0.293 HD
ENDBRANCH  41  44
BRANCH  43  46
ATOM     46  O   UNL     1     -15.332 -24.668 -14.002  1.00  0.00    -0.504 OA
ATOM     47  H   UNL     1     -14.744 -24.036 -14.542  1.00  0.00     0.293 HD
ENDBRANCH  43  46
ENDBRANCH  28  38
BRANCH  34  48
ATOM     48  O   UNL     1     -12.942 -34.925 -12.177  1.00  0.00    -0.507 OA
ATOM     49  H   UNL     1     -12.360 -35.675 -12.537  1.00  0.00     0.293 HD
ENDBRANCH  34  48
BRANCH  37  50
ATOM     50  O   UNL     1     -17.136 -35.504 -14.497  1.00  0.00    -0.508 OA
ATOM     51  H   UNL     1     -17.875 -35.808 -13.877  1.00  0.00     0.293 HD
ENDBRANCH  37  50
ENDBRANCH  26  27
ENDBRANCH   5  26
BRANCH   4  52
ATOM     52  O   UNL     1     -12.128 -26.891 -12.222  1.00  0.00    -0.384 OA
ATOM     53  H   UNL     1     -11.200 -27.222 -12.131  1.00  0.00     0.211 HD
ENDBRANCH   4  52
TORSDOF 16
ENDMDL
MODEL 5
REMARK VINA RESULT:    -7.078      1.906      5.732
REMARK INTER + INTRA:         -13.444
REMARK INTER:                 -11.309
REMARK INTRA:                  -2.136
REMARK UNBOUND:                -1.815
REMARK SMILES C[C@H]1O[C@@H](OC[C@@H]2O[C@@H](Oc3c(-c4ccc(O)c(O)c4)oc4cc(O)cc(O)c4c3=O)[C@H](O)[C@@H](O)[C@H]2O)[C@H](O)[C@H](O)[C@H]1O
REMARK SMILES IDX 7 1 36 2 34 3 32 4 9 5 8 6 6 7 5 8 4 9 1 10 2 11 42 12 3 13
REMARK SMILES IDX 40 14 38 15 43 16 41 18 39 20 37 22 35 24 10 26 11 27 12 28
REMARK SMILES IDX 30 29 21 30 29 31 31 32 22 33 27 34 23 35 26 36 24 37 13 38
REMARK SMILES IDX 20 39 14 40 18 41 15 42 16 43 19 44 17 46 28 48 25 50 33 52
REMARK H PARENT 43 17 41 19 39 21 37 23 35 25 19 45 17 47 28 49 25 51 33 53
REMARK Flexibility Score: inf
ROOT
ATOM      1  C   UNL     1     -15.341 -30.602 -13.961  1.00  0.00     0.180 C 
ATOM      2  C   UNL     1     -15.836 -29.339 -13.218  1.00  0.00     0.177 C 
ATOM      3  C   UNL     1     -14.850 -28.176 -13.433  1.00  0.00     0.180 C 
ATOM      4  C   UNL     1     -13.378 -28.617 -13.210  1.00  0.00     0.214 C 
ATOM      5  C   UNL     1     -13.267 -30.118 -12.866  1.00  0.00     0.339 C 
ATOM      6  O   UNL     1     -13.952 -30.918 -13.807  1.00  0.00    -0.332 OA
ENDROOT
BRANCH   1   7
ATOM      7  C   UNL     1     -16.184 -31.834 -13.625  1.00  0.00     0.198 C 
BRANCH   7   8
ATOM      8  O   UNL     1     -15.588 -32.998 -14.164  1.00  0.00    -0.347 OA
BRANCH   8   9
ATOM      9  C   UNL     1     -15.690 -34.092 -13.261  1.00  0.00     0.281 C 
ATOM     10  C   UNL     1     -13.561 -34.551 -15.473  1.00  0.00     0.041 C 
ATOM     11  C   UNL     1     -14.084 -35.488 -14.365  1.00  0.00     0.150 C 
ATOM     12  C   UNL     1     -15.173 -36.480 -14.830  1.00  0.00     0.174 C 
ATOM     13  O   UNL     1     -14.445 -34.786 -13.181  1.00  0.00    -0.344 OA
ATOM     14  C   UNL     1     -16.544 -35.783 -14.945  1.00  0.00     0.179 C 
ATOM     15  C   UNL     1     -16.856 -35.030 -13.651  1.00  0.00     0.202 C 
BRANCH  12  16
ATOM     16  O   UNL     1     -14.807 -37.046 -16.062  1.00  0.00    -0.388 OA
ATOM     17  H   UNL     1     -13.925 -37.480 -15.927  1.00  0.00     0.211 HD
ENDBRANCH  12  16
BRANCH  14  18
ATOM     18  O   UNL     1     -17.540 -36.751 -15.168  1.00  0.00    -0.387 OA
ATOM     19  H   UNL     1     -17.274 -37.267 -15.976  1.00  0.00     0.211 HD
ENDBRANCH  14  18
BRANCH  15  20
ATOM     20  O   UNL     1     -17.092 -35.954 -12.618  1.00  0.00    -0.385 OA
ATOM     21  H   UNL     1     -16.842 -35.506 -11.768  1.00  0.00     0.211 HD
ENDBRANCH  15  20
ENDBRANCH   8   9
ENDBRANCH   7   8
ENDBRANCH   1   7
BRANCH   2  22
ATOM     22  O   UNL     1     -17.120 -28.980 -13.676  1.00  0.00    -0.387 OA
ATOM     23  H   UNL     1     -17.320 -28.084 -13.306  1.00  0.00     0.211 HD
ENDBRANCH   2  22
BRANCH   3  24
ATOM     24  O   UNL     1     -15.023 -27.587 -14.700  1.00  0.00    -0.387 OA
ATOM     25  H   UNL     1     -14.137 -27.244 -15.008  1.00  0.00     0.211 HD
ENDBRANCH   3  24
BRANCH   5  26
ATOM     26  O   UNL     1     -11.901 -30.542 -12.774  1.00  0.00    -0.454 OA
BRANCH  26  27
ATOM     27  C   UNL     1     -11.441 -31.674 -12.076  1.00  0.00     0.214 A 
ATOM     28  C   UNL     1     -11.109 -31.561 -10.710  1.00  0.00     0.180 A 
ATOM     29  C   UNL     1     -11.287 -32.923 -12.704  1.00  0.00     0.239 A 
ATOM     30  O   UNL     1     -10.640 -32.618 -10.053  1.00  0.00    -0.452 OA
ATOM     31  C   UNL     1     -10.751 -34.010 -11.981  1.00  0.00     0.111 A 
ATOM     32  O   UNL     1     -11.616 -33.055 -13.917  1.00  0.00    -0.285 OA
ATOM     33  C   UNL     1     -10.452 -33.804 -10.617  1.00  0.00     0.146 A 
ATOM     34  C   UNL     1     -10.478 -35.273 -12.558  1.00  0.00     0.134 A 
ATOM     35  C   UNL     1      -9.929 -34.851  -9.841  1.00  0.00     0.094 A 
ATOM     36  C   UNL     1      -9.923 -36.296 -11.778  1.00  0.00     0.093 A 
ATOM     37  C   UNL     1      -9.651 -36.090 -10.420  1.00  0.00     0.123 A 
BRANCH  28  38
ATOM     38  C   UNL     1     -11.140 -30.265  -9.981  1.00  0.00     0.025 A 
ATOM     39  C   UNL     1     -12.265 -29.829  -9.246  1.00  0.00     0.062 A 
ATOM     40  C   UNL     1     -10.033 -29.402 -10.104  1.00  0.00     0.016 A 
ATOM     41  C   UNL     1     -12.300 -28.534  -8.702  1.00  0.00     0.158 A 
ATOM     42  C   UNL     1     -10.076 -28.111  -9.578  1.00  0.00     0.051 A 
ATOM     43  C   UNL     1     -11.209 -27.665  -8.885  1.00  0.00     0.157 A 
BRANCH  41  44
ATOM     44  O   UNL     1     -13.440 -28.115  -8.015  1.00  0.00    -0.504 OA
ATOM     45  H   UNL     1     -13.659 -28.449  -7.084  1.00  0.00     0.293 HD
ENDBRANCH  41  44
BRANCH  43  46
ATOM     46  O   UNL     1     -11.252 -26.354  -8.400  1.00  0.00    -0.504 OA
ATOM     47  H   UNL     1     -10.417 -25.770  -8.380  1.00  0.00     0.293 HD
ENDBRANCH  43  46
ENDBRANCH  28  38
BRANCH  34  48
ATOM     48  O   UNL     1     -10.727 -35.501 -13.911  1.00  0.00    -0.507 OA
ATOM     49  H   UNL     1     -11.415 -36.172 -14.237  1.00  0.00     0.293 HD
ENDBRANCH  34  48
BRANCH  37  50
ATOM     50  O   UNL     1      -9.118 -37.124  -9.659  1.00  0.00    -0.508 OA
ATOM     51  H   UNL     1      -9.211 -38.092  -9.940  1.00  0.00     0.293 HD
ENDBRANCH  37  50
ENDBRANCH  26  27
ENDBRANCH   5  26
BRANCH   4  52
ATOM     52  O   UNL     1     -12.819 -27.873 -12.153  1.00  0.00    -0.384 OA
ATOM     53  H   UNL     1     -12.280 -27.144 -12.551  1.00  0.00     0.211 HD
ENDBRANCH   4  52
TORSDOF 16
ENDMDL
MODEL 6
REMARK VINA RESULT:    -6.986      1.549      6.439
REMARK INTER + INTRA:         -13.293
REMARK INTER:                 -12.416
REMARK INTRA:                  -0.877
REMARK UNBOUND:                -1.815
REMARK SMILES C[C@H]1O[C@@H](OC[C@@H]2O[C@@H](Oc3c(-c4ccc(O)c(O)c4)oc4cc(O)cc(O)c4c3=O)[C@H](O)[C@@H](O)[C@H]2O)[C@H](O)[C@H](O)[C@H]1O
REMARK SMILES IDX 7 1 36 2 34 3 32 4 9 5 8 6 6 7 5 8 4 9 1 10 2 11 42 12 3 13
REMARK SMILES IDX 40 14 38 15 43 16 41 18 39 20 37 22 35 24 10 26 11 27 12 28
REMARK SMILES IDX 30 29 21 30 29 31 31 32 22 33 27 34 23 35 26 36 24 37 13 38
REMARK SMILES IDX 20 39 14 40 18 41 15 42 16 43 19 44 17 46 28 48 25 50 33 52
REMARK H PARENT 43 17 41 19 39 21 37 23 35 25 19 45 17 47 28 49 25 51 33 53
REMARK Flexibility Score: inf
ROOT
ATOM      1  C   UNL     1     -11.426 -35.239 -12.425  1.00  0.00     0.180 C 
ATOM      2  C   UNL     1      -9.943 -34.914 -12.724  1.00  0.00     0.177 C 
ATOM      3  C   UNL     1      -9.232 -34.449 -11.440  1.00  0.00     0.180 C 
ATOM      4  C   UNL     1     -10.064 -33.388 -10.670  1.00  0.00     0.214 C 
ATOM      5  C   UNL     1     -11.413 -33.093 -11.362  1.00  0.00     0.339 C 
ATOM      6  O   UNL     1     -12.131 -34.280 -11.626  1.00  0.00    -0.332 OA
ENDROOT
BRANCH   1   7
ATOM      7  C   UNL     1     -12.222 -35.524 -13.700  1.00  0.00     0.198 C 
BRANCH   7   8
ATOM      8  O   UNL     1     -13.539 -35.024 -13.579  1.00  0.00    -0.347 OA
BRANCH   8   9
ATOM      9  C   UNL     1     -14.083 -34.696 -14.851  1.00  0.00     0.281 C 
ATOM     10  C   UNL     1     -15.819 -33.658 -12.496  1.00  0.00     0.041 C 
ATOM     11  C   UNL     1     -16.064 -33.635 -14.019  1.00  0.00     0.150 C 
ATOM     12  C   UNL     1     -16.968 -34.776 -14.536  1.00  0.00     0.174 C 
ATOM     13  O   UNL     1     -14.860 -33.502 -14.765  1.00  0.00    -0.344 OA
ATOM     14  C   UNL     1     -16.183 -36.100 -14.642  1.00  0.00     0.179 C 
ATOM     15  C   UNL     1     -14.892 -35.878 -15.432  1.00  0.00     0.202 C 
BRANCH  12  16
ATOM     16  O   UNL     1     -18.076 -34.930 -13.686  1.00  0.00    -0.388 OA
ATOM     17  H   UNL     1     -17.810 -35.577 -12.982  1.00  0.00     0.211 HD
ENDBRANCH  12  16
BRANCH  14  18
ATOM     18  O   UNL     1     -16.973 -37.057 -15.304  1.00  0.00    -0.387 OA
ATOM     19  H   UNL     1     -17.457 -36.585 -16.035  1.00  0.00     0.211 HD
ENDBRANCH  14  18
BRANCH  15  20
ATOM     20  O   UNL     1     -15.207 -35.626 -16.779  1.00  0.00    -0.385 OA
ATOM     21  H   UNL     1     -14.347 -35.493 -17.256  1.00  0.00     0.211 HD
ENDBRANCH  15  20
ENDBRANCH   8   9
ENDBRANCH   7   8
ENDBRANCH   1   7
BRANCH   2  22
ATOM     22  O   UNL     1      -9.298 -36.049 -13.255  1.00  0.00    -0.387 OA
ATOM     23  H   UNL     1      -9.268 -35.933 -14.238  1.00  0.00     0.211 HD
ENDBRANCH   2  22
BRANCH   3  24
ATOM     24  O   UNL     1      -8.902 -35.541 -10.615  1.00  0.00    -0.387 OA
ATOM     25  H   UNL     1      -9.752 -35.974 -10.316  1.00  0.00     0.211 HD
ENDBRANCH   3  24
BRANCH   5  26
ATOM     26  O   UNL     1     -12.222 -32.200 -10.587  1.00  0.00    -0.454 OA
BRANCH  26  27
ATOM     27  C   UNL     1     -12.640 -30.918 -10.989  1.00  0.00     0.214 A 
ATOM     28  C   UNL     1     -12.288 -29.796 -10.208  1.00  0.00     0.180 A 
ATOM     29  C   UNL     1     -13.415 -30.716 -12.145  1.00  0.00     0.239 A 
ATOM     30  O   UNL     1     -12.710 -28.585 -10.562  1.00  0.00    -0.452 OA
ATOM     31  C   UNL     1     -13.872 -29.419 -12.465  1.00  0.00     0.111 A 
ATOM     32  O   UNL     1     -13.707 -31.702 -12.879  1.00  0.00    -0.285 OA
ATOM     33  C   UNL     1     -13.466 -28.357 -11.627  1.00  0.00     0.146 A 
ATOM     34  C   UNL     1     -14.730 -29.141 -13.555  1.00  0.00     0.134 A 
ATOM     35  C   UNL     1     -13.877 -27.044 -11.901  1.00  0.00     0.094 A 
ATOM     36  C   UNL     1     -15.159 -27.828 -13.793  1.00  0.00     0.093 A 
ATOM     37  C   UNL     1     -14.733 -26.778 -12.971  1.00  0.00     0.123 A 
BRANCH  28  38
ATOM     38  C   UNL     1     -11.560 -29.914  -8.917  1.00  0.00     0.025 A 
ATOM     39  C   UNL     1     -10.606 -28.964  -8.489  1.00  0.00     0.062 A 
ATOM     40  C   UNL     1     -11.770 -31.066  -8.133  1.00  0.00     0.016 A 
ATOM     41  C   UNL     1      -9.838 -29.198  -7.335  1.00  0.00     0.158 A 
ATOM     42  C   UNL     1     -10.996 -31.305  -6.998  1.00  0.00     0.051 A 
ATOM     43  C   UNL     1     -10.021 -30.382  -6.598  1.00  0.00     0.157 A 
BRANCH  41  44
ATOM     44  O   UNL     1      -8.875 -28.262  -6.958  1.00  0.00    -0.504 OA
ATOM     45  H   UNL     1      -7.898 -28.365  -7.207  1.00  0.00     0.293 HD
ENDBRANCH  41  44
BRANCH  43  46
ATOM     46  O   UNL     1      -9.225 -30.657  -5.481  1.00  0.00    -0.504 OA
ATOM     47  H   UNL     1      -8.247 -30.371  -5.446  1.00  0.00     0.293 HD
ENDBRANCH  43  46
ENDBRANCH  28  38
BRANCH  34  48
ATOM     48  O   UNL     1     -15.180 -30.170 -14.381  1.00  0.00    -0.507 OA
ATOM     49  H   UNL     1     -15.661 -30.000 -15.258  1.00  0.00     0.293 HD
ENDBRANCH  34  48
BRANCH  37  50
ATOM     50  O   UNL     1     -15.156 -25.480 -13.237  1.00  0.00    -0.508 OA
ATOM     51  H   UNL     1     -15.993 -25.099 -12.815  1.00  0.00     0.293 HD
ENDBRANCH  37  50
ENDBRANCH  26  27
ENDBRANCH   5  26
BRANCH   4  52
ATOM     52  O   UNL     1      -9.333 -32.188 -10.584  1.00  0.00    -0.384 OA
ATOM     53  H   UNL     1      -8.375 -32.425 -10.507  1.00  0.00     0.211 HD
ENDBRANCH   4  52
TORSDOF 16
ENDMDL
MODEL 7
REMARK VINA RESULT:    -6.425      1.732      6.643
REMARK INTER + INTRA:         -12.372
REMARK INTER:                 -10.175
REMARK INTRA:                  -2.197
REMARK UNBOUND:                -1.815
REMARK SMILES C[C@H]1O[C@@H](OC[C@@H]2O[C@@H](Oc3c(-c4ccc(O)c(O)c4)oc4cc(O)cc(O)c4c3=O)[C@H](O)[C@@H](O)[C@H]2O)[C@H](O)[C@H](O)[C@H]1O
REMARK SMILES IDX 7 1 36 2 34 3 32 4 9 5 8 6 6 7 5 8 4 9 1 10 2 11 42 12 3 13
REMARK SMILES IDX 40 14 38 15 43 16 41 18 39 20 37 22 35 24 10 26 11 27 12 28
REMARK SMILES IDX 30 29 21 30 29 31 31 32 22 33 27 34 23 35 26 36 24 37 13 38
REMARK SMILES IDX 20 39 14 40 18 41 15 42 16 43 19 44 17 46 28 48 25 50 33 52
REMARK H PARENT 43 17 41 19 39 21 37 23 35 25 19 45 17 47 28 49 25 51 33 53
REMARK Flexibility Score: inf
ROOT
ATOM      1  C   UNL     1     -14.834 -31.373 -12.417  1.00  0.00     0.180 C 
ATOM      2  C   UNL     1     -15.141 -31.893 -13.842  1.00  0.00     0.177 C 
ATOM      3  C   UNL     1     -14.233 -33.092 -14.175  1.00  0.00     0.180 C 
ATOM      4  C   UNL     1     -12.751 -32.815 -13.810  1.00  0.00     0.214 C 
ATOM      5  C   UNL     1     -12.561 -31.423 -13.168  1.00  0.00     0.339 C 
ATOM      6  O   UNL     1     -13.448 -31.225 -12.087  1.00  0.00    -0.332 OA
ENDROOT
BRANCH   1   7
ATOM      7  C   UNL     1     -15.574 -30.070 -12.109  1.00  0.00     0.198 C 
BRANCH   7   8
ATOM      8  O   UNL     1     -15.603 -29.240 -13.253  1.00  0.00    -0.347 OA
BRANCH   8   9
ATOM      9  C   UNL     1     -15.750 -27.873 -12.892  1.00  0.00     0.281 C 
ATOM     10  C   UNL     1     -14.165 -28.257 -15.534  1.00  0.00     0.041 C 
ATOM     11  C   UNL     1     -14.469 -26.986 -14.714  1.00  0.00     0.150 C 
ATOM     12  C   UNL     1     -13.324 -26.544 -13.776  1.00  0.00     0.174 C 
ATOM     13  O   UNL     1     -15.730 -27.048 -14.057  1.00  0.00    -0.344 OA
ATOM     14  C   UNL     1     -13.289 -27.408 -12.499  1.00  0.00     0.179 C 
ATOM     15  C   UNL     1     -14.678 -27.450 -11.860  1.00  0.00     0.202 C 
BRANCH  12  16
ATOM     16  O   UNL     1     -12.096 -26.620 -14.453  1.00  0.00    -0.388 OA
ATOM     17  H   UNL     1     -11.649 -27.450 -14.144  1.00  0.00     0.211 HD
ENDBRANCH  12  16
BRANCH  14  18
ATOM     18  O   UNL     1     -12.377 -26.850 -11.585  1.00  0.00    -0.387 OA
ATOM     19  H   UNL     1     -12.807 -26.043 -11.194  1.00  0.00     0.211 HD
ENDBRANCH  14  18
BRANCH  15  20
ATOM     20  O   UNL     1     -14.991 -26.183 -11.337  1.00  0.00    -0.385 OA
ATOM     21  H   UNL     1     -15.751 -26.309 -10.712  1.00  0.00     0.211 HD
ENDBRANCH  15  20
ENDBRANCH   8   9
ENDBRANCH   7   8
ENDBRANCH   1   7
BRANCH   2  22
ATOM     22  O   UNL     1     -16.497 -32.266 -13.939  1.00  0.00    -0.387 OA
ATOM     23  H   UNL     1     -16.520 -33.249 -14.059  1.00  0.00     0.211 HD
ENDBRANCH   2  22
BRANCH   3  24
ATOM     24  O   UNL     1     -14.701 -34.272 -13.566  1.00  0.00    -0.387 OA
ATOM     25  H   UNL     1     -14.069 -35.012 -13.792  1.00  0.00     0.211 HD
ENDBRANCH   3  24
BRANCH   5  26
ATOM     26  O   UNL     1     -11.212 -31.220 -12.730  1.00  0.00    -0.454 OA
BRANCH  26  27
ATOM     27  C   UNL     1     -10.752 -31.353 -11.407  1.00  0.00     0.214 A 
ATOM     28  C   UNL     1     -10.321 -32.615 -10.945  1.00  0.00     0.180 A 
ATOM     29  C   UNL     1     -10.721 -30.265 -10.517  1.00  0.00     0.239 A 
ATOM     30  O   UNL     1      -9.919 -32.756  -9.685  1.00  0.00    -0.452 OA
ATOM     31  C   UNL     1     -10.322 -30.465  -9.178  1.00  0.00     0.111 A 
ATOM     32  O   UNL     1     -11.065 -29.118 -10.922  1.00  0.00    -0.285 OA
ATOM     33  C   UNL     1      -9.903 -31.762  -8.807  1.00  0.00     0.146 A 
ATOM     34  C   UNL     1     -10.348 -29.448  -8.195  1.00  0.00     0.134 A 
ATOM     35  C   UNL     1      -9.482 -32.020  -7.494  1.00  0.00     0.094 A 
ATOM     36  C   UNL     1      -9.958 -29.733  -6.879  1.00  0.00     0.093 A 
ATOM     37  C   UNL     1      -9.521 -31.015  -6.527  1.00  0.00     0.123 A 
BRANCH  28  38
ATOM     38  C   UNL     1     -10.410 -33.846 -11.774  1.00  0.00     0.025 A 
ATOM     39  C   UNL     1      -9.524 -34.114 -12.842  1.00  0.00     0.062 A 
ATOM     40  C   UNL     1     -11.476 -34.737 -11.536  1.00  0.00     0.016 A 
ATOM     41  C   UNL     1      -9.743 -35.214 -13.688  1.00  0.00     0.158 A 
ATOM     42  C   UNL     1     -11.701 -35.819 -12.386  1.00  0.00     0.051 A 
ATOM     43  C   UNL     1     -10.846 -36.060 -13.470  1.00  0.00     0.157 A 
BRANCH  41  44
ATOM     44  O   UNL     1      -8.876 -35.431 -14.759  1.00  0.00    -0.504 OA
ATOM     45  H   UNL     1      -8.566 -36.360 -15.020  1.00  0.00     0.293 HD
ENDBRANCH  41  44
BRANCH  43  46
ATOM     46  O   UNL     1     -11.110 -37.125 -14.337  1.00  0.00    -0.504 OA
ATOM     47  H   UNL     1     -10.516 -37.310 -15.143  1.00  0.00     0.293 HD
ENDBRANCH  43  46
ENDBRANCH  28  38
BRANCH  34  48
ATOM     48  O   UNL     1     -10.790 -28.165  -8.517  1.00  0.00    -0.507 OA
ATOM     49  H   UNL     1     -11.334 -27.595  -7.877  1.00  0.00     0.293 HD
ENDBRANCH  34  48
BRANCH  37  50
ATOM     50  O   UNL     1      -9.121 -31.272  -5.220  1.00  0.00    -0.508 OA
ATOM     51  H   UNL     1      -9.761 -31.651  -4.533  1.00  0.00     0.293 HD
ENDBRANCH  37  50
ENDBRANCH  26  27
ENDBRANCH   5  26
BRANCH   4  52
ATOM     52  O   UNL     1     -11.958 -32.883 -14.971  1.00  0.00    -0.384 OA
ATOM     53  H   UNL     1     -11.985 -31.995 -15.407  1.00  0.00     0.211 HD
ENDBRANCH   4  52
TORSDOF 16
ENDMDL
MODEL 8
REMARK VINA RESULT:    -6.098      2.327      6.605
REMARK INTER + INTRA:         -11.834
REMARK INTER:                  -9.868
REMARK INTRA:                  -1.966
REMARK UNBOUND:                -1.815
REMARK SMILES C[C@H]1O[C@@H](OC[C@@H]2O[C@@H](Oc3c(-c4ccc(O)c(O)c4)oc4cc(O)cc(O)c4c3=O)[C@H](O)[C@@H](O)[C@H]2O)[C@H](O)[C@H](O)[C@H]1O
REMARK SMILES IDX 7 1 36 2 34 3 32 4 9 5 8 6 6 7 5 8 4 9 1 10 2 11 42 12 3 13
REMARK SMILES IDX 40 14 38 15 43 16 41 18 39 20 37 22 35 24 10 26 11 27 12 28
REMARK SMILES IDX 30 29 21 30 29 31 31 32 22 33 27 34 23 35 26 36 24 37 13 38
REMARK SMILES IDX 20 39 14 40 18 41 15 42 16 43 19 44 17 46 28 48 25 50 33 52
REMARK H PARENT 43 17 41 19 39 21 37 23 35 25 19 45 17 47 28 49 25 51 33 53
REMARK Flexibility Score: inf
ROOT
ATOM      1  C   UNL     1     -14.139 -28.908 -12.303  1.00  0.00     0.180 C 
ATOM      2  C   UNL     1     -15.344 -28.703 -13.250  1.00  0.00     0.177 C 
ATOM      3  C   UNL     1     -16.074 -30.041 -13.478  1.00  0.00     0.180 C 
ATOM      4  C   UNL     1     -15.084 -31.191 -13.805  1.00  0.00     0.214 C 
ATOM      5  C   UNL     1     -13.614 -30.717 -13.782  1.00  0.00     0.339 C 
ATOM      6  O   UNL     1     -13.306 -30.041 -12.581  1.00  0.00    -0.332 OA
ENDROOT
BRANCH   1   7
ATOM      7  C   UNL     1     -13.272 -27.653 -12.194  1.00  0.00     0.198 C 
BRANCH   7   8
ATOM      8  O   UNL     1     -12.230 -27.854 -11.260  1.00  0.00    -0.347 OA
BRANCH   8   9
ATOM      9  C   UNL     1     -12.644 -27.506  -9.945  1.00  0.00     0.281 C 
ATOM     10  C   UNL     1      -9.560 -27.439 -10.293  1.00  0.00     0.041 C 
ATOM     11  C   UNL     1     -10.440 -27.246  -9.041  1.00  0.00     0.150 C 
ATOM     12  C   UNL     1     -10.584 -28.508  -8.162  1.00  0.00     0.174 C 
ATOM     13  O   UNL     1     -11.690 -26.635  -9.339  1.00  0.00    -0.344 OA
ATOM     14  C   UNL     1     -11.599 -29.495  -8.772  1.00  0.00     0.179 C 
ATOM     15  C   UNL     1     -12.906 -28.768  -9.091  1.00  0.00     0.202 C 
BRANCH  12  16
ATOM     16  O   UNL     1      -9.332 -29.126  -8.006  1.00  0.00    -0.388 OA
ATOM     17  H   UNL     1      -8.769 -28.505  -7.475  1.00  0.00     0.211 HD
ENDBRANCH  12  16
BRANCH  14  18
ATOM     18  O   UNL     1     -11.856 -30.527  -7.850  1.00  0.00    -0.387 OA
ATOM     19  H   UNL     1     -12.413 -30.140  -7.122  1.00  0.00     0.211 HD
ENDBRANCH  14  18
BRANCH  15  20
ATOM     20  O   UNL     1     -13.545 -28.409  -7.891  1.00  0.00    -0.385 OA
ATOM     21  H   UNL     1     -12.832 -28.143  -7.253  1.00  0.00     0.211 HD
ENDBRANCH  15  20
ENDBRANCH   8   9
ENDBRANCH   7   8
ENDBRANCH   1   7
BRANCH   2  22
ATOM     22  O   UNL     1     -16.230 -27.751 -12.707  1.00  0.00    -0.387 OA
ATOM     23  H   UNL     1     -16.639 -27.267 -13.468  1.00  0.00     0.211 HD
ENDBRANCH   2  22
BRANCH   3  24
ATOM     24  O   UNL     1     -16.897 -30.366 -12.384  1.00  0.00    -0.387 OA
ATOM     25  H   UNL     1     -17.016 -31.358 -12.368  1.00  0.00     0.211 HD
ENDBRANCH   3  24
BRANCH   5  26
ATOM     26  O   UNL     1     -12.702 -31.806 -13.971  1.00  0.00    -0.454 OA
BRANCH  26  27
ATOM     27  C   UNL     1     -12.060 -32.523 -12.946  1.00  0.00     0.214 A 
ATOM     28  C   UNL     1     -12.446 -33.854 -12.681  1.00  0.00     0.180 A 
ATOM     29  C   UNL     1     -11.046 -31.949 -12.158  1.00  0.00     0.239 A 
ATOM     30  O   UNL     1     -11.868 -34.527 -11.690  1.00  0.00    -0.452 OA
ATOM     31  C   UNL     1     -10.484 -32.684 -11.093  1.00  0.00     0.111 A 
ATOM     32  O   UNL     1     -10.658 -30.771 -12.404  1.00  0.00    -0.285 OA
ATOM     33  C   UNL     1     -10.931 -34.011 -10.906  1.00  0.00     0.146 A 
ATOM     34  C   UNL     1      -9.527 -32.152 -10.196  1.00  0.00     0.134 A 
ATOM     35  C   UNL     1     -10.400 -34.797  -9.872  1.00  0.00     0.094 A 
ATOM     36  C   UNL     1      -9.034 -32.940  -9.147  1.00  0.00     0.093 A 
ATOM     37  C   UNL     1      -9.465 -34.262  -8.984  1.00  0.00     0.123 A 
BRANCH  28  38
ATOM     38  C   UNL     1     -13.574 -34.518 -13.388  1.00  0.00     0.025 A 
ATOM     39  C   UNL     1     -13.414 -35.188 -14.621  1.00  0.00     0.062 A 
ATOM     40  C   UNL     1     -14.869 -34.396 -12.844  1.00  0.00     0.016 A 
ATOM     41  C   UNL     1     -14.536 -35.667 -15.320  1.00  0.00     0.158 A 
ATOM     42  C   UNL     1     -15.981 -34.857 -13.546  1.00  0.00     0.051 A 
ATOM     43  C   UNL     1     -15.826 -35.484 -14.789  1.00  0.00     0.157 A 
BRANCH  41  44
ATOM     44  O   UNL     1     -14.352 -36.289 -16.555  1.00  0.00    -0.504 OA
ATOM     45  H   UNL     1     -14.654 -37.241 -16.728  1.00  0.00     0.293 HD
ENDBRANCH  41  44
BRANCH  43  46
ATOM     46  O   UNL     1     -16.955 -35.903 -15.499  1.00  0.00    -0.504 OA
ATOM     47  H   UNL     1     -16.909 -36.097 -16.498  1.00  0.00     0.293 HD
ENDBRANCH  43  46
ENDBRANCH  28  38
BRANCH  34  48
ATOM     48  O   UNL     1      -9.091 -30.834 -10.328  1.00  0.00    -0.507 OA
ATOM     49  H   UNL     1      -8.299 -30.464  -9.813  1.00  0.00     0.293 HD
ENDBRANCH  34  48
BRANCH  37  50
ATOM     50  O   UNL     1      -8.949 -35.032  -7.948  1.00  0.00    -0.508 OA
ATOM     51  H   UNL     1      -8.196 -35.691  -8.101  1.00  0.00     0.293 HD
ENDBRANCH  37  50
ENDBRANCH  26  27
ENDBRANCH   5  26
BRANCH   4  52
ATOM     52  O   UNL     1     -15.367 -31.707 -15.084  1.00  0.00    -0.384 OA
ATOM     53  H   UNL     1     -16.208 -31.290 -15.397  1.00  0.00     0.211 HD
ENDBRANCH   4  52
TORSDOF 16
ENDMDL
MODEL 9
REMARK VINA RESULT:    -5.396      2.033      7.068
REMARK INTER + INTRA:         -10.681
REMARK INTER:                  -9.702
REMARK INTRA:                  -0.979
REMARK UNBOUND:                -1.815
REMARK SMILES C[C@H]1O[C@@H](OC[C@@H]2O[C@@H](Oc3c(-c4ccc(O)c(O)c4)oc4cc(O)cc(O)c4c3=O)[C@H](O)[C@@H](O)[C@H]2O)[C@H](O)[C@H](O)[C@H]1O
REMARK SMILES IDX 7 1 36 2 34 3 32 4 9 5 8 6 6 7 5 8 4 9 1 10 2 11 42 12 3 13
REMARK SMILES IDX 40 14 38 15 43 16 41 18 39 20 37 22 35 24 10 26 11 27 12 28
REMARK SMILES IDX 30 29 21 30 29 31 31 32 22 33 27 34 23 35 26 36 24 37 13 38
REMARK SMILES IDX 20 39 14 40 18 41 15 42 16 43 19 44 17 46 28 48 25 50 33 52
REMARK H PARENT 43 17 41 19 39 21 37 23 35 25 19 45 17 47 28 49 25 51 33 53
REMARK Flexibility Score: inf
ROOT
ATOM      1  C   UNL     1      -9.341 -31.138  -9.906  1.00  0.00     0.180 C 
ATOM      2  C   UNL     1     -10.317 -31.770  -8.885  1.00  0.00     0.177 C 
ATOM      3  C   UNL     1     -10.904 -33.077  -9.450  1.00  0.00     0.180 C 
ATOM      4  C   UNL     1     -11.397 -32.905 -10.912  1.00  0.00     0.214 C 
ATOM      5  C   UNL     1     -11.142 -31.479 -11.448  1.00  0.00     0.339 C 
ATOM      6  O   UNL     1      -9.797 -31.089 -11.263  1.00  0.00    -0.332 OA
ENDROOT
BRANCH   1   7
ATOM      7  C   UNL     1      -8.877 -29.747  -9.473  1.00  0.00     0.198 C 
BRANCH   7   8
ATOM      8  O   UNL     1      -9.861 -29.129  -8.669  1.00  0.00    -0.347 OA
BRANCH   8   9
ATOM      9  C   UNL     1      -9.850 -27.717  -8.836  1.00  0.00     0.281 C 
ATOM     10  C   UNL     1     -12.635 -28.808  -8.006  1.00  0.00     0.041 C 
ATOM     11  C   UNL     1     -12.183 -27.386  -8.399  1.00  0.00     0.150 C 
ATOM     12  C   UNL     1     -12.470 -27.009  -9.869  1.00  0.00     0.174 C 
ATOM     13  O   UNL     1     -10.843 -27.112  -8.008  1.00  0.00    -0.344 OA
ATOM     14  C   UNL     1     -11.432 -27.644 -10.816  1.00  0.00     0.179 C 
ATOM     15  C   UNL     1     -10.018 -27.331 -10.324  1.00  0.00     0.202 C 
BRANCH  12  16
ATOM     16  O   UNL     1     -13.768 -27.415 -10.221  1.00  0.00    -0.388 OA
ATOM     17  H   UNL     1     -14.337 -26.603 -10.206  1.00  0.00     0.211 HD
ENDBRANCH  12  16
BRANCH  14  18
ATOM     18  O   UNL     1     -11.599 -27.117 -12.109  1.00  0.00    -0.387 OA
ATOM     19  H   UNL     1     -12.420 -27.531 -12.492  1.00  0.00     0.211 HD
ENDBRANCH  14  18
BRANCH  15  20
ATOM     20  O   UNL     1      -9.757 -25.960 -10.495  1.00  0.00    -0.385 OA
ATOM     21  H   UNL     1      -9.228 -25.667  -9.708  1.00  0.00     0.211 HD
ENDBRANCH  15  20
ENDBRANCH   8   9
ENDBRANCH   7   8
ENDBRANCH   1   7
BRANCH   2  22
ATOM     22  O   UNL     1      -9.649 -32.021  -7.669  1.00  0.00    -0.387 OA
ATOM     23  H   UNL     1      -9.489 -32.997  -7.622  1.00  0.00     0.211 HD
ENDBRANCH   2  22
BRANCH   3  24
ATOM     24  O   UNL     1      -9.986 -34.139  -9.339  1.00  0.00    -0.387 OA
ATOM     25  H   UNL     1     -10.502 -34.984  -9.205  1.00  0.00     0.211 HD
ENDBRANCH   3  24
BRANCH   5  26
ATOM     26  O   UNL     1     -11.495 -31.360 -12.831  1.00  0.00    -0.454 OA
BRANCH  26  27
ATOM     27  C   UNL     1     -12.251 -32.292 -13.565  1.00  0.00     0.214 A 
ATOM     28  C   UNL     1     -13.509 -31.914 -14.082  1.00  0.00     0.180 A 
ATOM     29  C   UNL     1     -11.800 -33.605 -13.791  1.00  0.00     0.239 A 
ATOM     30  O   UNL     1     -14.246 -32.800 -14.746  1.00  0.00    -0.452 OA
ATOM     31  C   UNL     1     -12.628 -34.525 -14.469  1.00  0.00     0.111 A 
ATOM     32  O   UNL     1     -10.660 -33.952 -13.371  1.00  0.00    -0.285 OA
ATOM     33  C   UNL     1     -13.868 -34.054 -14.954  1.00  0.00     0.146 A 
ATOM     34  C   UNL     1     -12.291 -35.886 -14.658  1.00  0.00     0.134 A 
ATOM     35  C   UNL     1     -14.730 -34.918 -15.647  1.00  0.00     0.094 A 
ATOM     36  C   UNL     1     -13.180 -36.743 -15.322  1.00  0.00     0.093 A 
ATOM     37  C   UNL     1     -14.397 -36.262 -15.821  1.00  0.00     0.123 A 
BRANCH  28  38
ATOM     38  C   UNL     1     -14.120 -30.585 -13.812  1.00  0.00     0.025 A 
ATOM     39  C   UNL     1     -13.605 -29.384 -14.351  1.00  0.00     0.062 A 
ATOM     40  C   UNL     1     -15.203 -30.517 -12.913  1.00  0.00     0.016 A 
ATOM     41  C   UNL     1     -14.126 -28.144 -13.946  1.00  0.00     0.158 A 
ATOM     42  C   UNL     1     -15.707 -29.284 -12.500  1.00  0.00     0.051 A 
ATOM     43  C   UNL     1     -15.169 -28.092 -13.003  1.00  0.00     0.157 A 
BRANCH  41  44
ATOM     44  O   UNL     1     -13.572 -26.972 -14.464  1.00  0.00    -0.504 OA
ATOM     45  H   UNL     1     -12.583 -26.765 -14.385  1.00  0.00     0.293 HD
ENDBRANCH  41  44
BRANCH  43  46
ATOM     46  O   UNL     1     -15.658 -26.865 -12.547  1.00  0.00    -0.504 OA
ATOM     47  H   UNL     1     -15.918 -26.125 -13.197  1.00  0.00     0.293 HD
ENDBRANCH  43  46
ENDBRANCH  28  38
BRANCH  34  48
ATOM     48  O   UNL     1     -11.092 -36.393 -14.161  1.00  0.00    -0.507 OA
ATOM     49  H   UNL     1     -10.396 -36.835 -14.752  1.00  0.00     0.293 HD
ENDBRANCH  34  48
BRANCH  37  50
ATOM     50  O   UNL     1     -15.255 -37.125 -16.493  1.00  0.00    -0.508 OA
ATOM     51  H   UNL     1     -15.663 -37.931 -16.035  1.00  0.00     0.293 HD
ENDBRANCH  37  50
ENDBRANCH  26  27
ENDBRANCH   5  26
BRANCH   4  52
ATOM     52  O   UNL     1     -12.779 -33.166 -10.977  1.00  0.00    -0.384 OA
ATOM     53  H   UNL     1     -13.254 -32.345 -10.691  1.00  0.00     0.211 HD
ENDBRANCH   4  52
TORSDOF 16
ENDMDL
