MODEL 1
REMARK VINA RESULT:    11.722      0.000      0.000
REMARK INTER + INTRA:          12.407
REMARK INTER:                  12.407
REMARK INTRA:                   0.000
REMARK UNBOUND:                 0.000
REMARK SMILES Cc1cc(O)c(C)c(C)c1O
REMARK SMILES IDX 1 1 2 2 3 3 4 4 6 5 8 6 10 7 9 8 7 9 11 10 5 12
REMARK H PARENT 11 11 5 13
REMARK Flexibility Score: inf
ROOT
ATOM      1  C   UNL     1      10.610   1.409  30.719  1.00  0.00     0.048 C 
ATOM      2  C   UNL     1      11.944   2.023  30.389  1.00  0.00    -0.005 A 
ATOM      3  C   UNL     1      12.991   1.917  31.310  1.00  0.00     0.053 A 
ATOM      4  C   UNL     1      14.245   2.462  31.041  1.00  0.00     0.119 A 
ATOM      5  C   UNL     1      14.487   3.117  29.811  1.00  0.00    -0.003 A 
ATOM      6  C   UNL     1      13.413   3.288  28.894  1.00  0.00    -0.002 A 
ATOM      7  C   UNL     1      12.152   2.716  29.177  1.00  0.00     0.121 A 
ATOM      8  C   UNL     1      13.609   4.053  27.604  1.00  0.00     0.049 C 
ATOM      9  C   UNL     1      15.874   3.646  29.515  1.00  0.00     0.049 C 
ENDROOT
BRANCH   7  10
ATOM     10  O   UNL     1      11.118   2.845  28.242  1.00  0.00    -0.507 OA
ATOM     11  H   UNL     1      10.365   2.176  28.146  1.00  0.00     0.293 HD
ENDBRANCH   7  10
BRANCH   4  12
ATOM     12  O   UNL     1      15.229   2.339  32.026  1.00  0.00    -0.508 OA
ATOM     13  H   UNL     1      15.253   2.899  32.868  1.00  0.00     0.293 HD
ENDBRANCH   4  12
TORSDOF 2
ENDMDL
MODEL 2
REMARK VINA RESULT:    12.462      1.039      2.994
REMARK INTER + INTRA:          13.191
REMARK INTER:                  13.191
REMARK INTRA:                   0.000
REMARK UNBOUND:                 0.000
REMARK SMILES Cc1cc(O)c(C)c(C)c1O
REMARK SMILES IDX 1 1 2 2 3 3 4 4 6 5 8 6 10 7 9 8 7 9 11 10 5 12
REMARK H PARENT 11 11 5 13
REMARK Flexibility Score: inf
ROOT
ATOM      1  C   UNL     1      13.123   4.380  26.631  1.00  0.00     0.048 C 
ATOM      2  C   UNL     1      13.355   3.786  27.996  1.00  0.00    -0.005 A 
ATOM      3  C   UNL     1      14.595   3.964  28.617  1.00  0.00     0.053 A 
ATOM      4  C   UNL     1      14.850   3.440  29.883  1.00  0.00     0.119 A 
ATOM      5  C   UNL     1      13.839   2.734  30.576  1.00  0.00    -0.003 A 
ATOM      6  C   UNL     1      12.596   2.491  29.929  1.00  0.00    -0.002 A 
ATOM      7  C   UNL     1      12.351   3.042  28.651  1.00  0.00     0.121 A 
ATOM      8  C   UNL     1      11.519   1.670  30.604  1.00  0.00     0.049 C 
ATOM      9  C   UNL     1      14.118   2.229  31.975  1.00  0.00     0.049 C 
ENDROOT
BRANCH   7  10
ATOM     10  O   UNL     1      11.103   2.841  28.049  1.00  0.00    -0.507 OA
ATOM     11  H   UNL     1      10.812   1.958  27.648  1.00  0.00     0.293 HD
ENDBRANCH   7  10
BRANCH   4  12
ATOM     12  O   UNL     1      16.125   3.637  30.420  1.00  0.00    -0.508 OA
ATOM     13  H   UNL     1      16.502   4.547  30.652  1.00  0.00     0.293 HD
ENDBRANCH   4  12
TORSDOF 2
ENDMDL
MODEL 3
REMARK VINA RESULT:    12.887      1.318      3.237
REMARK INTER + INTRA:          13.641
REMARK INTER:                  13.641
REMARK INTRA:                   0.000
REMARK UNBOUND:                 0.000
REMARK SMILES Cc1cc(O)c(C)c(C)c1O
REMARK SMILES IDX 1 1 2 2 3 3 4 4 6 5 8 6 10 7 9 8 7 9 11 10 5 12
REMARK H PARENT 11 11 5 13
REMARK Flexibility Score: inf
ROOT
ATOM      1  C   UNL     1      16.124   4.374  29.503  1.00  0.00     0.048 C 
ATOM      2  C   UNL     1      14.832   3.653  29.789  1.00  0.00    -0.005 A 
ATOM      3  C   UNL     1      14.661   3.024  31.026  1.00  0.00     0.053 A 
ATOM      4  C   UNL     1      13.479   2.355  31.336  1.00  0.00     0.119 A 
ATOM      5  C   UNL     1      12.415   2.321  30.405  1.00  0.00    -0.003 A 
ATOM      6  C   UNL     1      12.601   2.901  29.119  1.00  0.00    -0.002 A 
ATOM      7  C   UNL     1      13.802   3.588  28.827  1.00  0.00     0.121 A 
ATOM      8  C   UNL     1      11.519   2.815  28.066  1.00  0.00     0.049 C 
ATOM      9  C   UNL     1      11.118   1.642  30.788  1.00  0.00     0.049 C 
ENDROOT
BRANCH   7  10
ATOM     10  O   UNL     1      13.950   4.201  27.577  1.00  0.00    -0.507 OA
ATOM     11  H   UNL     1      13.588   5.120  27.359  1.00  0.00     0.293 HD
ENDBRANCH   7  10
BRANCH   4  12
ATOM     12  O   UNL     1      13.399   1.727  32.583  1.00  0.00    -0.508 OA
ATOM     13  H   UNL     1      12.779   2.028  33.324  1.00  0.00     0.293 HD
ENDBRANCH   4  12
TORSDOF 2
ENDMDL
MODEL 4
REMARK VINA RESULT:    14.642      9.066     10.124
REMARK INTER + INTRA:          15.498
REMARK INTER:                  15.498
REMARK INTRA:                   0.000
REMARK UNBOUND:                 0.000
REMARK SMILES Cc1cc(O)c(C)c(C)c1O
REMARK SMILES IDX 1 1 2 2 3 3 4 4 6 5 8 6 10 7 9 8 7 9 11 10 5 12
REMARK H PARENT 11 11 5 13
REMARK Flexibility Score: inf
ROOT
ATOM      1  C   UNL     1       9.676  12.128  30.277  1.00  0.00     0.048 C 
ATOM      2  C   UNL     1      11.079  12.338  29.770  1.00  0.00    -0.005 A 
ATOM      3  C   UNL     1      11.354  13.446  28.962  1.00  0.00     0.053 A 
ATOM      4  C   UNL     1      12.639  13.684  28.479  1.00  0.00     0.119 A 
ATOM      5  C   UNL     1      13.700  12.815  28.823  1.00  0.00    -0.003 A 
ATOM      6  C   UNL     1      13.421  11.650  29.590  1.00  0.00    -0.002 A 
ATOM      7  C   UNL     1      12.114  11.432  30.083  1.00  0.00     0.121 A 
ATOM      8  C   UNL     1      14.513  10.653  29.910  1.00  0.00     0.049 C 
ATOM      9  C   UNL     1      15.099  13.129  28.338  1.00  0.00     0.049 C 
ENDROOT
BRANCH   7  10
ATOM     10  O   UNL     1      11.865  10.310  30.883  1.00  0.00    -0.507 OA
ATOM     11  H   UNL     1      10.967  10.112  31.303  1.00  0.00     0.293 HD
ENDBRANCH   7  10
BRANCH   4  12
ATOM     12  O   UNL     1      12.824  14.797  27.653  1.00  0.00    -0.508 OA
ATOM     13  H   UNL     1      13.033  14.733  26.665  1.00  0.00     0.293 HD
ENDBRANCH   4  12
TORSDOF 2
ENDMDL
MODEL 5
REMARK VINA RESULT:    14.689      1.498      2.354
REMARK INTER + INTRA:          15.548
REMARK INTER:                  15.548
REMARK INTRA:                   0.000
REMARK UNBOUND:                 0.000
REMARK SMILES Cc1cc(O)c(C)c(C)c1O
REMARK SMILES IDX 1 1 2 2 3 3 4 4 6 5 8 6 10 7 9 8 7 9 11 10 5 12
REMARK H PARENT 11 11 5 13
REMARK Flexibility Score: inf
ROOT
ATOM      1  C   UNL     1      13.187   1.718  32.799  1.00  0.00     0.048 C 
ATOM      2  C   UNL     1      13.292   2.324  31.424  1.00  0.00    -0.005 A 
ATOM      3  C   UNL     1      14.468   2.987  31.059  1.00  0.00     0.053 A 
ATOM      4  C   UNL     1      14.612   3.554  29.794  1.00  0.00     0.119 A 
ATOM      5  C   UNL     1      13.571   3.446  28.844  1.00  0.00    -0.003 A 
ATOM      6  C   UNL     1      12.345   2.832  29.225  1.00  0.00    -0.002 A 
ATOM      7  C   UNL     1      12.223   2.250  30.507  1.00  0.00     0.121 A 
ATOM      8  C   UNL     1      11.178   2.769  28.265  1.00  0.00     0.049 C 
ATOM      9  C   UNL     1      13.774   4.016  27.456  1.00  0.00     0.049 C 
ENDROOT
BRANCH   7  10
ATOM     10  O   UNL     1      11.030   1.600  30.850  1.00  0.00    -0.507 OA
ATOM     11  H   UNL     1      10.656   1.580  31.790  1.00  0.00     0.293 HD
ENDBRANCH   7  10
BRANCH   4  12
ATOM     12  O   UNL     1      15.808   4.224  29.518  1.00  0.00    -0.508 OA
ATOM     13  H   UNL     1      16.716   3.901  29.824  1.00  0.00     0.293 HD
ENDBRANCH   4  12
TORSDOF 2
ENDMDL
MODEL 6
REMARK VINA RESULT:    14.719      9.839     11.207
REMARK INTER + INTRA:          15.579
REMARK INTER:                  15.579
REMARK INTRA:                   0.000
REMARK UNBOUND:                 0.000
REMARK SMILES Cc1cc(O)c(C)c(C)c1O
REMARK SMILES IDX 1 1 2 2 3 3 4 4 6 5 8 6 10 7 9 8 7 9 11 10 5 12
REMARK H PARENT 11 11 5 13
REMARK Flexibility Score: inf
ROOT
ATOM      1  C   UNL     1      10.981  14.253  25.773  1.00  0.00     0.048 C 
ATOM      2  C   UNL     1      11.378  13.724  27.126  1.00  0.00    -0.005 A 
ATOM      3  C   UNL     1      10.475  12.930  27.840  1.00  0.00     0.053 A 
ATOM      4  C   UNL     1      10.804  12.411  29.091  1.00  0.00     0.119 A 
ATOM      5  C   UNL     1      12.078  12.663  29.652  1.00  0.00    -0.003 A 
ATOM      6  C   UNL     1      12.981  13.522  28.965  1.00  0.00    -0.002 A 
ATOM      7  C   UNL     1      12.635  14.027  27.691  1.00  0.00     0.121 A 
ATOM      8  C   UNL     1      14.320  13.882  29.569  1.00  0.00     0.049 C 
ATOM      9  C   UNL     1      12.436  12.039  30.983  1.00  0.00     0.049 C 
ENDROOT
BRANCH   7  10
ATOM     10  O   UNL     1      13.554  14.827  27.001  1.00  0.00    -0.507 OA
ATOM     11  H   UNL     1      13.517  15.838  26.991  1.00  0.00     0.293 HD
ENDBRANCH   7  10
BRANCH   4  12
ATOM     12  O   UNL     1       9.835  11.652  29.753  1.00  0.00    -0.508 OA
ATOM     13  H   UNL     1       8.876  11.571  29.439  1.00  0.00     0.293 HD
ENDBRANCH   4  12
TORSDOF 2
ENDMDL
MODEL 7
REMARK VINA RESULT:    14.721      9.141     10.519
REMARK INTER + INTRA:          15.581
REMARK INTER:                  15.581
REMARK INTRA:                   0.000
REMARK UNBOUND:                 0.000
REMARK SMILES Cc1cc(O)c(C)c(C)c1O
REMARK SMILES IDX 1 1 2 2 3 3 4 4 6 5 8 6 10 7 9 8 7 9 11 10 5 12
REMARK H PARENT 11 11 5 13
REMARK Flexibility Score: inf
ROOT
ATOM      1  C   UNL     1      13.500  14.937  27.844  1.00  0.00     0.048 C 
ATOM      2  C   UNL     1      12.996  13.757  28.633  1.00  0.00    -0.005 A 
ATOM      3  C   UNL     1      11.693  13.781  29.140  1.00  0.00     0.053 A 
ATOM      4  C   UNL     1      11.182  12.707  29.867  1.00  0.00     0.119 A 
ATOM      5  C   UNL     1      11.974  11.556  30.085  1.00  0.00    -0.003 A 
ATOM      6  C   UNL     1      13.322  11.545  29.630  1.00  0.00    -0.002 A 
ATOM      7  C   UNL     1      13.818  12.637  28.882  1.00  0.00     0.121 A 
ATOM      8  C   UNL     1      14.226  10.366  29.913  1.00  0.00     0.049 C 
ATOM      9  C   UNL     1      11.377  10.377  30.823  1.00  0.00     0.049 C 
ENDROOT
BRANCH   7  10
ATOM     10  O   UNL     1      15.129  12.591  28.394  1.00  0.00    -0.507 OA
ATOM     11  H   UNL     1      15.929  12.940  28.906  1.00  0.00     0.293 HD
ENDBRANCH   7  10
BRANCH   4  12
ATOM     12  O   UNL     1       9.881  12.823  30.365  1.00  0.00    -0.508 OA
ATOM     13  H   UNL     1       9.383  12.067  30.815  1.00  0.00     0.293 HD
ENDBRANCH   4  12
TORSDOF 2
ENDMDL
