MODEL 1
REMARK VINA RESULT:    -3.841      0.000      0.000
REMARK INTER + INTRA:          -7.279
REMARK INTER:                  -6.086
REMARK INTRA:                  -1.193
REMARK UNBOUND:                -1.193
REMARK SMILES CCCCCCCCCCCC(=O)[O-]
REMARK SMILES IDX 7 1 8 2 9 3 10 4 11 5 12 6 13 7 14 8 6 9 5 10 4 11 3 12 2 13
REMARK SMILES IDX 1 14
REMARK H PARENT
REMARK Flexibility Score: inf
ROOT
ATOM      1  C   UNL     1      36.003  32.460  25.631  1.00  0.00     0.000 C 
ENDROOT
BRANCH   1   2
ATOM      2  C   UNL     1      34.555  32.074  25.960  1.00  0.00     0.000 C 
BRANCH   2   3
ATOM      3  C   UNL     1      33.563  32.900  25.127  1.00  0.00     0.000 C 
BRANCH   3   4
ATOM      4  C   UNL     1      34.224  33.564  23.909  1.00  0.00     0.006 C 
BRANCH   4   5
ATOM      5  C   UNL     1      33.460  33.300  22.605  1.00  0.00     0.053 C 
BRANCH   5   6
ATOM      6  C   UNL     1      33.458  31.838  22.289  1.00  0.00     0.041 C 
ATOM      7  O   UNL     1      32.379  31.251  22.012  1.00  0.00    -0.550 OA
ATOM      8  O   UNL     1      34.641  31.111  22.350  1.00  0.00    -0.550 OA
ENDBRANCH   5   6
ENDBRANCH   4   5
ENDBRANCH   3   4
ENDBRANCH   2   3
ENDBRANCH   1   2
BRANCH   1   9
ATOM      9  C   UNL     1      36.660  33.187  26.812  1.00  0.00     0.000 C 
BRANCH   9  10
ATOM     10  C   UNL     1      37.296  34.530  26.410  1.00  0.00    -0.000 C 
BRANCH  10  11
ATOM     11  C   UNL     1      36.338  35.739  26.435  1.00  0.00    -0.000 C 
BRANCH  11  12
ATOM     12  C   UNL     1      35.138  35.602  27.389  1.00  0.00    -0.000 C 
BRANCH  12  13
ATOM     13  C   UNL     1      35.261  36.495  28.633  1.00  0.00    -0.003 C 
ATOM     14  C   UNL     1      36.015  35.780  29.749  1.00  0.00     0.004 C 
ENDBRANCH  12  13
ENDBRANCH  11  12
ENDBRANCH  10  11
ENDBRANCH   9  10
ENDBRANCH   1   9
TORSDOF 10
ENDMDL
MODEL 2
REMARK VINA RESULT:    -3.840      3.417      7.638
REMARK INTER + INTRA:          -7.278
REMARK INTER:                  -6.560
REMARK INTRA:                  -0.718
REMARK UNBOUND:                -1.193
REMARK SMILES CCCCCCCCCCCC(=O)[O-]
REMARK SMILES IDX 7 1 8 2 9 3 10 4 11 5 12 6 13 7 14 8 6 9 5 10 4 11 3 12 2 13
REMARK SMILES IDX 1 14
REMARK H PARENT
REMARK Flexibility Score: inf
ROOT
ATOM      1  C   UNL     1      33.077  31.553  21.961  1.00  0.00     0.000 C 
ENDROOT
BRANCH   1   2
ATOM      2  C   UNL     1      33.444  32.455  23.147  1.00  0.00     0.000 C 
BRANCH   2   3
ATOM      3  C   UNL     1      34.244  31.676  24.202  1.00  0.00     0.000 C 
BRANCH   3   4
ATOM      4  C   UNL     1      34.192  32.336  25.588  1.00  0.00     0.006 C 
BRANCH   4   5
ATOM      5  C   UNL     1      35.566  32.829  26.060  1.00  0.00     0.053 C 
BRANCH   5   6
ATOM      6  C   UNL     1      35.494  34.267  26.466  1.00  0.00     0.041 C 
ATOM      7  O   UNL     1      34.853  35.092  25.764  1.00  0.00    -0.550 OA
ATOM      8  O   UNL     1      36.176  34.707  27.594  1.00  0.00    -0.550 OA
ENDBRANCH   5   6
ENDBRANCH   4   5
ENDBRANCH   3   4
ENDBRANCH   2   3
ENDBRANCH   1   2
BRANCH   1   9
ATOM      9  C   UNL     1      33.797  30.200  22.056  1.00  0.00     0.000 C 
BRANCH   9  10
ATOM     10  C   UNL     1      32.849  29.002  21.862  1.00  0.00    -0.000 C 
BRANCH  10  11
ATOM     11  C   UNL     1      32.509  28.670  20.394  1.00  0.00    -0.000 C 
BRANCH  11  12
ATOM     12  C   UNL     1      33.703  28.701  19.424  1.00  0.00    -0.000 C 
BRANCH  12  13
ATOM     13  C   UNL     1      33.361  29.358  18.079  1.00  0.00    -0.003 C 
ATOM     14  C   UNL     1      33.207  30.868  18.229  1.00  0.00     0.004 C 
ENDBRANCH  12  13
ENDBRANCH  11  12
ENDBRANCH  10  11
ENDBRANCH   9  10
ENDBRANCH   1   9
TORSDOF 10
ENDMDL
MODEL 3
REMARK VINA RESULT:    -3.835      1.789      2.421
REMARK INTER + INTRA:          -7.270
REMARK INTER:                  -6.728
REMARK INTRA:                  -0.542
REMARK UNBOUND:                -1.193
REMARK SMILES CCCCCCCCCCCC(=O)[O-]
REMARK SMILES IDX 7 1 8 2 9 3 10 4 11 5 12 6 13 7 14 8 6 9 5 10 4 11 3 12 2 13
REMARK SMILES IDX 1 14
REMARK H PARENT
REMARK Flexibility Score: inf
ROOT
ATOM      1  C   UNL     1      34.596  32.188  25.528  1.00  0.00     0.000 C 
ENDROOT
BRANCH   1   2
ATOM      2  C   UNL     1      34.647  31.694  24.076  1.00  0.00     0.000 C 
BRANCH   2   3
ATOM      3  C   UNL     1      33.586  32.401  23.219  1.00  0.00     0.000 C 
BRANCH   3   4
ATOM      4  C   UNL     1      32.921  31.457  22.205  1.00  0.00     0.006 C 
BRANCH   4   5
ATOM      5  C   UNL     1      33.608  30.087  22.135  1.00  0.00     0.053 C 
BRANCH   5   6
ATOM      6  C   UNL     1      32.862  29.175  21.212  1.00  0.00     0.041 C 
ATOM      7  O   UNL     1      31.679  28.836  21.477  1.00  0.00    -0.550 OA
ATOM      8  O   UNL     1      33.490  28.660  20.085  1.00  0.00    -0.550 OA
ENDBRANCH   5   6
ENDBRANCH   4   5
ENDBRANCH   3   4
ENDBRANCH   2   3
ENDBRANCH   1   2
BRANCH   1   9
ATOM      9  C   UNL     1      34.130  33.649  25.596  1.00  0.00     0.000 C 
BRANCH   9  10
ATOM     10  C   UNL     1      35.182  34.584  26.221  1.00  0.00    -0.000 C 
BRANCH  10  11
ATOM     11  C   UNL     1      36.232  33.885  27.109  1.00  0.00    -0.000 C 
BRANCH  11  12
ATOM     12  C   UNL     1      37.033  34.820  28.032  1.00  0.00    -0.000 C 
BRANCH  12  13
ATOM     13  C   UNL     1      36.170  35.457  29.130  1.00  0.00    -0.003 C 
ATOM     14  C   UNL     1      36.365  36.969  29.175  1.00  0.00     0.004 C 
ENDBRANCH  12  13
ENDBRANCH  11  12
ENDBRANCH  10  11
ENDBRANCH   9  10
ENDBRANCH   1   9
TORSDOF 10
ENDMDL
MODEL 4
REMARK VINA RESULT:    -3.824      4.099      7.020
REMARK INTER + INTRA:          -7.253
REMARK INTER:                  -6.762
REMARK INTRA:                  -0.491
REMARK UNBOUND:                -1.193
REMARK SMILES CCCCCCCCCCCC(=O)[O-]
REMARK SMILES IDX 7 1 8 2 9 3 10 4 11 5 12 6 13 7 14 8 6 9 5 10 4 11 3 12 2 13
REMARK SMILES IDX 1 14
REMARK H PARENT
REMARK Flexibility Score: inf
ROOT
ATOM      1  C   UNL     1      36.554  33.110  26.916  1.00  0.00     0.000 C 
ENDROOT
BRANCH   1   2
ATOM      2  C   UNL     1      36.627  34.236  27.956  1.00  0.00     0.000 C 
BRANCH   2   3
ATOM      3  C   UNL     1      35.851  35.474  27.480  1.00  0.00     0.000 C 
BRANCH   3   4
ATOM      4  C   UNL     1      35.250  36.277  28.644  1.00  0.00     0.006 C 
BRANCH   4   5
ATOM      5  C   UNL     1      36.234  36.460  29.806  1.00  0.00     0.053 C 
BRANCH   5   6
ATOM      6  C   UNL     1      37.335  37.394  29.415  1.00  0.00     0.041 C 
ATOM      7  O   UNL     1      37.076  38.589  29.114  1.00  0.00    -0.550 OA
ATOM      8  O   UNL     1      38.643  36.934  29.336  1.00  0.00    -0.550 OA
ENDBRANCH   5   6
ENDBRANCH   4   5
ENDBRANCH   3   4
ENDBRANCH   2   3
ENDBRANCH   1   2
BRANCH   1   9
ATOM      9  C   UNL     1      35.523  33.435  25.825  1.00  0.00     0.000 C 
BRANCH   9  10
ATOM     10  C   UNL     1      34.475  32.322  25.643  1.00  0.00    -0.000 C 
BRANCH  10  11
ATOM     11  C   UNL     1      34.443  31.678  24.241  1.00  0.00    -0.000 C 
BRANCH  11  12
ATOM     12  C   UNL     1      33.855  32.564  23.128  1.00  0.00    -0.000 C 
BRANCH  12  13
ATOM     13  C   UNL     1      32.844  31.819  22.244  1.00  0.00    -0.003 C 
ATOM     14  C   UNL     1      33.302  30.390  21.973  1.00  0.00     0.004 C 
ENDBRANCH  12  13
ENDBRANCH  11  12
ENDBRANCH  10  11
ENDBRANCH   9  10
ENDBRANCH   1   9
TORSDOF 10
ENDMDL
MODEL 5
REMARK VINA RESULT:    -3.819      2.111      3.036
REMARK INTER + INTRA:          -7.244
REMARK INTER:                  -6.638
REMARK INTRA:                  -0.605
REMARK UNBOUND:                -1.193
REMARK SMILES CCCCCCCCCCCC(=O)[O-]
REMARK SMILES IDX 7 1 8 2 9 3 10 4 11 5 12 6 13 7 14 8 6 9 5 10 4 11 3 12 2 13
REMARK SMILES IDX 1 14
REMARK H PARENT
REMARK Flexibility Score: inf
ROOT
ATOM      1  C   UNL     1      33.853  32.324  24.033  1.00  0.00     0.000 C 
ENDROOT
BRANCH   1   2
ATOM      2  C   UNL     1      34.850  31.215  23.673  1.00  0.00     0.000 C 
BRANCH   2   3
ATOM      3  C   UNL     1      34.499  30.578  22.320  1.00  0.00     0.000 C 
BRANCH   3   4
ATOM      4  C   UNL     1      33.549  29.378  22.461  1.00  0.00     0.006 C 
BRANCH   4   5
ATOM      5  C   UNL     1      32.387  29.423  21.460  1.00  0.00     0.053 C 
BRANCH   5   6
ATOM      6  C   UNL     1      32.902  29.324  20.059  1.00  0.00     0.041 C 
ATOM      7  O   UNL     1      33.473  28.274  19.666  1.00  0.00    -0.550 OA
ATOM      8  O   UNL     1      32.795  30.412  19.201  1.00  0.00    -0.550 OA
ENDBRANCH   5   6
ENDBRANCH   4   5
ENDBRANCH   3   4
ENDBRANCH   2   3
ENDBRANCH   1   2
BRANCH   1   9
ATOM      9  C   UNL     1      33.997  32.737  25.504  1.00  0.00     0.000 C 
BRANCH   9  10
ATOM     10  C   UNL     1      35.432  32.566  26.036  1.00  0.00    -0.000 C 
BRANCH  10  11
ATOM     11  C   UNL     1      36.094  33.859  26.556  1.00  0.00    -0.000 C 
BRANCH  11  12
ATOM     12  C   UNL     1      35.178  35.095  26.590  1.00  0.00    -0.000 C 
BRANCH  12  13
ATOM     13  C   UNL     1      35.293  35.886  27.900  1.00  0.00    -0.003 C 
ATOM     14  C   UNL     1      36.345  35.275  28.821  1.00  0.00     0.004 C 
ENDBRANCH  12  13
ENDBRANCH  11  12
ENDBRANCH  10  11
ENDBRANCH   9  10
ENDBRANCH   1   9
TORSDOF 10
ENDMDL
MODEL 6
REMARK VINA RESULT:    -3.772      3.894      7.297
REMARK INTER + INTRA:          -7.170
REMARK INTER:                  -6.761
REMARK INTRA:                  -0.408
REMARK UNBOUND:                -1.193
REMARK SMILES CCCCCCCCCCCC(=O)[O-]
REMARK SMILES IDX 7 1 8 2 9 3 10 4 11 5 12 6 13 7 14 8 6 9 5 10 4 11 3 12 2 13
REMARK SMILES IDX 1 14
REMARK H PARENT
REMARK Flexibility Score: inf
ROOT
ATOM      1  C   UNL     1      34.227  32.278  25.622  1.00  0.00     0.000 C 
ENDROOT
BRANCH   1   2
ATOM      2  C   UNL     1      34.851  33.641  25.948  1.00  0.00     0.000 C 
BRANCH   2   3
ATOM      3  C   UNL     1      36.091  33.478  26.840  1.00  0.00     0.000 C 
BRANCH   3   4
ATOM      4  C   UNL     1      36.693  34.826  27.266  1.00  0.00     0.006 C 
BRANCH   4   5
ATOM      5  C   UNL     1      35.626  35.835  27.712  1.00  0.00     0.053 C 
BRANCH   5   6
ATOM      6  C   UNL     1      35.963  36.388  29.061  1.00  0.00     0.041 C 
ATOM      7  O   UNL     1      35.741  35.710  30.098  1.00  0.00    -0.550 OA
ATOM      8  O   UNL     1      36.475  37.674  29.177  1.00  0.00    -0.550 OA
ENDBRANCH   5   6
ENDBRANCH   4   5
ENDBRANCH   3   4
ENDBRANCH   2   3
ENDBRANCH   1   2
BRANCH   1   9
ATOM      9  C   UNL     1      34.008  32.121  24.110  1.00  0.00     0.000 C 
BRANCH   9  10
ATOM     10  C   UNL     1      34.690  30.867  23.534  1.00  0.00    -0.000 C 
BRANCH  10  11
ATOM     11  C   UNL     1      34.220  30.458  22.123  1.00  0.00    -0.000 C 
BRANCH  11  12
ATOM     12  C   UNL     1      32.783  30.879  21.765  1.00  0.00    -0.000 C 
BRANCH  12  13
ATOM     13  C   UNL     1      31.960  29.734  21.159  1.00  0.00    -0.003 C 
ATOM     14  C   UNL     1      32.865  28.638  20.607  1.00  0.00     0.004 C 
ENDBRANCH  12  13
ENDBRANCH  11  12
ENDBRANCH  10  11
ENDBRANCH   9  10
ENDBRANCH   1   9
TORSDOF 10
ENDMDL
MODEL 7
REMARK VINA RESULT:    -3.761      2.912      4.600
REMARK INTER + INTRA:          -7.153
REMARK INTER:                  -6.435
REMARK INTRA:                  -0.717
REMARK UNBOUND:                -1.193
REMARK SMILES CCCCCCCCCCCC(=O)[O-]
REMARK SMILES IDX 7 1 8 2 9 3 10 4 11 5 12 6 13 7 14 8 6 9 5 10 4 11 3 12 2 13
REMARK SMILES IDX 1 14
REMARK H PARENT
REMARK Flexibility Score: inf
ROOT
ATOM      1  C   UNL     1      33.697  31.770  22.284  1.00  0.00     0.000 C 
ENDROOT
BRANCH   1   2
ATOM      2  C   UNL     1      32.518  30.904  21.819  1.00  0.00     0.000 C 
BRANCH   2   3
ATOM      3  C   UNL     1      32.873  29.411  21.887  1.00  0.00     0.000 C 
BRANCH   3   4
ATOM      4  C   UNL     1      32.545  28.666  20.584  1.00  0.00     0.006 C 
BRANCH   4   5
ATOM      5  C   UNL     1      33.727  28.640  19.605  1.00  0.00     0.053 C 
BRANCH   5   6
ATOM      6  C   UNL     1      33.323  29.216  18.285  1.00  0.00     0.041 C 
ATOM      7  O   UNL     1      33.636  28.631  17.215  1.00  0.00    -0.550 OA
ATOM      8  O   UNL     1      32.643  30.427  18.233  1.00  0.00    -0.550 OA
ENDBRANCH   5   6
ENDBRANCH   4   5
ENDBRANCH   3   4
ENDBRANCH   2   3
ENDBRANCH   1   2
BRANCH   1   9
ATOM      9  C   UNL     1      34.545  31.028  23.327  1.00  0.00     0.000 C 
BRANCH   9  10
ATOM     10  C   UNL     1      34.414  31.626  24.740  1.00  0.00    -0.000 C 
BRANCH  10  11
ATOM     11  C   UNL     1      33.957  33.098  24.786  1.00  0.00    -0.000 C 
BRANCH  11  12
ATOM     12  C   UNL     1      34.608  33.950  25.890  1.00  0.00    -0.000 C 
BRANCH  12  13
ATOM     13  C   UNL     1      36.142  33.883  25.868  1.00  0.00    -0.003 C 
ATOM     14  C   UNL     1      36.692  33.439  27.220  1.00  0.00     0.004 C 
ENDBRANCH  12  13
ENDBRANCH  11  12
ENDBRANCH  10  11
ENDBRANCH   9  10
ENDBRANCH   1   9
TORSDOF 10
ENDMDL
MODEL 8
REMARK VINA RESULT:    -3.749      2.109      3.446
REMARK INTER + INTRA:          -7.134
REMARK INTER:                  -6.218
REMARK INTRA:                  -0.916
REMARK UNBOUND:                -1.193
REMARK SMILES CCCCCCCCCCCC(=O)[O-]
REMARK SMILES IDX 7 1 8 2 9 3 10 4 11 5 12 6 13 7 14 8 6 9 5 10 4 11 3 12 2 13
REMARK SMILES IDX 1 14
REMARK H PARENT
REMARK Flexibility Score: inf
ROOT
ATOM      1  C   UNL     1      36.635  34.539  28.636  1.00  0.00     0.000 C 
ENDROOT
BRANCH   1   2
ATOM      2  C   UNL     1      36.592  33.992  27.204  1.00  0.00     0.000 C 
BRANCH   2   3
ATOM      3  C   UNL     1      35.611  34.797  26.337  1.00  0.00     0.000 C 
BRANCH   3   4
ATOM      4  C   UNL     1      34.465  33.935  25.787  1.00  0.00     0.006 C 
BRANCH   4   5
ATOM      5  C   UNL     1      34.868  32.466  25.599  1.00  0.00     0.053 C 
BRANCH   5   6
ATOM      6  C   UNL     1      34.324  31.938  24.309  1.00  0.00     0.041 C 
ATOM      7  O   UNL     1      34.798  30.886  23.805  1.00  0.00    -0.550 OA
ATOM      8  O   UNL     1      33.326  32.633  23.638  1.00  0.00    -0.550 OA
ENDBRANCH   5   6
ENDBRANCH   4   5
ENDBRANCH   3   4
ENDBRANCH   2   3
ENDBRANCH   1   2
BRANCH   1   9
ATOM      9  C   UNL     1      35.739  35.778  28.779  1.00  0.00     0.000 C 
BRANCH   9  10
ATOM     10  C   UNL     1      36.328  36.836  29.729  1.00  0.00    -0.000 C 
BRANCH  10  11
ATOM     11  C   UNL     1      37.138  37.954  29.040  1.00  0.00    -0.000 C 
BRANCH  11  12
ATOM     12  C   UNL     1      38.601  38.081  29.501  1.00  0.00    -0.000 C 
BRANCH  12  13
ATOM     13  C   UNL     1      39.365  36.751  29.431  1.00  0.00    -0.003 C 
ATOM     14  C   UNL     1      39.773  36.427  27.998  1.00  0.00     0.004 C 
ENDBRANCH  12  13
ENDBRANCH  11  12
ENDBRANCH  10  11
ENDBRANCH   9  10
ENDBRANCH   1   9
TORSDOF 10
ENDMDL
MODEL 9
REMARK VINA RESULT:    -3.732      1.631      2.062
REMARK INTER + INTRA:          -7.106
REMARK INTER:                  -6.602
REMARK INTRA:                  -0.504
REMARK UNBOUND:                -1.193
REMARK SMILES CCCCCCCCCCCC(=O)[O-]
REMARK SMILES IDX 7 1 8 2 9 3 10 4 11 5 12 6 13 7 14 8 6 9 5 10 4 11 3 12 2 13
REMARK SMILES IDX 1 14
REMARK H PARENT
REMARK Flexibility Score: inf
ROOT
ATOM      1  C   UNL     1      36.293  32.971  26.355  1.00  0.00     0.000 C 
ENDROOT
BRANCH   1   2
ATOM      2  C   UNL     1      34.887  33.474  26.002  1.00  0.00     0.000 C 
BRANCH   2   3
ATOM      3  C   UNL     1      34.049  32.356  25.363  1.00  0.00     0.000 C 
BRANCH   3   4
ATOM      4  C   UNL     1      34.278  32.239  23.848  1.00  0.00     0.006 C 
BRANCH   4   5
ATOM      5  C   UNL     1      34.493  30.790  23.393  1.00  0.00     0.053 C 
BRANCH   5   6
ATOM      6  C   UNL     1      33.453  30.398  22.391  1.00  0.00     0.041 C 
ATOM      7  O   UNL     1      32.705  31.271  21.879  1.00  0.00    -0.550 OA
ATOM      8  O   UNL     1      33.277  29.060  22.059  1.00  0.00    -0.550 OA
ENDBRANCH   5   6
ENDBRANCH   4   5
ENDBRANCH   3   4
ENDBRANCH   2   3
ENDBRANCH   1   2
BRANCH   1   9
ATOM      9  C   UNL     1      36.965  33.894  27.382  1.00  0.00     0.000 C 
BRANCH   9  10
ATOM     10  C   UNL     1      36.026  34.998  27.900  1.00  0.00    -0.000 C 
BRANCH  10  11
ATOM     11  C   UNL     1      36.398  35.578  29.279  1.00  0.00    -0.000 C 
BRANCH  11  12
ATOM     12  C   UNL     1      36.353  37.114  29.376  1.00  0.00    -0.000 C 
BRANCH  12  13
ATOM     13  C   UNL     1      37.717  37.768  29.111  1.00  0.00    -0.003 C 
ATOM     14  C   UNL     1      38.854  36.774  29.330  1.00  0.00     0.004 C 
ENDBRANCH  12  13
ENDBRANCH  11  12
ENDBRANCH  10  11
ENDBRANCH   9  10
ENDBRANCH   1   9
TORSDOF 10
ENDMDL
