MODEL 1
REMARK VINA RESULT:    -5.539      0.000      0.000
REMARK INTER + INTRA:          -5.539
REMARK INTER:                  -5.539
REMARK INTRA:                   0.000
REMARK UNBOUND:                 0.000
REMARK SMILES C[NH+]1CCN(C2=[NH+]c3ccccc3Oc3ccc(Cl)cc32)CC1
REMARK SMILES IDX 7 1 6 2 21 3 5 4 8 5 9 6 13 7 10 8 12 9 14 10 11 11 15 12
REMARK SMILES IDX 16 13 17 14 18 15 20 16 19 17 4 18 22 19 3 20 23 21 2 22
REMARK SMILES IDX 1 23
REMARK H PARENT 7 24 2 25
REMARK Flexibility Score: inf
ROOT
ATOM      1  N   UNL     1     125.566 130.115 119.507  1.00  0.00    -0.237 N 
ATOM      2  C   UNL     1     124.375 130.641 119.390  1.00  0.00     0.286 C 
ATOM      3  C   UNL     1     123.129 129.837 119.282  1.00  0.00     0.108 A 
ATOM      4  N   UNL     1     124.268 132.076 119.331  1.00  0.00    -0.250 N 
ATOM      5  C   UNL     1     125.907 128.719 119.569  1.00  0.00     0.168 A 
ATOM      6  C   UNL     1     127.143 128.313 119.036  1.00  0.00     0.056 A 
ATOM      7  C   UNL     1     125.146 127.793 120.311  1.00  0.00     0.173 A 
ATOM      8  C   UNL     1     127.610 127.010 119.226  1.00  0.00     0.005 A 
ATOM      9  C   UNL     1     125.639 126.498 120.524  1.00  0.00     0.052 A 
ATOM     10  O   UNL     1     123.901 128.111 120.844  1.00  0.00    -0.452 OA
ATOM     11  C   UNL     1     126.861 126.106 119.977  1.00  0.00     0.004 A 
ATOM     12  C   UNL     1     122.897 128.697 120.079  1.00  0.00     0.143 A 
ATOM     13  C   UNL     1     121.628 128.106 120.103  1.00  0.00     0.049 A 
ATOM     14  C   UNL     1     120.600 128.599 119.298  1.00  0.00     0.024 A 
ATOM     15  C   UNL     1     120.833 129.694 118.467  1.00  0.00     0.042 A 
ATOM     16  C   UNL     1     122.086 130.313 118.464  1.00  0.00     0.041 A 
ATOM     17  Cl  UNL     1     119.546 130.313 117.448  1.00  0.00    -0.084 Cl
ATOM     18  C   UNL     1     124.859 132.811 118.212  1.00  0.00     0.298 C 
ATOM     19  C   UNL     1     123.334 132.781 120.211  1.00  0.00     0.298 C 
ATOM     20  C   UNL     1     125.431 134.147 118.706  1.00  0.00     0.308 C 
ATOM     21  C   UNL     1     123.942 134.119 120.656  1.00  0.00     0.308 C 
ATOM     22  N   UNL     1     124.463 134.916 119.521  1.00  0.00    -0.331 N 
ATOM     23  C   UNL     1     123.380 135.497 118.704  1.00  0.00     0.332 C 
ATOM     24  H   UNL     1     126.378 130.776 119.527  1.00  0.00     0.312 HD
ATOM     25  H   UNL     1     124.988 135.725 119.934  1.00  0.00     0.348 HD
ENDROOT
TORSDOF 0
ENDMDL
MODEL 2
REMARK VINA RESULT:    -5.477      3.483      4.915
REMARK INTER + INTRA:          -5.477
REMARK INTER:                  -5.477
REMARK INTRA:                   0.000
REMARK UNBOUND:                 0.000
REMARK SMILES C[NH+]1CCN(C2=[NH+]c3ccccc3Oc3ccc(Cl)cc32)CC1
REMARK SMILES IDX 7 1 6 2 21 3 5 4 8 5 9 6 13 7 10 8 12 9 14 10 11 11 15 12
REMARK SMILES IDX 16 13 17 14 18 15 20 16 19 17 4 18 22 19 3 20 23 21 2 22
REMARK SMILES IDX 1 23
REMARK H PARENT 7 24 2 25
REMARK Flexibility Score: inf
ROOT
ATOM      1  N   UNL     1     126.647 131.612 120.971  1.00  0.00    -0.237 N 
ATOM      2  C   UNL     1     126.489 132.901 120.818  1.00  0.00     0.286 C 
ATOM      3  C   UNL     1     125.207 133.528 120.400  1.00  0.00     0.108 A 
ATOM      4  N   UNL     1     127.626 133.756 121.039  1.00  0.00    -0.250 N 
ATOM      5  C   UNL     1     125.662 130.580 120.790  1.00  0.00     0.168 A 
ATOM      6  C   UNL     1     126.095 129.320 120.339  1.00  0.00     0.056 A 
ATOM      7  C   UNL     1     124.331 130.726 121.230  1.00  0.00     0.173 A 
ATOM      8  C   UNL     1     125.222 128.230 120.316  1.00  0.00     0.005 A 
ATOM      9  C   UNL     1     123.473 129.618 121.235  1.00  0.00     0.052 A 
ATOM     10  O   UNL     1     123.820 131.947 121.662  1.00  0.00    -0.452 OA
ATOM     11  C   UNL     1     123.913 128.378 120.772  1.00  0.00     0.004 A 
ATOM     12  C   UNL     1     123.962 133.112 120.915  1.00  0.00     0.143 A 
ATOM     13  C   UNL     1     122.812 133.871 120.664  1.00  0.00     0.049 A 
ATOM     14  C   UNL     1     122.874 135.008 119.858  1.00  0.00     0.024 A 
ATOM     15  C   UNL     1     124.091 135.399 119.300  1.00  0.00     0.042 A 
ATOM     16  C   UNL     1     125.250 134.669 119.574  1.00  0.00     0.041 A 
ATOM     17  Cl  UNL     1     124.172 136.823 118.279  1.00  0.00    -0.084 Cl
ATOM     18  C   UNL     1     128.801 133.653 120.172  1.00  0.00     0.298 C 
ATOM     19  C   UNL     1     127.514 134.918 121.924  1.00  0.00     0.298 C 
ATOM     20  C   UNL     1     130.079 133.879 120.993  1.00  0.00     0.308 C 
ATOM     21  C   UNL     1     128.823 135.113 122.701  1.00  0.00     0.308 C 
ATOM     22  N   UNL     1     130.016 135.103 121.823  1.00  0.00    -0.331 N 
ATOM     23  C   UNL     1     130.124 136.333 121.016  1.00  0.00     0.332 C 
ATOM     24  H   UNL     1     127.606 131.277 121.222  1.00  0.00     0.312 HD
ATOM     25  H   UNL     1     130.855 135.088 122.452  1.00  0.00     0.348 HD
ENDROOT
TORSDOF 0
ENDMDL
MODEL 3
REMARK VINA RESULT:    -5.367      3.887      8.113
REMARK INTER + INTRA:          -5.367
REMARK INTER:                  -5.367
REMARK INTRA:                   0.000
REMARK UNBOUND:                 0.000
REMARK SMILES C[NH+]1CCN(C2=[NH+]c3ccccc3Oc3ccc(Cl)cc32)CC1
REMARK SMILES IDX 7 1 6 2 21 3 5 4 8 5 9 6 13 7 10 8 12 9 14 10 11 11 15 12
REMARK SMILES IDX 16 13 17 14 18 15 20 16 19 17 4 18 22 19 3 20 23 21 2 22
REMARK SMILES IDX 1 23
REMARK H PARENT 7 24 2 25
REMARK Flexibility Score: inf
ROOT
ATOM      1  N   UNL     1     121.996 134.253 119.577  1.00  0.00    -0.237 N 
ATOM      2  C   UNL     1     123.212 134.251 120.054  1.00  0.00     0.286 C 
ATOM      3  C   UNL     1     124.000 135.488 120.304  1.00  0.00     0.108 A 
ATOM      4  N   UNL     1     123.834 132.980 120.326  1.00  0.00    -0.250 N 
ATOM      5  C   UNL     1     121.194 135.394 119.222  1.00  0.00     0.168 A 
ATOM      6  C   UNL     1     120.275 135.257 118.168  1.00  0.00     0.056 A 
ATOM      7  C   UNL     1     121.160 136.562 120.010  1.00  0.00     0.173 A 
ATOM      8  C   UNL     1     119.346 136.264 117.895  1.00  0.00     0.005 A 
ATOM      9  C   UNL     1     120.202 137.551 119.749  1.00  0.00     0.052 A 
ATOM     10  O   UNL     1     122.057 136.783 121.051  1.00  0.00    -0.452 OA
ATOM     11  C   UNL     1     119.305 137.408 118.691  1.00  0.00     0.004 A 
ATOM     12  C   UNL     1     123.431 136.638 120.886  1.00  0.00     0.143 A 
ATOM     13  C   UNL     1     124.254 137.692 121.303  1.00  0.00     0.049 A 
ATOM     14  C   UNL     1     125.632 137.641 121.095  1.00  0.00     0.024 A 
ATOM     15  C   UNL     1     126.201 136.530 120.472  1.00  0.00     0.042 A 
ATOM     16  C   UNL     1     125.392 135.458 120.085  1.00  0.00     0.041 A 
ATOM     17  Cl  UNL     1     127.933 136.465 120.201  1.00  0.00    -0.084 Cl
ATOM     18  C   UNL     1     124.109 132.049 119.231  1.00  0.00     0.298 C 
ATOM     19  C   UNL     1     124.456 132.728 121.627  1.00  0.00     0.298 C 
ATOM     20  C   UNL     1     123.891 130.605 119.704  1.00  0.00     0.308 C 
ATOM     21  C   UNL     1     124.230 131.268 122.042  1.00  0.00     0.308 C 
ATOM     22  N   UNL     1     124.593 130.307 120.973  1.00  0.00    -0.331 N 
ATOM     23  C   UNL     1     126.053 130.198 120.793  1.00  0.00     0.332 C 
ATOM     24  H   UNL     1     121.553 133.322 119.397  1.00  0.00     0.312 HD
ATOM     25  H   UNL     1     124.263 129.363 121.289  1.00  0.00     0.348 HD
ENDROOT
TORSDOF 0
ENDMDL
MODEL 4
REMARK VINA RESULT:    -5.356      3.542      6.453
REMARK INTER + INTRA:          -5.356
REMARK INTER:                  -5.356
REMARK INTRA:                   0.000
REMARK UNBOUND:                 0.000
REMARK SMILES C[NH+]1CCN(C2=[NH+]c3ccccc3Oc3ccc(Cl)cc32)CC1
REMARK SMILES IDX 7 1 6 2 21 3 5 4 8 5 9 6 13 7 10 8 12 9 14 10 11 11 15 12
REMARK SMILES IDX 16 13 17 14 18 15 20 16 19 17 4 18 22 19 3 20 23 21 2 22
REMARK SMILES IDX 1 23
REMARK H PARENT 7 24 2 25
REMARK Flexibility Score: inf
ROOT
ATOM      1  N   UNL     1     126.577 132.696 121.325  1.00  0.00    -0.237 N 
ATOM      2  C   UNL     1     125.418 132.886 120.753  1.00  0.00     0.286 C 
ATOM      3  C   UNL     1     124.804 134.227 120.562  1.00  0.00     0.108 A 
ATOM      4  N   UNL     1     124.681 131.729 120.310  1.00  0.00    -0.250 N 
ATOM      5  C   UNL     1     127.469 133.694 121.853  1.00  0.00     0.168 A 
ATOM      6  C   UNL     1     128.266 133.354 122.960  1.00  0.00     0.056 A 
ATOM      7  C   UNL     1     127.710 134.913 121.187  1.00  0.00     0.173 A 
ATOM      8  C   UNL     1     129.275 134.212 123.404  1.00  0.00     0.005 A 
ATOM      9  C   UNL     1     128.748 135.750 121.619  1.00  0.00     0.052 A 
ATOM     10  O   UNL     1     126.944 135.332 120.103  1.00  0.00    -0.452 OA
ATOM     11  C   UNL     1     129.521 135.406 122.728  1.00  0.00     0.004 A 
ATOM     12  C   UNL     1     125.553 135.344 120.141  1.00  0.00     0.143 A 
ATOM     13  C   UNL     1     124.899 136.523 119.763  1.00  0.00     0.049 A 
ATOM     14  C   UNL     1     123.511 136.625 119.853  1.00  0.00     0.024 A 
ATOM     15  C   UNL     1     122.763 135.543 120.317  1.00  0.00     0.042 A 
ATOM     16  C   UNL     1     123.404 134.350 120.663  1.00  0.00     0.041 A 
ATOM     17  Cl  UNL     1     121.018 135.669 120.440  1.00  0.00    -0.084 Cl
ATOM     18  C   UNL     1     124.201 130.748 121.284  1.00  0.00     0.298 C 
ATOM     19  C   UNL     1     124.156 131.669 118.944  1.00  0.00     0.298 C 
ATOM     20  C   UNL     1     124.294 129.334 120.692  1.00  0.00     0.308 C 
ATOM     21  C   UNL     1     124.250 130.233 118.410  1.00  0.00     0.308 C 
ATOM     22  N   UNL     1     123.682 129.236 119.347  1.00  0.00    -0.331 N 
ATOM     23  C   UNL     1     122.209 129.293 119.397  1.00  0.00     0.332 C 
ATOM     24  H   UNL     1     126.891 131.705 121.450  1.00  0.00     0.312 HD
ATOM     25  H   UNL     1     123.929 128.290 118.970  1.00  0.00     0.348 HD
ENDROOT
TORSDOF 0
ENDMDL
MODEL 5
REMARK VINA RESULT:    -5.331      2.744      5.873
REMARK INTER + INTRA:          -5.331
REMARK INTER:                  -5.331
REMARK INTRA:                   0.000
REMARK UNBOUND:                 0.000
REMARK SMILES C[NH+]1CCN(C2=[NH+]c3ccccc3Oc3ccc(Cl)cc32)CC1
REMARK SMILES IDX 7 1 6 2 21 3 5 4 8 5 9 6 13 7 10 8 12 9 14 10 11 11 15 12
REMARK SMILES IDX 16 13 17 14 18 15 20 16 19 17 4 18 22 19 3 20 23 21 2 22
REMARK SMILES IDX 1 23
REMARK H PARENT 7 24 2 25
REMARK Flexibility Score: inf
ROOT
ATOM      1  N   UNL     1     122.868 131.142 119.287  1.00  0.00    -0.237 N 
ATOM      2  C   UNL     1     123.112 129.896 118.975  1.00  0.00     0.286 C 
ATOM      3  C   UNL     1     124.439 129.249 119.155  1.00  0.00     0.108 A 
ATOM      4  N   UNL     1     122.047 129.118 118.398  1.00  0.00    -0.250 N 
ATOM      5  C   UNL     1     123.778 132.099 119.856  1.00  0.00     0.168 A 
ATOM      6  C   UNL     1     123.614 133.454 119.519  1.00  0.00     0.056 A 
ATOM      7  C   UNL     1     124.689 131.755 120.876  1.00  0.00     0.173 A 
ATOM      8  C   UNL     1     124.345 134.447 120.174  1.00  0.00     0.005 A 
ATOM      9  C   UNL     1     125.392 132.762 121.550  1.00  0.00     0.052 A 
ATOM     10  O   UNL     1     124.929 130.435 121.245  1.00  0.00    -0.452 OA
ATOM     11  C   UNL     1     125.229 134.102 121.195  1.00  0.00     0.004 A 
ATOM     12  C   UNL     1     125.223 129.449 120.309  1.00  0.00     0.143 A 
ATOM     13  C   UNL     1     126.353 128.652 120.534  1.00  0.00     0.049 A 
ATOM     14  C   UNL     1     126.747 127.698 119.595  1.00  0.00     0.024 A 
ATOM     15  C   UNL     1     126.008 127.528 118.425  1.00  0.00     0.042 A 
ATOM     16  C   UNL     1     124.858 128.293 118.209  1.00  0.00     0.041 A 
ATOM     17  Cl  UNL     1     126.504 126.335 117.238  1.00  0.00    -0.084 Cl
ATOM     18  C   UNL     1     121.493 129.486 117.094  1.00  0.00     0.298 C 
ATOM     19  C   UNL     1     121.710 127.805 118.952  1.00  0.00     0.298 C 
ATOM     20  C   UNL     1     119.980 129.223 117.074  1.00  0.00     0.308 C 
ATOM     21  C   UNL     1     120.192 127.583 118.887  1.00  0.00     0.308 C 
ATOM     22  N   UNL     1     119.631 127.863 117.544  1.00  0.00    -0.331 N 
ATOM     23  C   UNL     1     119.987 126.822 116.562  1.00  0.00     0.332 C 
ATOM     24  H   UNL     1     121.910 131.507 119.074  1.00  0.00     0.312 HD
ATOM     25  H   UNL     1     118.587 127.834 117.640  1.00  0.00     0.348 HD
ENDROOT
TORSDOF 0
ENDMDL
MODEL 6
REMARK VINA RESULT:    -5.199      3.427      5.362
REMARK INTER + INTRA:          -5.199
REMARK INTER:                  -5.199
REMARK INTRA:                   0.000
REMARK UNBOUND:                 0.000
REMARK SMILES C[NH+]1CCN(C2=[NH+]c3ccccc3Oc3ccc(Cl)cc32)CC1
REMARK SMILES IDX 7 1 6 2 21 3 5 4 8 5 9 6 13 7 10 8 12 9 14 10 11 11 15 12
REMARK SMILES IDX 16 13 17 14 18 15 20 16 19 17 4 18 22 19 3 20 23 21 2 22
REMARK SMILES IDX 1 23
REMARK H PARENT 7 24 2 25
REMARK Flexibility Score: inf
ROOT
ATOM      1  N   UNL     1     125.974 135.537 120.968  1.00  0.00    -0.237 N 
ATOM      2  C   UNL     1     124.936 134.915 120.475  1.00  0.00     0.286 C 
ATOM      3  C   UNL     1     124.801 133.434 120.449  1.00  0.00     0.108 A 
ATOM      4  N   UNL     1     123.879 135.706 119.899  1.00  0.00    -0.250 N 
ATOM      5  C   UNL     1     127.141 134.954 121.573  1.00  0.00     0.168 A 
ATOM      6  C   UNL     1     128.368 135.625 121.432  1.00  0.00     0.056 A 
ATOM      7  C   UNL     1     127.062 133.856 122.454  1.00  0.00     0.173 A 
ATOM      8  C   UNL     1     129.497 135.209 122.143  1.00  0.00     0.005 A 
ATOM      9  C   UNL     1     128.190 133.468 123.188  1.00  0.00     0.052 A 
ATOM     10  O   UNL     1     125.891 133.123 122.624  1.00  0.00    -0.452 OA
ATOM     11  C   UNL     1     129.405 134.135 123.027  1.00  0.00     0.004 A 
ATOM     12  C   UNL     1     125.167 132.626 121.544  1.00  0.00     0.143 A 
ATOM     13  C   UNL     1     124.818 131.269 121.561  1.00  0.00     0.049 A 
ATOM     14  C   UNL     1     124.161 130.693 120.474  1.00  0.00     0.024 A 
ATOM     15  C   UNL     1     123.839 131.472 119.363  1.00  0.00     0.042 A 
ATOM     16  C   UNL     1     124.151 132.834 119.353  1.00  0.00     0.041 A 
ATOM     17  Cl  UNL     1     123.019 130.749 117.991  1.00  0.00    -0.084 Cl
ATOM     18  C   UNL     1     124.136 136.519 118.709  1.00  0.00     0.298 C 
ATOM     19  C   UNL     1     122.489 135.487 120.305  1.00  0.00     0.298 C 
ATOM     20  C   UNL     1     123.345 137.832 118.791  1.00  0.00     0.308 C 
ATOM     21  C   UNL     1     121.738 136.824 120.348  1.00  0.00     0.308 C 
ATOM     22  N   UNL     1     121.915 137.619 119.110  1.00  0.00    -0.331 N 
ATOM     23  C   UNL     1     121.167 137.052 117.971  1.00  0.00     0.332 C 
ATOM     24  H   UNL     1     125.984 136.581 120.891  1.00  0.00     0.312 HD
ATOM     25  H   UNL     1     121.500 138.564 119.294  1.00  0.00     0.348 HD
ENDROOT
TORSDOF 0
ENDMDL
MODEL 7
REMARK VINA RESULT:    -5.109      6.350      8.431
REMARK INTER + INTRA:          -5.109
REMARK INTER:                  -5.109
REMARK INTRA:                   0.000
REMARK UNBOUND:                 0.000
REMARK SMILES C[NH+]1CCN(C2=[NH+]c3ccccc3Oc3ccc(Cl)cc32)CC1
REMARK SMILES IDX 7 1 6 2 21 3 5 4 8 5 9 6 13 7 10 8 12 9 14 10 11 11 15 12
REMARK SMILES IDX 16 13 17 14 18 15 20 16 19 17 4 18 22 19 3 20 23 21 2 22
REMARK SMILES IDX 1 23
REMARK H PARENT 7 24 2 25
REMARK Flexibility Score: inf
ROOT
ATOM      1  N   UNL     1     126.128 135.375 121.089  1.00  0.00    -0.237 N 
ATOM      2  C   UNL     1     125.441 136.416 120.701  1.00  0.00     0.286 C 
ATOM      3  C   UNL     1     125.941 137.813 120.793  1.00  0.00     0.108 A 
ATOM      4  N   UNL     1     124.114 136.200 120.183  1.00  0.00    -0.250 N 
ATOM      5  C   UNL     1     127.454 135.357 121.646  1.00  0.00     0.168 A 
ATOM      6  C   UNL     1     127.768 134.355 122.581  1.00  0.00     0.056 A 
ATOM      7  C   UNL     1     128.490 136.174 121.148  1.00  0.00     0.173 A 
ATOM      8  C   UNL     1     129.082 134.173 123.020  1.00  0.00     0.005 A 
ATOM      9  C   UNL     1     129.809 135.962 121.570  1.00  0.00     0.052 A 
ATOM     10  O   UNL     1     128.253 137.206 120.245  1.00  0.00    -0.452 OA
ATOM     11  C   UNL     1     130.103 134.972 122.508  1.00  0.00     0.004 A 
ATOM     12  C   UNL     1     127.265 138.162 120.458  1.00  0.00     0.143 A 
ATOM     13  C   UNL     1     127.627 139.511 120.347  1.00  0.00     0.049 A 
ATOM     14  C   UNL     1     126.703 140.518 120.624  1.00  0.00     0.024 A 
ATOM     15  C   UNL     1     125.405 140.185 121.008  1.00  0.00     0.042 A 
ATOM     16  C   UNL     1     125.024 138.842 121.086  1.00  0.00     0.041 A 
ATOM     17  Cl  UNL     1     124.242 141.448 121.365  1.00  0.00    -0.084 Cl
ATOM     18  C   UNL     1     123.068 135.653 121.049  1.00  0.00     0.298 C 
ATOM     19  C   UNL     1     123.720 136.786 118.900  1.00  0.00     0.298 C 
ATOM     20  C   UNL     1     122.157 134.717 120.242  1.00  0.00     0.308 C 
ATOM     21  C   UNL     1     122.793 135.822 118.146  1.00  0.00     0.308 C 
ATOM     22  N   UNL     1     121.674 135.331 118.985  1.00  0.00    -0.331 N 
ATOM     23  C   UNL     1     120.659 136.374 119.226  1.00  0.00     0.332 C 
ATOM     24  H   UNL     1     125.659 134.442 121.021  1.00  0.00     0.312 HD
ATOM     25  H   UNL     1     121.196 134.574 118.440  1.00  0.00     0.348 HD
ENDROOT
TORSDOF 0
ENDMDL
MODEL 8
REMARK VINA RESULT:    -5.033      3.161      5.108
REMARK INTER + INTRA:          -5.033
REMARK INTER:                  -5.033
REMARK INTRA:                   0.000
REMARK UNBOUND:                 0.000
REMARK SMILES C[NH+]1CCN(C2=[NH+]c3ccccc3Oc3ccc(Cl)cc32)CC1
REMARK SMILES IDX 7 1 6 2 21 3 5 4 8 5 9 6 13 7 10 8 12 9 14 10 11 11 15 12
REMARK SMILES IDX 16 13 17 14 18 15 20 16 19 17 4 18 22 19 3 20 23 21 2 22
REMARK SMILES IDX 1 23
REMARK H PARENT 7 24 2 25
REMARK Flexibility Score: inf
ROOT
ATOM      1  N   UNL     1     123.468 131.869 120.205  1.00  0.00    -0.237 N 
ATOM      2  C   UNL     1     124.183 132.963 120.229  1.00  0.00     0.286 C 
ATOM      3  C   UNL     1     125.650 132.982 120.474  1.00  0.00     0.108 A 
ATOM      4  N   UNL     1     123.508 134.221 120.037  1.00  0.00    -0.250 N 
ATOM      5  C   UNL     1     123.926 130.517 120.387  1.00  0.00     0.168 A 
ATOM      6  C   UNL     1     123.050 129.594 120.984  1.00  0.00     0.056 A 
ATOM      7  C   UNL     1     125.128 130.048 119.818  1.00  0.00     0.173 A 
ATOM      8  C   UNL     1     123.364 128.233 121.024  1.00  0.00     0.005 A 
ATOM      9  C   UNL     1     125.418 128.677 119.834  1.00  0.00     0.052 A 
ATOM     10  O   UNL     1     126.059 130.904 119.237  1.00  0.00    -0.452 OA
ATOM     11  C   UNL     1     124.545 127.775 120.441  1.00  0.00     0.004 A 
ATOM     12  C   UNL     1     126.522 132.043 119.889  1.00  0.00     0.143 A 
ATOM     13  C   UNL     1     127.908 132.231 119.968  1.00  0.00     0.049 A 
ATOM     14  C   UNL     1     128.438 133.311 120.674  1.00  0.00     0.024 A 
ATOM     15  C   UNL     1     127.585 134.218 121.301  1.00  0.00     0.042 A 
ATOM     16  C   UNL     1     126.200 134.058 121.197  1.00  0.00     0.041 A 
ATOM     17  Cl  UNL     1     128.247 135.573 122.197  1.00  0.00    -0.084 Cl
ATOM     18  C   UNL     1     122.515 134.677 121.011  1.00  0.00     0.298 C 
ATOM     19  C   UNL     1     124.003 135.179 119.047  1.00  0.00     0.298 C 
ATOM     20  C   UNL     1     121.372 135.407 120.292  1.00  0.00     0.308 C 
ATOM     21  C   UNL     1     122.824 135.896 118.376  1.00  0.00     0.308 C 
ATOM     22  N   UNL     1     121.857 136.445 119.355  1.00  0.00    -0.331 N 
ATOM     23  C   UNL     1     122.386 137.630 120.057  1.00  0.00     0.332 C 
ATOM     24  H   UNL     1     122.436 131.977 120.071  1.00  0.00     0.312 HD
ATOM     25  H   UNL     1     121.024 136.773 118.808  1.00  0.00     0.348 HD
ENDROOT
TORSDOF 0
ENDMDL
MODEL 9
REMARK VINA RESULT:    -5.022      2.881      6.534
REMARK INTER + INTRA:          -5.022
REMARK INTER:                  -5.022
REMARK INTRA:                   0.000
REMARK UNBOUND:                 0.000
REMARK SMILES C[NH+]1CCN(C2=[NH+]c3ccccc3Oc3ccc(Cl)cc32)CC1
REMARK SMILES IDX 7 1 6 2 21 3 5 4 8 5 9 6 13 7 10 8 12 9 14 10 11 11 15 12
REMARK SMILES IDX 16 13 17 14 18 15 20 16 19 17 4 18 22 19 3 20 23 21 2 22
REMARK SMILES IDX 1 23
REMARK H PARENT 7 24 2 25
REMARK Flexibility Score: inf
ROOT
ATOM      1  N   UNL     1     121.980 132.511 118.851  1.00  0.00    -0.237 N 
ATOM      2  C   UNL     1     122.577 131.350 118.900  1.00  0.00     0.286 C 
ATOM      3  C   UNL     1     123.961 131.157 119.408  1.00  0.00     0.108 A 
ATOM      4  N   UNL     1     121.865 130.198 118.407  1.00  0.00    -0.250 N 
ATOM      5  C   UNL     1     122.502 133.785 119.270  1.00  0.00     0.168 A 
ATOM      6  C   UNL     1     122.080 134.935 118.581  1.00  0.00     0.056 A 
ATOM      7  C   UNL     1     123.255 133.935 120.453  1.00  0.00     0.173 A 
ATOM      8  C   UNL     1     122.406 136.209 119.051  1.00  0.00     0.005 A 
ATOM      9  C   UNL     1     123.548 135.218 120.934  1.00  0.00     0.052 A 
ATOM     10  O   UNL     1     123.734 132.845 121.173  1.00  0.00    -0.452 OA
ATOM     11  C   UNL     1     123.134 136.350 120.232  1.00  0.00     0.004 A 
ATOM     12  C   UNL     1     124.436 131.808 120.565  1.00  0.00     0.143 A 
ATOM     13  C   UNL     1     125.661 131.430 121.128  1.00  0.00     0.049 A 
ATOM     14  C   UNL     1     126.449 130.452 120.522  1.00  0.00     0.024 A 
ATOM     15  C   UNL     1     126.013 129.837 119.348  1.00  0.00     0.042 A 
ATOM     16  C   UNL     1     124.775 130.182 118.799  1.00  0.00     0.041 A 
ATOM     17  Cl  UNL     1     127.004 128.612 118.578  1.00  0.00    -0.084 Cl
ATOM     18  C   UNL     1     121.500 130.112 116.993  1.00  0.00     0.298 C 
ATOM     19  C   UNL     1     121.759 128.991 119.229  1.00  0.00     0.298 C 
ATOM     20  C   UNL     1     120.131 129.433 116.846  1.00  0.00     0.308 C 
ATOM     21  C   UNL     1     120.384 128.340 119.028  1.00  0.00     0.308 C 
ATOM     22  N   UNL     1     120.040 128.161 117.598  1.00  0.00    -0.331 N 
ATOM     23  C   UNL     1     120.822 127.081 116.967  1.00  0.00     0.332 C 
ATOM     24  H   UNL     1     121.022 132.537 118.430  1.00  0.00     0.312 HD
ATOM     25  H   UNL     1     119.037 127.858 117.562  1.00  0.00     0.348 HD
ENDROOT
TORSDOF 0
ENDMDL
