MODEL 1
REMARK VINA RESULT:    -3.647      0.000      0.000
REMARK INTER + INTRA:          -6.900
REMARK INTER:                  -5.779
REMARK INTRA:                  -1.121
REMARK UNBOUND:                -1.121
REMARK SMILES CCCCCCCCCCCC(=O)[O-]
REMARK SMILES IDX 7 1 8 2 9 3 10 4 11 5 12 6 13 7 14 8 6 9 5 10 4 11 3 12 2 13
REMARK SMILES IDX 1 14
REMARK H PARENT
REMARK Flexibility Score: inf
ROOT
ATOM      1  C   UNL     1      57.452  22.290  23.839  1.00  0.00     0.000 C 
ENDROOT
BRANCH   1   2
ATOM      2  C   UNL     1      58.603  21.575  23.111  1.00  0.00     0.000 C 
BRANCH   2   3
ATOM      3  C   UNL     1      59.171  22.406  21.947  1.00  0.00     0.000 C 
BRANCH   3   4
ATOM      4  C   UNL     1      60.356  21.715  21.252  1.00  0.00     0.006 C 
BRANCH   4   5
ATOM      5  C   UNL     1      61.373  22.712  20.683  1.00  0.00     0.053 C 
BRANCH   5   6
ATOM      6  C   UNL     1      62.148  22.086  19.566  1.00  0.00     0.041 C 
ATOM      7  O   UNL     1      61.969  22.467  18.380  1.00  0.00    -0.550 OA
ATOM      8  O   UNL     1      63.106  21.118  19.842  1.00  0.00    -0.550 OA
ENDBRANCH   5   6
ENDBRANCH   4   5
ENDBRANCH   3   4
ENDBRANCH   2   3
ENDBRANCH   1   2
BRANCH   1   9
ATOM      9  C   UNL     1      57.952  23.313  24.874  1.00  0.00     0.000 C 
BRANCH   9  10
ATOM     10  C   UNL     1      59.293  22.908  25.506  1.00  0.00    -0.000 C 
BRANCH  10  11
ATOM     11  C   UNL     1      60.289  24.075  25.589  1.00  0.00    -0.000 C 
BRANCH  11  12
ATOM     12  C   UNL     1      61.276  24.036  24.412  1.00  0.00    -0.000 C 
BRANCH  12  13
ATOM     13  C   UNL     1      61.119  25.239  23.469  1.00  0.00    -0.003 C 
ATOM     14  C   UNL     1      62.448  25.702  22.873  1.00  0.00     0.004 C 
ENDBRANCH  12  13
ENDBRANCH  11  12
ENDBRANCH  10  11
ENDBRANCH   9  10
ENDBRANCH   1   9
TORSDOF 10
ENDMDL
MODEL 2
REMARK VINA RESULT:    -3.625      3.337      5.075
REMARK INTER + INTRA:          -6.865
REMARK INTER:                  -5.621
REMARK INTRA:                  -1.244
REMARK UNBOUND:                -1.121
REMARK SMILES CCCCCCCCCCCC(=O)[O-]
REMARK SMILES IDX 7 1 8 2 9 3 10 4 11 5 12 6 13 7 14 8 6 9 5 10 4 11 3 12 2 13
REMARK SMILES IDX 1 14
REMARK H PARENT
REMARK Flexibility Score: inf
ROOT
ATOM      1  C   UNL     1      59.633  23.492  23.664  1.00  0.00     0.000 C 
ENDROOT
BRANCH   1   2
ATOM      2  C   UNL     1      59.512  22.208  24.501  1.00  0.00     0.000 C 
BRANCH   2   3
ATOM      3  C   UNL     1      59.236  20.964  23.637  1.00  0.00     0.000 C 
BRANCH   3   4
ATOM      4  C   UNL     1      58.139  21.207  22.588  1.00  0.00     0.006 C 
BRANCH   4   5
ATOM      5  C   UNL     1      56.735  20.877  23.112  1.00  0.00     0.053 C 
BRANCH   5   6
ATOM      6  C   UNL     1      55.850  22.081  23.027  1.00  0.00     0.041 C 
ATOM      7  O   UNL     1      56.254  23.124  22.450  1.00  0.00    -0.550 OA
ATOM      8  O   UNL     1      54.560  22.033  23.541  1.00  0.00    -0.550 OA
ENDBRANCH   5   6
ENDBRANCH   4   5
ENDBRANCH   3   4
ENDBRANCH   2   3
ENDBRANCH   1   2
BRANCH   1   9
ATOM      9  C   UNL     1      61.089  23.966  23.514  1.00  0.00     0.000 C 
BRANCH   9  10
ATOM     10  C   UNL     1      61.676  23.645  22.130  1.00  0.00    -0.000 C 
BRANCH  10  11
ATOM     11  C   UNL     1      62.482  22.337  22.115  1.00  0.00    -0.000 C 
BRANCH  11  12
ATOM     12  C   UNL     1      61.914  21.357  21.076  1.00  0.00    -0.000 C 
BRANCH  12  13
ATOM     13  C   UNL     1      61.100  22.063  19.981  1.00  0.00    -0.003 C 
ATOM     14  C   UNL     1      61.912  22.322  18.713  1.00  0.00     0.004 C 
ENDBRANCH  12  13
ENDBRANCH  11  12
ENDBRANCH  10  11
ENDBRANCH   9  10
ENDBRANCH   1   9
TORSDOF 10
ENDMDL
MODEL 3
REMARK VINA RESULT:    -3.560      3.109      5.034
REMARK INTER + INTRA:          -6.762
REMARK INTER:                  -5.484
REMARK INTRA:                  -1.278
REMARK UNBOUND:                -1.121
REMARK SMILES CCCCCCCCCCCC(=O)[O-]
REMARK SMILES IDX 7 1 8 2 9 3 10 4 11 5 12 6 13 7 14 8 6 9 5 10 4 11 3 12 2 13
REMARK SMILES IDX 1 14
REMARK H PARENT
REMARK Flexibility Score: inf
ROOT
ATOM      1  C   UNL     1      61.519  22.410  19.817  1.00  0.00     0.000 C 
ENDROOT
BRANCH   1   2
ATOM      2  C   UNL     1      60.438  21.594  20.546  1.00  0.00     0.000 C 
BRANCH   2   3
ATOM      3  C   UNL     1      59.774  22.382  21.689  1.00  0.00     0.000 C 
BRANCH   3   4
ATOM      4  C   UNL     1      59.566  21.529  22.951  1.00  0.00     0.006 C 
BRANCH   4   5
ATOM      5  C   UNL     1      58.100  21.131  23.162  1.00  0.00     0.053 C 
BRANCH   5   6
ATOM      6  C   UNL     1      57.263  22.344  23.428  1.00  0.00     0.041 C 
ATOM      7  O   UNL     1      57.490  23.060  24.437  1.00  0.00    -0.550 OA
ATOM      8  O   UNL     1      56.265  22.709  22.533  1.00  0.00    -0.550 OA
ENDBRANCH   5   6
ENDBRANCH   4   5
ENDBRANCH   3   4
ENDBRANCH   2   3
ENDBRANCH   1   2
BRANCH   1   9
ATOM      9  C   UNL     1      62.830  21.625  19.634  1.00  0.00     0.000 C 
BRANCH   9  10
ATOM     10  C   UNL     1      63.762  21.739  20.851  1.00  0.00    -0.000 C 
BRANCH  10  11
ATOM     11  C   UNL     1      63.663  23.103  21.551  1.00  0.00    -0.000 C 
BRANCH  11  12
ATOM     12  C   UNL     1      63.247  22.935  23.020  1.00  0.00    -0.000 C 
BRANCH  12  13
ATOM     13  C   UNL     1      62.529  24.173  23.577  1.00  0.00    -0.003 C 
ATOM     14  C   UNL     1      62.275  25.240  22.513  1.00  0.00     0.004 C 
ENDBRANCH  12  13
ENDBRANCH  11  12
ENDBRANCH  10  11
ENDBRANCH   9  10
ENDBRANCH   1   9
TORSDOF 10
ENDMDL
MODEL 4
REMARK VINA RESULT:    -3.519      2.474      4.772
REMARK INTER + INTRA:          -6.698
REMARK INTER:                  -5.749
REMARK INTRA:                  -0.949
REMARK UNBOUND:                -1.121
REMARK SMILES CCCCCCCCCCCC(=O)[O-]
REMARK SMILES IDX 7 1 8 2 9 3 10 4 11 5 12 6 13 7 14 8 6 9 5 10 4 11 3 12 2 13
REMARK SMILES IDX 1 14
REMARK H PARENT
REMARK Flexibility Score: inf
ROOT
ATOM      1  C   UNL     1      60.689  22.003  20.315  1.00  0.00     0.000 C 
ENDROOT
BRANCH   1   2
ATOM      2  C   UNL     1      61.993  22.054  19.500  1.00  0.00     0.000 C 
BRANCH   2   3
ATOM      3  C   UNL     1      63.207  21.548  20.299  1.00  0.00     0.000 C 
BRANCH   3   4
ATOM      4  C   UNL     1      64.072  22.696  20.847  1.00  0.00     0.006 C 
BRANCH   4   5
ATOM      5  C   UNL     1      63.780  23.006  22.320  1.00  0.00     0.053 C 
BRANCH   5   6
ATOM      6  C   UNL     1      63.152  24.359  22.454  1.00  0.00     0.041 C 
ATOM      7  O   UNL     1      61.902  24.469  22.554  1.00  0.00    -0.550 OA
ATOM      8  O   UNL     1      63.952  25.492  22.519  1.00  0.00    -0.550 OA
ENDBRANCH   5   6
ENDBRANCH   4   5
ENDBRANCH   3   4
ENDBRANCH   2   3
ENDBRANCH   1   2
BRANCH   1   9
ATOM      9  C   UNL     1      60.758  20.998  21.479  1.00  0.00     0.000 C 
BRANCH   9  10
ATOM     10  C   UNL     1      59.962  21.463  22.709  1.00  0.00    -0.000 C 
BRANCH  10  11
ATOM     11  C   UNL     1      58.916  22.536  22.370  1.00  0.00    -0.000 C 
BRANCH  11  12
ATOM     12  C   UNL     1      57.739  22.483  23.356  1.00  0.00    -0.000 C 
BRANCH  12  13
ATOM     13  C   UNL     1      56.527  21.730  22.789  1.00  0.00    -0.003 C 
ATOM     14  C   UNL     1      55.208  22.159  23.432  1.00  0.00     0.004 C 
ENDBRANCH  12  13
ENDBRANCH  11  12
ENDBRANCH  10  11
ENDBRANCH   9  10
ENDBRANCH   1   9
TORSDOF 10
ENDMDL
MODEL 5
REMARK VINA RESULT:    -3.473      3.112      5.351
REMARK INTER + INTRA:          -6.625
REMARK INTER:                  -5.368
REMARK INTRA:                  -1.257
REMARK UNBOUND:                -1.121
REMARK SMILES CCCCCCCCCCCC(=O)[O-]
REMARK SMILES IDX 7 1 8 2 9 3 10 4 11 5 12 6 13 7 14 8 6 9 5 10 4 11 3 12 2 13
REMARK SMILES IDX 1 14
REMARK H PARENT
REMARK Flexibility Score: inf
ROOT
ATOM      1  C   UNL     1      62.164  24.991  22.418  1.00  0.00     0.000 C 
ENDROOT
BRANCH   1   2
ATOM      2  C   UNL     1      61.042  24.604  23.396  1.00  0.00     0.000 C 
BRANCH   2   3
ATOM      3  C   UNL     1      60.688  23.108  23.326  1.00  0.00     0.000 C 
BRANCH   3   4
ATOM      4  C   UNL     1      59.635  22.802  22.249  1.00  0.00     0.006 C 
BRANCH   4   5
ATOM      5  C   UNL     1      58.598  21.771  22.711  1.00  0.00     0.053 C 
BRANCH   5   6
ATOM      6  C   UNL     1      57.375  22.459  23.232  1.00  0.00     0.041 C 
ATOM      7  O   UNL     1      57.361  22.926  24.400  1.00  0.00    -0.550 OA
ATOM      8  O   UNL     1      56.269  22.628  22.408  1.00  0.00    -0.550 OA
ENDBRANCH   5   6
ENDBRANCH   4   5
ENDBRANCH   3   4
ENDBRANCH   2   3
ENDBRANCH   1   2
BRANCH   1   9
ATOM      9  C   UNL     1      63.509  24.333  22.770  1.00  0.00     0.000 C 
BRANCH   9  10
ATOM     10  C   UNL     1      64.036  23.425  21.646  1.00  0.00    -0.000 C 
BRANCH  10  11
ATOM     11  C   UNL     1      63.921  21.931  21.985  1.00  0.00    -0.000 C 
BRANCH  11  12
ATOM     12  C   UNL     1      62.999  21.214  20.987  1.00  0.00    -0.000 C 
BRANCH  12  13
ATOM     13  C   UNL     1      62.934  21.924  19.626  1.00  0.00    -0.003 C 
ATOM     14  C   UNL     1      61.503  22.113  19.124  1.00  0.00     0.004 C 
ENDBRANCH  12  13
ENDBRANCH  11  12
ENDBRANCH  10  11
ENDBRANCH   9  10
ENDBRANCH   1   9
TORSDOF 10
ENDMDL
MODEL 6
REMARK VINA RESULT:    -3.421      1.449      3.890
REMARK INTER + INTRA:          -6.541
REMARK INTER:                  -5.613
REMARK INTRA:                  -0.929
REMARK UNBOUND:                -1.121
REMARK SMILES CCCCCCCCCCCC(=O)[O-]
REMARK SMILES IDX 7 1 8 2 9 3 10 4 11 5 12 6 13 7 14 8 6 9 5 10 4 11 3 12 2 13
REMARK SMILES IDX 1 14
REMARK H PARENT
REMARK Flexibility Score: inf
ROOT
ATOM      1  C   UNL     1      60.082  24.230  24.081  1.00  0.00     0.000 C 
ENDROOT
BRANCH   1   2
ATOM      2  C   UNL     1      61.284  23.348  24.460  1.00  0.00     0.000 C 
BRANCH   2   3
ATOM      3  C   UNL     1      62.099  22.903  23.232  1.00  0.00     0.000 C 
BRANCH   3   4
ATOM      4  C   UNL     1      61.468  23.362  21.908  1.00  0.00     0.006 C 
BRANCH   4   5
ATOM      5  C   UNL     1      61.145  22.192  20.970  1.00  0.00     0.053 C 
BRANCH   5   6
ATOM      6  C   UNL     1      62.097  22.170  19.815  1.00  0.00     0.041 C 
ATOM      7  O   UNL     1      61.661  22.183  18.635  1.00  0.00    -0.550 OA
ATOM      8  O   UNL     1      63.467  22.187  20.044  1.00  0.00    -0.550 OA
ENDBRANCH   5   6
ENDBRANCH   4   5
ENDBRANCH   3   4
ENDBRANCH   2   3
ENDBRANCH   1   2
BRANCH   1   9
ATOM      9  C   UNL     1      58.797  23.830  24.826  1.00  0.00     0.000 C 
BRANCH   9  10
ATOM     10  C   UNL     1      58.370  22.383  24.533  1.00  0.00    -0.000 C 
BRANCH  10  11
ATOM     11  C   UNL     1      58.050  22.145  23.049  1.00  0.00    -0.000 C 
BRANCH  11  12
ATOM     12  C   UNL     1      56.659  21.516  22.884  1.00  0.00    -0.000 C 
BRANCH  12  13
ATOM     13  C   UNL     1      55.535  22.414  23.422  1.00  0.00    -0.003 C 
ATOM     14  C   UNL     1      54.175  21.718  23.437  1.00  0.00     0.004 C 
ENDBRANCH  12  13
ENDBRANCH  11  12
ENDBRANCH  10  11
ENDBRANCH   9  10
ENDBRANCH   1   9
TORSDOF 10
ENDMDL
MODEL 7
REMARK VINA RESULT:    -3.373      2.815      5.046
REMARK INTER + INTRA:          -6.466
REMARK INTER:                  -5.475
REMARK INTRA:                  -0.990
REMARK UNBOUND:                -1.121
REMARK SMILES CCCCCCCCCCCC(=O)[O-]
REMARK SMILES IDX 7 1 8 2 9 3 10 4 11 5 12 6 13 7 14 8 6 9 5 10 4 11 3 12 2 13
REMARK SMILES IDX 1 14
REMARK H PARENT
REMARK Flexibility Score: inf
ROOT
ATOM      1  C   UNL     1      59.843  22.234  21.285  1.00  0.00     0.000 C 
ENDROOT
BRANCH   1   2
ATOM      2  C   UNL     1      61.158  22.206  20.488  1.00  0.00     0.000 C 
BRANCH   2   3
ATOM      3  C   UNL     1      62.391  22.454  21.375  1.00  0.00     0.000 C 
BRANCH   3   4
ATOM      4  C   UNL     1      62.291  23.766  22.170  1.00  0.00     0.006 C 
BRANCH   4   5
ATOM      5  C   UNL     1      62.271  23.541  23.687  1.00  0.00     0.053 C 
BRANCH   5   6
ATOM      6  C   UNL     1      61.056  24.170  24.293  1.00  0.00     0.041 C 
ATOM      7  O   UNL     1      60.361  24.977  23.623  1.00  0.00    -0.550 OA
ATOM      8  O   UNL     1      60.663  23.825  25.580  1.00  0.00    -0.550 OA
ENDBRANCH   5   6
ENDBRANCH   4   5
ENDBRANCH   3   4
ENDBRANCH   2   3
ENDBRANCH   1   2
BRANCH   1   9
ATOM      9  C   UNL     1      59.522  20.881  21.944  1.00  0.00     0.000 C 
BRANCH   9  10
ATOM     10  C   UNL     1      59.219  21.012  23.446  1.00  0.00    -0.000 C 
BRANCH  10  11
ATOM     11  C   UNL     1      58.025  21.935  23.734  1.00  0.00    -0.000 C 
BRANCH  11  12
ATOM     12  C   UNL     1      56.743  21.388  23.089  1.00  0.00    -0.000 C 
BRANCH  12  13
ATOM     13  C   UNL     1      55.574  22.383  23.161  1.00  0.00    -0.003 C 
ATOM     14  C   UNL     1      54.237  21.706  23.457  1.00  0.00     0.004 C 
ENDBRANCH  12  13
ENDBRANCH  11  12
ENDBRANCH  10  11
ENDBRANCH   9  10
ENDBRANCH   1   9
TORSDOF 10
ENDMDL
