MODEL 1
REMARK VINA RESULT:    18.999      0.000      0.000
REMARK INTER + INTRA:          30.100
REMARK INTER:                  28.995
REMARK INTRA:                   1.105
REMARK UNBOUND:                 1.105
REMARK SMILES CC1=CCC[C@@H](C)C(=O)C[C@H](C(C)C)C(=O)C1
REMARK SMILES IDX 8 1 9 2 6 3 7 4 5 5 4 6 3 7 2 8 1 9 10 11 11 12 15 13 16 14
REMARK SMILES IDX 17 15 12 17 13 18 14 19
REMARK H PARENT
REMARK Flexibility Score: 70.00
ROOT
ATOM      1  C   UNL     1      34.075  15.168  39.873  1.00  0.00     0.136 C 
ATOM      2  O   UNL     1      35.210  15.089  39.421  1.00  0.00    -0.299 OA
ENDROOT
BRANCH   1   3
ATOM      3  C   UNL     1      33.559  16.499  40.388  1.00  0.00     0.053 C 
ATOM      4  C   UNL     1      33.351  17.493  39.235  1.00  0.00     0.016 C 
BRANCH   3   5
ATOM      5  C   UNL     1      34.528  17.076  41.449  1.00  0.00     0.015 C 
BRANCH   5   6
ATOM      6  C   UNL     1      34.248  16.522  42.859  1.00  0.00     0.028 C 
BRANCH   6   7
ATOM      7  C   UNL     1      35.434  15.759  43.392  1.00  0.00    -0.028 C 
ATOM      8  C   UNL     1      35.592  14.418  43.299  1.00  0.00    -0.070 CG0
ATOM      9  C   UNL     1      36.864  13.815  43.840  1.00  0.00     0.039 C 
ATOM     10  G   UNL     1      34.549  13.500  42.681  1.00  0.00     0.000 G0
ENDBRANCH   6   7
ENDBRANCH   5   6
ENDBRANCH   3   5
ENDBRANCH   1   3
BRANCH   1  11
ATOM     11  C   UNL     1      33.226  13.919  39.934  1.00  0.00     0.087 C 
BRANCH  11  12
ATOM     12  C   UNL     1      34.077  12.654  40.219  1.00  0.00     0.066 C 
BRANCH  12  13
ATOM     13  C   UNL     1      35.006  12.835  41.413  1.00  0.00     0.140 C 
ATOM     14  O   UNL     1      36.141  12.383  41.341  1.00  0.00    -0.299 OA
BRANCH  13  15
ATOM     15  C   UNL     1      34.555  13.458  42.712  1.00  0.00     0.106 CG0
ATOM     16  G   UNL     1      35.596  14.404  43.292  1.00  0.00     0.000 G0
ENDBRANCH  13  15
ENDBRANCH  12  13
BRANCH  12  17
ATOM     17  C   UNL     1      33.251  11.327  40.305  1.00  0.00    -0.006 C 
ATOM     18  C   UNL     1      34.033  10.055  39.932  1.00  0.00     0.008 C 
ATOM     19  C   UNL     1      32.627  11.150  41.700  1.00  0.00     0.008 C 
ENDBRANCH  12  17
ENDBRANCH  11  12
ENDBRANCH   1  11
TORSDOF 1
ENDMDL
MODEL 2
REMARK VINA RESULT:    19.284      2.298      5.216
REMARK INTER + INTRA:          30.535
REMARK INTER:                  28.116
REMARK INTRA:                   2.419
REMARK UNBOUND:                 1.105
REMARK SMILES CC1=CCC[C@@H](C)C(=O)C[C@H](C(C)C)C(=O)C1
REMARK SMILES IDX 8 1 9 2 6 3 7 4 5 5 4 6 3 7 2 8 1 9 10 11 11 12 15 13 16 14
REMARK SMILES IDX 17 15 12 17 13 18 14 19
REMARK H PARENT
REMARK Flexibility Score: 70.00
ROOT
ATOM      1  C   UNL     1      35.316  11.948  40.203  1.00  0.00     0.136 C 
ATOM      2  O   UNL     1      34.508  12.517  39.481  1.00  0.00    -0.299 OA
ENDROOT
BRANCH   1   3
ATOM      3  C   UNL     1      35.516  10.449  40.073  1.00  0.00     0.053 C 
ATOM      4  C   UNL     1      36.784  10.130  39.267  1.00  0.00     0.016 C 
BRANCH   3   5
ATOM      5  C   UNL     1      34.269   9.794  39.428  1.00  0.00     0.015 C 
BRANCH   5   6
ATOM      6  C   UNL     1      33.303   9.216  40.480  1.00  0.00     0.028 C 
BRANCH   6   7
ATOM      7  C   UNL     1      32.255  10.225  40.873  1.00  0.00    -0.028 C 
ATOM      8  C   UNL     1      32.450  11.237  41.750  1.00  0.00    -0.070 CG0
ATOM      9  C   UNL     1      31.309  12.192  41.996  1.00  0.00     0.039 C 
ATOM     10  G   UNL     1      33.758  11.446  42.498  1.00  0.00     0.000 G0
ENDBRANCH   6   7
ENDBRANCH   5   6
ENDBRANCH   3   5
ENDBRANCH   1   3
BRANCH   1  11
ATOM     11  C   UNL     1      36.073  12.756  41.230  1.00  0.00     0.087 C 
BRANCH  11  12
ATOM     12  C   UNL     1      35.139  13.711  42.018  1.00  0.00     0.066 C 
BRANCH  12  13
ATOM     13  C   UNL     1      34.036  12.966  42.758  1.00  0.00     0.140 C 
ATOM     14  O   UNL     1      33.411  13.562  43.625  1.00  0.00    -0.299 OA
BRANCH  13  15
ATOM     15  C   UNL     1      33.750  11.500  42.538  1.00  0.00     0.106 CG0
ATOM     16  G   UNL     1      32.467  11.273  41.754  1.00  0.00     0.000 G0
ENDBRANCH  13  15
ENDBRANCH  12  13
BRANCH  12  17
ATOM     17  C   UNL     1      35.889  14.732  42.938  1.00  0.00    -0.006 C 
ATOM     18  C   UNL     1      34.980  15.765  43.629  1.00  0.00     0.008 C 
ATOM     19  C   UNL     1      36.733  14.007  44.000  1.00  0.00     0.008 C 
ENDBRANCH  12  17
ENDBRANCH  11  12
ENDBRANCH   1  11
TORSDOF 1
ENDMDL
MODEL 3
REMARK VINA RESULT:    19.624      1.563      3.682
REMARK INTER + INTRA:          31.054
REMARK INTER:                  30.863
REMARK INTRA:                   0.190
REMARK UNBOUND:                 1.105
REMARK SMILES CC1=CCC[C@@H](C)C(=O)C[C@H](C(C)C)C(=O)C1
REMARK SMILES IDX 8 1 9 2 6 3 7 4 5 5 4 6 3 7 2 8 1 9 10 11 11 12 15 13 16 14
REMARK SMILES IDX 17 15 12 17 13 18 14 19
REMARK H PARENT
REMARK Flexibility Score: 70.00
ROOT
ATOM      1  C   UNL     1      35.443  12.971  42.875  1.00  0.00     0.136 C 
ATOM      2  O   UNL     1      34.656  12.453  43.655  1.00  0.00    -0.299 OA
ENDROOT
BRANCH   1   3
ATOM      3  C   UNL     1      36.440  13.998  43.380  1.00  0.00     0.053 C 
ATOM      4  C   UNL     1      36.793  13.746  44.853  1.00  0.00     0.016 C 
BRANCH   3   5
ATOM      5  C   UNL     1      35.884  15.430  43.180  1.00  0.00     0.015 C 
BRANCH   5   6
ATOM      6  C   UNL     1      34.381  15.430  42.839  1.00  0.00     0.028 C 
BRANCH   6   7
ATOM      7  C   UNL     1      34.059  16.460  41.787  1.00  0.00    -0.028 C 
ATOM      8  C   UNL     1      34.129  16.246  40.453  1.00  0.00    -0.070 CG0
ATOM      9  C   UNL     1      33.724  17.369  39.532  1.00  0.00     0.039 C 
ATOM     10  G   UNL     1      34.601  14.933  39.847  1.00  0.00     0.000 G0
ENDBRANCH   6   7
ENDBRANCH   5   6
ENDBRANCH   3   5
ENDBRANCH   1   3
BRANCH   1  11
ATOM     11  C   UNL     1      35.379  12.590  41.414  1.00  0.00     0.087 C 
BRANCH  11  12
ATOM     12  C   UNL     1      33.926  12.613  40.873  1.00  0.00     0.066 C 
BRANCH  12  13
ATOM     13  C   UNL     1      33.687  13.758  39.896  1.00  0.00     0.140 C 
ATOM     14  O   UNL     1      32.741  13.677  39.124  1.00  0.00    -0.299 OA
BRANCH  13  15
ATOM     15  C   UNL     1      34.623  14.936  39.774  1.00  0.00     0.106 CG0
ATOM     16  G   UNL     1      34.082  16.178  40.465  1.00  0.00     0.000 G0
ENDBRANCH  13  15
ENDBRANCH  12  13
BRANCH  12  17
ATOM     17  C   UNL     1      33.424  11.240  40.314  1.00  0.00    -0.006 C 
ATOM     18  C   UNL     1      34.526  10.186  40.106  1.00  0.00     0.008 C 
ATOM     19  C   UNL     1      32.317  10.649  41.205  1.00  0.00     0.008 C 
ENDBRANCH  12  17
ENDBRANCH  11  12
ENDBRANCH   1  11
TORSDOF 1
ENDMDL
MODEL 4
REMARK VINA RESULT:    20.331      2.267      5.195
REMARK INTER + INTRA:          32.133
REMARK INTER:                  26.049
REMARK INTRA:                   6.084
REMARK UNBOUND:                 1.105
REMARK SMILES CC1=CCC[C@@H](C)C(=O)C[C@H](C(C)C)C(=O)C1
REMARK SMILES IDX 8 1 9 2 6 3 7 4 5 5 4 6 3 7 2 8 1 9 10 11 11 12 15 13 16 14
REMARK SMILES IDX 17 15 12 17 13 18 14 19
REMARK H PARENT
REMARK Flexibility Score: 70.00
ROOT
ATOM      1  C   UNL     1      33.903  11.051  42.162  1.00  0.00     0.136 C 
ATOM      2  O   UNL     1      34.490   9.978  42.185  1.00  0.00    -0.299 OA
ENDROOT
BRANCH   1   3
ATOM      3  C   UNL     1      32.618  11.190  41.365  1.00  0.00     0.053 C 
ATOM      4  C   UNL     1      31.432  11.518  42.285  1.00  0.00     0.016 C 
BRANCH   3   5
ATOM      5  C   UNL     1      32.349   9.900  40.551  1.00  0.00     0.015 C 
BRANCH   5   6
ATOM      6  C   UNL     1      33.256   9.793  39.310  1.00  0.00     0.028 C 
BRANCH   6   7
ATOM      7  C   UNL     1      34.712   9.882  39.688  1.00  0.00    -0.028 C 
ATOM      8  C   UNL     1      35.409  11.037  39.805  1.00  0.00    -0.070 CG0
ATOM      9  C   UNL     1      36.849  10.954  40.242  1.00  0.00     0.039 C 
ATOM     10  G   UNL     1      34.807  12.402  39.511  1.00  0.00     0.000 G0
ENDBRANCH   6   7
ENDBRANCH   5   6
ENDBRANCH   3   5
ENDBRANCH   1   3
BRANCH   1  11
ATOM     11  C   UNL     1      34.495  12.223  42.908  1.00  0.00     0.087 C 
BRANCH  11  12
ATOM     12  C   UNL     1      35.394  13.096  41.995  1.00  0.00     0.066 C 
BRANCH  12  13
ATOM     13  C   UNL     1      34.747  13.385  40.646  1.00  0.00     0.140 C 
ATOM     14  O   UNL     1      34.147  14.441  40.501  1.00  0.00    -0.299 OA
BRANCH  13  15
ATOM     15  C   UNL     1      34.730  12.381  39.517  1.00  0.00     0.106 CG0
ATOM     16  G   UNL     1      35.403  11.072  39.899  1.00  0.00     0.000 G0
ENDBRANCH  13  15
ENDBRANCH  12  13
BRANCH  12  17
ATOM     17  C   UNL     1      35.943  14.393  42.680  1.00  0.00    -0.006 C 
ATOM     18  C   UNL     1      34.890  15.211  43.448  1.00  0.00     0.008 C 
ATOM     19  C   UNL     1      37.121  14.070  43.617  1.00  0.00     0.008 C 
ENDBRANCH  12  17
ENDBRANCH  11  12
ENDBRANCH   1  11
TORSDOF 1
ENDMDL
MODEL 5
REMARK VINA RESULT:    20.840      2.075      5.465
REMARK INTER + INTRA:          32.910
REMARK INTER:                  28.369
REMARK INTRA:                   4.542
REMARK UNBOUND:                 1.105
REMARK SMILES CC1=CCC[C@@H](C)C(=O)C[C@H](C(C)C)C(=O)C1
REMARK SMILES IDX 8 1 9 2 6 3 7 4 5 5 4 6 3 7 2 8 1 9 10 11 11 12 15 13 16 14
REMARK SMILES IDX 17 15 12 17 13 18 14 19
REMARK H PARENT
REMARK Flexibility Score: 70.00
ROOT
ATOM      1  C   UNL     1      35.506  10.619  40.763  1.00  0.00     0.136 C 
ATOM      2  O   UNL     1      36.289  11.026  39.915  1.00  0.00    -0.299 OA
ENDROOT
BRANCH   1   3
ATOM      3  C   UNL     1      34.813   9.283  40.568  1.00  0.00     0.053 C 
ATOM      4  C   UNL     1      35.806   8.120  40.711  1.00  0.00     0.016 C 
BRANCH   3   5
ATOM      5  C   UNL     1      34.105   9.241  39.191  1.00  0.00     0.015 C 
BRANCH   5   6
ATOM      6  C   UNL     1      32.609   9.597  39.292  1.00  0.00     0.028 C 
BRANCH   6   7
ATOM      7  C   UNL     1      32.293  10.259  40.609  1.00  0.00    -0.028 C 
ATOM      8  C   UNL     1      32.583  11.545  40.915  1.00  0.00    -0.070 CG0
ATOM      9  C   UNL     1      32.153  12.067  42.262  1.00  0.00     0.039 C 
ATOM     10  G   UNL     1      33.324  12.476  39.968  1.00  0.00     0.000 G0
ENDBRANCH   6   7
ENDBRANCH   5   6
ENDBRANCH   3   5
ENDBRANCH   1   3
BRANCH   1  11
ATOM     11  C   UNL     1      35.228  11.479  41.973  1.00  0.00     0.087 C 
BRANCH  11  12
ATOM     12  C   UNL     1      35.333  12.991  41.644  1.00  0.00     0.066 C 
BRANCH  12  13
ATOM     13  C   UNL     1      34.296  13.437  40.620  1.00  0.00     0.140 C 
ATOM     14  O   UNL     1      34.190  14.632  40.381  1.00  0.00    -0.299 OA
BRANCH  13  15
ATOM     15  C   UNL     1      33.330  12.478  39.965  1.00  0.00     0.106 CG0
ATOM     16  G   UNL     1      32.639  11.575  40.975  1.00  0.00     0.000 G0
ENDBRANCH  13  15
ENDBRANCH  12  13
BRANCH  12  17
ATOM     17  C   UNL     1      35.365  13.924  42.901  1.00  0.00    -0.006 C 
ATOM     18  C   UNL     1      36.776  14.320  43.373  1.00  0.00     0.008 C 
ATOM     19  C   UNL     1      34.530  15.195  42.671  1.00  0.00     0.008 C 
ENDBRANCH  12  17
ENDBRANCH  11  12
ENDBRANCH   1  11
TORSDOF 1
ENDMDL
MODEL 6
REMARK VINA RESULT:    21.331      2.259      4.634
REMARK INTER + INTRA:          33.660
REMARK INTER:                  30.866
REMARK INTRA:                   2.794
REMARK UNBOUND:                 1.105
REMARK SMILES CC1=CCC[C@@H](C)C(=O)C[C@H](C(C)C)C(=O)C1
REMARK SMILES IDX 8 1 9 2 6 3 7 4 5 5 4 6 3 7 2 8 1 9 10 11 11 12 15 13 16 14
REMARK SMILES IDX 17 15 12 17 13 18 14 19
REMARK H PARENT
REMARK Flexibility Score: 70.00
ROOT
ATOM      1  C   UNL     1      34.020   9.149  39.654  1.00  0.00     0.136 C 
ATOM      2  O   UNL     1      33.664   7.987  39.516  1.00  0.00    -0.299 OA
ENDROOT
BRANCH   1   3
ATOM      3  C   UNL     1      35.499   9.479  39.741  1.00  0.00     0.053 C 
ATOM      4  C   UNL     1      36.092   9.008  41.078  1.00  0.00     0.016 C 
BRANCH   3   5
ATOM      5  C   UNL     1      35.723  10.999  39.540  1.00  0.00     0.015 C 
BRANCH   5   6
ATOM      6  C   UNL     1      36.981  11.506  40.272  1.00  0.00     0.028 C 
BRANCH   6   7
ATOM      7  C   UNL     1      36.621  12.475  41.368  1.00  0.00    -0.028 C 
ATOM      8  C   UNL     1      35.610  13.372  41.302  1.00  0.00    -0.070 CG0
ATOM      9  C   UNL     1      35.350  14.237  42.510  1.00  0.00     0.039 C 
ATOM     10  G   UNL     1      34.734  13.547  40.071  1.00  0.00     0.000 G0
ENDBRANCH   6   7
ENDBRANCH   5   6
ENDBRANCH   3   5
ENDBRANCH   1   3
BRANCH   1  11
ATOM     11  C   UNL     1      32.967  10.227  39.763  1.00  0.00     0.087 C 
BRANCH  11  12
ATOM     12  C   UNL     1      33.415  11.382  40.696  1.00  0.00     0.066 C 
BRANCH  12  13
ATOM     13  C   UNL     1      33.524  12.713  39.963  1.00  0.00     0.140 C 
ATOM     14  O   UNL     1      32.610  13.046  39.220  1.00  0.00    -0.299 OA
BRANCH  13  15
ATOM     15  C   UNL     1      34.752  13.589  40.037  1.00  0.00     0.106 CG0
ATOM     16  G   UNL     1      35.562  13.340  41.300  1.00  0.00     0.000 G0
ENDBRANCH  13  15
ENDBRANCH  12  13
BRANCH  12  17
ATOM     17  C   UNL     1      32.590  11.498  42.021  1.00  0.00    -0.006 C 
ATOM     18  C   UNL     1      31.327  10.619  42.072  1.00  0.00     0.008 C 
ATOM     19  C   UNL     1      33.467  11.201  43.250  1.00  0.00     0.008 C 
ENDBRANCH  12  17
ENDBRANCH  11  12
ENDBRANCH   1  11
TORSDOF 1
ENDMDL
