MODEL 1
REMARK VINA RESULT:    78.460      0.000      0.000
REMARK INTER + INTRA:          83.047
REMARK INTER:                  83.047
REMARK INTRA:                   0.000
REMARK UNBOUND:                 0.000
REMARK SMILES CC1(C)[C@H](O)CC[C@@]2(C)[C@@H]1CC[C@]1(C)[C@@H]2C=CC2=C(O)C(=O)C(=O)[C@@]21C
REMARK SMILES IDX 1 1 2 2 10 3 11 4 12 5 13 6 15 7 8 8 7 9 6 10 4 11 9 12
REMARK SMILES IDX 16 13 17 14 18 15 19 16 21 17 22 18 23 19 24 20 25 21 26 22
REMARK SMILES IDX 14 23 3 24 5 25 20 27
REMARK H PARENT 5 26 20 28
REMARK Flexibility Score: inf
ROOT
ATOM      1  C   UNL     1      14.069  10.400  24.569  1.00  0.00     0.014 C 
ATOM      2  C   UNL     1      15.347  11.252  24.811  1.00  0.00    -0.006 C 
ATOM      3  C   UNL     1      16.308  11.270  23.538  1.00  0.00     0.004 C 
ATOM      4  C   UNL     1      15.578  11.283  22.172  1.00  0.00     0.005 C 
ATOM      5  C   UNL     1      16.509  10.955  20.973  1.00  0.00     0.009 C 
ATOM      6  C   UNL     1      17.980  11.523  21.050  1.00  0.00    -0.009 C 
ATOM      7  C   UNL     1      17.946  12.720  22.081  1.00  0.00     0.025 C 
ATOM      8  C   UNL     1      17.459  12.380  23.562  1.00  0.00    -0.022 C 
ATOM      9  C   UNL     1      16.923  13.734  24.149  1.00  0.00     0.010 C 
ATOM     10  C   UNL     1      16.108  13.609  25.433  1.00  0.00     0.033 C 
ATOM     11  C   UNL     1      14.906  12.683  25.228  1.00  0.00     0.120 C 
ATOM     12  C   UNL     1      18.662  11.883  24.439  1.00  0.00     0.012 C 
ATOM     13  C   UNL     1      19.178  13.614  22.001  1.00  0.00    -0.022 C 
ATOM     14  C   UNL     1      19.569  14.068  20.812  1.00  0.00     0.005 C 
ATOM     15  C   UNL     1      18.908  13.506  19.639  1.00  0.00     0.012 C 
ATOM     16  C   UNL     1      18.327  14.230  18.687  1.00  0.00     0.171 C 
ATOM     17  C   UNL     1      17.480  13.380  17.887  1.00  0.00     0.264 C 
ATOM     18  O   UNL     1      16.786  13.735  16.897  1.00  0.00    -0.282 OA
ATOM     19  C   UNL     1      17.566  12.046  18.439  1.00  0.00     0.217 C 
ATOM     20  O   UNL     1      17.026  11.028  17.925  1.00  0.00    -0.289 OA
ATOM     21  C   UNL     1      18.544  12.029  19.594  1.00  0.00     0.069 C 
ATOM     22  C   UNL     1      19.807  11.292  19.069  1.00  0.00     0.026 C 
ATOM     23  C   UNL     1      18.909  10.397  21.603  1.00  0.00     0.013 C 
ATOM     24  C   UNL     1      16.063  10.563  26.008  1.00  0.00     0.014 C 
ENDROOT
BRANCH  11  25
ATOM     25  O   UNL     1      14.045  13.234  24.260  1.00  0.00    -0.393 OA
ATOM     26  H   UNL     1      13.145  12.845  24.418  1.00  0.00     0.210 HD
ENDBRANCH  11  25
BRANCH  16  27
ATOM     27  O   UNL     1      18.455  15.610  18.550  1.00  0.00    -0.504 OA
ATOM     28  H   UNL     1      19.338  16.070  18.734  1.00  0.00     0.293 HD
ENDBRANCH  16  27
TORSDOF 2
ENDMDL
