MODEL 1
REMARK VINA RESULT:    -4.004      0.000      0.000
REMARK INTER + INTRA:         -10.123
REMARK INTER:                  -7.514
REMARK INTRA:                  -2.608
REMARK UNBOUND:                -2.608
REMARK SMILES CCCCCCCCC=CCCCCCCCC(=O)[O-]
REMARK SMILES IDX 10 1 9 2 11 3 12 4 13 5 14 6 15 7 16 8 17 9 18 10 19 11
REMARK SMILES IDX 20 12 8 13 7 14 6 15 5 16 4 17 3 18 2 19 1 20
REMARK H PARENT
REMARK Flexibility Score: inf
ROOT
ATOM      1  C   UNL     1      35.435  36.072  34.420  1.00  0.00    -0.031 C 
ATOM      2  C   UNL     1      36.336  35.589  35.288  1.00  0.00    -0.031 C 
ENDROOT
BRANCH   1   3
ATOM      3  C   UNL     1      35.596  37.427  33.790  1.00  0.00     0.027 C 
BRANCH   3   4
ATOM      4  C   UNL     1      35.737  37.310  32.264  1.00  0.00     0.004 C 
BRANCH   4   5
ATOM      5  C   UNL     1      36.936  36.445  31.846  1.00  0.00     0.000 C 
BRANCH   5   6
ATOM      6  C   UNL     1      38.215  37.268  31.635  1.00  0.00     0.000 C 
BRANCH   6   7
ATOM      7  C   UNL     1      39.262  36.941  32.709  1.00  0.00     0.000 C 
BRANCH   7   8
ATOM      8  C   UNL     1      39.677  38.205  33.477  1.00  0.00     0.006 C 
BRANCH   8   9
ATOM      9  C   UNL     1      38.827  39.423  33.093  1.00  0.00     0.053 C 
BRANCH   9  10
ATOM     10  C   UNL     1      39.271  40.660  33.812  1.00  0.00     0.041 C 
ATOM     11  O   UNL     1      38.866  41.790  33.437  1.00  0.00    -0.550 OA
ATOM     12  O   UNL     1      40.157  40.565  34.877  1.00  0.00    -0.550 OA
ENDBRANCH   9  10
ENDBRANCH   8   9
ENDBRANCH   7   8
ENDBRANCH   6   7
ENDBRANCH   5   6
ENDBRANCH   4   5
ENDBRANCH   3   4
ENDBRANCH   1   3
BRANCH   2  13
ATOM     13  C   UNL     1      36.174  34.236  35.926  1.00  0.00     0.027 C 
BRANCH  13  14
ATOM     14  C   UNL     1      37.296  33.261  35.528  1.00  0.00     0.004 C 
BRANCH  14  15
ATOM     15  C   UNL     1      38.442  33.909  34.725  1.00  0.00     0.000 C 
BRANCH  15  16
ATOM     16  C   UNL     1      38.595  33.391  33.282  1.00  0.00     0.000 C 
BRANCH  16  17
ATOM     17  C   UNL     1      38.157  31.922  33.099  1.00  0.00    -0.000 C 
BRANCH  17  18
ATOM     18  C   UNL     1      37.105  31.758  31.988  1.00  0.00    -0.000 C 
BRANCH  18  19
ATOM     19  C   UNL     1      36.497  33.099  31.550  1.00  0.00    -0.003 C 
ATOM     20  C   UNL     1      34.982  33.151  31.743  1.00  0.00     0.004 C 
ENDBRANCH  18  19
ENDBRANCH  17  18
ENDBRANCH  16  17
ENDBRANCH  15  16
ENDBRANCH  14  15
ENDBRANCH  13  14
ENDBRANCH   2  13
TORSDOF 15
ENDMDL
MODEL 2
REMARK VINA RESULT:    -3.845      3.204      6.131
REMARK INTER + INTRA:          -9.825
REMARK INTER:                  -7.383
REMARK INTRA:                  -2.442
REMARK UNBOUND:                -2.608
REMARK SMILES CCCCCCCCC=CCCCCCCCC(=O)[O-]
REMARK SMILES IDX 10 1 9 2 11 3 12 4 13 5 14 6 15 7 16 8 17 9 18 10 19 11
REMARK SMILES IDX 20 12 8 13 7 14 6 15 5 16 4 17 3 18 2 19 1 20
REMARK H PARENT
REMARK Flexibility Score: inf
ROOT
ATOM      1  C   UNL     1      36.337  35.732  35.053  1.00  0.00    -0.031 C 
ATOM      2  C   UNL     1      35.426  36.393  34.324  1.00  0.00    -0.031 C 
ENDROOT
BRANCH   1   3
ATOM      3  C   UNL     1      35.970  34.512  35.852  1.00  0.00     0.027 C 
BRANCH   3   4
ATOM      4  C   UNL     1      36.824  33.304  35.434  1.00  0.00     0.004 C 
BRANCH   4   5
ATOM      5  C   UNL     1      38.315  33.651  35.304  1.00  0.00     0.000 C 
BRANCH   5   6
ATOM      6  C   UNL     1      38.846  33.456  33.876  1.00  0.00     0.000 C 
BRANCH   6   7
ATOM      7  C   UNL     1      38.274  32.177  33.249  1.00  0.00     0.000 C 
BRANCH   7   8
ATOM      8  C   UNL     1      37.793  32.436  31.813  1.00  0.00     0.006 C 
BRANCH   8   9
ATOM      9  C   UNL     1      36.757  33.565  31.742  1.00  0.00     0.053 C 
BRANCH   9  10
ATOM     10  C   UNL     1      35.356  33.034  31.733  1.00  0.00     0.041 C 
ATOM     11  O   UNL     1      35.120  31.877  31.298  1.00  0.00    -0.550 OA
ATOM     12  O   UNL     1      34.308  33.829  32.177  1.00  0.00    -0.550 OA
ENDBRANCH   9  10
ENDBRANCH   8   9
ENDBRANCH   7   8
ENDBRANCH   6   7
ENDBRANCH   5   6
ENDBRANCH   4   5
ENDBRANCH   3   4
ENDBRANCH   1   3
BRANCH   2  13
ATOM     13  C   UNL     1      35.789  37.618  33.529  1.00  0.00     0.027 C 
BRANCH  13  14
ATOM     14  C   UNL     1      35.445  37.472  32.036  1.00  0.00     0.004 C 
BRANCH  14  15
ATOM     15  C   UNL     1      36.571  36.851  31.185  1.00  0.00     0.000 C 
BRANCH  15  16
ATOM     16  C   UNL     1      37.945  37.532  31.330  1.00  0.00     0.000 C 
BRANCH  16  17
ATOM     17  C   UNL     1      38.871  36.851  32.361  1.00  0.00    -0.000 C 
BRANCH  17  18
ATOM     18  C   UNL     1      39.559  37.866  33.291  1.00  0.00    -0.000 C 
BRANCH  18  19
ATOM     19  C   UNL     1      39.322  39.319  32.855  1.00  0.00    -0.003 C 
ATOM     20  C   UNL     1      38.498  40.112  33.869  1.00  0.00     0.004 C 
ENDBRANCH  18  19
ENDBRANCH  17  18
ENDBRANCH  16  17
ENDBRANCH  15  16
ENDBRANCH  14  15
ENDBRANCH  13  14
ENDBRANCH   2  13
TORSDOF 15
ENDMDL
MODEL 3
REMARK VINA RESULT:    -3.722      1.865      2.390
REMARK INTER + INTRA:          -9.594
REMARK INTER:                  -7.206
REMARK INTRA:                  -2.388
REMARK UNBOUND:                -2.608
REMARK SMILES CCCCCCCCC=CCCCCCCCC(=O)[O-]
REMARK SMILES IDX 10 1 9 2 11 3 12 4 13 5 14 6 15 7 16 8 17 9 18 10 19 11
REMARK SMILES IDX 20 12 8 13 7 14 6 15 5 16 4 17 3 18 2 19 1 20
REMARK H PARENT
REMARK Flexibility Score: inf
ROOT
ATOM      1  C   UNL     1      35.085  35.750  34.395  1.00  0.00    -0.031 C 
ATOM      2  C   UNL     1      36.104  35.501  35.232  1.00  0.00    -0.031 C 
ENDROOT
BRANCH   1   3
ATOM      3  C   UNL     1      35.102  36.931  33.465  1.00  0.00     0.027 C 
BRANCH   3   4
ATOM      4  C   UNL     1      36.467  37.063  32.770  1.00  0.00     0.004 C 
BRANCH   4   5
ATOM      5  C   UNL     1      37.247  38.305  33.230  1.00  0.00     0.000 C 
BRANCH   5   6
ATOM      6  C   UNL     1      38.768  38.119  33.130  1.00  0.00     0.000 C 
BRANCH   6   7
ATOM      7  C   UNL     1      39.138  36.630  33.099  1.00  0.00     0.000 C 
BRANCH   7   8
ATOM      8  C   UNL     1      40.537  36.398  33.688  1.00  0.00     0.006 C 
BRANCH   8   9
ATOM      9  C   UNL     1      41.335  37.702  33.820  1.00  0.00     0.053 C 
BRANCH   9  10
ATOM     10  C   UNL     1      42.637  37.487  34.529  1.00  0.00     0.041 C 
ATOM     11  O   UNL     1      42.985  38.259  35.460  1.00  0.00    -0.550 OA
ATOM     12  O   UNL     1      43.479  36.453  34.142  1.00  0.00    -0.550 OA
ENDBRANCH   9  10
ENDBRANCH   8   9
ENDBRANCH   7   8
ENDBRANCH   6   7
ENDBRANCH   5   6
ENDBRANCH   4   5
ENDBRANCH   3   4
ENDBRANCH   1   3
BRANCH   2  13
ATOM     13  C   UNL     1      36.086  34.324  36.169  1.00  0.00     0.027 C 
BRANCH  13  14
ATOM     14  C   UNL     1      37.416  33.549  36.164  1.00  0.00     0.004 C 
BRANCH  14  15
ATOM     15  C   UNL     1      38.218  33.676  34.853  1.00  0.00     0.000 C 
BRANCH  15  16
ATOM     16  C   UNL     1      37.960  32.558  33.826  1.00  0.00     0.000 C 
BRANCH  16  17
ATOM     17  C   UNL     1      38.192  32.993  32.362  1.00  0.00    -0.000 C 
BRANCH  17  18
ATOM     18  C   UNL     1      37.017  32.610  31.444  1.00  0.00    -0.000 C 
BRANCH  18  19
ATOM     19  C   UNL     1      35.976  33.732  31.320  1.00  0.00    -0.003 C 
ATOM     20  C   UNL     1      34.561  33.264  31.656  1.00  0.00     0.004 C 
ENDBRANCH  18  19
ENDBRANCH  17  18
ENDBRANCH  16  17
ENDBRANCH  15  16
ENDBRANCH  14  15
ENDBRANCH  13  14
ENDBRANCH   2  13
TORSDOF 15
ENDMDL
MODEL 4
REMARK VINA RESULT:    -3.664      0.973      2.546
REMARK INTER + INTRA:          -9.486
REMARK INTER:                  -6.688
REMARK INTRA:                  -2.798
REMARK UNBOUND:                -2.608
REMARK SMILES CCCCCCCCC=CCCCCCCCC(=O)[O-]
REMARK SMILES IDX 10 1 9 2 11 3 12 4 13 5 14 6 15 7 16 8 17 9 18 10 19 11
REMARK SMILES IDX 20 12 8 13 7 14 6 15 5 16 4 17 3 18 2 19 1 20
REMARK H PARENT
REMARK Flexibility Score: inf
ROOT
ATOM      1  C   UNL     1      35.470  35.876  32.745  1.00  0.00    -0.031 C 
ATOM      2  C   UNL     1      34.913  34.691  33.039  1.00  0.00    -0.031 C 
ENDROOT
BRANCH   1   3
ATOM      3  C   UNL     1      35.638  36.946  33.788  1.00  0.00     0.027 C 
BRANCH   3   4
ATOM      4  C   UNL     1      36.839  37.847  33.461  1.00  0.00     0.004 C 
BRANCH   4   5
ATOM      5  C   UNL     1      37.372  37.629  32.037  1.00  0.00     0.000 C 
BRANCH   5   6
ATOM      6  C   UNL     1      38.828  37.143  32.018  1.00  0.00     0.000 C 
BRANCH   6   7
ATOM      7  C   UNL     1      39.571  37.586  33.285  1.00  0.00     0.000 C 
BRANCH   7   8
ATOM      8  C   UNL     1      40.613  38.667  32.963  1.00  0.00     0.006 C 
BRANCH   8   9
ATOM      9  C   UNL     1      39.984  40.061  32.840  1.00  0.00     0.053 C 
BRANCH   9  10
ATOM     10  C   UNL     1      39.536  40.588  34.169  1.00  0.00     0.041 C 
ATOM     11  O   UNL     1      38.342  40.948  34.338  1.00  0.00    -0.550 OA
ATOM     12  O   UNL     1      40.445  40.712  35.211  1.00  0.00    -0.550 OA
ENDBRANCH   9  10
ENDBRANCH   8   9
ENDBRANCH   7   8
ENDBRANCH   6   7
ENDBRANCH   5   6
ENDBRANCH   4   5
ENDBRANCH   3   4
ENDBRANCH   1   3
BRANCH   2  13
ATOM     13  C   UNL     1      34.738  33.620  31.996  1.00  0.00     0.027 C 
BRANCH  13  14
ATOM     14  C   UNL     1      36.048  33.306  31.252  1.00  0.00     0.004 C 
BRANCH  14  15
ATOM     15  C   UNL     1      36.697  31.966  31.652  1.00  0.00     0.000 C 
BRANCH  15  16
ATOM     16  C   UNL     1      37.997  32.095  32.468  1.00  0.00     0.000 C 
BRANCH  16  17
ATOM     17  C   UNL     1      38.471  33.552  32.658  1.00  0.00    -0.000 C 
BRANCH  17  18
ATOM     18  C   UNL     1      38.560  33.951  34.141  1.00  0.00    -0.000 C 
BRANCH  18  19
ATOM     19  C   UNL     1      37.571  33.172  35.021  1.00  0.00    -0.003 C 
ATOM     20  C   UNL     1      36.869  34.060  36.048  1.00  0.00     0.004 C 
ENDBRANCH  18  19
ENDBRANCH  17  18
ENDBRANCH  16  17
ENDBRANCH  15  16
ENDBRANCH  14  15
ENDBRANCH  13  14
ENDBRANCH   2  13
TORSDOF 15
ENDMDL
MODEL 5
REMARK VINA RESULT:    -3.574      1.681      4.524
REMARK INTER + INTRA:          -9.316
REMARK INTER:                  -6.932
REMARK INTRA:                  -2.383
REMARK UNBOUND:                -2.608
REMARK SMILES CCCCCCCCC=CCCCCCCCC(=O)[O-]
REMARK SMILES IDX 10 1 9 2 11 3 12 4 13 5 14 6 15 7 16 8 17 9 18 10 19 11
REMARK SMILES IDX 20 12 8 13 7 14 6 15 5 16 4 17 3 18 2 19 1 20
REMARK H PARENT
REMARK Flexibility Score: inf
ROOT
ATOM      1  C   UNL     1      37.711  32.674  34.034  1.00  0.00    -0.031 C 
ATOM      2  C   UNL     1      38.319  33.391  34.991  1.00  0.00    -0.031 C 
ENDROOT
BRANCH   1   3
ATOM      3  C   UNL     1      38.490  32.022  32.925  1.00  0.00     0.027 C 
BRANCH   3   4
ATOM      4  C   UNL     1      38.314  32.789  31.605  1.00  0.00     0.004 C 
BRANCH   4   5
ATOM      5  C   UNL     1      37.149  33.791  31.654  1.00  0.00     0.000 C 
BRANCH   5   6
ATOM      6  C   UNL     1      37.612  35.246  31.490  1.00  0.00     0.000 C 
BRANCH   6   7
ATOM      7  C   UNL     1      39.131  35.318  31.287  1.00  0.00     0.000 C 
BRANCH   7   8
ATOM      8  C   UNL     1      39.723  36.546  31.995  1.00  0.00     0.006 C 
BRANCH   8   9
ATOM      9  C   UNL     1      40.022  36.275  33.475  1.00  0.00     0.053 C 
BRANCH   9  10
ATOM     10  C   UNL     1      41.204  37.059  33.957  1.00  0.00     0.041 C 
ATOM     11  O   UNL     1      41.179  38.318  33.938  1.00  0.00    -0.550 OA
ATOM     12  O   UNL     1      42.344  36.400  34.397  1.00  0.00    -0.550 OA
ENDBRANCH   9  10
ENDBRANCH   8   9
ENDBRANCH   7   8
ENDBRANCH   6   7
ENDBRANCH   5   6
ENDBRANCH   4   5
ENDBRANCH   3   4
ENDBRANCH   1   3
BRANCH   2  13
ATOM     13  C   UNL     1      37.542  34.051  36.098  1.00  0.00     0.027 C 
BRANCH  13  14
ATOM     14  C   UNL     1      36.020  33.935  35.896  1.00  0.00     0.004 C 
BRANCH  14  15
ATOM     15  C   UNL     1      35.404  35.074  35.061  1.00  0.00     0.000 C 
BRANCH  15  16
ATOM     16  C   UNL     1      36.352  36.254  34.774  1.00  0.00     0.000 C 
BRANCH  16  17
ATOM     17  C   UNL     1      35.690  37.406  33.988  1.00  0.00    -0.000 C 
BRANCH  17  18
ATOM     18  C   UNL     1      36.350  38.766  34.276  1.00  0.00    -0.000 C 
BRANCH  18  19
ATOM     19  C   UNL     1      37.631  38.986  33.457  1.00  0.00    -0.003 C 
ATOM     20  C   UNL     1      38.376  40.259  33.856  1.00  0.00     0.004 C 
ENDBRANCH  18  19
ENDBRANCH  17  18
ENDBRANCH  16  17
ENDBRANCH  15  16
ENDBRANCH  14  15
ENDBRANCH  13  14
ENDBRANCH   2  13
TORSDOF 15
ENDMDL
MODEL 6
REMARK VINA RESULT:    -3.547     10.441     12.980
REMARK INTER + INTRA:          -9.266
REMARK INTER:                  -6.419
REMARK INTRA:                  -2.847
REMARK UNBOUND:                -2.608
REMARK SMILES CCCCCCCCC=CCCCCCCCC(=O)[O-]
REMARK SMILES IDX 10 1 9 2 11 3 12 4 13 5 14 6 15 7 16 8 17 9 18 10 19 11
REMARK SMILES IDX 20 12 8 13 7 14 6 15 5 16 4 17 3 18 2 19 1 20
REMARK H PARENT
REMARK Flexibility Score: inf
ROOT
ATOM      1  C   UNL     1      26.429  25.328  36.478  1.00  0.00    -0.031 C 
ATOM      2  C   UNL     1      27.255  24.867  35.526  1.00  0.00    -0.031 C 
ENDROOT
BRANCH   1   3
ATOM      3  C   UNL     1      25.110  25.962  36.136  1.00  0.00     0.027 C 
BRANCH   3   4
ATOM      4  C   UNL     1      25.117  26.503  34.697  1.00  0.00     0.004 C 
BRANCH   4   5
ATOM      5  C   UNL     1      25.137  28.039  34.643  1.00  0.00     0.000 C 
BRANCH   5   6
ATOM      6  C   UNL     1      26.502  28.627  35.032  1.00  0.00     0.000 C 
BRANCH   6   7
ATOM      7  C   UNL     1      26.670  30.043  34.466  1.00  0.00     0.000 C 
BRANCH   7   8
ATOM      8  C   UNL     1      27.866  30.756  35.113  1.00  0.00     0.006 C 
BRANCH   8   9
ATOM      9  C   UNL     1      28.993  31.028  34.109  1.00  0.00     0.053 C 
BRANCH   9  10
ATOM     10  C   UNL     1      28.962  32.439  33.606  1.00  0.00     0.041 C 
ATOM     11  O   UNL     1      28.144  33.265  34.088  1.00  0.00    -0.550 OA
ATOM     12  O   UNL     1      29.816  32.833  32.584  1.00  0.00    -0.550 OA
ENDBRANCH   9  10
ENDBRANCH   8   9
ENDBRANCH   7   8
ENDBRANCH   6   7
ENDBRANCH   5   6
ENDBRANCH   4   5
ENDBRANCH   3   4
ENDBRANCH   1   3
BRANCH   2  13
ATOM     13  C   UNL     1      28.579  24.238  35.865  1.00  0.00     0.027 C 
BRANCH  13  14
ATOM     14  C   UNL     1      29.765  24.996  35.245  1.00  0.00     0.004 C 
BRANCH  14  15
ATOM     15  C   UNL     1      29.359  26.134  34.288  1.00  0.00     0.000 C 
BRANCH  15  16
ATOM     16  C   UNL     1      30.088  27.470  34.523  1.00  0.00     0.000 C 
BRANCH  16  17
ATOM     17  C   UNL     1      30.792  27.561  35.895  1.00  0.00    -0.000 C 
BRANCH  17  18
ATOM     18  C   UNL     1      30.086  28.538  36.852  1.00  0.00    -0.000 C 
BRANCH  18  19
ATOM     19  C   UNL     1      28.916  27.885  37.603  1.00  0.00    -0.003 C 
ATOM     20  C   UNL     1      29.358  26.710  38.475  1.00  0.00     0.004 C 
ENDBRANCH  18  19
ENDBRANCH  17  18
ENDBRANCH  16  17
ENDBRANCH  15  16
ENDBRANCH  14  15
ENDBRANCH  13  14
ENDBRANCH   2  13
TORSDOF 15
ENDMDL
MODEL 7
REMARK VINA RESULT:    -3.511     10.773     12.842
REMARK INTER + INTRA:          -9.197
REMARK INTER:                  -6.096
REMARK INTRA:                  -3.101
REMARK UNBOUND:                -2.608
REMARK SMILES CCCCCCCCC=CCCCCCCCC(=O)[O-]
REMARK SMILES IDX 10 1 9 2 11 3 12 4 13 5 14 6 15 7 16 8 17 9 18 10 19 11
REMARK SMILES IDX 20 12 8 13 7 14 6 15 5 16 4 17 3 18 2 19 1 20
REMARK H PARENT
REMARK Flexibility Score: inf
ROOT
ATOM      1  C   UNL     1      26.874  27.483  36.166  1.00  0.00    -0.031 C 
ATOM      2  C   UNL     1      27.126  26.736  37.250  1.00  0.00    -0.031 C 
ENDROOT
BRANCH   1   3
ATOM      3  C   UNL     1      25.850  27.068  35.145  1.00  0.00     0.027 C 
BRANCH   3   4
ATOM      4  C   UNL     1      26.263  27.522  33.736  1.00  0.00     0.004 C 
BRANCH   4   5
ATOM      5  C   UNL     1      27.788  27.574  33.556  1.00  0.00     0.000 C 
BRANCH   5   6
ATOM      6  C   UNL     1      28.300  28.989  33.249  1.00  0.00     0.000 C 
BRANCH   6   7
ATOM      7  C   UNL     1      29.300  29.454  34.316  1.00  0.00     0.000 C 
BRANCH   7   8
ATOM      8  C   UNL     1      28.665  30.493  35.251  1.00  0.00     0.006 C 
BRANCH   8   9
ATOM      9  C   UNL     1      27.377  31.088  34.669  1.00  0.00     0.053 C 
BRANCH   9  10
ATOM     10  C   UNL     1      27.556  32.521  34.272  1.00  0.00     0.041 C 
ATOM     11  O   UNL     1      28.700  33.045  34.291  1.00  0.00    -0.550 OA
ATOM     12  O   UNL     1      26.455  33.286  33.911  1.00  0.00    -0.550 OA
ENDBRANCH   9  10
ENDBRANCH   8   9
ENDBRANCH   7   8
ENDBRANCH   6   7
ENDBRANCH   5   6
ENDBRANCH   4   5
ENDBRANCH   3   4
ENDBRANCH   1   3
BRANCH   2  13
ATOM     13  C   UNL     1      28.155  27.145  38.270  1.00  0.00     0.027 C 
BRANCH  13  14
ATOM     14  C   UNL     1      29.432  27.709  37.621  1.00  0.00     0.004 C 
BRANCH  14  15
ATOM     15  C   UNL     1      30.469  26.637  37.229  1.00  0.00     0.000 C 
BRANCH  15  16
ATOM     16  C   UNL     1      30.370  26.140  35.775  1.00  0.00     0.000 C 
BRANCH  16  17
ATOM     17  C   UNL     1      30.154  24.616  35.652  1.00  0.00    -0.000 C 
BRANCH  17  18
ATOM     18  C   UNL     1      28.878  24.266  34.867  1.00  0.00    -0.000 C 
BRANCH  18  19
ATOM     19  C   UNL     1      27.826  23.561  35.737  1.00  0.00    -0.003 C 
ATOM     20  C   UNL     1      26.476  23.422  35.033  1.00  0.00     0.004 C 
ENDBRANCH  18  19
ENDBRANCH  17  18
ENDBRANCH  16  17
ENDBRANCH  15  16
ENDBRANCH  14  15
ENDBRANCH  13  14
ENDBRANCH   2  13
TORSDOF 15
ENDMDL
MODEL 8
REMARK VINA RESULT:    -3.502      2.820      6.326
REMARK INTER + INTRA:          -9.181
REMARK INTER:                  -6.920
REMARK INTRA:                  -2.261
REMARK UNBOUND:                -2.608
REMARK SMILES CCCCCCCCC=CCCCCCCCC(=O)[O-]
REMARK SMILES IDX 10 1 9 2 11 3 12 4 13 5 14 6 15 7 16 8 17 9 18 10 19 11
REMARK SMILES IDX 20 12 8 13 7 14 6 15 5 16 4 17 3 18 2 19 1 20
REMARK H PARENT
REMARK Flexibility Score: inf
ROOT
ATOM      1  C   UNL     1      36.442  37.460  32.790  1.00  0.00    -0.031 C 
ATOM      2  C   UNL     1      37.718  37.840  32.951  1.00  0.00    -0.031 C 
ENDROOT
BRANCH   1   3
ATOM      3  C   UNL     1      35.545  37.193  33.967  1.00  0.00     0.027 C 
BRANCH   3   4
ATOM      4  C   UNL     1      34.938  35.783  33.886  1.00  0.00     0.004 C 
BRANCH   4   5
ATOM      5  C   UNL     1      35.058  35.011  35.210  1.00  0.00     0.000 C 
BRANCH   5   6
ATOM      6  C   UNL     1      36.479  35.049  35.790  1.00  0.00     0.000 C 
BRANCH   6   7
ATOM      7  C   UNL     1      37.036  33.630  35.968  1.00  0.00     0.000 C 
BRANCH   7   8
ATOM      8  C   UNL     1      38.399  33.483  35.275  1.00  0.00     0.006 C 
BRANCH   8   9
ATOM      9  C   UNL     1      38.525  34.389  34.044  1.00  0.00     0.053 C 
BRANCH   9  10
ATOM     10  C   UNL     1      38.227  33.649  32.776  1.00  0.00     0.041 C 
ATOM     11  O   UNL     1      38.703  32.500  32.586  1.00  0.00    -0.550 OA
ATOM     12  O   UNL     1      37.448  34.242  31.791  1.00  0.00    -0.550 OA
ENDBRANCH   9  10
ENDBRANCH   8   9
ENDBRANCH   7   8
ENDBRANCH   6   7
ENDBRANCH   5   6
ENDBRANCH   4   5
ENDBRANCH   3   4
ENDBRANCH   1   3
BRANCH   2  13
ATOM     13  C   UNL     1      38.619  38.102  31.776  1.00  0.00     0.027 C 
BRANCH  13  14
ATOM     14  C   UNL     1      39.699  37.017  31.611  1.00  0.00     0.004 C 
BRANCH  14  15
ATOM     15  C   UNL     1      41.043  37.353  32.288  1.00  0.00     0.000 C 
BRANCH  15  16
ATOM     16  C   UNL     1      41.225  38.835  32.665  1.00  0.00     0.000 C 
BRANCH  16  17
ATOM     17  C   UNL     1      41.321  39.082  34.187  1.00  0.00    -0.000 C 
BRANCH  17  18
ATOM     18  C   UNL     1      40.834  40.487  34.584  1.00  0.00    -0.000 C 
BRANCH  18  19
ATOM     19  C   UNL     1      39.336  40.690  34.311  1.00  0.00    -0.003 C 
ATOM     20  C   UNL     1      39.072  41.696  33.191  1.00  0.00     0.004 C 
ENDBRANCH  18  19
ENDBRANCH  17  18
ENDBRANCH  16  17
ENDBRANCH  15  16
ENDBRANCH  14  15
ENDBRANCH  13  14
ENDBRANCH   2  13
TORSDOF 15
ENDMDL
MODEL 9
REMARK VINA RESULT:    -3.458     11.406     14.344
REMARK INTER + INTRA:          -9.098
REMARK INTER:                  -5.992
REMARK INTRA:                  -3.106
REMARK UNBOUND:                -2.608
REMARK SMILES CCCCCCCCC=CCCCCCCCC(=O)[O-]
REMARK SMILES IDX 10 1 9 2 11 3 12 4 13 5 14 6 15 7 16 8 17 9 18 10 19 11
REMARK SMILES IDX 20 12 8 13 7 14 6 15 5 16 4 17 3 18 2 19 1 20
REMARK H PARENT
REMARK Flexibility Score: inf
ROOT
ATOM      1  C   UNL     1      30.271  27.604  35.698  1.00  0.00    -0.031 C 
ATOM      2  C   UNL     1      30.177  27.102  34.458  1.00  0.00    -0.031 C 
ENDROOT
BRANCH   1   3
ATOM      3  C   UNL     1      30.507  26.718  36.890  1.00  0.00     0.027 C 
BRANCH   3   4
ATOM      4  C   UNL     1      29.554  27.080  38.040  1.00  0.00     0.004 C 
BRANCH   4   5
ATOM      5  C   UNL     1      28.242  27.708  37.545  1.00  0.00     0.000 C 
BRANCH   5   6
ATOM      6  C   UNL     1      27.142  26.664  37.297  1.00  0.00     0.000 C 
BRANCH   6   7
ATOM      7  C   UNL     1      26.678  26.693  35.835  1.00  0.00     0.000 C 
BRANCH   7   8
ATOM      8  C   UNL     1      27.055  25.392  35.112  1.00  0.00     0.006 C 
BRANCH   8   9
ATOM      9  C   UNL     1      27.707  24.372  36.054  1.00  0.00     0.053 C 
BRANCH   9  10
ATOM     10  C   UNL     1      28.570  23.400  35.310  1.00  0.00     0.041 C 
ATOM     11  O   UNL     1      28.080  22.330  34.863  1.00  0.00    -0.550 OA
ATOM     12  O   UNL     1      29.923  23.662  35.136  1.00  0.00    -0.550 OA
ENDBRANCH   9  10
ENDBRANCH   8   9
ENDBRANCH   7   8
ENDBRANCH   6   7
ENDBRANCH   5   6
ENDBRANCH   4   5
ENDBRANCH   3   4
ENDBRANCH   1   3
BRANCH   2  13
ATOM     13  C   UNL     1      29.935  27.986  33.264  1.00  0.00     0.027 C 
BRANCH  13  14
ATOM     14  C   UNL     1      28.912  27.382  32.286  1.00  0.00     0.004 C 
BRANCH  14  15
ATOM     15  C   UNL     1      27.484  27.945  32.435  1.00  0.00     0.000 C 
BRANCH  15  16
ATOM     16  C   UNL     1      27.407  29.469  32.646  1.00  0.00     0.000 C 
BRANCH  16  17
ATOM     17  C   UNL     1      26.669  29.881  33.939  1.00  0.00    -0.000 C 
BRANCH  17  18
ATOM     18  C   UNL     1      27.637  30.327  35.049  1.00  0.00    -0.000 C 
BRANCH  18  19
ATOM     19  C   UNL     1      28.720  31.287  34.536  1.00  0.00    -0.003 C 
ATOM     20  C   UNL     1      28.187  32.697  34.284  1.00  0.00     0.004 C 
ENDBRANCH  18  19
ENDBRANCH  17  18
ENDBRANCH  16  17
ENDBRANCH  15  16
ENDBRANCH  14  15
ENDBRANCH  13  14
ENDBRANCH   2  13
TORSDOF 15
ENDMDL
