MODEL 1
REMARK VINA RESULT:     6.682      0.000      0.000
REMARK INTER + INTRA:           7.070
REMARK INTER:                   7.268
REMARK INTRA:                  -0.197
REMARK UNBOUND:                -0.197
REMARK SMILES C[C@H]1[C@H]2C3=CC[C@H]4[C@@]5(C)CC[C@H](O)C(C)(C)[C@H]5CC[C@@]4(C)[C@]3(C)CC[C@@]2(C(=O)[O-])CC[C@@H]1C
REMARK SMILES IDX 26 1 30 2 25 3 3 4 31 5 24 6 4 7 2 8 32 9 22 10 5 11 1 12
REMARK SMILES IDX 33 13 23 14 20 15 6 16 7 17 19 18 21 19 8 20 18 21 17 22
REMARK SMILES IDX 10 23 9 24 14 25 11 26 12 27 15 28 16 29 27 30 28 31 29 32
REMARK SMILES IDX 13 33
REMARK H PARENT 13 34
REMARK Flexibility Score: inf
ROOT
ATOM      1  C   UNL     1     -28.796  81.755   6.816  1.00  0.00     0.017 C 
ATOM      2  C   UNL     1     -30.204  81.878   7.469  1.00  0.00     0.014 C 
ATOM      3  C   UNL     1     -28.665  82.750   5.639  1.00  0.00     0.014 C 
ATOM      4  C   UNL     1     -28.493  80.300   6.291  1.00  0.00     0.030 C 
ATOM      5  C   UNL     1     -31.321  81.178   6.702  1.00  0.00     0.004 C 
ATOM      6  C   UNL     1     -27.223  82.807   5.111  1.00  0.00     0.013 C 
ATOM      7  C   UNL     1     -27.254  80.227   5.374  1.00  0.00    -0.063 C 
ATOM      8  C   UNL     1     -29.715  79.489   5.705  1.00  0.00    -0.003 C 
ATOM      9  C   UNL     1     -31.026  79.688   6.504  1.00  0.00    -0.011 C 
ATOM     10  C   UNL     1     -26.651  81.425   4.602  1.00  0.00    -0.006 C 
ATOM     11  C   UNL     1     -26.703  79.012   5.189  1.00  0.00    -0.027 C 
ATOM     12  C   UNL     1     -29.977  79.666   4.197  1.00  0.00     0.008 C 
ATOM     13  C   UNL     1     -31.014  78.908   7.832  1.00  0.00     0.008 C 
ATOM     14  C   UNL     1     -27.181  81.325   3.132  1.00  0.00     0.017 C 
ATOM     15  C   UNL     1     -25.015  81.355   4.707  1.00  0.00    -0.020 C 
ATOM     16  C   UNL     1     -25.491  78.804   4.332  1.00  0.00     0.032 C 
ATOM     17  C   UNL     1     -24.409  79.862   4.647  1.00  0.00     0.006 C 
ATOM     18  C   UNL     1     -24.359  82.249   3.612  1.00  0.00     0.008 C 
ATOM     19  C   UNL     1     -24.560  81.939   6.088  1.00  0.00     0.012 C 
ATOM     20  C   UNL     1     -23.003  79.663   3.866  1.00  0.00    -0.025 C 
ATOM     21  C   UNL     1     -24.052  81.480   2.325  1.00  0.00     0.005 C 
ATOM     22  C   UNL     1     -22.859  80.542   2.542  1.00  0.00     0.003 C 
ATOM     23  C   UNL     1     -22.750  78.143   3.576  1.00  0.00     0.010 C 
ATOM     24  C   UNL     1     -21.858  80.092   4.837  1.00  0.00     0.012 C 
ATOM     25  C   UNL     1     -22.424  79.776   1.233  1.00  0.00    -0.006 C 
ATOM     26  C   UNL     1     -21.521  77.819   2.715  1.00  0.00     0.033 C 
ATOM     27  C   UNL     1     -21.236  78.820   1.573  1.00  0.00     0.120 C 
ATOM     28  C   UNL     1     -21.907  80.784   0.163  1.00  0.00     0.014 C 
ATOM     29  C   UNL     1     -23.598  79.002   0.565  1.00  0.00     0.014 C 
ENDROOT
BRANCH   1  30
ATOM     30  C   UNL     1     -27.821  82.165   7.924  1.00  0.00     0.048 C 
ATOM     31  O   UNL     1     -27.099  81.317   8.513  1.00  0.00    -0.550 OA
ATOM     32  O   UNL     1     -27.800  83.481   8.375  1.00  0.00    -0.550 OA
ENDBRANCH   1  30
BRANCH  27  33
ATOM     33  O   UNL     1     -20.099  79.579   1.911  1.00  0.00    -0.393 OA
ATOM     34  H   UNL     1     -19.545  79.024   2.521  1.00  0.00     0.210 HD
ENDBRANCH  27  33
TORSDOF 2
ENDMDL
