MODEL 1
REMARK VINA RESULT:    10.091      0.000      0.000
REMARK INTER + INTRA:          12.406
REMARK INTER:                  11.861
REMARK INTRA:                   0.545
REMARK UNBOUND:                 0.545
REMARK SMILES C=C[C@@]1(C)CC[C@@H](C(=C)C)C[C@@H]1C(=C)C
REMARK SMILES IDX 7 1 6 2 5 3 3 4 12 5 11 6 4 7 8 8 10 9 9 10 13 11 14 12
REMARK SMILES IDX 15 13 2 14 1 15
REMARK H PARENT
REMARK Flexibility Score: inf
ROOT
ATOM      1  C   UNL     1      -1.504   6.097 -11.555  1.00  0.00     0.015 C 
ATOM      2  C   UNL     1      -0.087   5.983 -12.144  1.00  0.00     0.009 C 
ATOM      3  C   UNL     1       0.985   6.357 -11.113  1.00  0.00     0.012 C 
ATOM      4  C   UNL     1       0.914   5.469  -9.838  1.00  0.00    -0.008 C 
ATOM      5  C   UNL     1      -0.537   5.500  -9.214  1.00  0.00     0.024 C 
ATOM      6  C   UNL     1      -1.655   5.262 -10.264  1.00  0.00     0.017 C 
ATOM      7  C   UNL     1       1.951   5.968  -8.803  1.00  0.00     0.016 C 
ENDROOT
BRANCH   1   8
ATOM      8  C   UNL     1      -2.560   5.710 -12.586  1.00  0.00    -0.077 C 
ATOM      9  C   UNL     1      -3.684   6.661 -12.914  1.00  0.00     0.039 C 
ATOM     10  C   UNL     1      -2.514   4.530 -13.227  1.00  0.00     0.008 C 
ENDBRANCH   1   8
BRANCH   5  11
ATOM     11  C   UNL     1      -0.852   6.674  -8.270  1.00  0.00    -0.077 C 
ATOM     12  C   UNL     1      -2.075   7.220  -8.150  1.00  0.00     0.008 C 
ATOM     13  C   UNL     1       0.251   7.271  -7.427  1.00  0.00     0.039 C 
ENDBRANCH   5  11
BRANCH   4  14
ATOM     14  C   UNL     1       1.260   4.017 -10.205  1.00  0.00    -0.028 C 
ATOM     15  C   UNL     1       1.520   3.047  -9.316  1.00  0.00     0.004 C 
ENDBRANCH   4  14
TORSDOF 3
ENDMDL
