MODEL 1
REMARK VINA RESULT:    -3.050      0.000      0.000
REMARK INTER + INTRA:          -3.006
REMARK INTER:                  -4.120
REMARK INTRA:                   1.113
REMARK UNBOUND:                 1.113
REMARK SMILES C=C1C(=O)O[C@H]2[C@@H]1CCC(C)=CCC[C@]1(C)O[C@@H]21
REMARK SMILES IDX 6 1 7 2 2 3 1 4 3 5 4 6 5 7 8 8 9 9 10 10 11 11 12 12 18 14
REMARK SMILES IDX 15 15 17 16 16 17 14 18 13 19
REMARK H PARENT
REMARK Flexibility Score: 70.00
ROOT
ATOM      1  C   UNL     1      33.543   9.970  20.403  1.00  0.00     0.216 C 
ATOM      2  C   UNL     1      33.684  10.816  21.723  1.00  0.00     0.070 C 
ATOM      3  C   UNL     1      32.438  10.364  22.436  1.00  0.00     0.037 C 
ATOM      4  C   UNL     1      31.822  11.000  23.431  1.00  0.00     0.021 C 
ATOM      5  C   UNL     1      32.072   9.072  21.886  1.00  0.00     0.334 C 
ATOM      6  O   UNL     1      31.202   8.292  22.354  1.00  0.00    -0.247 OA
ATOM      7  O   UNL     1      32.837   8.792  20.771  1.00  0.00    -0.455 OA
ENDROOT
BRANCH   2   8
ATOM      8  C   UNL     1      34.886  10.505  22.695  1.00  0.00     0.017 C 
BRANCH   8   9
ATOM      9  C   UNL     1      36.367  10.944  22.435  1.00  0.00     0.031 C 
BRANCH   9  10
ATOM     10  C   UNL     1      37.411   9.872  22.155  1.00  0.00    -0.077 C 
ATOM     11  C   UNL     1      37.708   8.886  23.255  1.00  0.00     0.039 C 
ATOM     12  C   UNL     1      38.007   9.669  20.939  1.00  0.00    -0.028 CG0
ATOM     13  G   UNL     1      38.002  10.614  19.736  1.00  0.00     0.000 G0
ENDBRANCH   9  10
ENDBRANCH   8   9
ENDBRANCH   2   8
BRANCH   1  14
ATOM     14  C   UNL     1      34.874   9.703  19.744  1.00  0.00     0.192 C 
ATOM     15  C   UNL     1      35.630  10.263  18.572  1.00  0.00     0.096 C 
ATOM     16  O   UNL     1      35.374  11.035  19.677  1.00  0.00    -0.362 OA
ATOM     17  C   UNL     1      34.855  10.743  17.349  1.00  0.00     0.045 C 
BRANCH  15  18
ATOM     18  C   UNL     1      37.167  10.072  18.481  1.00  0.00     0.042 C 
BRANCH  18  19
ATOM     19  C   UNL     1      38.011  10.593  19.693  1.00  0.00     0.030 CG0
ATOM     20  G   UNL     1      37.968   9.681  20.921  1.00  0.00     0.000 G0
ENDBRANCH  18  19
ENDBRANCH  15  18
ENDBRANCH   1  14
TORSDOF 0
ENDMDL
MODEL 2
REMARK VINA RESULT:    -2.585      2.533      4.340
REMARK INTER + INTRA:          -2.379
REMARK INTER:                  -3.501
REMARK INTRA:                   1.122
REMARK UNBOUND:                 1.113
REMARK SMILES C=C1C(=O)O[C@H]2[C@@H]1CCC(C)=CCC[C@]1(C)O[C@@H]21
REMARK SMILES IDX 6 1 7 2 2 3 1 4 3 5 4 6 5 7 8 8 9 9 10 10 11 11 12 12 18 14
REMARK SMILES IDX 15 15 17 16 16 17 14 18 13 19
REMARK H PARENT
REMARK Flexibility Score: 70.00
ROOT
ATOM      1  C   UNL     1      33.018   7.916  20.805  1.00  0.00     0.216 C 
ATOM      2  C   UNL     1      34.490   7.361  20.747  1.00  0.00     0.070 C 
ATOM      3  C   UNL     1      34.223   6.033  20.092  1.00  0.00     0.037 C 
ATOM      4  C   UNL     1      35.021   4.967  20.114  1.00  0.00     0.021 C 
ATOM      5  C   UNL     1      32.969   6.151  19.372  1.00  0.00     0.334 C 
ATOM      6  O   UNL     1      32.510   5.316  18.550  1.00  0.00    -0.247 OA
ATOM      7  O   UNL     1      32.341   7.338  19.696  1.00  0.00    -0.455 OA
ENDROOT
BRANCH   2   8
ATOM      8  C   UNL     1      35.540   8.102  19.832  1.00  0.00     0.017 C 
BRANCH   8   9
ATOM      9  C   UNL     1      36.212   9.470  20.191  1.00  0.00     0.031 C 
BRANCH   9  10
ATOM     10  C   UNL     1      35.858  10.699  19.365  1.00  0.00    -0.077 C 
ATOM     11  C   UNL     1      36.237  10.691  17.907  1.00  0.00     0.039 C 
ATOM     12  C   UNL     1      35.117  11.755  19.826  1.00  0.00    -0.028 CG0
ATOM     13  G   UNL     1      34.763  12.075  21.279  1.00  0.00     0.000 G0
ENDBRANCH   9  10
ENDBRANCH   8   9
ENDBRANCH   2   8
BRANCH   1  14
ATOM     14  C   UNL     1      32.970   9.424  20.830  1.00  0.00     0.192 C 
ATOM     15  C   UNL     1      32.726  10.478  21.873  1.00  0.00     0.096 C 
ATOM     16  O   UNL     1      33.831   9.668  21.939  1.00  0.00    -0.362 OA
ATOM     17  C   UNL     1      31.741  10.194  23.002  1.00  0.00     0.045 C 
BRANCH  15  18
ATOM     18  C   UNL     1      33.225  11.929  21.636  1.00  0.00     0.042 C 
BRANCH  18  19
ATOM     19  C   UNL     1      34.743  12.101  21.291  1.00  0.00     0.030 CG0
ATOM     20  G   UNL     1      35.096  11.758  19.843  1.00  0.00     0.000 G0
ENDBRANCH  18  19
ENDBRANCH  15  18
ENDBRANCH   1  14
TORSDOF 0
ENDMDL
MODEL 3
REMARK VINA RESULT:    -2.571      2.435      4.127
REMARK INTER + INTRA:          -2.359
REMARK INTER:                  -3.428
REMARK INTRA:                   1.068
REMARK UNBOUND:                 1.113
REMARK SMILES C=C1C(=O)O[C@H]2[C@@H]1CCC(C)=CCC[C@]1(C)O[C@@H]21
REMARK SMILES IDX 6 1 7 2 2 3 1 4 3 5 4 6 5 7 8 8 9 9 10 10 11 11 12 12 18 14
REMARK SMILES IDX 15 15 17 16 16 17 14 18 13 19
REMARK H PARENT
REMARK Flexibility Score: 70.00
ROOT
ATOM      1  C   UNL     1      35.095   7.266  20.583  1.00  0.00     0.216 C 
ATOM      2  C   UNL     1      34.152   8.100  19.637  1.00  0.00     0.070 C 
ATOM      3  C   UNL     1      33.250   6.996  19.158  1.00  0.00     0.037 C 
ATOM      4  C   UNL     1      32.492   7.013  18.063  1.00  0.00     0.021 C 
ATOM      5  C   UNL     1      33.304   5.935  20.147  1.00  0.00     0.334 C 
ATOM      6  O   UNL     1      32.544   4.932  20.194  1.00  0.00    -0.247 OA
ATOM      7  O   UNL     1      34.305   6.187  21.064  1.00  0.00    -0.455 OA
ENDROOT
BRANCH   2   8
ATOM      8  C   UNL     1      33.212   9.191  20.280  1.00  0.00     0.017 C 
BRANCH   8   9
ATOM      9  C   UNL     1      33.705  10.584  20.800  1.00  0.00     0.031 C 
BRANCH   9  10
ATOM     10  C   UNL     1      33.684  10.855  22.298  1.00  0.00    -0.077 C 
ATOM     11  C   UNL     1      32.342  10.874  22.984  1.00  0.00     0.039 C 
ATOM     12  C   UNL     1      34.802  10.964  23.081  1.00  0.00    -0.028 CG0
ATOM     13  G   UNL     1      36.248  11.143  22.614  1.00  0.00     0.000 G0
ENDBRANCH   9  10
ENDBRANCH   8   9
ENDBRANCH   2   8
BRANCH   1  14
ATOM     14  C   UNL     1      35.709   8.108  21.674  1.00  0.00     0.192 C 
ATOM     15  C   UNL     1      37.062   8.700  21.948  1.00  0.00     0.096 C 
ATOM     16  O   UNL     1      36.315   9.120  20.877  1.00  0.00    -0.362 OA
ATOM     17  C   UNL     1      38.309   7.939  21.510  1.00  0.00     0.045 C 
BRANCH  15  18
ATOM     18  C   UNL     1      37.198   9.900  22.922  1.00  0.00     0.042 C 
BRANCH  18  19
ATOM     19  C   UNL     1      36.288  11.143  22.635  1.00  0.00     0.030 CG0
ATOM     20  G   UNL     1      34.834  10.966  23.076  1.00  0.00     0.000 G0
ENDBRANCH  18  19
ENDBRANCH  15  18
ENDBRANCH   1  14
TORSDOF 0
ENDMDL
MODEL 4
REMARK VINA RESULT:    -2.495      1.949      2.087
REMARK INTER + INTRA:          -2.256
REMARK INTER:                  -3.470
REMARK INTRA:                   1.214
REMARK UNBOUND:                 1.113
REMARK SMILES C=C1C(=O)O[C@H]2[C@@H]1CCC(C)=CCC[C@]1(C)O[C@@H]21
REMARK SMILES IDX 6 1 7 2 2 3 1 4 3 5 4 6 5 7 8 8 9 9 10 10 11 11 12 12 18 14
REMARK SMILES IDX 15 15 17 16 16 17 14 18 13 19
REMARK H PARENT
REMARK Flexibility Score: 70.00
ROOT
ATOM      1  C   UNL     1      33.764   9.337  20.238  1.00  0.00     0.216 C 
ATOM      2  C   UNL     1      34.592  10.199  21.263  1.00  0.00     0.070 C 
ATOM      3  C   UNL     1      33.497  10.534  22.238  1.00  0.00     0.037 C 
ATOM      4  C   UNL     1      33.499  11.537  23.115  1.00  0.00     0.021 C 
ATOM      5  C   UNL     1      32.468   9.521  22.097  1.00  0.00     0.334 C 
ATOM      6  O   UNL     1      31.487   9.353  22.869  1.00  0.00    -0.247 OA
ATOM      7  O   UNL     1      32.722   8.732  20.993  1.00  0.00    -0.455 OA
ENDROOT
BRANCH   2   8
ATOM      8  C   UNL     1      35.727   9.493  22.099  1.00  0.00     0.017 C 
BRANCH   8   9
ATOM      9  C   UNL     1      37.107   9.043  21.510  1.00  0.00     0.031 C 
BRANCH   9  10
ATOM     10  C   UNL     1      37.387   7.555  21.355  1.00  0.00    -0.077 C 
ATOM     11  C   UNL     1      37.420   6.719  22.608  1.00  0.00     0.039 C 
ATOM     12  C   UNL     1      37.492   6.907  20.153  1.00  0.00    -0.028 CG0
ATOM     13  G   UNL     1      37.658   7.540  18.770  1.00  0.00     0.000 G0
ENDBRANCH   9  10
ENDBRANCH   8   9
ENDBRANCH   2   8
BRANCH   1  14
ATOM     14  C   UNL     1      34.624   8.351  19.486  1.00  0.00     0.192 C 
ATOM     15  C   UNL     1      35.186   8.251  18.095  1.00  0.00     0.096 C 
ATOM     16  O   UNL     1      35.591   9.248  18.946  1.00  0.00    -0.362 OA
ATOM     17  C   UNL     1      34.373   8.794  16.925  1.00  0.00     0.045 C 
BRANCH  15  18
ATOM     18  C   UNL     1      36.414   7.343  17.822  1.00  0.00     0.042 C 
BRANCH  18  19
ATOM     19  C   UNL     1      37.656   7.543  18.756  1.00  0.00     0.030 CG0
ATOM     20  G   UNL     1      37.492   6.934  20.150  1.00  0.00     0.000 G0
ENDBRANCH  18  19
ENDBRANCH  15  18
ENDBRANCH   1  14
TORSDOF 0
ENDMDL
MODEL 5
REMARK VINA RESULT:    -2.336     13.983     15.005
REMARK INTER + INTRA:          -2.041
REMARK INTER:                  -3.171
REMARK INTRA:                   1.129
REMARK UNBOUND:                 1.113
REMARK SMILES C=C1C(=O)O[C@H]2[C@@H]1CCC(C)=CCC[C@]1(C)O[C@@H]21
REMARK SMILES IDX 6 1 7 2 2 3 1 4 3 5 4 6 5 7 8 8 9 9 10 10 11 11 12 12 18 14
REMARK SMILES IDX 15 15 17 16 16 17 14 18 13 19
REMARK H PARENT
REMARK Flexibility Score: 70.00
ROOT
ATOM      1  C   UNL     1      33.118  -4.730  22.050  1.00  0.00     0.216 C 
ATOM      2  C   UNL     1      33.149  -4.877  23.617  1.00  0.00     0.070 C 
ATOM      3  C   UNL     1      32.000  -5.832  23.795  1.00  0.00     0.037 C 
ATOM      4  C   UNL     1      31.310  -6.039  24.915  1.00  0.00     0.021 C 
ATOM      5  C   UNL     1      31.828  -6.537  22.538  1.00  0.00     0.334 C 
ATOM      6  O   UNL     1      31.095  -7.545  22.353  1.00  0.00    -0.247 OA
ATOM      7  O   UNL     1      32.607  -5.961  21.555  1.00  0.00    -0.455 OA
ENDROOT
BRANCH   2   8
ATOM      8  C   UNL     1      34.401  -5.564  24.286  1.00  0.00     0.017 C 
BRANCH   8   9
ATOM      9  C   UNL     1      35.819  -4.906  24.387  1.00  0.00     0.031 C 
BRANCH   9  10
ATOM     10  C   UNL     1      36.941  -5.444  23.510  1.00  0.00    -0.077 C 
ATOM     11  C   UNL     1      37.368  -6.873  23.725  1.00  0.00     0.039 C 
ATOM     12  C   UNL     1      37.502  -4.761  22.465  1.00  0.00    -0.028 CG0
ATOM     13  G   UNL     1      37.365  -3.270  22.151  1.00  0.00     0.000 G0
ENDBRANCH   9  10
ENDBRANCH   8   9
ENDBRANCH   2   8
BRANCH   1  14
ATOM     14  C   UNL     1      34.463  -4.353  21.479  1.00  0.00     0.192 C 
ATOM     15  C   UNL     1      35.056  -3.136  20.827  1.00  0.00     0.096 C 
ATOM     16  O   UNL     1      34.658  -3.107  22.140  1.00  0.00    -0.362 OA
ATOM     17  C   UNL     1      34.173  -2.262  19.943  1.00  0.00     0.045 C 
BRANCH  15  18
ATOM     18  C   UNL     1      36.596  -2.946  20.802  1.00  0.00     0.042 C 
BRANCH  18  19
ATOM     19  C   UNL     1      37.362  -3.249  22.134  1.00  0.00     0.030 CG0
ATOM     20  G   UNL     1      37.521  -4.740  22.437  1.00  0.00     0.000 G0
ENDBRANCH  18  19
ENDBRANCH  15  18
ENDBRANCH   1  14
TORSDOF 0
ENDMDL
MODEL 6
REMARK VINA RESULT:    -2.198     15.355     16.847
REMARK INTER + INTRA:          -1.856
REMARK INTER:                  -3.095
REMARK INTRA:                   1.238
REMARK UNBOUND:                 1.113
REMARK SMILES C=C1C(=O)O[C@H]2[C@@H]1CCC(C)=CCC[C@]1(C)O[C@@H]21
REMARK SMILES IDX 6 1 7 2 2 3 1 4 3 5 4 6 5 7 8 8 9 9 10 10 11 11 12 12 18 14
REMARK SMILES IDX 15 15 17 16 16 17 14 18 13 19
REMARK H PARENT
REMARK Flexibility Score: 70.00
ROOT
ATOM      1  C   UNL     1      34.240  -5.415  23.436  1.00  0.00     0.216 C 
ATOM      2  C   UNL     1      34.721  -4.336  22.395  1.00  0.00     0.070 C 
ATOM      3  C   UNL     1      36.073  -4.023  22.977  1.00  0.00     0.037 C 
ATOM      4  C   UNL     1      36.796  -2.927  22.751  1.00  0.00     0.021 C 
ATOM      5  C   UNL     1      36.475  -5.166  23.775  1.00  0.00     0.334 C 
ATOM      6  O   UNL     1      37.619  -5.358  24.263  1.00  0.00    -0.247 OA
ATOM      7  O   UNL     1      35.421  -6.047  23.913  1.00  0.00    -0.455 OA
ENDROOT
BRANCH   2   8
ATOM      8  C   UNL     1      34.976  -4.786  20.905  1.00  0.00     0.017 C 
BRANCH   8   9
ATOM      9  C   UNL     1      33.848  -5.224  19.911  1.00  0.00     0.031 C 
BRANCH   9  10
ATOM     10  C   UNL     1      33.682  -6.705  19.597  1.00  0.00    -0.077 C 
ATOM     11  C   UNL     1      34.831  -7.406  18.920  1.00  0.00     0.039 C 
ATOM     12  C   UNL     1      32.615  -7.466  19.993  1.00  0.00    -0.028 CG0
ATOM     13  G   UNL     1      31.272  -6.970  20.534  1.00  0.00     0.000 G0
ENDBRANCH   9  10
ENDBRANCH   8   9
ENDBRANCH   2   8
BRANCH   1  14
ATOM     14  C   UNL     1      33.229  -6.371  22.852  1.00  0.00     0.192 C 
ATOM     15  C   UNL     1      31.790  -6.713  23.115  1.00  0.00     0.096 C 
ATOM     16  O   UNL     1      32.143  -5.471  22.654  1.00  0.00    -0.362 OA
ATOM     17  C   UNL     1      31.264  -6.662  24.546  1.00  0.00     0.045 C 
BRANCH  15  18
ATOM     18  C   UNL     1      30.944  -7.399  22.010  1.00  0.00     0.042 C 
BRANCH  18  19
ATOM     19  C   UNL     1      31.240  -6.971  20.533  1.00  0.00     0.030 CG0
ATOM     20  G   UNL     1      32.595  -7.447  20.006  1.00  0.00     0.000 G0
ENDBRANCH  18  19
ENDBRANCH  15  18
ENDBRANCH   1  14
TORSDOF 0
ENDMDL
MODEL 7
REMARK VINA RESULT:    -2.075      3.144      5.204
REMARK INTER + INTRA:          -1.689
REMARK INTER:                  -3.080
REMARK INTRA:                   1.391
REMARK UNBOUND:                 1.113
REMARK SMILES C=C1C(=O)O[C@H]2[C@@H]1CCC(C)=CCC[C@]1(C)O[C@@H]21
REMARK SMILES IDX 6 1 7 2 2 3 1 4 3 5 4 6 5 7 8 8 9 9 10 10 11 11 12 12 18 14
REMARK SMILES IDX 15 15 17 16 16 17 14 18 13 19
REMARK H PARENT
REMARK Flexibility Score: 70.00
ROOT
ATOM      1  C   UNL     1      37.363   7.763  22.752  1.00  0.00     0.216 C 
ATOM      2  C   UNL     1      38.468   7.531  23.849  1.00  0.00     0.070 C 
ATOM      3  C   UNL     1      38.643   6.044  23.707  1.00  0.00     0.037 C 
ATOM      4  C   UNL     1      39.168   5.219  24.611  1.00  0.00     0.021 C 
ATOM      5  C   UNL     1      38.199   5.683  22.373  1.00  0.00     0.334 C 
ATOM      6  O   UNL     1      38.367   4.566  21.818  1.00  0.00    -0.247 OA
ATOM      7  O   UNL     1      37.574   6.756  21.771  1.00  0.00    -0.455 OA
ENDROOT
BRANCH   2   8
ATOM      8  C   UNL     1      39.894   8.167  23.631  1.00  0.00     0.017 C 
BRANCH   8   9
ATOM      9  C   UNL     1      40.183   9.706  23.627  1.00  0.00     0.031 C 
BRANCH   9  10
ATOM     10  C   UNL     1      40.376  10.412  22.293  1.00  0.00    -0.077 C 
ATOM     11  C   UNL     1      41.529   9.967  21.430  1.00  0.00     0.039 C 
ATOM     12  C   UNL     1      39.510  11.336  21.772  1.00  0.00    -0.028 CG0
ATOM     13  G   UNL     1      38.381  12.065  22.505  1.00  0.00     0.000 G0
ENDBRANCH   9  10
ENDBRANCH   8   9
ENDBRANCH   2   8
BRANCH   1  14
ATOM     14  C   UNL     1      37.384   9.168  22.200  1.00  0.00     0.192 C 
ATOM     15  C   UNL     1      36.416  10.315  22.135  1.00  0.00     0.096 C 
ATOM     16  O   UNL     1      36.901   9.874  23.339  1.00  0.00    -0.362 OA
ATOM     17  C   UNL     1      34.927  10.024  21.978  1.00  0.00     0.045 C 
BRANCH  15  18
ATOM     18  C   UNL     1      36.943  11.759  21.919  1.00  0.00     0.042 C 
BRANCH  18  19
ATOM     19  C   UNL     1      38.364  12.080  22.494  1.00  0.00     0.030 CG0
ATOM     20  G   UNL     1      39.503  11.341  21.788  1.00  0.00     0.000 G0
ENDBRANCH  18  19
ENDBRANCH  15  18
ENDBRANCH   1  14
TORSDOF 0
ENDMDL
MODEL 8
REMARK VINA RESULT:    -2.041     14.171     15.737
REMARK INTER + INTRA:          -1.644
REMARK INTER:                  -2.885
REMARK INTRA:                   1.241
REMARK UNBOUND:                 1.113
REMARK SMILES C=C1C(=O)O[C@H]2[C@@H]1CCC(C)=CCC[C@]1(C)O[C@@H]21
REMARK SMILES IDX 6 1 7 2 2 3 1 4 3 5 4 6 5 7 8 8 9 9 10 10 11 11 12 12 18 14
REMARK SMILES IDX 15 15 17 16 16 17 14 18 13 19
REMARK H PARENT
REMARK Flexibility Score: 70.00
ROOT
ATOM      1  C   UNL     1      34.974  -3.814  21.692  1.00  0.00     0.216 C 
ATOM      2  C   UNL     1      33.804  -2.897  21.175  1.00  0.00     0.070 C 
ATOM      3  C   UNL     1      34.472  -2.312  19.960  1.00  0.00     0.037 C 
ATOM      4  C   UNL     1      34.120  -1.196  19.325  1.00  0.00     0.021 C 
ATOM      5  C   UNL     1      35.527  -3.227  19.567  1.00  0.00     0.334 C 
ATOM      6  O   UNL     1      36.181  -3.179  18.492  1.00  0.00    -0.247 OA
ATOM      7  O   UNL     1      35.710  -4.193  20.536  1.00  0.00    -0.455 OA
ENDROOT
BRANCH   2   8
ATOM      8  C   UNL     1      32.479  -3.581  20.664  1.00  0.00     0.017 C 
BRANCH   8   9
ATOM      9  C   UNL     1      31.459  -4.330  21.588  1.00  0.00     0.031 C 
BRANCH   9  10
ATOM     10  C   UNL     1      31.420  -5.851  21.554  1.00  0.00    -0.077 C 
ATOM     11  C   UNL     1      31.065  -6.509  20.246  1.00  0.00     0.039 C 
ATOM     12  C   UNL     1      31.801  -6.659  22.592  1.00  0.00    -0.028 CG0
ATOM     13  G   UNL     1      32.037  -6.250  24.047  1.00  0.00     0.000 G0
ENDBRANCH   9  10
ENDBRANCH   8   9
ENDBRANCH   2   8
BRANCH   1  14
ATOM     14  C   UNL     1      34.475  -4.981  22.508  1.00  0.00     0.192 C 
ATOM     15  C   UNL     1      34.584  -5.421  23.941  1.00  0.00     0.096 C 
ATOM     16  O   UNL     1      33.910  -4.274  23.608  1.00  0.00    -0.362 OA
ATOM     17  C   UNL     1      35.865  -5.126  24.714  1.00  0.00     0.045 C 
BRANCH  15  18
ATOM     18  C   UNL     1      33.548  -6.420  24.523  1.00  0.00     0.042 C 
BRANCH  18  19
ATOM     19  C   UNL     1      32.064  -6.243  24.055  1.00  0.00     0.030 CG0
ATOM     20  G   UNL     1      31.813  -6.669  22.607  1.00  0.00     0.000 G0
ENDBRANCH  18  19
ENDBRANCH  15  18
ENDBRANCH   1  14
TORSDOF 0
ENDMDL
MODEL 9
REMARK VINA RESULT:    -1.918     13.633     14.871
REMARK INTER + INTRA:          -1.477
REMARK INTER:                  -2.699
REMARK INTRA:                   1.222
REMARK UNBOUND:                 1.113
REMARK SMILES C=C1C(=O)O[C@H]2[C@@H]1CCC(C)=CCC[C@]1(C)O[C@@H]21
REMARK SMILES IDX 6 1 7 2 2 3 1 4 3 5 4 6 5 7 8 8 9 9 10 10 11 11 12 12 18 14
REMARK SMILES IDX 15 15 17 16 16 17 14 18 13 19
REMARK H PARENT
REMARK Flexibility Score: 70.00
ROOT
ATOM      1  C   UNL     1      34.027  -4.522  22.788  1.00  0.00     0.216 C 
ATOM      2  C   UNL     1      33.780  -5.874  22.021  1.00  0.00     0.070 C 
ATOM      3  C   UNL     1      33.103  -6.654  23.115  1.00  0.00     0.037 C 
ATOM      4  C   UNL     1      32.990  -7.979  23.187  1.00  0.00     0.021 C 
ATOM      5  C   UNL     1      32.536  -5.693  24.042  1.00  0.00     0.334 C 
ATOM      6  O   UNL     1      31.736  -5.956  24.978  1.00  0.00    -0.247 OA
ATOM      7  O   UNL     1      32.979  -4.420  23.743  1.00  0.00    -0.455 OA
ENDROOT
BRANCH   2   8
ATOM      8  C   UNL     1      32.785  -5.876  20.797  1.00  0.00     0.017 C 
BRANCH   8   9
ATOM      9  C   UNL     1      33.107  -5.251  19.398  1.00  0.00     0.031 C 
BRANCH   9  10
ATOM     10  C   UNL     1      32.373  -3.986  18.974  1.00  0.00    -0.077 C 
ATOM     11  C   UNL     1      30.876  -4.068  18.820  1.00  0.00     0.039 C 
ATOM     12  C   UNL     1      32.962  -2.757  18.840  1.00  0.00    -0.028 CG0
ATOM     13  G   UNL     1      34.459  -2.448  18.780  1.00  0.00     0.000 G0
ENDBRANCH   9  10
ENDBRANCH   8   9
ENDBRANCH   2   8
BRANCH   1  14
ATOM     14  C   UNL     1      34.122  -3.338  21.857  1.00  0.00     0.192 C 
ATOM     15  C   UNL     1      35.226  -2.470  21.324  1.00  0.00     0.096 C 
ATOM     16  O   UNL     1      35.158  -3.800  20.995  1.00  0.00    -0.362 OA
ATOM     17  C   UNL     1      36.425  -2.163  22.215  1.00  0.00     0.045 C 
BRANCH  15  18
ATOM     18  C   UNL     1      35.009  -1.655  20.021  1.00  0.00     0.042 C 
BRANCH  18  19
ATOM     19  C   UNL     1      34.472  -2.446  18.781  1.00  0.00     0.030 CG0
ATOM     20  G   UNL     1      32.974  -2.753  18.838  1.00  0.00     0.000 G0
ENDBRANCH  18  19
ENDBRANCH  15  18
ENDBRANCH   1  14
TORSDOF 0
ENDMDL
