MODEL 1
REMARK VINA RESULT:    -6.051      0.000      0.000
REMARK INTER + INTRA:          -9.824
REMARK INTER:                  -8.527
REMARK INTRA:                  -1.297
REMARK UNBOUND:                -1.297
REMARK SMILES COc1c(O[C@H]2O[C@H](C(=O)[O-])[C@@H](O)[C@@H](O)[C@H]2O)cc(O)c2c(=O)cc(-c3ccccc3)oc12
REMARK SMILES IDX 5 1 6 2 8 3 12 4 7 5 14 6 16 7 9 8 10 9 11 10 13 11 15 13
REMARK SMILES IDX 17 15 4 17 3 18 18 19 33 20 19 21 21 22 32 23 22 24 25 25
REMARK SMILES IDX 24 26 23 27 2 28 1 29 20 30 26 32 27 33 31 34 28 35 30 36
REMARK SMILES IDX 29 37
REMARK H PARENT 13 12 15 14 17 16 20 31
REMARK Flexibility Score: inf
ROOT
ATOM      1  O   UNL     1     -11.830  85.217  -8.561  1.00  0.00    -0.458 OA
ENDROOT
BRANCH   1   2
ATOM      2  C   UNL     1     -13.002  85.111  -9.383  1.00  0.00     0.339 C 
ATOM      3  C   UNL     1     -12.576  82.854  -9.895  1.00  0.00     0.199 C 
ATOM      4  C   UNL     1     -13.823  82.337  -9.140  1.00  0.00     0.180 C 
ATOM      5  O   UNL     1     -12.796  84.157 -10.413  1.00  0.00    -0.328 OA
ATOM      6  C   UNL     1     -14.247  83.325  -8.035  1.00  0.00     0.181 C 
ATOM      7  C   UNL     1     -14.276  84.768  -8.570  1.00  0.00     0.214 C 
BRANCH   3   8
ATOM      8  C   UNL     1     -12.262  81.945 -11.047  1.00  0.00     0.073 C 
ATOM      9  O   UNL     1     -13.192  81.378 -11.680  1.00  0.00    -0.547 OA
ATOM     10  O   UNL     1     -10.944  81.750 -11.444  1.00  0.00    -0.547 OA
ENDBRANCH   3   8
BRANCH   4  11
ATOM     11  O   UNL     1     -13.565  81.080  -8.565  1.00  0.00    -0.387 OA
ATOM     12  H   UNL     1     -13.666  81.183  -7.583  1.00  0.00     0.211 HD
ENDBRANCH   4  11
BRANCH   6  13
ATOM     13  O   UNL     1     -13.452  83.211  -6.876  1.00  0.00    -0.387 OA
ATOM     14  H   UNL     1     -12.964  82.351  -6.909  1.00  0.00     0.211 HD
ENDBRANCH   6  13
BRANCH   7  15
ATOM     15  O   UNL     1     -14.461  85.664  -7.504  1.00  0.00    -0.384 OA
ATOM     16  H   UNL     1     -15.424  85.905  -7.494  1.00  0.00     0.211 HD
ENDBRANCH   7  15
ENDBRANCH   1   2
BRANCH   1  17
ATOM     17  C   UNL     1     -10.538  85.589  -8.974  1.00  0.00     0.172 A 
ATOM     18  C   UNL     1      -9.480  84.679  -8.785  1.00  0.00     0.205 A 
ATOM     19  C   UNL     1     -10.265  86.844  -9.551  1.00  0.00     0.097 A 
ATOM     20  C   UNL     1      -8.165  85.054  -9.092  1.00  0.00     0.188 A 
ATOM     21  C   UNL     1      -8.957  87.218  -9.881  1.00  0.00     0.134 A 
ATOM     22  C   UNL     1      -7.889  86.326  -9.641  1.00  0.00     0.111 A 
ATOM     23  O   UNL     1      -7.178  84.190  -8.867  1.00  0.00    -0.452 OA
ATOM     24  C   UNL     1      -6.544  86.640  -9.925  1.00  0.00     0.197 A 
ATOM     25  C   UNL     1      -5.900  84.450  -9.133  1.00  0.00     0.138 A 
ATOM     26  C   UNL     1      -5.548  85.699  -9.667  1.00  0.00     0.100 A 
ATOM     27  O   UNL     1      -6.219  87.760 -10.405  1.00  0.00    -0.289 OA
BRANCH  18  28
ATOM     28  O   UNL     1      -9.698  83.394  -8.270  1.00  0.00    -0.490 OA
ATOM     29  C   UNL     1      -9.769  83.119  -6.875  1.00  0.00     0.278 C 
ENDBRANCH  18  28
BRANCH  21  30
ATOM     30  O   UNL     1      -8.726  88.475 -10.441  1.00  0.00    -0.507 OA
ATOM     31  H   UNL     1      -9.388  88.907 -11.077  1.00  0.00     0.293 HD
ENDBRANCH  21  30
BRANCH  25  32
ATOM     32  C   UNL     1      -4.885  83.407  -8.839  1.00  0.00     0.017 A 
ATOM     33  C   UNL     1      -4.561  83.116  -7.501  1.00  0.00     0.012 A 
ATOM     34  C   UNL     1      -4.254  82.674  -9.865  1.00  0.00     0.012 A 
ATOM     35  C   UNL     1      -3.614  82.133  -7.197  1.00  0.00     0.001 A 
ATOM     36  C   UNL     1      -3.310  81.691  -9.554  1.00  0.00     0.001 A 
ATOM     37  C   UNL     1      -2.988  81.422  -8.223  1.00  0.00     0.000 A 
ENDBRANCH  25  32
ENDBRANCH   1  17
TORSDOF 9
ENDMDL
MODEL 2
REMARK VINA RESULT:    -6.043      6.819     10.842
REMARK INTER + INTRA:          -9.812
REMARK INTER:                  -8.441
REMARK INTRA:                  -1.371
REMARK UNBOUND:                -1.297
REMARK SMILES COc1c(O[C@H]2O[C@H](C(=O)[O-])[C@@H](O)[C@@H](O)[C@H]2O)cc(O)c2c(=O)cc(-c3ccccc3)oc12
REMARK SMILES IDX 5 1 6 2 8 3 12 4 7 5 14 6 16 7 9 8 10 9 11 10 13 11 15 13
REMARK SMILES IDX 17 15 4 17 3 18 18 19 33 20 19 21 21 22 32 23 22 24 25 25
REMARK SMILES IDX 24 26 23 27 2 28 1 29 20 30 26 32 27 33 31 34 28 35 30 36
REMARK SMILES IDX 29 37
REMARK H PARENT 13 12 15 14 17 16 20 31
REMARK Flexibility Score: inf
ROOT
ATOM      1  O   UNL     1      -6.435  91.769 -16.194  1.00  0.00    -0.458 OA
ENDROOT
BRANCH   1   2
ATOM      2  C   UNL     1      -5.765  92.995 -16.524  1.00  0.00     0.339 C 
ATOM      3  C   UNL     1      -4.021  91.874 -17.637  1.00  0.00     0.199 C 
ATOM      4  C   UNL     1      -4.402  92.438 -19.025  1.00  0.00     0.180 C 
ATOM      5  O   UNL     1      -4.364  92.784 -16.603  1.00  0.00    -0.328 OA
ATOM      6  C   UNL     1      -5.895  92.820 -19.075  1.00  0.00     0.181 C 
ATOM      7  C   UNL     1      -6.295  93.635 -17.832  1.00  0.00     0.214 C 
BRANCH   3   8
ATOM      8  C   UNL     1      -2.541  91.633 -17.570  1.00  0.00     0.073 C 
ATOM      9  O   UNL     1      -1.875  92.044 -16.582  1.00  0.00    -0.547 OA
ATOM     10  O   UNL     1      -1.902  90.925 -18.580  1.00  0.00    -0.547 OA
ENDBRANCH   3   8
BRANCH   4  11
ATOM     11  O   UNL     1      -4.130  91.495 -20.032  1.00  0.00    -0.387 OA
ATOM     12  H   UNL     1      -3.152  91.521 -20.200  1.00  0.00     0.211 HD
ENDBRANCH   4  11
BRANCH   6  13
ATOM     13  O   UNL     1      -6.732  91.700 -19.260  1.00  0.00    -0.387 OA
ATOM     14  H   UNL     1      -6.687  91.424 -20.209  1.00  0.00     0.211 HD
ENDBRANCH   6  13
BRANCH   7  15
ATOM     15  O   UNL     1      -7.690  93.791 -17.799  1.00  0.00    -0.384 OA
ATOM     16  H   UNL     1      -8.056  93.011 -17.305  1.00  0.00     0.211 HD
ENDBRANCH   7  15
ENDBRANCH   1   2
BRANCH   1  17
ATOM     17  C   UNL     1      -7.031  91.436 -14.964  1.00  0.00     0.172 A 
ATOM     18  C   UNL     1      -6.352  90.553 -14.101  1.00  0.00     0.205 A 
ATOM     19  C   UNL     1      -8.287  91.939 -14.576  1.00  0.00     0.097 A 
ATOM     20  C   UNL     1      -6.960  90.121 -12.916  1.00  0.00     0.188 A 
ATOM     21  C   UNL     1      -8.893  91.529 -13.382  1.00  0.00     0.134 A 
ATOM     22  C   UNL     1      -8.235  90.602 -12.544  1.00  0.00     0.111 A 
ATOM     23  O   UNL     1      -6.315  89.256 -12.138  1.00  0.00    -0.452 OA
ATOM     24  C   UNL     1      -8.791  90.125 -11.339  1.00  0.00     0.197 A 
ATOM     25  C   UNL     1      -6.805  88.793 -10.990  1.00  0.00     0.138 A 
ATOM     26  C   UNL     1      -8.073  89.216 -10.562  1.00  0.00     0.100 A 
ATOM     27  O   UNL     1      -9.929  90.500 -10.946  1.00  0.00    -0.289 OA
BRANCH  18  28
ATOM     28  O   UNL     1      -5.075  90.065 -14.406  1.00  0.00    -0.490 OA
ATOM     29  C   UNL     1      -3.877  90.734 -14.028  1.00  0.00     0.278 C 
ENDBRANCH  18  28
BRANCH  21  30
ATOM     30  O   UNL     1     -10.144  92.043 -13.038  1.00  0.00    -0.507 OA
ATOM     31  H   UNL     1     -10.375  92.290 -12.081  1.00  0.00     0.293 HD
ENDBRANCH  21  30
BRANCH  25  32
ATOM     32  C   UNL     1      -5.993  87.829 -10.205  1.00  0.00     0.017 A 
ATOM     33  C   UNL     1      -5.983  86.472 -10.576  1.00  0.00     0.012 A 
ATOM     34  C   UNL     1      -5.202  88.240  -9.113  1.00  0.00     0.012 A 
ATOM     35  C   UNL     1      -5.220  85.544  -9.859  1.00  0.00     0.001 A 
ATOM     36  C   UNL     1      -4.440  87.308  -8.401  1.00  0.00     0.001 A 
ATOM     37  C   UNL     1      -4.451  85.962  -8.771  1.00  0.00     0.000 A 
ENDBRANCH  25  32
ENDBRANCH   1  17
TORSDOF 9
ENDMDL
MODEL 3
REMARK VINA RESULT:    -5.958      2.595      5.010
REMARK INTER + INTRA:          -9.693
REMARK INTER:                  -8.358
REMARK INTRA:                  -1.335
REMARK UNBOUND:                -1.297
REMARK SMILES COc1c(O[C@H]2O[C@H](C(=O)[O-])[C@@H](O)[C@@H](O)[C@H]2O)cc(O)c2c(=O)cc(-c3ccccc3)oc12
REMARK SMILES IDX 5 1 6 2 8 3 12 4 7 5 14 6 16 7 9 8 10 9 11 10 13 11 15 13
REMARK SMILES IDX 17 15 4 17 3 18 18 19 33 20 19 21 21 22 32 23 22 24 25 25
REMARK SMILES IDX 24 26 23 27 2 28 1 29 20 30 26 32 27 33 31 34 28 35 30 36
REMARK SMILES IDX 29 37
REMARK H PARENT 13 12 15 14 17 16 20 31
REMARK Flexibility Score: inf
ROOT
ATOM      1  O   UNL     1     -10.067  84.426  -9.402  1.00  0.00    -0.458 OA
ENDROOT
BRANCH   1   2
ATOM      2  C   UNL     1     -10.965  83.952  -8.387  1.00  0.00     0.339 C 
ATOM      3  C   UNL     1     -12.819  85.016  -9.372  1.00  0.00     0.199 C 
ATOM      4  C   UNL     1     -13.523  83.687  -9.733  1.00  0.00     0.180 C 
ATOM      5  O   UNL     1     -12.028  84.874  -8.202  1.00  0.00    -0.328 OA
ATOM      6  C   UNL     1     -12.501  82.542  -9.873  1.00  0.00     0.181 C 
ATOM      7  C   UNL     1     -11.518  82.536  -8.688  1.00  0.00     0.214 C 
BRANCH   3   8
ATOM      8  C   UNL     1     -13.841  86.084  -9.113  1.00  0.00     0.073 C 
ATOM      9  O   UNL     1     -13.985  86.558  -7.954  1.00  0.00    -0.547 OA
ATOM     10  O   UNL     1     -14.611  86.581 -10.157  1.00  0.00    -0.547 OA
ENDBRANCH   3   8
BRANCH   4  11
ATOM     11  O   UNL     1     -14.238  83.821 -10.937  1.00  0.00    -0.387 OA
ATOM     12  H   UNL     1     -14.555  82.914 -11.190  1.00  0.00     0.211 HD
ENDBRANCH   4  11
BRANCH   6  13
ATOM     13  O   UNL     1     -11.830  82.566 -11.112  1.00  0.00    -0.387 OA
ATOM     14  H   UNL     1     -12.411  83.009 -11.780  1.00  0.00     0.211 HD
ENDBRANCH   6  13
BRANCH   7  15
ATOM     15  O   UNL     1     -10.481  81.623  -8.940  1.00  0.00    -0.384 OA
ATOM     16  H   UNL     1      -9.826  81.720  -8.199  1.00  0.00     0.211 HD
ENDBRANCH   7  15
ENDBRANCH   1   2
BRANCH   1  17
ATOM     17  C   UNL     1      -8.686  84.658  -9.268  1.00  0.00     0.172 A 
ATOM     18  C   UNL     1      -8.241  85.976  -9.048  1.00  0.00     0.205 A 
ATOM     19  C   UNL     1      -7.737  83.623  -9.364  1.00  0.00     0.097 A 
ATOM     20  C   UNL     1      -6.869  86.258  -9.010  1.00  0.00     0.188 A 
ATOM     21  C   UNL     1      -6.364  83.894  -9.305  1.00  0.00     0.134 A 
ATOM     22  C   UNL     1      -5.917  85.223  -9.139  1.00  0.00     0.111 A 
ATOM     23  O   UNL     1      -6.474  87.518  -8.842  1.00  0.00    -0.452 OA
ATOM     24  C   UNL     1      -4.553  85.576  -9.094  1.00  0.00     0.197 A 
ATOM     25  C   UNL     1      -5.196  87.885  -8.783  1.00  0.00     0.138 A 
ATOM     26  C   UNL     1      -4.193  86.912  -8.918  1.00  0.00     0.100 A 
ATOM     27  O   UNL     1      -3.645  84.708  -9.213  1.00  0.00    -0.289 OA
BRANCH  18  28
ATOM     28  O   UNL     1      -9.140  87.038  -8.886  1.00  0.00    -0.490 OA
ATOM     29  C   UNL     1      -9.656  87.434  -7.620  1.00  0.00     0.278 C 
ENDBRANCH  18  28
BRANCH  21  30
ATOM     30  O   UNL     1      -5.454  82.841  -9.414  1.00  0.00    -0.507 OA
ATOM     31  H   UNL     1      -4.602  82.926  -9.958  1.00  0.00     0.293 HD
ENDBRANCH  21  30
BRANCH  25  32
ATOM     32  C   UNL     1      -4.874  89.322  -8.593  1.00  0.00     0.017 A 
ATOM     33  C   UNL     1      -4.114  89.717  -7.477  1.00  0.00     0.012 A 
ATOM     34  C   UNL     1      -5.284  90.303  -9.517  1.00  0.00     0.012 A 
ATOM     35  C   UNL     1      -3.790  91.064  -7.279  1.00  0.00     0.001 A 
ATOM     36  C   UNL     1      -4.956  91.648  -9.314  1.00  0.00     0.001 A 
ATOM     37  C   UNL     1      -4.213  92.028  -8.195  1.00  0.00     0.000 A 
ENDBRANCH  25  32
ENDBRANCH   1  17
TORSDOF 9
ENDMDL
MODEL 4
REMARK VINA RESULT:    -5.809     11.844     15.617
REMARK INTER + INTRA:          -9.482
REMARK INTER:                  -7.898
REMARK INTRA:                  -1.585
REMARK UNBOUND:                -1.297
REMARK SMILES COc1c(O[C@H]2O[C@H](C(=O)[O-])[C@@H](O)[C@@H](O)[C@H]2O)cc(O)c2c(=O)cc(-c3ccccc3)oc12
REMARK SMILES IDX 5 1 6 2 8 3 12 4 7 5 14 6 16 7 9 8 10 9 11 10 13 11 15 13
REMARK SMILES IDX 17 15 4 17 3 18 18 19 33 20 19 21 21 22 32 23 22 24 25 25
REMARK SMILES IDX 24 26 23 27 2 28 1 29 20 30 26 32 27 33 31 34 28 35 30 36
REMARK SMILES IDX 29 37
REMARK H PARENT 13 12 15 14 17 16 20 31
REMARK Flexibility Score: inf
ROOT
ATOM      1  O   UNL     1      -4.543  93.414 -16.519  1.00  0.00    -0.458 OA
ENDROOT
BRANCH   1   2
ATOM      2  C   UNL     1      -5.649  92.894 -15.766  1.00  0.00     0.339 C 
ATOM      3  C   UNL     1      -4.703  93.545 -13.713  1.00  0.00     0.199 C 
ATOM      4  C   UNL     1      -5.803  94.591 -13.417  1.00  0.00     0.180 C 
ATOM      5  O   UNL     1      -5.214  92.470 -14.484  1.00  0.00    -0.328 OA
ATOM      6  C   UNL     1      -6.458  95.087 -14.722  1.00  0.00     0.181 C 
ATOM      7  C   UNL     1      -6.817  93.904 -15.639  1.00  0.00     0.214 C 
BRANCH   3   8
ATOM      8  C   UNL     1      -4.172  92.982 -12.427  1.00  0.00     0.073 C 
ATOM      9  O   UNL     1      -3.786  93.753 -11.508  1.00  0.00    -0.547 OA
ATOM     10  O   UNL     1      -4.136  91.607 -12.228  1.00  0.00    -0.547 OA
ENDBRANCH   3   8
BRANCH   4  11
ATOM     11  O   UNL     1      -5.265  95.688 -12.721  1.00  0.00    -0.387 OA
ATOM     12  H   UNL     1      -6.031  96.219 -12.377  1.00  0.00     0.211 HD
ENDBRANCH   4  11
BRANCH   6  13
ATOM     13  O   UNL     1      -5.671  96.049 -15.388  1.00  0.00    -0.387 OA
ATOM     14  H   UNL     1      -6.077  96.233 -16.272  1.00  0.00     0.211 HD
ENDBRANCH   6  13
BRANCH   7  15
ATOM     15  O   UNL     1      -7.218  94.386 -16.896  1.00  0.00    -0.384 OA
ATOM     16  H   UNL     1      -6.390  94.625 -17.390  1.00  0.00     0.211 HD
ENDBRANCH   7  15
ENDBRANCH   1   2
BRANCH   1  17
ATOM     17  C   UNL     1      -4.011  92.891 -17.712  1.00  0.00     0.172 A 
ATOM     18  C   UNL     1      -4.307  93.540 -18.926  1.00  0.00     0.205 A 
ATOM     19  C   UNL     1      -3.210  91.734 -17.733  1.00  0.00     0.097 A 
ATOM     20  C   UNL     1      -3.877  92.990 -20.141  1.00  0.00     0.188 A 
ATOM     21  C   UNL     1      -2.757  91.190 -18.942  1.00  0.00     0.134 A 
ATOM     22  C   UNL     1      -3.101  91.811 -20.163  1.00  0.00     0.111 A 
ATOM     23  O   UNL     1      -4.204  93.601 -21.277  1.00  0.00    -0.452 OA
ATOM     24  C   UNL     1      -2.702  91.311 -21.419  1.00  0.00     0.197 A 
ATOM     25  C   UNL     1      -3.836  93.163 -22.479  1.00  0.00     0.138 A 
ATOM     26  C   UNL     1      -3.074  91.988 -22.580  1.00  0.00     0.100 A 
ATOM     27  O   UNL     1      -2.017  90.256 -21.520  1.00  0.00    -0.289 OA
BRANCH  18  28
ATOM     28  O   UNL     1      -5.050  94.727 -18.963  1.00  0.00    -0.490 OA
ATOM     29  C   UNL     1      -4.461  96.017 -18.842  1.00  0.00     0.278 C 
ENDBRANCH  18  28
BRANCH  21  30
ATOM     30  O   UNL     1      -1.974  90.035 -18.922  1.00  0.00    -0.507 OA
ATOM     31  H   UNL     1      -0.996  90.048 -19.192  1.00  0.00     0.293 HD
ENDBRANCH  21  30
BRANCH  25  32
ATOM     32  C   UNL     1      -4.262  93.929 -23.678  1.00  0.00     0.017 A 
ATOM     33  C   UNL     1      -3.621  93.696 -24.909  1.00  0.00     0.012 A 
ATOM     34  C   UNL     1      -5.314  94.864 -23.627  1.00  0.00     0.012 A 
ATOM     35  C   UNL     1      -4.008  94.398 -26.056  1.00  0.00     0.001 A 
ATOM     36  C   UNL     1      -5.698  95.561 -24.777  1.00  0.00     0.001 A 
ATOM     37  C   UNL     1      -5.044  95.331 -25.989  1.00  0.00     0.000 A 
ENDBRANCH  25  32
ENDBRANCH   1  17
TORSDOF 9
ENDMDL
MODEL 5
REMARK VINA RESULT:    -5.764      1.815      2.539
REMARK INTER + INTRA:          -9.419
REMARK INTER:                  -8.250
REMARK INTRA:                  -1.169
REMARK UNBOUND:                -1.297
REMARK SMILES COc1c(O[C@H]2O[C@H](C(=O)[O-])[C@@H](O)[C@@H](O)[C@H]2O)cc(O)c2c(=O)cc(-c3ccccc3)oc12
REMARK SMILES IDX 5 1 6 2 8 3 12 4 7 5 14 6 16 7 9 8 10 9 11 10 13 11 15 13
REMARK SMILES IDX 17 15 4 17 3 18 18 19 33 20 19 21 21 22 32 23 22 24 25 25
REMARK SMILES IDX 24 26 23 27 2 28 1 29 20 30 26 32 27 33 31 34 28 35 30 36
REMARK SMILES IDX 29 37
REMARK H PARENT 13 12 15 14 17 16 20 31
REMARK Flexibility Score: inf
ROOT
ATOM      1  O   UNL     1     -12.202  85.050  -8.664  1.00  0.00    -0.458 OA
ENDROOT
BRANCH   1   2
ATOM      2  C   UNL     1     -13.442  84.689  -9.290  1.00  0.00     0.339 C 
ATOM      3  C   UNL     1     -12.543  82.707 -10.185  1.00  0.00     0.199 C 
ATOM      4  C   UNL     1     -13.435  81.787  -9.319  1.00  0.00     0.180 C 
ATOM      5  O   UNL     1     -13.197  83.934 -10.467  1.00  0.00    -0.328 OA
ATOM      6  C   UNL     1     -13.879  82.505  -8.029  1.00  0.00     0.181 C 
ATOM      7  C   UNL     1     -14.394  83.922  -8.338  1.00  0.00     0.214 C 
BRANCH   3   8
ATOM      8  C   UNL     1     -12.233  82.036 -11.491  1.00  0.00     0.073 C 
ATOM      9  O   UNL     1     -11.048  81.710 -11.771  1.00  0.00    -0.547 OA
ATOM     10  O   UNL     1     -13.255  81.741 -12.385  1.00  0.00    -0.547 OA
ENDBRANCH   3   8
BRANCH   4  11
ATOM     11  O   UNL     1     -12.746  80.609  -8.981  1.00  0.00    -0.387 OA
ATOM     12  H   UNL     1     -12.909  79.956  -9.711  1.00  0.00     0.211 HD
ENDBRANCH   4  11
BRANCH   6  13
ATOM     13  O   UNL     1     -12.870  82.516  -7.043  1.00  0.00    -0.387 OA
ATOM     14  H   UNL     1     -13.190  82.008  -6.256  1.00  0.00     0.211 HD
ENDBRANCH   6  13
BRANCH   7  15
ATOM     15  O   UNL     1     -14.596  84.624  -7.139  1.00  0.00    -0.384 OA
ATOM     16  H   UNL     1     -14.842  83.953  -6.450  1.00  0.00     0.211 HD
ENDBRANCH   7  15
ENDBRANCH   1   2
BRANCH   1  17
ATOM     17  C   UNL     1     -11.275  86.010  -9.112  1.00  0.00     0.172 A 
ATOM     18  C   UNL     1      -9.903  85.779  -8.891  1.00  0.00     0.205 A 
ATOM     19  C   UNL     1     -11.674  87.196  -9.754  1.00  0.00     0.097 A 
ATOM     20  C   UNL     1      -8.961  86.758  -9.233  1.00  0.00     0.188 A 
ATOM     21  C   UNL     1     -10.736  88.171 -10.120  1.00  0.00     0.134 A 
ATOM     22  C   UNL     1      -9.367  87.963  -9.848  1.00  0.00     0.111 A 
ATOM     23  O   UNL     1      -7.675  86.533  -8.977  1.00  0.00    -0.452 OA
ATOM     24  C   UNL     1      -8.367  88.906 -10.165  1.00  0.00     0.197 A 
ATOM     25  C   UNL     1      -6.706  87.396  -9.272  1.00  0.00     0.138 A 
ATOM     26  C   UNL     1      -7.034  88.621  -9.873  1.00  0.00     0.100 A 
ATOM     27  O   UNL     1      -8.653  90.010 -10.705  1.00  0.00    -0.289 OA
BRANCH  18  28
ATOM     28  O   UNL     1      -9.442  84.591  -8.309  1.00  0.00    -0.490 OA
ATOM     29  C   UNL     1      -9.109  83.433  -9.066  1.00  0.00     0.278 C 
ENDBRANCH  18  28
BRANCH  21  30
ATOM     30  O   UNL     1     -11.173  89.339 -10.746  1.00  0.00    -0.507 OA
ATOM     31  H   UNL     1     -12.133  89.456 -11.050  1.00  0.00     0.293 HD
ENDBRANCH  21  30
BRANCH  25  32
ATOM     32  C   UNL     1      -5.304  87.035  -8.939  1.00  0.00     0.017 A 
ATOM     33  C   UNL     1      -4.456  88.007  -8.376  1.00  0.00     0.012 A 
ATOM     34  C   UNL     1      -4.804  85.733  -9.142  1.00  0.00     0.012 A 
ATOM     35  C   UNL     1      -3.134  87.691  -8.045  1.00  0.00     0.001 A 
ATOM     36  C   UNL     1      -3.482  85.423  -8.807  1.00  0.00     0.001 A 
ATOM     37  C   UNL     1      -2.648  86.400  -8.262  1.00  0.00     0.000 A 
ENDBRANCH  25  32
ENDBRANCH   1  17
TORSDOF 9
ENDMDL
MODEL 6
REMARK VINA RESULT:    -5.690      7.389     11.457
REMARK INTER + INTRA:          -9.315
REMARK INTER:                  -8.141
REMARK INTRA:                  -1.174
REMARK UNBOUND:                -1.297
REMARK SMILES COc1c(O[C@H]2O[C@H](C(=O)[O-])[C@@H](O)[C@@H](O)[C@H]2O)cc(O)c2c(=O)cc(-c3ccccc3)oc12
REMARK SMILES IDX 5 1 6 2 8 3 12 4 7 5 14 6 16 7 9 8 10 9 11 10 13 11 15 13
REMARK SMILES IDX 17 15 4 17 3 18 18 19 33 20 19 21 21 22 32 23 22 24 25 25
REMARK SMILES IDX 24 26 23 27 2 28 1 29 20 30 26 32 27 33 31 34 28 35 30 36
REMARK SMILES IDX 29 37
REMARK H PARENT 13 12 15 14 17 16 20 31
REMARK Flexibility Score: inf
ROOT
ATOM      1  O   UNL     1      -4.305  92.315 -15.597  1.00  0.00    -0.458 OA
ENDROOT
BRANCH   1   2
ATOM      2  C   UNL     1      -3.779  93.384 -16.396  1.00  0.00     0.339 C 
ATOM      3  C   UNL     1      -3.589  92.018 -18.301  1.00  0.00     0.199 C 
ATOM      4  C   UNL     1      -4.667  92.793 -19.095  1.00  0.00     0.180 C 
ATOM      5  O   UNL     1      -2.910  92.871 -17.393  1.00  0.00    -0.328 OA
ATOM      6  C   UNL     1      -5.647  93.505 -18.142  1.00  0.00     0.181 C 
ATOM      7  C   UNL     1      -4.888  94.258 -17.035  1.00  0.00     0.214 C 
BRANCH   3   8
ATOM      8  C   UNL     1      -2.573  91.444 -19.245  1.00  0.00     0.073 C 
ATOM      9  O   UNL     1      -1.879  90.449 -18.902  1.00  0.00    -0.547 OA
ATOM     10  O   UNL     1      -2.415  91.984 -20.515  1.00  0.00    -0.547 OA
ENDBRANCH   3   8
BRANCH   4  11
ATOM     11  O   UNL     1      -5.384  91.921 -19.932  1.00  0.00    -0.387 OA
ATOM     12  H   UNL     1      -5.230  92.220 -20.866  1.00  0.00     0.211 HD
ENDBRANCH   4  11
BRANCH   6  13
ATOM     13  O   UNL     1      -6.616  92.628 -17.611  1.00  0.00    -0.387 OA
ATOM     14  H   UNL     1      -7.033  93.056 -16.822  1.00  0.00     0.211 HD
ENDBRANCH   6  13
BRANCH   7  15
ATOM     15  O   UNL     1      -5.796  94.721 -16.069  1.00  0.00    -0.384 OA
ATOM     16  H   UNL     1      -6.128  93.923 -15.580  1.00  0.00     0.211 HD
ENDBRANCH   7  15
ENDBRANCH   1   2
BRANCH   1  17
ATOM     17  C   UNL     1      -4.363  92.257 -14.192  1.00  0.00     0.172 A 
ATOM     18  C   UNL     1      -4.858  91.087 -13.584  1.00  0.00     0.205 A 
ATOM     19  C   UNL     1      -3.961  93.333 -13.378  1.00  0.00     0.097 A 
ATOM     20  C   UNL     1      -5.024  91.033 -12.193  1.00  0.00     0.188 A 
ATOM     21  C   UNL     1      -4.103  93.278 -11.986  1.00  0.00     0.134 A 
ATOM     22  C   UNL     1      -4.651  92.126 -11.381  1.00  0.00     0.111 A 
ATOM     23  O   UNL     1      -5.531  89.931 -11.647  1.00  0.00    -0.452 OA
ATOM     24  C   UNL     1      -4.845  92.006  -9.989  1.00  0.00     0.197 A 
ATOM     25  C   UNL     1      -5.719  89.780 -10.338  1.00  0.00     0.138 A 
ATOM     26  C   UNL     1      -5.383  90.830  -9.468  1.00  0.00     0.100 A 
ATOM     27  O   UNL     1      -4.546  92.944  -9.201  1.00  0.00    -0.289 OA
BRANCH  18  28
ATOM     28  O   UNL     1      -5.219  89.963 -14.338  1.00  0.00    -0.490 OA
ATOM     29  C   UNL     1      -6.553  89.712 -14.769  1.00  0.00     0.278 C 
ENDBRANCH  18  28
BRANCH  21  30
ATOM     30  O   UNL     1      -3.702  94.370 -11.214  1.00  0.00    -0.507 OA
ATOM     31  H   UNL     1      -4.150  94.593 -10.332  1.00  0.00     0.293 HD
ENDBRANCH  21  30
BRANCH  25  32
ATOM     32  C   UNL     1      -6.294  88.503  -9.842  1.00  0.00     0.017 A 
ATOM     33  C   UNL     1      -6.951  87.646 -10.744  1.00  0.00     0.012 A 
ATOM     34  C   UNL     1      -6.173  88.108  -8.495  1.00  0.00     0.012 A 
ATOM     35  C   UNL     1      -7.494  86.434 -10.304  1.00  0.00     0.001 A 
ATOM     36  C   UNL     1      -6.717  86.895  -8.062  1.00  0.00     0.001 A 
ATOM     37  C   UNL     1      -7.378  86.060  -8.964  1.00  0.00     0.000 A 
ENDBRANCH  25  32
ENDBRANCH   1  17
TORSDOF 9
ENDMDL
MODEL 7
REMARK VINA RESULT:    -5.673     11.154     14.795
REMARK INTER + INTRA:          -9.291
REMARK INTER:                  -8.223
REMARK INTRA:                  -1.069
REMARK UNBOUND:                -1.297
REMARK SMILES COc1c(O[C@H]2O[C@H](C(=O)[O-])[C@@H](O)[C@@H](O)[C@H]2O)cc(O)c2c(=O)cc(-c3ccccc3)oc12
REMARK SMILES IDX 5 1 6 2 8 3 12 4 7 5 14 6 16 7 9 8 10 9 11 10 13 11 15 13
REMARK SMILES IDX 17 15 4 17 3 18 18 19 33 20 19 21 21 22 32 23 22 24 25 25
REMARK SMILES IDX 24 26 23 27 2 28 1 29 20 30 26 32 27 33 31 34 28 35 30 36
REMARK SMILES IDX 29 37
REMARK H PARENT 13 12 15 14 17 16 20 31
REMARK Flexibility Score: inf
ROOT
ATOM      1  O   UNL     1      -4.433  93.732 -15.860  1.00  0.00    -0.458 OA
ENDROOT
BRANCH   1   2
ATOM      2  C   UNL     1      -5.767  93.636 -15.338  1.00  0.00     0.339 C 
ATOM      3  C   UNL     1      -5.304  91.619 -14.218  1.00  0.00     0.199 C 
ATOM      4  C   UNL     1      -5.470  92.239 -12.811  1.00  0.00     0.180 C 
ATOM      5  O   UNL     1      -6.131  92.275 -15.167  1.00  0.00    -0.328 OA
ATOM      6  C   UNL     1      -5.205  93.757 -12.844  1.00  0.00     0.181 C 
ATOM      7  C   UNL     1      -5.951  94.420 -14.015  1.00  0.00     0.214 C 
BRANCH   3   8
ATOM      8  C   UNL     1      -5.694  90.169 -14.188  1.00  0.00     0.073 C 
ATOM      9  O   UNL     1      -5.722  89.498 -15.254  1.00  0.00    -0.547 OA
ATOM     10  O   UNL     1      -5.992  89.551 -12.980  1.00  0.00    -0.547 OA
ENDBRANCH   3   8
BRANCH   4  11
ATOM     11  O   UNL     1      -4.588  91.633 -11.899  1.00  0.00    -0.387 OA
ATOM     12  H   UNL     1      -4.682  90.651 -12.010  1.00  0.00     0.211 HD
ENDBRANCH   4  11
BRANCH   6  13
ATOM     13  O   UNL     1      -3.828  94.064 -12.857  1.00  0.00    -0.387 OA
ATOM     14  H   UNL     1      -3.481  93.922 -13.773  1.00  0.00     0.211 HD
ENDBRANCH   6  13
BRANCH   7  15
ATOM     15  O   UNL     1      -5.534  95.755 -14.147  1.00  0.00    -0.384 OA
ATOM     16  H   UNL     1      -5.698  96.016 -15.091  1.00  0.00     0.211 HD
ENDBRANCH   7  15
ENDBRANCH   1   2
BRANCH   1  17
ATOM     17  C   UNL     1      -3.949  93.168 -17.055  1.00  0.00     0.172 A 
ATOM     18  C   UNL     1      -4.320  93.757 -18.279  1.00  0.00     0.205 A 
ATOM     19  C   UNL     1      -3.124  92.028 -17.068  1.00  0.00     0.097 A 
ATOM     20  C   UNL     1      -3.939  93.164 -19.490  1.00  0.00     0.188 A 
ATOM     21  C   UNL     1      -2.720  91.441 -18.274  1.00  0.00     0.134 A 
ATOM     22  C   UNL     1      -3.138  92.001 -19.501  1.00  0.00     0.111 A 
ATOM     23  O   UNL     1      -4.336  93.718 -20.633  1.00  0.00    -0.452 OA
ATOM     24  C   UNL     1      -2.792  91.454 -20.754  1.00  0.00     0.197 A 
ATOM     25  C   UNL     1      -4.019  93.235 -21.832  1.00  0.00     0.138 A 
ATOM     26  C   UNL     1      -3.237  92.073 -21.921  1.00  0.00     0.100 A 
ATOM     27  O   UNL     1      -2.089  90.411 -20.844  1.00  0.00    -0.289 OA
BRANCH  18  28
ATOM     28  O   UNL     1      -5.091  94.926 -18.328  1.00  0.00    -0.490 OA
ATOM     29  C   UNL     1      -6.498  94.920 -18.544  1.00  0.00     0.278 C 
ENDBRANCH  18  28
BRANCH  21  30
ATOM     30  O   UNL     1      -1.910  90.305 -18.244  1.00  0.00    -0.507 OA
ATOM     31  H   UNL     1      -2.103  89.496 -18.826  1.00  0.00     0.293 HD
ENDBRANCH  21  30
BRANCH  25  32
ATOM     32  C   UNL     1      -4.521  93.939 -23.039  1.00  0.00     0.017 A 
ATOM     33  C   UNL     1      -4.233  93.415 -24.313  1.00  0.00     0.012 A 
ATOM     34  C   UNL     1      -5.307  95.105 -22.946  1.00  0.00     0.012 A 
ATOM     35  C   UNL     1      -4.702  94.054 -25.466  1.00  0.00     0.001 A 
ATOM     36  C   UNL     1      -5.774  95.737 -24.103  1.00  0.00     0.001 A 
ATOM     37  C   UNL     1      -5.469  95.215 -25.361  1.00  0.00     0.000 A 
ENDBRANCH  25  32
ENDBRANCH   1  17
TORSDOF 9
ENDMDL
MODEL 8
REMARK VINA RESULT:    -5.644      2.465      8.762
REMARK INTER + INTRA:          -9.250
REMARK INTER:                  -7.979
REMARK INTRA:                  -1.271
REMARK UNBOUND:                -1.297
REMARK SMILES COc1c(O[C@H]2O[C@H](C(=O)[O-])[C@@H](O)[C@@H](O)[C@H]2O)cc(O)c2c(=O)cc(-c3ccccc3)oc12
REMARK SMILES IDX 5 1 6 2 8 3 12 4 7 5 14 6 16 7 9 8 10 9 11 10 13 11 15 13
REMARK SMILES IDX 17 15 4 17 3 18 18 19 33 20 19 21 21 22 32 23 22 24 25 25
REMARK SMILES IDX 24 26 23 27 2 28 1 29 20 30 26 32 27 33 31 34 28 35 30 36
REMARK SMILES IDX 29 37
REMARK H PARENT 13 12 15 14 17 16 20 31
REMARK Flexibility Score: inf
ROOT
ATOM      1  O   UNL     1      -6.933  84.752  -8.848  1.00  0.00    -0.458 OA
ENDROOT
BRANCH   1   2
ATOM      2  C   UNL     1      -6.014  85.043  -9.911  1.00  0.00     0.339 C 
ATOM      3  C   UNL     1      -4.554  86.209  -8.481  1.00  0.00     0.199 C 
ATOM      4  C   UNL     1      -3.416  85.171  -8.622  1.00  0.00     0.180 C 
ATOM      5  O   UNL     1      -5.342  86.267  -9.659  1.00  0.00    -0.328 OA
ATOM      6  C   UNL     1      -3.977  83.786  -9.000  1.00  0.00     0.181 C 
ATOM      7  C   UNL     1      -4.993  83.901 -10.150  1.00  0.00     0.214 C 
BRANCH   3   8
ATOM      8  C   UNL     1      -3.976  87.574  -8.242  1.00  0.00     0.073 C 
ATOM      9  O   UNL     1      -4.724  88.529  -7.901  1.00  0.00    -0.547 OA
ATOM     10  O   UNL     1      -2.608  87.784  -8.363  1.00  0.00    -0.547 OA
ENDBRANCH   3   8
BRANCH   4  11
ATOM     11  O   UNL     1      -2.693  85.067  -7.420  1.00  0.00    -0.387 OA
ATOM     12  H   UNL     1      -2.532  85.991  -7.096  1.00  0.00     0.211 HD
ENDBRANCH   4  11
BRANCH   6  13
ATOM     13  O   UNL     1      -4.515  83.101  -7.891  1.00  0.00    -0.387 OA
ATOM     14  H   UNL     1      -3.904  82.360  -7.649  1.00  0.00     0.211 HD
ENDBRANCH   6  13
BRANCH   7  15
ATOM     15  O   UNL     1      -5.638  82.667 -10.336  1.00  0.00    -0.384 OA
ATOM     16  H   UNL     1      -5.414  82.104  -9.550  1.00  0.00     0.211 HD
ENDBRANCH   7  15
ENDBRANCH   1   2
BRANCH   1  17
ATOM     17  C   UNL     1      -8.289  84.396  -8.976  1.00  0.00     0.172 A 
ATOM     18  C   UNL     1      -9.226  85.403  -9.280  1.00  0.00     0.205 A 
ATOM     19  C   UNL     1      -8.739  83.076  -8.793  1.00  0.00     0.097 A 
ATOM     20  C   UNL     1     -10.594  85.103  -9.315  1.00  0.00     0.188 A 
ATOM     21  C   UNL     1     -10.103  82.763  -8.848  1.00  0.00     0.134 A 
ATOM     22  C   UNL     1     -11.047  83.783  -9.099  1.00  0.00     0.111 A 
ATOM     23  O   UNL     1     -11.462  86.080  -9.566  1.00  0.00    -0.452 OA
ATOM     24  C   UNL     1     -12.437  83.550  -9.147  1.00  0.00     0.197 A 
ATOM     25  C   UNL     1     -12.779  85.894  -9.629  1.00  0.00     0.138 A 
ATOM     26  C   UNL     1     -13.304  84.610  -9.411  1.00  0.00     0.100 A 
ATOM     27  O   UNL     1     -12.918  82.400  -8.953  1.00  0.00    -0.289 OA
BRANCH  18  28
ATOM     28  O   UNL     1      -8.831  86.723  -9.530  1.00  0.00    -0.490 OA
ATOM     29  C   UNL     1      -8.533  87.654  -8.495  1.00  0.00     0.278 C 
ENDBRANCH  18  28
BRANCH  21  30
ATOM     30  O   UNL     1     -10.512  81.443  -8.651  1.00  0.00    -0.507 OA
ATOM     31  H   UNL     1     -11.439  81.125  -8.913  1.00  0.00     0.293 HD
ENDBRANCH  21  30
BRANCH  25  32
ATOM     32  C   UNL     1     -13.651  87.061  -9.914  1.00  0.00     0.017 A 
ATOM     33  C   UNL     1     -13.080  88.242 -10.423  1.00  0.00     0.012 A 
ATOM     34  C   UNL     1     -15.046  87.011  -9.720  1.00  0.00     0.012 A 
ATOM     35  C   UNL     1     -13.880  89.353 -10.708  1.00  0.00     0.001 A 
ATOM     36  C   UNL     1     -15.841  88.124 -10.009  1.00  0.00     0.001 A 
ATOM     37  C   UNL     1     -15.259  89.295 -10.500  1.00  0.00     0.000 A 
ENDBRANCH  25  32
ENDBRANCH   1  17
TORSDOF 9
ENDMDL
MODEL 9
REMARK VINA RESULT:    -5.642      6.901     11.004
REMARK INTER + INTRA:          -9.248
REMARK INTER:                  -7.687
REMARK INTRA:                  -1.561
REMARK UNBOUND:                -1.297
REMARK SMILES COc1c(O[C@H]2O[C@H](C(=O)[O-])[C@@H](O)[C@@H](O)[C@H]2O)cc(O)c2c(=O)cc(-c3ccccc3)oc12
REMARK SMILES IDX 5 1 6 2 8 3 12 4 7 5 14 6 16 7 9 8 10 9 11 10 13 11 15 13
REMARK SMILES IDX 17 15 4 17 3 18 18 19 33 20 19 21 21 22 32 23 22 24 25 25
REMARK SMILES IDX 24 26 23 27 2 28 1 29 20 30 26 32 27 33 31 34 28 35 30 36
REMARK SMILES IDX 29 37
REMARK H PARENT 13 12 15 14 17 16 20 31
REMARK Flexibility Score: inf
ROOT
ATOM      1  O   UNL     1      -6.099  92.249 -15.576  1.00  0.00    -0.458 OA
ENDROOT
BRANCH   1   2
ATOM      2  C   UNL     1      -5.971  91.783 -16.927  1.00  0.00     0.339 C 
ATOM      3  C   UNL     1      -6.184  93.951 -17.815  1.00  0.00     0.199 C 
ATOM      4  C   UNL     1      -4.734  93.988 -18.353  1.00  0.00     0.180 C 
ATOM      5  O   UNL     1      -6.694  92.627 -17.809  1.00  0.00    -0.328 OA
ATOM      6  C   UNL     1      -3.826  93.032 -17.555  1.00  0.00     0.181 C 
ATOM      7  C   UNL     1      -4.494  91.657 -17.381  1.00  0.00     0.214 C 
BRANCH   3   8
ATOM      8  C   UNL     1      -7.075  94.787 -18.687  1.00  0.00     0.073 C 
ATOM      9  O   UNL     1      -6.779  94.980 -19.897  1.00  0.00    -0.547 OA
ATOM     10  O   UNL     1      -8.250  95.324 -18.174  1.00  0.00    -0.547 OA
ENDBRANCH   3   8
BRANCH   4  11
ATOM     11  O   UNL     1      -4.214  95.292 -18.279  1.00  0.00    -0.387 OA
ATOM     12  H   UNL     1      -4.479  95.662 -17.396  1.00  0.00     0.211 HD
ENDBRANCH   4  11
BRANCH   6  13
ATOM     13  O   UNL     1      -3.420  93.579 -16.320  1.00  0.00    -0.387 OA
ATOM     14  H   UNL     1      -2.899  92.897 -15.827  1.00  0.00     0.211 HD
ENDBRANCH   6  13
BRANCH   7  15
ATOM     15  O   UNL     1      -3.747  90.877 -16.483  1.00  0.00    -0.384 OA
ATOM     16  H   UNL     1      -3.922  89.927 -16.711  1.00  0.00     0.211 HD
ENDBRANCH   7  15
ENDBRANCH   1   2
BRANCH   1  17
ATOM     17  C   UNL     1      -6.816  91.635 -14.532  1.00  0.00     0.172 A 
ATOM     18  C   UNL     1      -6.124  90.791 -13.643  1.00  0.00     0.205 A 
ATOM     19  C   UNL     1      -8.200  91.822 -14.360  1.00  0.00     0.097 A 
ATOM     20  C   UNL     1      -6.823  90.084 -12.655  1.00  0.00     0.188 A 
ATOM     21  C   UNL     1      -8.903  91.137 -13.361  1.00  0.00     0.134 A 
ATOM     22  C   UNL     1      -8.218  90.248 -12.505  1.00  0.00     0.111 A 
ATOM     23  O   UNL     1      -6.152  89.262 -11.852  1.00  0.00    -0.452 OA
ATOM     24  C   UNL     1      -8.860  89.507 -11.491  1.00  0.00     0.197 A 
ATOM     25  C   UNL     1      -6.724  88.556 -10.880  1.00  0.00     0.138 A 
ATOM     26  C   UNL     1      -8.109  88.656 -10.680  1.00  0.00     0.100 A 
ATOM     27  O   UNL     1     -10.104  89.591 -11.304  1.00  0.00    -0.289 OA
BRANCH  18  28
ATOM     28  O   UNL     1      -4.737  90.611 -13.728  1.00  0.00    -0.490 OA
ATOM     29  C   UNL     1      -3.800  91.489 -13.111  1.00  0.00     0.278 C 
ENDBRANCH  18  28
BRANCH  21  30
ATOM     30  O   UNL     1     -10.277  91.341 -13.229  1.00  0.00    -0.507 OA
ATOM     31  H   UNL     1     -10.696  92.257 -13.349  1.00  0.00     0.293 HD
ENDBRANCH  21  30
BRANCH  25  32
ATOM     32  C   UNL     1      -5.872  87.669 -10.047  1.00  0.00     0.017 A 
ATOM     33  C   UNL     1      -5.762  86.306 -10.379  1.00  0.00     0.012 A 
ATOM     34  C   UNL     1      -5.142  88.161  -8.946  1.00  0.00     0.012 A 
ATOM     35  C   UNL     1      -4.960  85.451  -9.616  1.00  0.00     0.001 A 
ATOM     36  C   UNL     1      -4.341  87.301  -8.189  1.00  0.00     0.001 A 
ATOM     37  C   UNL     1      -4.252  85.948  -8.521  1.00  0.00     0.000 A 
ENDBRANCH  25  32
ENDBRANCH   1  17
TORSDOF 9
ENDMDL
