MODEL 1
REMARK VINA RESULT:    -5.035      0.000      0.000
REMARK INTER + INTRA:          -8.393
REMARK INTER:                  -6.948
REMARK INTRA:                  -1.445
REMARK UNBOUND:                -1.445
REMARK SMILES CCCCc1cccc(O)c1CCCC
REMARK SMILES IDX 5 1 11 2 9 3 8 4 7 5 6 6 4 7 3 8 2 9 1 10 12 11 13 12 14 13
REMARK SMILES IDX 15 14 10 15
REMARK H PARENT 10 16
REMARK Flexibility Score: inf
ROOT
ATOM      1  C   UNL     1     -14.335  44.584  31.278  1.00  0.00    -0.041 A 
ATOM      2  C   UNL     1     -14.262  44.535  32.701  1.00  0.00    -0.003 A 
ATOM      3  C   UNL     1     -12.993  44.467  33.323  1.00  0.00     0.119 A 
ATOM      4  C   UNL     1     -11.829  44.409  32.548  1.00  0.00     0.046 A 
ATOM      5  C   UNL     1     -11.907  44.436  31.159  1.00  0.00     0.004 A 
ATOM      6  C   UNL     1     -13.145  44.526  30.530  1.00  0.00     0.004 A 
ENDROOT
BRANCH   1   7
ATOM      7  C   UNL     1     -15.640  44.683  30.511  1.00  0.00     0.036 C 
BRANCH   7   8
ATOM      8  C   UNL     1     -15.871  43.469  29.597  1.00  0.00     0.004 C 
BRANCH   8   9
ATOM      9  C   UNL     1     -16.335  42.229  30.371  1.00  0.00    -0.003 C 
ATOM     10  C   UNL     1     -15.197  41.227  30.540  1.00  0.00     0.004 C 
ENDBRANCH   8   9
ENDBRANCH   7   8
ENDBRANCH   1   7
BRANCH   2  11
ATOM     11  C   UNL     1     -15.498  44.624  33.576  1.00  0.00     0.040 C 
BRANCH  11  12
ATOM     12  C   UNL     1     -16.019  43.224  33.922  1.00  0.00     0.005 C 
BRANCH  12  13
ATOM     13  C   UNL     1     -17.515  43.102  33.616  1.00  0.00    -0.003 C 
ATOM     14  C   UNL     1     -18.120  44.458  33.268  1.00  0.00     0.004 C 
ENDBRANCH  12  13
ENDBRANCH  11  12
ENDBRANCH   2  11
BRANCH   3  15
ATOM     15  O   UNL     1     -12.891  44.460  34.715  1.00  0.00    -0.508 OA
ATOM     16  H   UNL     1     -13.299  45.192  35.283  1.00  0.00     0.293 HD
ENDBRANCH   3  15
TORSDOF 7
ENDMDL
MODEL 2
REMARK VINA RESULT:    -5.013      2.277      5.214
REMARK INTER + INTRA:          -8.364
REMARK INTER:                  -7.130
REMARK INTRA:                  -1.233
REMARK UNBOUND:                -1.445
REMARK SMILES CCCCc1cccc(O)c1CCCC
REMARK SMILES IDX 5 1 11 2 9 3 8 4 7 5 6 6 4 7 3 8 2 9 1 10 12 11 13 12 14 13
REMARK SMILES IDX 15 14 10 15
REMARK H PARENT 10 16
REMARK Flexibility Score: inf
ROOT
ATOM      1  C   UNL     1     -16.492  42.761  33.411  1.00  0.00    -0.041 A 
ATOM      2  C   UNL     1     -17.459  43.674  32.899  1.00  0.00    -0.003 A 
ATOM      3  C   UNL     1     -18.824  43.480  33.215  1.00  0.00     0.119 A 
ATOM      4  C   UNL     1     -19.220  42.383  33.988  1.00  0.00     0.046 A 
ATOM      5  C   UNL     1     -18.275  41.482  34.468  1.00  0.00     0.004 A 
ATOM      6  C   UNL     1     -16.924  41.670  34.187  1.00  0.00     0.004 A 
ENDROOT
BRANCH   1   7
ATOM      7  C   UNL     1     -15.002  42.890  33.156  1.00  0.00     0.036 C 
BRANCH   7   8
ATOM      8  C   UNL     1     -14.323  43.850  34.145  1.00  0.00     0.004 C 
BRANCH   8   9
ATOM      9  C   UNL     1     -13.680  45.057  33.450  1.00  0.00    -0.003 C 
ATOM     10  C   UNL     1     -12.739  44.612  32.335  1.00  0.00     0.004 C 
ENDBRANCH   8   9
ENDBRANCH   7   8
ENDBRANCH   1   7
BRANCH   2  11
ATOM     11  C   UNL     1     -17.067  44.891  32.082  1.00  0.00     0.040 C 
BRANCH  11  12
ATOM     12  C   UNL     1     -17.069  44.562  30.585  1.00  0.00     0.005 C 
BRANCH  12  13
ATOM     13  C   UNL     1     -15.659  44.668  29.995  1.00  0.00    -0.003 C 
ATOM     14  C   UNL     1     -15.156  43.309  29.519  1.00  0.00     0.004 C 
ENDBRANCH  12  13
ENDBRANCH  11  12
ENDBRANCH   2  11
BRANCH   3  15
ATOM     15  O   UNL     1     -19.787  44.382  32.761  1.00  0.00    -0.508 OA
ATOM     16  H   UNL     1     -20.014  44.470  31.778  1.00  0.00     0.293 HD
ENDBRANCH   3  15
TORSDOF 7
ENDMDL
MODEL 3
REMARK VINA RESULT:    -4.948      2.240      5.211
REMARK INTER + INTRA:          -8.273
REMARK INTER:                  -7.115
REMARK INTRA:                  -1.158
REMARK UNBOUND:                -1.445
REMARK SMILES CCCCc1cccc(O)c1CCCC
REMARK SMILES IDX 5 1 11 2 9 3 8 4 7 5 6 6 4 7 3 8 2 9 1 10 12 11 13 12 14 13
REMARK SMILES IDX 15 14 10 15
REMARK H PARENT 10 16
REMARK Flexibility Score: inf
ROOT
ATOM      1  C   UNL     1     -15.641  43.441  32.609  1.00  0.00    -0.041 A 
ATOM      2  C   UNL     1     -15.899  44.223  31.446  1.00  0.00    -0.003 A 
ATOM      3  C   UNL     1     -17.226  44.635  31.175  1.00  0.00     0.119 A 
ATOM      4  C   UNL     1     -18.272  44.245  32.017  1.00  0.00     0.046 A 
ATOM      5  C   UNL     1     -18.018  43.463  33.140  1.00  0.00     0.004 A 
ATOM      6  C   UNL     1     -16.716  43.068  33.436  1.00  0.00     0.004 A 
ENDROOT
BRANCH   1   7
ATOM      7  C   UNL     1     -14.255  42.968  33.008  1.00  0.00     0.036 C 
BRANCH   7   8
ATOM      8  C   UNL     1     -13.695  43.754  34.204  1.00  0.00     0.004 C 
BRANCH   8   9
ATOM      9  C   UNL     1     -13.630  45.263  33.940  1.00  0.00    -0.003 C 
ATOM     10  C   UNL     1     -14.381  46.043  35.014  1.00  0.00     0.004 C 
ENDBRANCH   8   9
ENDBRANCH   7   8
ENDBRANCH   1   7
BRANCH   2  11
ATOM     11  C   UNL     1     -14.790  44.691  30.524  1.00  0.00     0.040 C 
BRANCH  11  12
ATOM     12  C   UNL     1     -14.344  43.556  29.594  1.00  0.00     0.005 C 
BRANCH  12  13
ATOM     13  C   UNL     1     -12.816  43.452  29.546  1.00  0.00    -0.003 C 
ATOM     14  C   UNL     1     -12.160  44.562  30.361  1.00  0.00     0.004 C 
ENDBRANCH  12  13
ENDBRANCH  11  12
ENDBRANCH   2  11
BRANCH   3  15
ATOM     15  O   UNL     1     -17.501  45.437  30.066  1.00  0.00    -0.508 OA
ATOM     16  H   UNL     1     -16.822  46.095  29.702  1.00  0.00     0.293 HD
ENDBRANCH   3  15
TORSDOF 7
ENDMDL
MODEL 4
REMARK VINA RESULT:    -4.901      2.418      4.412
REMARK INTER + INTRA:          -8.209
REMARK INTER:                  -7.400
REMARK INTRA:                  -0.809
REMARK UNBOUND:                -1.445
REMARK SMILES CCCCc1cccc(O)c1CCCC
REMARK SMILES IDX 5 1 11 2 9 3 8 4 7 5 6 6 4 7 3 8 2 9 1 10 12 11 13 12 14 13
REMARK SMILES IDX 15 14 10 15
REMARK H PARENT 10 16
REMARK Flexibility Score: inf
ROOT
ATOM      1  C   UNL     1     -15.239  43.944  32.338  1.00  0.00    -0.041 A 
ATOM      2  C   UNL     1     -16.659  43.851  32.413  1.00  0.00    -0.003 A 
ATOM      3  C   UNL     1     -17.433  44.229  31.290  1.00  0.00     0.119 A 
ATOM      4  C   UNL     1     -16.811  44.723  30.138  1.00  0.00     0.046 A 
ATOM      5  C   UNL     1     -15.425  44.832  30.079  1.00  0.00     0.004 A 
ATOM      6  C   UNL     1     -14.646  44.444  31.165  1.00  0.00     0.004 A 
ENDROOT
BRANCH   1   7
ATOM      7  C   UNL     1     -14.314  43.542  33.473  1.00  0.00     0.036 C 
BRANCH   7   8
ATOM      8  C   UNL     1     -13.691  44.760  34.173  1.00  0.00     0.004 C 
BRANCH   8   9
ATOM      9  C   UNL     1     -14.744  45.754  34.677  1.00  0.00    -0.003 C 
ATOM     10  C   UNL     1     -14.145  46.726  35.689  1.00  0.00     0.004 C 
ENDBRANCH   8   9
ENDBRANCH   7   8
ENDBRANCH   1   7
BRANCH   2  11
ATOM     11  C   UNL     1     -17.370  43.293  33.632  1.00  0.00     0.040 C 
BRANCH  11  12
ATOM     12  C   UNL     1     -17.187  41.774  33.717  1.00  0.00     0.005 C 
BRANCH  12  13
ATOM     13  C   UNL     1     -18.123  41.051  32.743  1.00  0.00    -0.003 C 
ATOM     14  C   UNL     1     -17.335  40.244  31.716  1.00  0.00     0.004 C 
ENDBRANCH  12  13
ENDBRANCH  11  12
ENDBRANCH   2  11
BRANCH   3  15
ATOM     15  O   UNL     1     -18.823  44.108  31.320  1.00  0.00    -0.508 OA
ATOM     16  H   UNL     1     -19.398  44.714  31.893  1.00  0.00     0.293 HD
ENDBRANCH   3  15
TORSDOF 7
ENDMDL
MODEL 5
REMARK VINA RESULT:    -4.837      1.721      4.261
REMARK INTER + INTRA:          -8.120
REMARK INTER:                  -6.818
REMARK INTRA:                  -1.302
REMARK UNBOUND:                -1.445
REMARK SMILES CCCCc1cccc(O)c1CCCC
REMARK SMILES IDX 5 1 11 2 9 3 8 4 7 5 6 6 4 7 3 8 2 9 1 10 12 11 13 12 14 13
REMARK SMILES IDX 15 14 10 15
REMARK H PARENT 10 16
REMARK Flexibility Score: inf
ROOT
ATOM      1  C   UNL     1     -17.250  43.904  32.211  1.00  0.00    -0.041 A 
ATOM      2  C   UNL     1     -16.539  43.099  33.148  1.00  0.00    -0.003 A 
ATOM      3  C   UNL     1     -17.266  42.247  34.013  1.00  0.00     0.119 A 
ATOM      4  C   UNL     1     -18.664  42.227  33.974  1.00  0.00     0.046 A 
ATOM      5  C   UNL     1     -19.354  43.031  33.072  1.00  0.00     0.004 A 
ATOM      6  C   UNL     1     -18.656  43.858  32.197  1.00  0.00     0.004 A 
ENDROOT
BRANCH   1   7
ATOM      7  C   UNL     1     -16.571  44.833  31.222  1.00  0.00     0.036 C 
BRANCH   7   8
ATOM      8  C   UNL     1     -16.604  44.280  29.788  1.00  0.00     0.004 C 
BRANCH   8   9
ATOM      9  C   UNL     1     -15.365  43.441  29.450  1.00  0.00    -0.003 C 
ATOM     10  C   UNL     1     -15.650  41.951  29.604  1.00  0.00     0.004 C 
ENDBRANCH   8   9
ENDBRANCH   7   8
ENDBRANCH   1   7
BRANCH   2  11
ATOM     11  C   UNL     1     -15.024  43.071  33.203  1.00  0.00     0.040 C 
BRANCH  11  12
ATOM     12  C   UNL     1     -14.498  44.105  34.204  1.00  0.00     0.005 C 
BRANCH  12  13
ATOM     13  C   UNL     1     -13.586  45.125  33.516  1.00  0.00    -0.003 C 
ATOM     14  C   UNL     1     -13.006  44.562  32.222  1.00  0.00     0.004 C 
ENDBRANCH  12  13
ENDBRANCH  11  12
ENDBRANCH   2  11
BRANCH   3  15
ATOM     15  O   UNL     1     -16.594  41.416  34.911  1.00  0.00    -0.508 OA
ATOM     16  H   UNL     1     -17.091  40.784  35.526  1.00  0.00     0.293 HD
ENDBRANCH   3  15
TORSDOF 7
ENDMDL
MODEL 6
REMARK VINA RESULT:    -4.763      1.579      3.694
REMARK INTER + INTRA:          -8.018
REMARK INTER:                  -6.916
REMARK INTRA:                  -1.102
REMARK UNBOUND:                -1.445
REMARK SMILES CCCCc1cccc(O)c1CCCC
REMARK SMILES IDX 5 1 11 2 9 3 8 4 7 5 6 6 4 7 3 8 2 9 1 10 12 11 13 12 14 13
REMARK SMILES IDX 15 14 10 15
REMARK H PARENT 10 16
REMARK Flexibility Score: inf
ROOT
ATOM      1  C   UNL     1     -15.322  43.003  33.063  1.00  0.00    -0.041 A 
ATOM      2  C   UNL     1     -14.586  43.448  31.926  1.00  0.00    -0.003 A 
ATOM      3  C   UNL     1     -13.702  44.543  32.065  1.00  0.00     0.119 A 
ATOM      4  C   UNL     1     -13.581  45.203  33.293  1.00  0.00     0.046 A 
ATOM      5  C   UNL     1     -14.317  44.778  34.395  1.00  0.00     0.004 A 
ATOM      6  C   UNL     1     -15.176  43.688  34.283  1.00  0.00     0.004 A 
ENDROOT
BRANCH   1   7
ATOM      7  C   UNL     1     -16.277  41.825  33.033  1.00  0.00     0.036 C 
BRANCH   7   8
ATOM      8  C   UNL     1     -17.548  42.085  33.857  1.00  0.00     0.004 C 
BRANCH   8   9
ATOM      9  C   UNL     1     -18.706  42.619  33.003  1.00  0.00    -0.003 C 
ATOM     10  C   UNL     1     -19.170  43.985  33.498  1.00  0.00     0.004 C 
ENDBRANCH   8   9
ENDBRANCH   7   8
ENDBRANCH   1   7
BRANCH   2  11
ATOM     11  C   UNL     1     -14.667  42.742  30.586  1.00  0.00     0.040 C 
BRANCH  11  12
ATOM     12  C   UNL     1     -16.034  42.974  29.933  1.00  0.00     0.005 C 
BRANCH  12  13
ATOM     13  C   UNL     1     -16.232  44.452  29.579  1.00  0.00    -0.003 C 
ATOM     14  C   UNL     1     -17.210  45.123  30.538  1.00  0.00     0.004 C 
ENDBRANCH  12  13
ENDBRANCH  11  12
ENDBRANCH   2  11
BRANCH   3  15
ATOM     15  O   UNL     1     -12.938  44.973  30.979  1.00  0.00    -0.508 OA
ATOM     16  H   UNL     1     -13.021  45.911  30.607  1.00  0.00     0.293 HD
ENDBRANCH   3  15
TORSDOF 7
ENDMDL
MODEL 7
REMARK VINA RESULT:    -4.747      1.515      3.653
REMARK INTER + INTRA:          -7.997
REMARK INTER:                  -6.783
REMARK INTRA:                  -1.214
REMARK UNBOUND:                -1.445
REMARK SMILES CCCCc1cccc(O)c1CCCC
REMARK SMILES IDX 5 1 11 2 9 3 8 4 7 5 6 6 4 7 3 8 2 9 1 10 12 11 13 12 14 13
REMARK SMILES IDX 15 14 10 15
REMARK H PARENT 10 16
REMARK Flexibility Score: inf
ROOT
ATOM      1  C   UNL     1     -16.352  44.336  32.564  1.00  0.00    -0.041 A 
ATOM      2  C   UNL     1     -15.395  44.517  31.523  1.00  0.00    -0.003 A 
ATOM      3  C   UNL     1     -14.050  44.788  31.866  1.00  0.00     0.119 A 
ATOM      4  C   UNL     1     -13.674  44.913  33.208  1.00  0.00     0.046 A 
ATOM      5  C   UNL     1     -14.616  44.756  34.220  1.00  0.00     0.004 A 
ATOM      6  C   UNL     1     -15.941  44.467  33.903  1.00  0.00     0.004 A 
ENDROOT
BRANCH   1   7
ATOM      7  C   UNL     1     -17.814  44.017  32.310  1.00  0.00     0.036 C 
BRANCH   7   8
ATOM      8  C   UNL     1     -18.404  43.095  33.388  1.00  0.00     0.004 C 
BRANCH   8   9
ATOM      9  C   UNL     1     -18.243  41.609  33.047  1.00  0.00    -0.003 C 
ATOM     10  C   UNL     1     -17.286  40.922  34.016  1.00  0.00     0.004 C 
ENDBRANCH   8   9
ENDBRANCH   7   8
ENDBRANCH   1   7
BRANCH   2  11
ATOM     11  C   UNL     1     -15.756  44.361  30.058  1.00  0.00     0.040 C 
BRANCH  11  12
ATOM     12  C   UNL     1     -15.207  43.042  29.503  1.00  0.00     0.005 C 
BRANCH  12  13
ATOM     13  C   UNL     1     -15.978  41.844  30.066  1.00  0.00    -0.003 C 
ATOM     14  C   UNL     1     -15.081  40.966  30.932  1.00  0.00     0.004 C 
ENDBRANCH  12  13
ENDBRANCH  11  12
ENDBRANCH   2  11
BRANCH   3  15
ATOM     15  O   UNL     1     -13.084  44.929  30.869  1.00  0.00    -0.508 OA
ATOM     16  H   UNL     1     -13.311  44.823  29.887  1.00  0.00     0.293 HD
ENDBRANCH   3  15
TORSDOF 7
ENDMDL
MODEL 8
REMARK VINA RESULT:    -4.678      2.421      4.104
REMARK INTER + INTRA:          -7.901
REMARK INTER:                  -6.781
REMARK INTRA:                  -1.119
REMARK UNBOUND:                -1.445
REMARK SMILES CCCCc1cccc(O)c1CCCC
REMARK SMILES IDX 5 1 11 2 9 3 8 4 7 5 6 6 4 7 3 8 2 9 1 10 12 11 13 12 14 13
REMARK SMILES IDX 15 14 10 15
REMARK H PARENT 10 16
REMARK Flexibility Score: inf
ROOT
ATOM      1  C   UNL     1     -15.509  41.822  31.728  1.00  0.00    -0.041 A 
ATOM      2  C   UNL     1     -16.397  41.888  32.842  1.00  0.00    -0.003 A 
ATOM      3  C   UNL     1     -17.392  40.893  32.988  1.00  0.00     0.119 A 
ATOM      4  C   UNL     1     -17.525  39.882  32.030  1.00  0.00     0.046 A 
ATOM      5  C   UNL     1     -16.670  39.834  30.934  1.00  0.00     0.004 A 
ATOM      6  C   UNL     1     -15.670  40.791  30.785  1.00  0.00     0.004 A 
ENDROOT
BRANCH   1   7
ATOM      7  C   UNL     1     -14.392  42.821  31.489  1.00  0.00     0.036 C 
BRANCH   7   8
ATOM      8  C   UNL     1     -14.483  43.473  30.100  1.00  0.00     0.004 C 
BRANCH   8   9
ATOM      9  C   UNL     1     -15.267  44.791  30.117  1.00  0.00    -0.003 C 
ATOM     10  C   UNL     1     -16.586  44.656  29.362  1.00  0.00     0.004 C 
ENDBRANCH   8   9
ENDBRANCH   7   8
ENDBRANCH   1   7
BRANCH   2  11
ATOM     11  C   UNL     1     -16.266  42.951  33.917  1.00  0.00     0.040 C 
BRANCH  11  12
ATOM     12  C   UNL     1     -16.810  44.295  33.418  1.00  0.00     0.005 C 
BRANCH  12  13
ATOM     13  C   UNL     1     -18.160  44.116  32.717  1.00  0.00    -0.003 C 
ATOM     14  C   UNL     1     -19.319  44.325  33.687  1.00  0.00     0.004 C 
ENDBRANCH  12  13
ENDBRANCH  11  12
ENDBRANCH   2  11
BRANCH   3  15
ATOM     15  O   UNL     1     -18.247  40.909  34.091  1.00  0.00    -0.508 OA
ATOM     16  H   UNL     1     -18.039  41.455  34.919  1.00  0.00     0.293 HD
ENDBRANCH   3  15
TORSDOF 7
ENDMDL
MODEL 9
REMARK VINA RESULT:    -4.641      1.293      3.787
REMARK INTER + INTRA:          -7.850
REMARK INTER:                  -6.503
REMARK INTRA:                  -1.346
REMARK UNBOUND:                -1.445
REMARK SMILES CCCCc1cccc(O)c1CCCC
REMARK SMILES IDX 5 1 11 2 9 3 8 4 7 5 6 6 4 7 3 8 2 9 1 10 12 11 13 12 14 13
REMARK SMILES IDX 15 14 10 15
REMARK H PARENT 10 16
REMARK Flexibility Score: inf
ROOT
ATOM      1  C   UNL     1     -15.439  44.397  31.601  1.00  0.00    -0.041 A 
ATOM      2  C   UNL     1     -14.292  44.231  32.432  1.00  0.00    -0.003 A 
ATOM      3  C   UNL     1     -14.464  43.758  33.754  1.00  0.00     0.119 A 
ATOM      4  C   UNL     1     -15.746  43.495  34.249  1.00  0.00     0.046 A 
ATOM      5  C   UNL     1     -16.864  43.679  33.441  1.00  0.00     0.004 A 
ATOM      6  C   UNL     1     -16.713  44.121  32.129  1.00  0.00     0.004 A 
ENDROOT
BRANCH   1   7
ATOM      7  C   UNL     1     -15.366  44.873  30.162  1.00  0.00     0.036 C 
BRANCH   7   8
ATOM      8  C   UNL     1     -16.067  43.906  29.194  1.00  0.00     0.004 C 
BRANCH   8   9
ATOM      9  C   UNL     1     -15.413  42.519  29.169  1.00  0.00    -0.003 C 
ATOM     10  C   UNL     1     -14.733  42.255  27.829  1.00  0.00     0.004 C 
ENDBRANCH   8   9
ENDBRANCH   7   8
ENDBRANCH   1   7
BRANCH   2  11
ATOM     11  C   UNL     1     -12.884  44.477  31.924  1.00  0.00     0.040 C 
BRANCH  11  12
ATOM     12  C   UNL     1     -12.314  43.212  31.273  1.00  0.00     0.005 C 
BRANCH  12  13
ATOM     13  C   UNL     1     -11.836  43.495  29.846  1.00  0.00    -0.003 C 
ATOM     14  C   UNL     1     -11.583  44.984  29.633  1.00  0.00     0.004 C 
ENDBRANCH  12  13
ENDBRANCH  11  12
ENDBRANCH   2  11
BRANCH   3  15
ATOM     15  O   UNL     1     -13.356  43.546  34.576  1.00  0.00    -0.508 OA
ATOM     16  H   UNL     1     -13.445  43.125  35.493  1.00  0.00     0.293 HD
ENDBRANCH   3  15
TORSDOF 7
ENDMDL
