MODEL 1
REMARK VINA RESULT:    -5.222      0.000      0.000
REMARK INTER + INTRA:          -9.617
REMARK INTER:                  -8.122
REMARK INTRA:                  -1.495
REMARK UNBOUND:                -1.495
REMARK SMILES C[C@]12C[C@]3(O)O[C@H](O1)[C@@]1(COC(=O)c4ccccc4)[C@@H]3C[C@]12O[C@@H]1O[C@H](CO)[C@H](O)[C@H](O)[C@@H]1O
REMARK SMILES IDX 1 1 2 2 3 3 4 4 20 5 21 6 22 7 9 8 7 9 8 10 6 11 23 12 24 13
REMARK SMILES IDX 33 14 25 15 31 16 26 17 29 18 34 19 32 21 27 23 28 24 30 26
REMARK SMILES IDX 5 28 10 30 11 31 12 32 13 33 14 34 15 35 19 36 16 37 18 38
REMARK SMILES IDX 17 39
REMARK H PARENT 34 20 32 22 28 25 30 27 5 29
REMARK Flexibility Score: inf
ROOT
ATOM      1  C   UNL     1      42.984  13.141  -4.490  1.00  0.00     0.046 C 
ATOM      2  C   UNL     1      42.828  14.628  -4.158  1.00  0.00     0.104 C 
ATOM      3  C   UNL     1      41.847  14.795  -2.935  1.00  0.00     0.104 C 
ATOM      4  C   UNL     1      41.856  16.335  -2.656  1.00  0.00     0.175 C 
ATOM      5  C   UNL     1      43.322  16.871  -2.593  1.00  0.00     0.070 C 
ATOM      6  C   UNL     1      44.354  15.748  -2.395  1.00  0.00     0.050 C 
ATOM      7  C   UNL     1      44.168  15.428  -3.886  1.00  0.00     0.115 C 
ATOM      8  C   UNL     1      43.636  16.852  -4.087  1.00  0.00     0.096 C 
ATOM      9  C   UNL     1      42.296  16.698  -4.798  1.00  0.00     0.267 C 
ATOM     10  O   UNL     1      42.215  15.340  -5.216  1.00  0.00    -0.342 OA
ATOM     11  O   UNL     1      41.308  16.938  -3.811  1.00  0.00    -0.320 OA
ENDROOT
BRANCH   7  12
ATOM     12  O   UNL     1      45.394  15.037  -4.509  1.00  0.00    -0.339 OA
BRANCH  12  13
ATOM     13  C   UNL     1      46.188  14.112  -3.774  1.00  0.00     0.282 C 
ATOM     14  C   UNL     1      46.726  12.964  -4.688  1.00  0.00     0.202 C 
ATOM     15  O   UNL     1      47.237  14.788  -3.090  1.00  0.00    -0.341 OA
ATOM     16  C   UNL     1      48.254  12.798  -4.576  1.00  0.00     0.179 C 
ATOM     17  C   UNL     1      48.286  15.267  -3.926  1.00  0.00     0.178 C 
ATOM     18  C   UNL     1      48.976  14.139  -4.755  1.00  0.00     0.177 C 
BRANCH  14  19
ATOM     19  O   UNL     1      46.324  13.099  -6.032  1.00  0.00    -0.385 OA
ATOM     20  H   UNL     1      46.234  12.195  -6.424  1.00  0.00     0.211 HD
ENDBRANCH  14  19
BRANCH  16  21
ATOM     21  O   UNL     1      48.728  11.869  -5.517  1.00  0.00    -0.387 OA
ATOM     22  H   UNL     1      48.113  11.907  -6.297  1.00  0.00     0.211 HD
ENDBRANCH  16  21
BRANCH  17  23
ATOM     23  C   UNL     1      47.874  16.520  -4.727  1.00  0.00     0.191 C 
BRANCH  23  24
ATOM     24  O   UNL     1      49.013  17.231  -5.126  1.00  0.00    -0.394 OA
ATOM     25  H   UNL     1      48.841  18.180  -4.888  1.00  0.00     0.210 HD
ENDBRANCH  23  24
ENDBRANCH  17  23
BRANCH  18  26
ATOM     26  O   UNL     1      49.056  14.462  -6.125  1.00  0.00    -0.387 OA
ATOM     27  H   UNL     1      49.849  15.053  -6.235  1.00  0.00     0.211 HD
ENDBRANCH  18  26
ENDBRANCH  12  13
ENDBRANCH   7  12
BRANCH   4  28
ATOM     28  O   UNL     1      41.109  16.676  -1.521  1.00  0.00    -0.365 OA
ATOM     29  H   UNL     1      41.124  17.667  -1.456  1.00  0.00     0.214 HD
ENDBRANCH   4  28
BRANCH   8  30
ATOM     30  C   UNL     1      44.532  18.005  -4.592  1.00  0.00     0.249 C 
BRANCH  30  31
ATOM     31  O   UNL     1      43.779  19.090  -5.135  1.00  0.00    -0.461 OA
BRANCH  31  32
ATOM     32  C   UNL     1      43.607  20.321  -4.484  1.00  0.00     0.338 C 
ATOM     33  O   UNL     1      44.095  21.377  -4.977  1.00  0.00    -0.246 OA
BRANCH  32  34
ATOM     34  C   UNL     1      42.883  20.381  -3.198  1.00  0.00     0.060 A 
ATOM     35  C   UNL     1      41.489  20.206  -3.155  1.00  0.00     0.015 A 
ATOM     36  C   UNL     1      43.584  20.578  -1.992  1.00  0.00     0.015 A 
ATOM     37  C   UNL     1      40.811  20.197  -1.929  1.00  0.00     0.001 A 
ATOM     38  C   UNL     1      42.899  20.587  -0.771  1.00  0.00     0.001 A 
ATOM     39  C   UNL     1      41.515  20.389  -0.740  1.00  0.00     0.000 A 
ENDBRANCH  32  34
ENDBRANCH  31  32
ENDBRANCH  30  31
ENDBRANCH   8  30
TORSDOF 12
ENDMDL
MODEL 2
REMARK VINA RESULT:    -4.873      2.049      7.621
REMARK INTER + INTRA:          -9.074
REMARK INTER:                  -8.563
REMARK INTRA:                  -0.511
REMARK UNBOUND:                -1.495
REMARK SMILES C[C@]12C[C@]3(O)O[C@H](O1)[C@@]1(COC(=O)c4ccccc4)[C@@H]3C[C@]12O[C@@H]1O[C@H](CO)[C@H](O)[C@H](O)[C@@H]1O
REMARK SMILES IDX 1 1 2 2 3 3 4 4 20 5 21 6 22 7 9 8 7 9 8 10 6 11 23 12 24 13
REMARK SMILES IDX 33 14 25 15 31 16 26 17 29 18 34 19 32 21 27 23 28 24 30 26
REMARK SMILES IDX 5 28 10 30 11 31 12 32 13 33 14 34 15 35 19 36 16 37 18 38
REMARK SMILES IDX 17 39
REMARK H PARENT 34 20 32 22 28 25 30 27 5 29
REMARK Flexibility Score: inf
ROOT
ATOM      1  C   UNL     1      43.897  12.756  -3.177  1.00  0.00     0.046 C 
ATOM      2  C   UNL     1      45.346  13.069  -3.564  1.00  0.00     0.104 C 
ATOM      3  C   UNL     1      45.977  11.822  -4.294  1.00  0.00     0.104 C 
ATOM      4  C   UNL     1      47.405  12.313  -4.704  1.00  0.00     0.175 C 
ATOM      5  C   UNL     1      47.323  13.703  -5.410  1.00  0.00     0.070 C 
ATOM      6  C   UNL     1      45.903  14.036  -5.898  1.00  0.00     0.050 C 
ATOM      7  C   UNL     1      45.571  14.373  -4.436  1.00  0.00     0.115 C 
ATOM      8  C   UNL     1      47.070  14.570  -4.179  1.00  0.00     0.096 C 
ATOM      9  C   UNL     1      47.403  13.699  -2.974  1.00  0.00     0.267 C 
ATOM     10  O   UNL     1      46.159  13.275  -2.426  1.00  0.00    -0.342 OA
ATOM     11  O   UNL     1      48.087  12.571  -3.493  1.00  0.00    -0.320 OA
ENDROOT
BRANCH   7  12
ATOM     12  O   UNL     1      44.682  15.487  -4.329  1.00  0.00    -0.339 OA
BRANCH  12  13
ATOM     13  C   UNL     1      43.480  15.247  -3.606  1.00  0.00     0.282 C 
ATOM     14  C   UNL     1      43.471  16.006  -2.239  1.00  0.00     0.202 C 
ATOM     15  O   UNL     1      42.346  15.567  -4.403  1.00  0.00    -0.341 OA
ATOM     16  C   UNL     1      42.204  16.863  -2.057  1.00  0.00     0.179 C 
ATOM     17  C   UNL     1      42.131  16.960  -4.608  1.00  0.00     0.178 C 
ATOM     18  C   UNL     1      41.955  17.758  -3.278  1.00  0.00     0.177 C 
BRANCH  14  19
ATOM     19  O   UNL     1      44.638  16.768  -2.027  1.00  0.00    -0.385 OA
ATOM     20  H   UNL     1      44.741  17.397  -2.783  1.00  0.00     0.211 HD
ENDBRANCH  14  19
BRANCH  16  21
ATOM     21  O   UNL     1      42.292  17.650  -0.897  1.00  0.00    -0.387 OA
ATOM     22  H   UNL     1      42.403  17.026  -0.131  1.00  0.00     0.211 HD
ENDBRANCH  16  21
BRANCH  17  23
ATOM     23  C   UNL     1      43.128  17.567  -5.617  1.00  0.00     0.191 C 
BRANCH  23  24
ATOM     24  O   UNL     1      42.659  18.806  -6.071  1.00  0.00    -0.394 OA
ATOM     25  H   UNL     1      42.880  18.846  -7.038  1.00  0.00     0.210 HD
ENDBRANCH  23  24
ENDBRANCH  17  23
BRANCH  18  26
ATOM     26  O   UNL     1      42.794  18.889  -3.224  1.00  0.00    -0.387 OA
ATOM     27  H   UNL     1      42.356  19.599  -3.767  1.00  0.00     0.211 HD
ENDBRANCH  18  26
ENDBRANCH  12  13
ENDBRANCH   7  12
BRANCH   4  28
ATOM     28  O   UNL     1      48.098  11.362  -5.466  1.00  0.00    -0.365 OA
ATOM     29  H   UNL     1      49.019  11.316  -5.097  1.00  0.00     0.214 HD
ENDBRANCH   4  28
BRANCH   8  30
ATOM     30  C   UNL     1      47.734  15.964  -4.200  1.00  0.00     0.249 C 
BRANCH  30  31
ATOM     31  O   UNL     1      49.158  15.897  -4.110  1.00  0.00    -0.461 OA
BRANCH  31  32
ATOM     32  C   UNL     1      50.018  16.115  -5.195  1.00  0.00     0.338 C 
ATOM     33  O   UNL     1      49.833  17.096  -5.969  1.00  0.00    -0.246 OA
BRANCH  32  34
ATOM     34  C   UNL     1      51.126  15.174  -5.460  1.00  0.00     0.060 A 
ATOM     35  C   UNL     1      50.918  13.786  -5.382  1.00  0.00     0.015 A 
ATOM     36  C   UNL     1      52.398  15.653  -5.829  1.00  0.00     0.015 A 
ATOM     37  C   UNL     1      51.949  12.893  -5.696  1.00  0.00     0.001 A 
ATOM     38  C   UNL     1      53.431  14.756  -6.125  1.00  0.00     0.001 A 
ATOM     39  C   UNL     1      53.204  13.378  -6.066  1.00  0.00     0.000 A 
ENDBRANCH  32  34
ENDBRANCH  31  32
ENDBRANCH  30  31
ENDBRANCH   8  30
TORSDOF 12
ENDMDL
MODEL 3
REMARK VINA RESULT:    -4.831      2.097      7.646
REMARK INTER + INTRA:          -9.009
REMARK INTER:                  -7.578
REMARK INTRA:                  -1.431
REMARK UNBOUND:                -1.495
REMARK SMILES C[C@]12C[C@]3(O)O[C@H](O1)[C@@]1(COC(=O)c4ccccc4)[C@@H]3C[C@]12O[C@@H]1O[C@H](CO)[C@H](O)[C@H](O)[C@@H]1O
REMARK SMILES IDX 1 1 2 2 3 3 4 4 20 5 21 6 22 7 9 8 7 9 8 10 6 11 23 12 24 13
REMARK SMILES IDX 33 14 25 15 31 16 26 17 29 18 34 19 32 21 27 23 28 24 30 26
REMARK SMILES IDX 5 28 10 30 11 31 12 32 13 33 14 34 15 35 19 36 16 37 18 38
REMARK SMILES IDX 17 39
REMARK H PARENT 34 20 32 22 28 25 30 27 5 29
REMARK Flexibility Score: inf
ROOT
ATOM      1  C   UNL     1      45.088  18.292  -5.809  1.00  0.00     0.046 C 
ATOM      2  C   UNL     1      45.325  16.936  -5.138  1.00  0.00     0.104 C 
ATOM      3  C   UNL     1      46.790  16.883  -4.558  1.00  0.00     0.104 C 
ATOM      4  C   UNL     1      46.856  15.498  -3.834  1.00  0.00     0.175 C 
ATOM      5  C   UNL     1      45.615  15.306  -2.906  1.00  0.00     0.070 C 
ATOM      6  C   UNL     1      44.891  16.629  -2.606  1.00  0.00     0.050 C 
ATOM      7  C   UNL     1      44.287  16.521  -4.015  1.00  0.00     0.115 C 
ATOM      8  C   UNL     1      44.569  15.014  -3.980  1.00  0.00     0.096 C 
ATOM      9  C   UNL     1      45.348  14.708  -5.254  1.00  0.00     0.267 C 
ATOM     10  O   UNL     1      45.263  15.873  -6.068  1.00  0.00    -0.342 OA
ATOM     11  O   UNL     1      46.693  14.526  -4.847  1.00  0.00    -0.320 OA
ENDROOT
BRANCH   7  12
ATOM     12  O   UNL     1      42.936  16.986  -4.058  1.00  0.00    -0.339 OA
BRANCH  12  13
ATOM     13  C   UNL     1      42.754  18.370  -3.781  1.00  0.00     0.282 C 
ATOM     14  C   UNL     1      41.833  19.053  -4.844  1.00  0.00     0.202 C 
ATOM     15  O   UNL     1      42.270  18.554  -2.456  1.00  0.00    -0.341 OA
ATOM     16  C   UNL     1      40.662  19.816  -4.195  1.00  0.00     0.179 C 
ATOM     17  C   UNL     1      40.912  18.174  -2.255  1.00  0.00     0.178 C 
ATOM     18  C   UNL     1      39.915  18.938  -3.182  1.00  0.00     0.177 C 
BRANCH  14  19
ATOM     19  O   UNL     1      41.374  18.155  -5.829  1.00  0.00    -0.385 OA
ATOM     20  H   UNL     1      41.061  18.679  -6.607  1.00  0.00     0.211 HD
ENDBRANCH  14  19
BRANCH  16  21
ATOM     21  O   UNL     1      39.768  20.287  -5.171  1.00  0.00    -0.387 OA
ATOM     22  H   UNL     1      38.873  20.343  -4.742  1.00  0.00     0.211 HD
ENDBRANCH  16  21
BRANCH  17  23
ATOM     23  C   UNL     1      40.731  16.642  -2.209  1.00  0.00     0.191 C 
BRANCH  23  24
ATOM     24  O   UNL     1      41.581  16.087  -1.244  1.00  0.00    -0.394 OA
ATOM     25  H   UNL     1      41.731  16.798  -0.568  1.00  0.00     0.210 HD
ENDBRANCH  23  24
ENDBRANCH  17  23
BRANCH  18  26
ATOM     26  O   UNL     1      39.043  18.061  -3.858  1.00  0.00    -0.387 OA
ATOM     27  H   UNL     1      38.237  17.958  -3.283  1.00  0.00     0.211 HD
ENDBRANCH  18  26
ENDBRANCH  12  13
ENDBRANCH   7  12
BRANCH   4  28
ATOM     28  O   UNL     1      48.068  15.306  -3.157  1.00  0.00    -0.365 OA
ATOM     29  H   UNL     1      48.772  15.215  -3.852  1.00  0.00     0.214 HD
ENDBRANCH   4  28
BRANCH   8  30
ATOM     30  C   UNL     1      43.489  13.981  -3.592  1.00  0.00     0.249 C 
BRANCH  30  31
ATOM     31  O   UNL     1      43.834  12.651  -3.982  1.00  0.00    -0.461 OA
BRANCH  31  32
ATOM     32  C   UNL     1      44.427  11.715  -3.122  1.00  0.00     0.338 C 
ATOM     33  O   UNL     1      43.711  10.907  -2.467  1.00  0.00    -0.246 OA
BRANCH  32  34
ATOM     34  C   UNL     1      45.895  11.697  -2.951  1.00  0.00     0.060 A 
ATOM     35  C   UNL     1      46.733  11.317  -4.014  1.00  0.00     0.015 A 
ATOM     36  C   UNL     1      46.477  12.094  -1.732  1.00  0.00     0.015 A 
ATOM     37  C   UNL     1      48.125  11.363  -3.873  1.00  0.00     0.001 A 
ATOM     38  C   UNL     1      47.869  12.120  -1.589  1.00  0.00     0.001 A 
ATOM     39  C   UNL     1      48.692  11.762  -2.662  1.00  0.00     0.000 A 
ENDBRANCH  32  34
ENDBRANCH  31  32
ENDBRANCH  30  31
ENDBRANCH   8  30
TORSDOF 12
ENDMDL
MODEL 4
REMARK VINA RESULT:    -4.640      2.083      6.674
REMARK INTER + INTRA:          -8.713
REMARK INTER:                  -7.553
REMARK INTRA:                  -1.159
REMARK UNBOUND:                -1.495
REMARK SMILES C[C@]12C[C@]3(O)O[C@H](O1)[C@@]1(COC(=O)c4ccccc4)[C@@H]3C[C@]12O[C@@H]1O[C@H](CO)[C@H](O)[C@H](O)[C@@H]1O
REMARK SMILES IDX 1 1 2 2 3 3 4 4 20 5 21 6 22 7 9 8 7 9 8 10 6 11 23 12 24 13
REMARK SMILES IDX 33 14 25 15 31 16 26 17 29 18 34 19 32 21 27 23 28 24 30 26
REMARK SMILES IDX 5 28 10 30 11 31 12 32 13 33 14 34 15 35 19 36 16 37 18 38
REMARK SMILES IDX 17 39
REMARK H PARENT 34 20 32 22 28 25 30 27 5 29
REMARK Flexibility Score: inf
ROOT
ATOM      1  C   UNL     1      40.240  17.629  -4.982  1.00  0.00     0.046 C 
ATOM      2  C   UNL     1      41.632  17.939  -4.424  1.00  0.00     0.104 C 
ATOM      3  C   UNL     1      41.800  19.498  -4.263  1.00  0.00     0.104 C 
ATOM      4  C   UNL     1      43.213  19.655  -3.609  1.00  0.00     0.175 C 
ATOM      5  C   UNL     1      43.359  18.698  -2.384  1.00  0.00     0.070 C 
ATOM      6  C   UNL     1      42.004  18.178  -1.876  1.00  0.00     0.050 C 
ATOM      7  C   UNL     1      42.021  17.212  -3.071  1.00  0.00     0.115 C 
ATOM      8  C   UNL     1      43.543  17.385  -3.141  1.00  0.00     0.096 C 
ATOM      9  C   UNL     1      43.852  17.770  -4.584  1.00  0.00     0.267 C 
ATOM     10  O   UNL     1      42.654  17.554  -5.323  1.00  0.00    -0.342 OA
ATOM     11  O   UNL     1      44.135  19.158  -4.559  1.00  0.00    -0.320 OA
ENDROOT
BRANCH   7  12
ATOM     12  O   UNL     1      41.469  15.936  -2.740  1.00  0.00    -0.339 OA
BRANCH  12  13
ATOM     13  C   UNL     1      41.117  15.113  -3.846  1.00  0.00     0.282 C 
ATOM     14  C   UNL     1      41.948  13.789  -3.864  1.00  0.00     0.202 C 
ATOM     15  O   UNL     1      39.716  14.867  -3.859  1.00  0.00    -0.341 OA
ATOM     16  C   UNL     1      41.050  12.540  -3.959  1.00  0.00     0.179 C 
ATOM     17  C   UNL     1      39.254  13.977  -2.848  1.00  0.00     0.178 C 
ATOM     18  C   UNL     1      39.934  12.572  -2.907  1.00  0.00     0.177 C 
BRANCH  14  19
ATOM     19  O   UNL     1      42.846  13.691  -2.782  1.00  0.00    -0.385 OA
ATOM     20  H   UNL     1      43.181  14.598  -2.572  1.00  0.00     0.211 HD
ENDBRANCH  14  19
BRANCH  16  21
ATOM     21  O   UNL     1      41.808  11.366  -3.818  1.00  0.00    -0.387 OA
ATOM     22  H   UNL     1      41.353  10.661  -4.351  1.00  0.00     0.211 HD
ENDBRANCH  16  21
BRANCH  17  23
ATOM     23  C   UNL     1      39.220  14.637  -1.454  1.00  0.00     0.191 C 
BRANCH  23  24
ATOM     24  O   UNL     1      38.885  15.992  -1.571  1.00  0.00    -0.394 OA
ATOM     25  H   UNL     1      39.659  16.428  -2.013  1.00  0.00     0.210 HD
ENDBRANCH  23  24
ENDBRANCH  17  23
BRANCH  18  26
ATOM     26  O   UNL     1      40.445  12.178  -1.654  1.00  0.00    -0.387 OA
ATOM     27  H   UNL     1      39.706  12.287  -0.995  1.00  0.00     0.211 HD
ENDBRANCH  18  26
ENDBRANCH  12  13
ENDBRANCH   7  12
BRANCH   4  28
ATOM     28  O   UNL     1      43.507  20.988  -3.289  1.00  0.00    -0.365 OA
ATOM     29  H   UNL     1      44.375  21.201  -3.722  1.00  0.00     0.214 HD
ENDBRANCH   4  28
BRANCH   8  30
ATOM     30  C   UNL     1      44.519  16.377  -2.495  1.00  0.00     0.249 C 
BRANCH  30  31
ATOM     31  O   UNL     1      45.117  15.500  -3.451  1.00  0.00    -0.461 OA
BRANCH  31  32
ATOM     32  C   UNL     1      46.148  14.601  -3.144  1.00  0.00     0.338 C 
ATOM     33  O   UNL     1      45.915  13.578  -2.440  1.00  0.00    -0.246 OA
BRANCH  32  34
ATOM     34  C   UNL     1      47.524  14.866  -3.614  1.00  0.00     0.060 A 
ATOM     35  C   UNL     1      48.536  13.907  -3.437  1.00  0.00     0.015 A 
ATOM     36  C   UNL     1      47.832  16.068  -4.279  1.00  0.00     0.015 A 
ATOM     37  C   UNL     1      49.823  14.130  -3.940  1.00  0.00     0.001 A 
ATOM     38  C   UNL     1      49.125  16.295  -4.765  1.00  0.00     0.001 A 
ATOM     39  C   UNL     1      50.117  15.323  -4.602  1.00  0.00     0.000 A 
ENDBRANCH  32  34
ENDBRANCH  31  32
ENDBRANCH  30  31
ENDBRANCH   8  30
TORSDOF 12
ENDMDL
MODEL 5
REMARK VINA RESULT:    -4.572      1.886      7.097
REMARK INTER + INTRA:          -8.606
REMARK INTER:                  -8.533
REMARK INTRA:                  -0.073
REMARK UNBOUND:                -1.495
REMARK SMILES C[C@]12C[C@]3(O)O[C@H](O1)[C@@]1(COC(=O)c4ccccc4)[C@@H]3C[C@]12O[C@@H]1O[C@H](CO)[C@H](O)[C@H](O)[C@@H]1O
REMARK SMILES IDX 1 1 2 2 3 3 4 4 20 5 21 6 22 7 9 8 7 9 8 10 6 11 23 12 24 13
REMARK SMILES IDX 33 14 25 15 31 16 26 17 29 18 34 19 32 21 27 23 28 24 30 26
REMARK SMILES IDX 5 28 10 30 11 31 12 32 13 33 14 34 15 35 19 36 16 37 18 38
REMARK SMILES IDX 17 39
REMARK H PARENT 34 20 32 22 28 25 30 27 5 29
REMARK Flexibility Score: inf
ROOT
ATOM      1  C   UNL     1      39.971  16.558  -4.047  1.00  0.00     0.046 C 
ATOM      2  C   UNL     1      41.289  15.778  -4.042  1.00  0.00     0.104 C 
ATOM      3  C   UNL     1      41.259  14.683  -5.175  1.00  0.00     0.104 C 
ATOM      4  C   UNL     1      42.683  14.038  -5.110  1.00  0.00     0.175 C 
ATOM      5  C   UNL     1      43.784  15.144  -5.089  1.00  0.00     0.070 C 
ATOM      6  C   UNL     1      43.256  16.512  -5.553  1.00  0.00     0.050 C 
ATOM      7  C   UNL     1      42.613  16.641  -4.164  1.00  0.00     0.115 C 
ATOM      8  C   UNL     1      43.617  15.606  -3.643  1.00  0.00     0.096 C 
ATOM      9  C   UNL     1      42.784  14.532  -2.951  1.00  0.00     0.267 C 
ATOM     10  O   UNL     1      41.465  15.054  -2.840  1.00  0.00    -0.342 OA
ATOM     11  O   UNL     1      42.771  13.427  -3.838  1.00  0.00    -0.320 OA
ENDROOT
BRANCH   7  12
ATOM     12  O   UNL     1      42.660  17.982  -3.671  1.00  0.00    -0.339 OA
BRANCH  12  13
ATOM     13  C   UNL     1      41.404  18.555  -3.325  1.00  0.00     0.282 C 
ATOM     14  C   UNL     1      41.102  18.397  -1.799  1.00  0.00     0.202 C 
ATOM     15  O   UNL     1      41.341  19.912  -3.746  1.00  0.00    -0.341 OA
ATOM     16  C   UNL     1      40.743  19.740  -1.135  1.00  0.00     0.179 C 
ATOM     17  C   UNL     1      42.139  20.813  -2.985  1.00  0.00     0.178 C 
ATOM     18  C   UNL     1      41.780  20.821  -1.465  1.00  0.00     0.177 C 
BRANCH  14  19
ATOM     19  O   UNL     1      42.136  17.741  -1.101  1.00  0.00    -0.385 OA
ATOM     20  H   UNL     1      41.758  16.939  -0.663  1.00  0.00     0.211 HD
ENDBRANCH  14  19
BRANCH  16  21
ATOM     21  O   UNL     1      40.629  19.596   0.258  1.00  0.00    -0.387 OA
ATOM     22  H   UNL     1      39.723  19.920   0.509  1.00  0.00     0.211 HD
ENDBRANCH  16  21
BRANCH  17  23
ATOM     23  C   UNL     1      43.642  20.685  -3.309  1.00  0.00     0.191 C 
BRANCH  23  24
ATOM     24  O   UNL     1      43.819  20.426  -4.673  1.00  0.00    -0.394 OA
ATOM     25  H   UNL     1      43.504  19.496  -4.820  1.00  0.00     0.210 HD
ENDBRANCH  23  24
ENDBRANCH  17  23
BRANCH  18  26
ATOM     26  O   UNL     1      42.919  20.659  -0.651  1.00  0.00    -0.387 OA
ATOM     27  H   UNL     1      42.803  19.800  -0.162  1.00  0.00     0.211 HD
ENDBRANCH  18  26
ENDBRANCH  12  13
ENDBRANCH   7  12
BRANCH   4  28
ATOM     28  O   UNL     1      42.888  13.093  -6.125  1.00  0.00    -0.365 OA
ATOM     29  H   UNL     1      43.078  13.604  -6.955  1.00  0.00     0.214 HD
ENDBRANCH   4  28
BRANCH   8  30
ATOM     30  C   UNL     1      44.920  16.011  -2.920  1.00  0.00     0.249 C 
BRANCH  30  31
ATOM     31  O   UNL     1      45.607  14.892  -2.357  1.00  0.00    -0.461 OA
BRANCH  31  32
ATOM     32  C   UNL     1      46.401  14.010  -3.104  1.00  0.00     0.338 C 
ATOM     33  O   UNL     1      45.993  12.842  -3.358  1.00  0.00    -0.246 OA
BRANCH  32  34
ATOM     34  C   UNL     1      47.739  14.434  -3.568  1.00  0.00     0.060 A 
ATOM     35  C   UNL     1      48.833  13.554  -3.489  1.00  0.00     0.015 A 
ATOM     36  C   UNL     1      47.930  15.711  -4.129  1.00  0.00     0.015 A 
ATOM     37  C   UNL     1      50.086  13.931  -3.988  1.00  0.00     0.001 A 
ATOM     38  C   UNL     1      49.188  16.090  -4.610  1.00  0.00     0.001 A 
ATOM     39  C   UNL     1      50.263  15.198  -4.546  1.00  0.00     0.000 A 
ENDBRANCH  32  34
ENDBRANCH  31  32
ENDBRANCH  30  31
ENDBRANCH   8  30
TORSDOF 12
ENDMDL
MODEL 6
REMARK VINA RESULT:    -4.503      1.830      7.097
REMARK INTER + INTRA:          -8.500
REMARK INTER:                  -7.776
REMARK INTRA:                  -0.723
REMARK UNBOUND:                -1.495
REMARK SMILES C[C@]12C[C@]3(O)O[C@H](O1)[C@@]1(COC(=O)c4ccccc4)[C@@H]3C[C@]12O[C@@H]1O[C@H](CO)[C@H](O)[C@H](O)[C@@H]1O
REMARK SMILES IDX 1 1 2 2 3 3 4 4 20 5 21 6 22 7 9 8 7 9 8 10 6 11 23 12 24 13
REMARK SMILES IDX 33 14 25 15 31 16 26 17 29 18 34 19 32 21 27 23 28 24 30 26
REMARK SMILES IDX 5 28 10 30 11 31 12 32 13 33 14 34 15 35 19 36 16 37 18 38
REMARK SMILES IDX 17 39
REMARK H PARENT 34 20 32 22 28 25 30 27 5 29
REMARK Flexibility Score: inf
ROOT
ATOM      1  C   UNL     1      41.389  14.827  -3.091  1.00  0.00     0.046 C 
ATOM      2  C   UNL     1      42.784  14.832  -3.722  1.00  0.00     0.104 C 
ATOM      3  C   UNL     1      42.986  13.514  -4.564  1.00  0.00     0.104 C 
ATOM      4  C   UNL     1      44.398  13.699  -5.213  1.00  0.00     0.175 C 
ATOM      5  C   UNL     1      44.513  15.106  -5.879  1.00  0.00     0.070 C 
ATOM      6  C   UNL     1      43.143  15.767  -6.107  1.00  0.00     0.050 C 
ATOM      7  C   UNL     1      43.147  16.096  -4.606  1.00  0.00     0.115 C 
ATOM      8  C   UNL     1      44.673  15.946  -4.614  1.00  0.00     0.096 C 
ATOM      9  C   UNL     1      44.999  14.964  -3.495  1.00  0.00     0.267 C 
ATOM     10  O   UNL     1      43.803  14.798  -2.742  1.00  0.00    -0.342 OA
ATOM     11  O   UNL     1      45.314  13.741  -4.137  1.00  0.00    -0.320 OA
ENDROOT
BRANCH   7  12
ATOM     12  O   UNL     1      42.563  17.372  -4.334  1.00  0.00    -0.339 OA
BRANCH  12  13
ATOM     13  C   UNL     1      41.690  17.422  -3.211  1.00  0.00     0.282 C 
ATOM     14  C   UNL     1      42.405  18.017  -1.954  1.00  0.00     0.202 C 
ATOM     15  O   UNL     1      40.499  18.129  -3.535  1.00  0.00    -0.341 OA
ATOM     16  C   UNL     1      41.612  19.182  -1.331  1.00  0.00     0.179 C 
ATOM     17  C   UNL     1      40.657  19.537  -3.673  1.00  0.00     0.178 C 
ATOM     18  C   UNL     1      41.223  20.222  -2.390  1.00  0.00     0.177 C 
BRANCH  14  19
ATOM     19  O   UNL     1      43.741  18.386  -2.208  1.00  0.00    -0.385 OA
ATOM     20  H   UNL     1      44.069  18.918  -1.440  1.00  0.00     0.211 HD
ENDBRANCH  14  19
BRANCH  16  21
ATOM     21  O   UNL     1      42.347  19.796  -0.304  1.00  0.00    -0.387 OA
ATOM     22  H   UNL     1      41.892  19.572   0.552  1.00  0.00     0.211 HD
ENDBRANCH  16  21
BRANCH  17  23
ATOM     23  C   UNL     1      41.357  19.924  -4.993  1.00  0.00     0.191 C 
BRANCH  23  24
ATOM     24  O   UNL     1      41.100  21.266  -5.298  1.00  0.00    -0.394 OA
ATOM     25  H   UNL     1      41.287  21.368  -6.268  1.00  0.00     0.210 HD
ENDBRANCH  23  24
ENDBRANCH  17  23
BRANCH  18  26
ATOM     26  O   UNL     1      42.326  21.052  -2.675  1.00  0.00    -0.387 OA
ATOM     27  H   UNL     1      43.120  20.632  -2.247  1.00  0.00     0.211 HD
ENDBRANCH  18  26
ENDBRANCH  12  13
ENDBRANCH   7  12
BRANCH   4  28
ATOM     28  O   UNL     1      44.720  12.658  -6.094  1.00  0.00    -0.365 OA
ATOM     29  H   UNL     1      44.208  11.862  -5.795  1.00  0.00     0.214 HD
ENDBRANCH   4  28
BRANCH   8  30
ATOM     30  C   UNL     1      45.620  17.159  -4.737  1.00  0.00     0.249 C 
BRANCH  30  31
ATOM     31  O   UNL     1      46.926  16.892  -4.221  1.00  0.00    -0.461 OA
BRANCH  31  32
ATOM     32  C   UNL     1      48.078  16.824  -5.017  1.00  0.00     0.338 C 
ATOM     33  O   UNL     1      48.265  17.662  -5.943  1.00  0.00    -0.246 OA
BRANCH  32  34
ATOM     34  C   UNL     1      49.064  15.745  -4.797  1.00  0.00     0.060 A 
ATOM     35  C   UNL     1      48.740  14.635  -3.998  1.00  0.00     0.015 A 
ATOM     36  C   UNL     1      50.329  15.796  -5.413  1.00  0.00     0.015 A 
ATOM     37  C   UNL     1      49.649  13.581  -3.842  1.00  0.00     0.001 A 
ATOM     38  C   UNL     1      51.242  14.749  -5.239  1.00  0.00     0.001 A 
ATOM     39  C   UNL     1      50.898  13.640  -4.461  1.00  0.00     0.000 A 
ENDBRANCH  32  34
ENDBRANCH  31  32
ENDBRANCH  30  31
ENDBRANCH   8  30
TORSDOF 12
ENDMDL
MODEL 7
REMARK VINA RESULT:    -4.447      2.262      6.663
REMARK INTER + INTRA:          -8.412
REMARK INTER:                  -7.431
REMARK INTRA:                  -0.981
REMARK UNBOUND:                -1.495
REMARK SMILES C[C@]12C[C@]3(O)O[C@H](O1)[C@@]1(COC(=O)c4ccccc4)[C@@H]3C[C@]12O[C@@H]1O[C@H](CO)[C@H](O)[C@H](O)[C@@H]1O
REMARK SMILES IDX 1 1 2 2 3 3 4 4 20 5 21 6 22 7 9 8 7 9 8 10 6 11 23 12 24 13
REMARK SMILES IDX 33 14 25 15 31 16 26 17 29 18 34 19 32 21 27 23 28 24 30 26
REMARK SMILES IDX 5 28 10 30 11 31 12 32 13 33 14 34 15 35 19 36 16 37 18 38
REMARK SMILES IDX 17 39
REMARK H PARENT 34 20 32 22 28 25 30 27 5 29
REMARK Flexibility Score: inf
ROOT
ATOM      1  C   UNL     1      39.779  15.401  -1.594  1.00  0.00     0.046 C 
ATOM      2  C   UNL     1      40.395  14.996  -2.936  1.00  0.00     0.104 C 
ATOM      3  C   UNL     1      39.316  14.243  -3.805  1.00  0.00     0.104 C 
ATOM      4  C   UNL     1      40.051  13.974  -5.161  1.00  0.00     0.175 C 
ATOM      5  C   UNL     1      40.736  15.278  -5.679  1.00  0.00     0.070 C 
ATOM      6  C   UNL     1      40.189  16.544  -4.998  1.00  0.00     0.050 C 
ATOM      7  C   UNL     1      41.051  16.162  -3.784  1.00  0.00     0.115 C 
ATOM      8  C   UNL     1      41.922  15.311  -4.718  1.00  0.00     0.096 C 
ATOM      9  C   UNL     1      41.985  13.928  -4.080  1.00  0.00     0.267 C 
ATOM     10  O   UNL     1      41.445  14.063  -2.770  1.00  0.00    -0.342 OA
ATOM     11  O   UNL     1      41.125  13.109  -4.852  1.00  0.00    -0.320 OA
ENDROOT
BRANCH   7  12
ATOM     12  O   UNL     1      41.615  17.308  -3.142  1.00  0.00    -0.339 OA
BRANCH  12  13
ATOM     13  C   UNL     1      40.718  18.391  -2.922  1.00  0.00     0.282 C 
ATOM     14  C   UNL     1      40.865  18.974  -1.479  1.00  0.00     0.202 C 
ATOM     15  O   UNL     1      40.886  19.389  -3.922  1.00  0.00    -0.341 OA
ATOM     16  C   UNL     1      41.089  20.498  -1.487  1.00  0.00     0.179 C 
ATOM     17  C   UNL     1      42.084  20.151  -3.813  1.00  0.00     0.178 C 
ATOM     18  C   UNL     1      42.220  20.892  -2.446  1.00  0.00     0.177 C 
BRANCH  14  19
ATOM     19  O   UNL     1      41.854  18.317  -0.720  1.00  0.00    -0.385 OA
ATOM     20  H   UNL     1      42.741  18.642  -1.015  1.00  0.00     0.211 HD
ENDBRANCH  14  19
BRANCH  16  21
ATOM     21  O   UNL     1      41.371  20.971  -0.195  1.00  0.00    -0.387 OA
ATOM     22  H   UNL     1      42.094  21.647  -0.285  1.00  0.00     0.211 HD
ENDBRANCH  16  21
BRANCH  17  23
ATOM     23  C   UNL     1      43.329  19.358  -4.262  1.00  0.00     0.191 C 
BRANCH  23  24
ATOM     24  O   UNL     1      44.263  20.220  -4.851  1.00  0.00    -0.394 OA
ATOM     25  H   UNL     1      44.972  20.362  -4.171  1.00  0.00     0.210 HD
ENDBRANCH  23  24
ENDBRANCH  17  23
BRANCH  18  26
ATOM     26  O   UNL     1      43.469  20.656  -1.837  1.00  0.00    -0.387 OA
ATOM     27  H   UNL     1      44.082  21.375  -2.151  1.00  0.00     0.211 HD
ENDBRANCH  18  26
ENDBRANCH  12  13
ENDBRANCH   7  12
BRANCH   4  28
ATOM     28  O   UNL     1      39.208  13.392  -6.118  1.00  0.00    -0.365 OA
ATOM     29  H   UNL     1      38.306  13.332  -5.706  1.00  0.00     0.214 HD
ENDBRANCH   4  28
BRANCH   8  30
ATOM     30  C   UNL     1      43.246  15.834  -5.315  1.00  0.00     0.249 C 
BRANCH  30  31
ATOM     31  O   UNL     1      44.396  15.296  -4.659  1.00  0.00    -0.461 OA
BRANCH  31  32
ATOM     32  C   UNL     1      45.267  16.057  -3.866  1.00  0.00     0.338 C 
ATOM     33  O   UNL     1      44.870  16.546  -2.770  1.00  0.00    -0.246 OA
BRANCH  32  34
ATOM     34  C   UNL     1      46.645  16.320  -4.327  1.00  0.00     0.060 A 
ATOM     35  C   UNL     1      47.727  15.601  -3.790  1.00  0.00     0.015 A 
ATOM     36  C   UNL     1      46.891  17.270  -5.337  1.00  0.00     0.015 A 
ATOM     37  C   UNL     1      49.026  15.804  -4.274  1.00  0.00     0.001 A 
ATOM     38  C   UNL     1      48.194  17.482  -5.805  1.00  0.00     0.001 A 
ATOM     39  C   UNL     1      49.258  16.744  -5.278  1.00  0.00     0.000 A 
ENDBRANCH  32  34
ENDBRANCH  31  32
ENDBRANCH  30  31
ENDBRANCH   8  30
TORSDOF 12
ENDMDL
MODEL 8
REMARK VINA RESULT:    -4.400      1.871      6.810
REMARK INTER + INTRA:          -8.339
REMARK INTER:                  -7.635
REMARK INTRA:                  -0.704
REMARK UNBOUND:                -1.495
REMARK SMILES C[C@]12C[C@]3(O)O[C@H](O1)[C@@]1(COC(=O)c4ccccc4)[C@@H]3C[C@]12O[C@@H]1O[C@H](CO)[C@H](O)[C@H](O)[C@@H]1O
REMARK SMILES IDX 1 1 2 2 3 3 4 4 20 5 21 6 22 7 9 8 7 9 8 10 6 11 23 12 24 13
REMARK SMILES IDX 33 14 25 15 31 16 26 17 29 18 34 19 32 21 27 23 28 24 30 26
REMARK SMILES IDX 5 28 10 30 11 31 12 32 13 33 14 34 15 35 19 36 16 37 18 38
REMARK SMILES IDX 17 39
REMARK H PARENT 34 20 32 22 28 25 30 27 5 29
REMARK Flexibility Score: inf
ROOT
ATOM      1  C   UNL     1      40.329  15.921  -2.707  1.00  0.00     0.046 C 
ATOM      2  C   UNL     1      41.602  15.341  -3.330  1.00  0.00     0.104 C 
ATOM      3  C   UNL     1      41.287  13.928  -3.955  1.00  0.00     0.104 C 
ATOM      4  C   UNL     1      42.637  13.506  -4.623  1.00  0.00     0.175 C 
ATOM      5  C   UNL     1      43.200  14.668  -5.501  1.00  0.00     0.070 C 
ATOM      6  C   UNL     1      42.136  15.729  -5.831  1.00  0.00     0.050 C 
ATOM      7  C   UNL     1      42.335  16.251  -4.399  1.00  0.00     0.115 C 
ATOM      8  C   UNL     1      43.710  15.573  -4.382  1.00  0.00     0.096 C 
ATOM      9  C   UNL     1      43.734  14.714  -3.123  1.00  0.00     0.267 C 
ATOM     10  O   UNL     1      42.597  15.093  -2.355  1.00  0.00    -0.342 OA
ATOM     11  O   UNL     1      43.567  13.378  -3.566  1.00  0.00    -0.320 OA
ENDROOT
BRANCH   7  12
ATOM     12  O   UNL     1      42.248  17.676  -4.330  1.00  0.00    -0.339 OA
BRANCH  12  13
ATOM     13  C   UNL     1      41.498  18.194  -3.237  1.00  0.00     0.282 C 
ATOM     14  C   UNL     1      42.414  18.505  -2.009  1.00  0.00     0.202 C 
ATOM     15  O   UNL     1      40.742  19.329  -3.643  1.00  0.00    -0.341 OA
ATOM     16  C   UNL     1      42.226  19.945  -1.493  1.00  0.00     0.179 C 
ATOM     17  C   UNL     1      41.509  20.506  -3.879  1.00  0.00     0.178 C 
ATOM     18  C   UNL     1      42.331  20.965  -2.635  1.00  0.00     0.177 C 
BRANCH  14  19
ATOM     19  O   UNL     1      43.773  18.223  -2.253  1.00  0.00    -0.385 OA
ATOM     20  H   UNL     1      44.301  18.537  -1.477  1.00  0.00     0.211 HD
ENDBRANCH  14  19
BRANCH  16  21
ATOM     21  O   UNL     1      43.166  20.247  -0.494  1.00  0.00    -0.387 OA
ATOM     22  H   UNL     1      43.935  20.690  -0.943  1.00  0.00     0.211 HD
ENDBRANCH  16  21
BRANCH  17  23
ATOM     23  C   UNL     1      42.296  20.439  -5.205  1.00  0.00     0.191 C 
BRANCH  23  24
ATOM     24  O   UNL     1      42.615  21.731  -5.640  1.00  0.00    -0.394 OA
ATOM     25  H   UNL     1      43.549  21.686  -5.973  1.00  0.00     0.210 HD
ENDBRANCH  23  24
ENDBRANCH  17  23
BRANCH  18  26
ATOM     26  O   UNL     1      43.685  21.195  -2.950  1.00  0.00    -0.387 OA
ATOM     27  H   UNL     1      43.928  22.074  -2.550  1.00  0.00     0.211 HD
ENDBRANCH  18  26
ENDBRANCH  12  13
ENDBRANCH   7  12
BRANCH   4  28
ATOM     28  O   UNL     1      42.528  12.301  -5.331  1.00  0.00    -0.365 OA
ATOM     29  H   UNL     1      42.259  12.537  -6.258  1.00  0.00     0.214 HD
ENDBRANCH   4  28
BRANCH   8  30
ATOM     30  C   UNL     1      45.013  16.342  -4.692  1.00  0.00     0.249 C 
BRANCH  30  31
ATOM     31  O   UNL     1      45.970  16.251  -3.634  1.00  0.00    -0.461 OA
BRANCH  31  32
ATOM     32  C   UNL     1      47.294  15.827  -3.816  1.00  0.00     0.338 C 
ATOM     33  O   UNL     1      48.097  16.518  -4.503  1.00  0.00    -0.246 OA
BRANCH  32  34
ATOM     34  C   UNL     1      47.745  14.546  -3.233  1.00  0.00     0.060 A 
ATOM     35  C   UNL     1      47.128  14.031  -2.080  1.00  0.00     0.015 A 
ATOM     36  C   UNL     1      48.775  13.806  -3.845  1.00  0.00     0.015 A 
ATOM     37  C   UNL     1      47.510  12.786  -1.565  1.00  0.00     0.001 A 
ATOM     38  C   UNL     1      49.166  12.571  -3.315  1.00  0.00     0.001 A 
ATOM     39  C   UNL     1      48.529  12.058  -2.182  1.00  0.00     0.000 A 
ENDBRANCH  32  34
ENDBRANCH  31  32
ENDBRANCH  30  31
ENDBRANCH   8  30
TORSDOF 12
ENDMDL
