MODEL 1
REMARK VINA RESULT:    -3.154      0.000      0.000
REMARK INTER + INTRA:         -12.962
REMARK INTER:                  -7.949
REMARK INTRA:                  -5.014
REMARK UNBOUND:                -5.014
REMARK SMILES CCCCCCCCCCCCCCCCCCCCCCCCCCCC(=O)[O-]
REMARK SMILES IDX 15 1 16 2 17 3 18 4 19 5 20 6 21 7 22 8 23 9 24 10 25 11
REMARK SMILES IDX 26 12 27 13 28 14 29 15 30 16 14 17 13 18 12 19 11 20 10 21
REMARK SMILES IDX 9 22 8 23 7 24 6 25 5 26 4 27 3 28 2 29 1 30
REMARK H PARENT
REMARK Flexibility Score: inf
ROOT
ATOM      1  C   UNL     1      65.493  35.547  59.684  1.00  0.00     0.000 C 
ENDROOT
BRANCH   1   2
ATOM      2  C   UNL     1      65.148  36.572  58.586  1.00  0.00     0.000 C 
BRANCH   2   3
ATOM      3  C   UNL     1      64.906  35.991  57.181  1.00  0.00     0.000 C 
BRANCH   3   4
ATOM      4  C   UNL     1      63.484  35.437  56.993  1.00  0.00     0.000 C 
BRANCH   4   5
ATOM      5  C   UNL     1      63.473  33.920  56.735  1.00  0.00     0.000 C 
BRANCH   5   6
ATOM      6  C   UNL     1      64.693  33.187  57.336  1.00  0.00     0.000 C 
BRANCH   6   7
ATOM      7  C   UNL     1      65.378  32.261  56.318  1.00  0.00     0.000 C 
BRANCH   7   8
ATOM      8  C   UNL     1      66.897  32.492  56.247  1.00  0.00     0.000 C 
BRANCH   8   9
ATOM      9  C   UNL     1      67.426  33.289  57.454  1.00  0.00     0.000 C 
BRANCH   9  10
ATOM     10  C   UNL     1      68.509  34.306  57.061  1.00  0.00     0.000 C 
BRANCH  10  11
ATOM     11  C   UNL     1      68.705  35.399  58.128  1.00  0.00     0.000 C 
BRANCH  11  12
ATOM     12  C   UNL     1      70.075  35.310  58.826  1.00  0.00     0.006 C 
BRANCH  12  13
ATOM     13  C   UNL     1      70.907  34.077  58.435  1.00  0.00     0.053 C 
BRANCH  13  14
ATOM     14  C   UNL     1      71.141  33.165  59.601  1.00  0.00     0.041 C 
ATOM     15  O   UNL     1      71.115  31.917  59.442  1.00  0.00    -0.550 OA
ATOM     16  O   UNL     1      71.423  33.693  60.854  1.00  0.00    -0.550 OA
ENDBRANCH  13  14
ENDBRANCH  12  13
ENDBRANCH  11  12
ENDBRANCH  10  11
ENDBRANCH   9  10
ENDBRANCH   8   9
ENDBRANCH   7   8
ENDBRANCH   6   7
ENDBRANCH   5   6
ENDBRANCH   4   5
ENDBRANCH   3   4
ENDBRANCH   2   3
ENDBRANCH   1   2
BRANCH   1  17
ATOM     17  C   UNL     1      65.146  36.003  61.118  1.00  0.00     0.000 C 
BRANCH  17  18
ATOM     18  C   UNL     1      63.939  35.254  61.713  1.00  0.00     0.000 C 
BRANCH  18  19
ATOM     19  C   UNL     1      62.588  35.851  61.288  1.00  0.00     0.000 C 
BRANCH  19  20
ATOM     20  C   UNL     1      61.636  34.837  60.613  1.00  0.00     0.000 C 
BRANCH  20  21
ATOM     21  C   UNL     1      62.273  33.468  60.282  1.00  0.00     0.000 C 
BRANCH  21  22
ATOM     22  C   UNL     1      61.449  32.546  59.359  1.00  0.00    -0.000 C 
BRANCH  22  23
ATOM     23  C   UNL     1      60.940  31.237  59.996  1.00  0.00    -0.000 C 
BRANCH  23  24
ATOM     24  C   UNL     1      60.781  31.303  61.529  1.00  0.00    -0.000 C 
BRANCH  24  25
ATOM     25  C   UNL     1      61.709  30.329  62.274  1.00  0.00    -0.000 C 
BRANCH  25  26
ATOM     26  C   UNL     1      62.840  29.783  61.386  1.00  0.00    -0.000 C 
BRANCH  26  27
ATOM     27  C   UNL     1      64.206  30.456  61.640  1.00  0.00    -0.000 C 
BRANCH  27  28
ATOM     28  C   UNL     1      64.899  30.874  60.331  1.00  0.00    -0.000 C 
BRANCH  28  29
ATOM     29  C   UNL     1      64.429  30.046  59.125  1.00  0.00    -0.003 C 
ATOM     30  C   UNL     1      65.557  29.228  58.493  1.00  0.00     0.004 C 
ENDBRANCH  28  29
ENDBRANCH  27  28
ENDBRANCH  26  27
ENDBRANCH  25  26
ENDBRANCH  24  25
ENDBRANCH  23  24
ENDBRANCH  22  23
ENDBRANCH  21  22
ENDBRANCH  20  21
ENDBRANCH  19  20
ENDBRANCH  18  19
ENDBRANCH  17  18
ENDBRANCH   1  17
TORSDOF 26
ENDMDL
MODEL 2
REMARK VINA RESULT:    -3.143      4.007      7.344
REMARK INTER + INTRA:         -12.934
REMARK INTER:                  -8.306
REMARK INTRA:                  -4.628
REMARK UNBOUND:                -5.014
REMARK SMILES CCCCCCCCCCCCCCCCCCCCCCCCCCCC(=O)[O-]
REMARK SMILES IDX 15 1 16 2 17 3 18 4 19 5 20 6 21 7 22 8 23 9 24 10 25 11
REMARK SMILES IDX 26 12 27 13 28 14 29 15 30 16 14 17 13 18 12 19 11 20 10 21
REMARK SMILES IDX 9 22 8 23 7 24 6 25 5 26 4 27 3 28 2 29 1 30
REMARK H PARENT
REMARK Flexibility Score: inf
ROOT
ATOM      1  C   UNL     1      60.231  32.235  58.213  1.00  0.00     0.000 C 
ENDROOT
BRANCH   1   2
ATOM      2  C   UNL     1      60.150  31.406  59.510  1.00  0.00     0.000 C 
BRANCH   2   3
ATOM      3  C   UNL     1      60.850  32.015  60.738  1.00  0.00     0.000 C 
BRANCH   3   4
ATOM      4  C   UNL     1      60.744  31.135  61.994  1.00  0.00     0.000 C 
BRANCH   4   5
ATOM      5  C   UNL     1      61.691  29.924  61.946  1.00  0.00     0.000 C 
BRANCH   5   6
ATOM      6  C   UNL     1      63.178  30.314  61.796  1.00  0.00     0.000 C 
BRANCH   6   7
ATOM      7  C   UNL     1      63.914  29.433  60.772  1.00  0.00     0.000 C 
BRANCH   7   8
ATOM      8  C   UNL     1      63.131  29.289  59.456  1.00  0.00     0.000 C 
BRANCH   8   9
ATOM      9  C   UNL     1      63.722  28.204  58.537  1.00  0.00     0.000 C 
BRANCH   9  10
ATOM     10  C   UNL     1      64.192  26.964  59.314  1.00  0.00     0.000 C 
BRANCH  10  11
ATOM     11  C   UNL     1      63.017  26.109  59.823  1.00  0.00     0.000 C 
BRANCH  11  12
ATOM     12  C   UNL     1      63.192  25.669  61.288  1.00  0.00     0.006 C 
BRANCH  12  13
ATOM     13  C   UNL     1      62.246  26.369  62.278  1.00  0.00     0.053 C 
BRANCH  13  14
ATOM     14  C   UNL     1      61.652  25.409  63.263  1.00  0.00     0.041 C 
ATOM     15  O   UNL     1      62.298  24.388  63.618  1.00  0.00    -0.550 OA
ATOM     16  O   UNL     1      60.403  25.659  63.816  1.00  0.00    -0.550 OA
ENDBRANCH  13  14
ENDBRANCH  12  13
ENDBRANCH  11  12
ENDBRANCH  10  11
ENDBRANCH   9  10
ENDBRANCH   8   9
ENDBRANCH   7   8
ENDBRANCH   6   7
ENDBRANCH   5   6
ENDBRANCH   4   5
ENDBRANCH   3   4
ENDBRANCH   2   3
ENDBRANCH   1   2
BRANCH   1  17
ATOM     17  C   UNL     1      59.456  33.570  58.258  1.00  0.00     0.000 C 
BRANCH  17  18
ATOM     18  C   UNL     1      60.372  34.792  58.454  1.00  0.00     0.000 C 
BRANCH  18  19
ATOM     19  C   UNL     1      59.671  35.966  59.158  1.00  0.00     0.000 C 
BRANCH  19  20
ATOM     20  C   UNL     1      60.440  36.514  60.382  1.00  0.00     0.000 C 
BRANCH  20  21
ATOM     21  C   UNL     1      61.604  35.624  60.872  1.00  0.00     0.000 C 
BRANCH  21  22
ATOM     22  C   UNL     1      62.939  36.347  61.143  1.00  0.00    -0.000 C 
BRANCH  22  23
ATOM     23  C   UNL     1      64.167  35.437  61.349  1.00  0.00    -0.000 C 
BRANCH  23  24
ATOM     24  C   UNL     1      63.835  33.931  61.394  1.00  0.00    -0.000 C 
BRANCH  24  25
ATOM     25  C   UNL     1      64.589  33.115  60.331  1.00  0.00    -0.000 C 
BRANCH  25  26
ATOM     26  C   UNL     1      63.835  33.037  58.992  1.00  0.00    -0.000 C 
BRANCH  26  27
ATOM     27  C   UNL     1      64.659  32.391  57.857  1.00  0.00    -0.000 C 
BRANCH  27  28
ATOM     28  C   UNL     1      66.091  32.952  57.788  1.00  0.00    -0.000 C 
BRANCH  28  29
ATOM     29  C   UNL     1      67.159  31.852  57.897  1.00  0.00    -0.003 C 
ATOM     30  C   UNL     1      66.646  30.598  58.607  1.00  0.00     0.004 C 
ENDBRANCH  28  29
ENDBRANCH  27  28
ENDBRANCH  26  27
ENDBRANCH  25  26
ENDBRANCH  24  25
ENDBRANCH  23  24
ENDBRANCH  22  23
ENDBRANCH  21  22
ENDBRANCH  20  21
ENDBRANCH  19  20
ENDBRANCH  18  19
ENDBRANCH  17  18
ENDBRANCH   1  17
TORSDOF 26
ENDMDL
MODEL 3
REMARK VINA RESULT:    -3.102      3.567      6.277
REMARK INTER + INTRA:         -12.829
REMARK INTER:                  -7.378
REMARK INTRA:                  -5.451
REMARK UNBOUND:                -5.014
REMARK SMILES CCCCCCCCCCCCCCCCCCCCCCCCCCCC(=O)[O-]
REMARK SMILES IDX 15 1 16 2 17 3 18 4 19 5 20 6 21 7 22 8 23 9 24 10 25 11
REMARK SMILES IDX 26 12 27 13 28 14 29 15 30 16 14 17 13 18 12 19 11 20 10 21
REMARK SMILES IDX 9 22 8 23 7 24 6 25 5 26 4 27 3 28 2 29 1 30
REMARK H PARENT
REMARK Flexibility Score: inf
ROOT
ATOM      1  C   UNL     1      63.790  29.786  61.621  1.00  0.00     0.000 C 
ENDROOT
BRANCH   1   2
ATOM      2  C   UNL     1      62.249  29.779  61.570  1.00  0.00     0.000 C 
BRANCH   2   3
ATOM      3  C   UNL     1      61.553  30.992  62.213  1.00  0.00     0.000 C 
BRANCH   3   4
ATOM      4  C   UNL     1      60.735  31.822  61.211  1.00  0.00     0.000 C 
BRANCH   4   5
ATOM      5  C   UNL     1      60.818  31.266  59.779  1.00  0.00     0.000 C 
BRANCH   5   6
ATOM      6  C   UNL     1      59.490  31.384  58.998  1.00  0.00     0.000 C 
BRANCH   6   7
ATOM      7  C   UNL     1      59.662  32.126  57.662  1.00  0.00     0.000 C 
BRANCH   7   8
ATOM      8  C   UNL     1      61.014  32.853  57.567  1.00  0.00     0.000 C 
BRANCH   8   9
ATOM      9  C   UNL     1      60.867  34.382  57.683  1.00  0.00     0.000 C 
BRANCH   9  10
ATOM     10  C   UNL     1      61.843  34.993  58.702  1.00  0.00     0.000 C 
BRANCH  10  11
ATOM     11  C   UNL     1      61.143  35.409  60.009  1.00  0.00     0.000 C 
BRANCH  11  12
ATOM     12  C   UNL     1      62.125  35.567  61.185  1.00  0.00     0.006 C 
BRANCH  12  13
ATOM     13  C   UNL     1      63.317  34.595  61.151  1.00  0.00     0.053 C 
BRANCH  13  14
ATOM     14  C   UNL     1      64.630  35.315  61.211  1.00  0.00     0.041 C 
ATOM     15  O   UNL     1      65.043  35.785  62.303  1.00  0.00    -0.550 OA
ATOM     16  O   UNL     1      65.413  35.435  60.070  1.00  0.00    -0.550 OA
ENDBRANCH  13  14
ENDBRANCH  12  13
ENDBRANCH  11  12
ENDBRANCH  10  11
ENDBRANCH   9  10
ENDBRANCH   8   9
ENDBRANCH   7   8
ENDBRANCH   6   7
ENDBRANCH   5   6
ENDBRANCH   4   5
ENDBRANCH   3   4
ENDBRANCH   2   3
ENDBRANCH   1   2
BRANCH   1  17
ATOM     17  C   UNL     1      64.437  31.140  61.256  1.00  0.00     0.000 C 
BRANCH  17  18
ATOM     18  C   UNL     1      64.425  31.424  59.743  1.00  0.00     0.000 C 
BRANCH  18  19
ATOM     19  C   UNL     1      64.633  30.162  58.890  1.00  0.00     0.000 C 
BRANCH  19  20
ATOM     20  C   UNL     1      63.541  29.940  57.819  1.00  0.00     0.000 C 
BRANCH  20  21
ATOM     21  C   UNL     1      63.077  28.475  57.657  1.00  0.00     0.000 C 
BRANCH  21  22
ATOM     22  C   UNL     1      61.960  28.010  58.614  1.00  0.00    -0.000 C 
BRANCH  22  23
ATOM     23  C   UNL     1      60.556  27.871  57.992  1.00  0.00    -0.000 C 
BRANCH  23  24
ATOM     24  C   UNL     1      59.575  27.027  58.833  1.00  0.00    -0.000 C 
BRANCH  24  25
ATOM     25  C   UNL     1      58.742  27.870  59.813  1.00  0.00    -0.000 C 
BRANCH  25  26
ATOM     26  C   UNL     1      59.309  27.859  61.243  1.00  0.00    -0.000 C 
BRANCH  26  27
ATOM     27  C   UNL     1      58.936  26.595  62.046  1.00  0.00    -0.000 C 
BRANCH  27  28
ATOM     28  C   UNL     1      60.128  25.631  62.197  1.00  0.00    -0.000 C 
BRANCH  28  29
ATOM     29  C   UNL     1      61.405  26.345  62.668  1.00  0.00    -0.003 C 
ATOM     30  C   UNL     1      62.604  26.074  61.758  1.00  0.00     0.004 C 
ENDBRANCH  28  29
ENDBRANCH  27  28
ENDBRANCH  26  27
ENDBRANCH  25  26
ENDBRANCH  24  25
ENDBRANCH  23  24
ENDBRANCH  22  23
ENDBRANCH  21  22
ENDBRANCH  20  21
ENDBRANCH  19  20
ENDBRANCH  18  19
ENDBRANCH  17  18
ENDBRANCH   1  17
TORSDOF 26
ENDMDL
MODEL 4
REMARK VINA RESULT:    -3.101     12.839     16.001
REMARK INTER + INTRA:         -12.827
REMARK INTER:                  -9.198
REMARK INTRA:                  -3.629
REMARK UNBOUND:                -5.014
REMARK SMILES CCCCCCCCCCCCCCCCCCCCCCCCCCCC(=O)[O-]
REMARK SMILES IDX 15 1 16 2 17 3 18 4 19 5 20 6 21 7 22 8 23 9 24 10 25 11
REMARK SMILES IDX 26 12 27 13 28 14 29 15 30 16 14 17 13 18 12 19 11 20 10 21
REMARK SMILES IDX 9 22 8 23 7 24 6 25 5 26 4 27 3 28 2 29 1 30
REMARK H PARENT
REMARK Flexibility Score: inf
ROOT
ATOM      1  C   UNL     1      57.342  25.335  51.936  1.00  0.00     0.000 C 
ENDROOT
BRANCH   1   2
ATOM      2  C   UNL     1      58.357  25.186  50.785  1.00  0.00     0.000 C 
BRANCH   2   3
ATOM      3  C   UNL     1      59.789  24.808  51.202  1.00  0.00     0.000 C 
BRANCH   3   4
ATOM      4  C   UNL     1      60.724  24.567  50.005  1.00  0.00     0.000 C 
BRANCH   4   5
ATOM      5  C   UNL     1      60.953  23.072  49.728  1.00  0.00     0.000 C 
BRANCH   5   6
ATOM      6  C   UNL     1      60.299  22.147  50.779  1.00  0.00     0.000 C 
BRANCH   6   7
ATOM      7  C   UNL     1      61.263  21.059  51.282  1.00  0.00     0.000 C 
BRANCH   7   8
ATOM      8  C   UNL     1      60.811  19.646  50.877  1.00  0.00     0.000 C 
BRANCH   8   9
ATOM      9  C   UNL     1      60.012  19.640  49.560  1.00  0.00     0.000 C 
BRANCH   9  10
ATOM     10  C   UNL     1      58.743  18.777  49.644  1.00  0.00     0.000 C 
BRANCH  10  11
ATOM     11  C   UNL     1      58.018  18.927  50.994  1.00  0.00     0.000 C 
BRANCH  11  12
ATOM     12  C   UNL     1      56.637  18.246  51.008  1.00  0.00     0.006 C 
BRANCH  12  13
ATOM     13  C   UNL     1      55.468  19.189  51.338  1.00  0.00     0.053 C 
BRANCH  13  14
ATOM     14  C   UNL     1      55.415  19.528  52.796  1.00  0.00     0.041 C 
ATOM     15  O   UNL     1      55.709  20.688  53.187  1.00  0.00    -0.550 OA
ATOM     16  O   UNL     1      55.007  18.575  53.720  1.00  0.00    -0.550 OA
ENDBRANCH  13  14
ENDBRANCH  12  13
ENDBRANCH  11  12
ENDBRANCH  10  11
ENDBRANCH   9  10
ENDBRANCH   8   9
ENDBRANCH   7   8
ENDBRANCH   6   7
ENDBRANCH   5   6
ENDBRANCH   4   5
ENDBRANCH   3   4
ENDBRANCH   2   3
ENDBRANCH   1   2
BRANCH   1  17
ATOM     17  C   UNL     1      55.875  25.496  51.480  1.00  0.00     0.000 C 
BRANCH  17  18
ATOM     18  C   UNL     1      55.745  25.870  49.992  1.00  0.00     0.000 C 
BRANCH  18  19
ATOM     19  C   UNL     1      54.324  25.669  49.440  1.00  0.00     0.000 C 
BRANCH  19  20
ATOM     20  C   UNL     1      53.329  26.779  49.847  1.00  0.00     0.000 C 
BRANCH  20  21
ATOM     21  C   UNL     1      53.946  28.189  49.983  1.00  0.00     0.000 C 
BRANCH  21  22
ATOM     22  C   UNL     1      54.143  28.704  51.424  1.00  0.00    -0.000 C 
BRANCH  22  23
ATOM     23  C   UNL     1      55.344  29.648  51.643  1.00  0.00    -0.000 C 
BRANCH  23  24
ATOM     24  C   UNL     1      56.521  29.003  52.404  1.00  0.00    -0.000 C 
BRANCH  24  25
ATOM     25  C   UNL     1      57.837  29.026  51.610  1.00  0.00    -0.000 C 
BRANCH  25  26
ATOM     26  C   UNL     1      57.626  28.855  50.095  1.00  0.00    -0.000 C 
BRANCH  26  27
ATOM     27  C   UNL     1      58.869  29.215  49.253  1.00  0.00    -0.000 C 
BRANCH  27  28
ATOM     28  C   UNL     1      59.858  28.040  49.149  1.00  0.00    -0.000 C 
BRANCH  28  29
ATOM     29  C   UNL     1      61.252  28.395  49.689  1.00  0.00    -0.003 C 
ATOM     30  C   UNL     1      61.412  28.071  51.175  1.00  0.00     0.004 C 
ENDBRANCH  28  29
ENDBRANCH  27  28
ENDBRANCH  26  27
ENDBRANCH  25  26
ENDBRANCH  24  25
ENDBRANCH  23  24
ENDBRANCH  22  23
ENDBRANCH  21  22
ENDBRANCH  20  21
ENDBRANCH  19  20
ENDBRANCH  18  19
ENDBRANCH  17  18
ENDBRANCH   1  17
TORSDOF 26
ENDMDL
MODEL 5
REMARK VINA RESULT:    -3.091     12.906     15.902
REMARK INTER + INTRA:         -12.802
REMARK INTER:                  -9.392
REMARK INTRA:                  -3.409
REMARK UNBOUND:                -5.014
REMARK SMILES CCCCCCCCCCCCCCCCCCCCCCCCCCCC(=O)[O-]
REMARK SMILES IDX 15 1 16 2 17 3 18 4 19 5 20 6 21 7 22 8 23 9 24 10 25 11
REMARK SMILES IDX 26 12 27 13 28 14 29 15 30 16 14 17 13 18 12 19 11 20 10 21
REMARK SMILES IDX 9 22 8 23 7 24 6 25 5 26 4 27 3 28 2 29 1 30
REMARK H PARENT
REMARK Flexibility Score: inf
ROOT
ATOM      1  C   UNL     1      60.960  25.592  51.455  1.00  0.00     0.000 C 
ENDROOT
BRANCH   1   2
ATOM      2  C   UNL     1      62.074  26.193  50.575  1.00  0.00     0.000 C 
BRANCH   2   3
ATOM      3  C   UNL     1      61.612  27.206  49.511  1.00  0.00     0.000 C 
BRANCH   3   4
ATOM      4  C   UNL     1      60.096  27.166  49.255  1.00  0.00     0.000 C 
BRANCH   4   5
ATOM      5  C   UNL     1      59.434  28.543  49.426  1.00  0.00     0.000 C 
BRANCH   5   6
ATOM      6  C   UNL     1      57.957  28.461  49.872  1.00  0.00     0.000 C 
BRANCH   6   7
ATOM      7  C   UNL     1      57.813  28.045  51.345  1.00  0.00     0.000 C 
BRANCH   7   8
ATOM      8  C   UNL     1      57.039  26.726  51.506  1.00  0.00     0.000 C 
BRANCH   8   9
ATOM      9  C   UNL     1      56.818  26.007  50.162  1.00  0.00     0.000 C 
BRANCH   9  10
ATOM     10  C   UNL     1      55.333  25.917  49.777  1.00  0.00     0.000 C 
BRANCH  10  11
ATOM     11  C   UNL     1      54.436  26.769  50.693  1.00  0.00     0.000 C 
BRANCH  11  12
ATOM     12  C   UNL     1      53.748  27.926  49.944  1.00  0.00     0.006 C 
BRANCH  12  13
ATOM     13  C   UNL     1      54.189  29.327  50.399  1.00  0.00     0.053 C 
BRANCH  13  14
ATOM     14  C   UNL     1      54.149  29.472  51.890  1.00  0.00     0.041 C 
ATOM     15  O   UNL     1      55.152  29.914  52.509  1.00  0.00    -0.550 OA
ATOM     16  O   UNL     1      52.994  29.153  52.592  1.00  0.00    -0.550 OA
ENDBRANCH  13  14
ENDBRANCH  12  13
ENDBRANCH  11  12
ENDBRANCH  10  11
ENDBRANCH   9  10
ENDBRANCH   8   9
ENDBRANCH   7   8
ENDBRANCH   6   7
ENDBRANCH   5   6
ENDBRANCH   4   5
ENDBRANCH   3   4
ENDBRANCH   2   3
ENDBRANCH   1   2
BRANCH   1  17
ATOM     17  C   UNL     1      61.152  24.100  51.801  1.00  0.00     0.000 C 
BRANCH  17  18
ATOM     18  C   UNL     1      60.265  23.167  50.957  1.00  0.00     0.000 C 
BRANCH  18  19
ATOM     19  C   UNL     1      60.811  22.934  49.539  1.00  0.00     0.000 C 
BRANCH  19  20
ATOM     20  C   UNL     1      60.934  21.443  49.149  1.00  0.00     0.000 C 
BRANCH  20  21
ATOM     21  C   UNL     1      61.028  20.464  50.341  1.00  0.00     0.000 C 
BRANCH  21  22
ATOM     22  C   UNL     1      59.833  19.506  50.524  1.00  0.00    -0.000 C 
BRANCH  22  23
ATOM     23  C   UNL     1      59.223  18.935  49.227  1.00  0.00    -0.000 C 
BRANCH  23  24
ATOM     24  C   UNL     1      58.251  17.759  49.453  1.00  0.00    -0.000 C 
BRANCH  24  25
ATOM     25  C   UNL     1      57.528  17.825  50.808  1.00  0.00    -0.000 C 
BRANCH  25  26
ATOM     26  C   UNL     1      56.178  18.559  50.730  1.00  0.00    -0.000 C 
BRANCH  26  27
ATOM     27  C   UNL     1      55.819  19.329  52.020  1.00  0.00    -0.000 C 
BRANCH  27  28
ATOM     28  C   UNL     1      56.592  18.804  53.243  1.00  0.00    -0.000 C 
BRANCH  28  29
ATOM     29  C   UNL     1      57.414  19.902  53.936  1.00  0.00    -0.003 C 
ATOM     30  C   UNL     1      57.755  21.065  53.001  1.00  0.00     0.004 C 
ENDBRANCH  28  29
ENDBRANCH  27  28
ENDBRANCH  26  27
ENDBRANCH  25  26
ENDBRANCH  24  25
ENDBRANCH  23  24
ENDBRANCH  22  23
ENDBRANCH  21  22
ENDBRANCH  20  21
ENDBRANCH  19  20
ENDBRANCH  18  19
ENDBRANCH  17  18
ENDBRANCH   1  17
TORSDOF 26
ENDMDL
MODEL 6
REMARK VINA RESULT:    -3.064      2.748      7.150
REMARK INTER + INTRA:         -12.735
REMARK INTER:                  -7.697
REMARK INTRA:                  -5.038
REMARK UNBOUND:                -5.014
REMARK SMILES CCCCCCCCCCCCCCCCCCCCCCCCCCCC(=O)[O-]
REMARK SMILES IDX 15 1 16 2 17 3 18 4 19 5 20 6 21 7 22 8 23 9 24 10 25 11
REMARK SMILES IDX 26 12 27 13 28 14 29 15 30 16 14 17 13 18 12 19 11 20 10 21
REMARK SMILES IDX 9 22 8 23 7 24 6 25 5 26 4 27 3 28 2 29 1 30
REMARK H PARENT
REMARK Flexibility Score: inf
ROOT
ATOM      1  C   UNL     1      64.768  34.413  58.285  1.00  0.00     0.000 C 
ENDROOT
BRANCH   1   2
ATOM      2  C   UNL     1      65.882  35.459  58.487  1.00  0.00     0.000 C 
BRANCH   2   3
ATOM      3  C   UNL     1      65.631  36.498  59.595  1.00  0.00     0.000 C 
BRANCH   3   4
ATOM      4  C   UNL     1      65.963  35.974  61.002  1.00  0.00     0.000 C 
BRANCH   4   5
ATOM      5  C   UNL     1      64.764  36.062  61.961  1.00  0.00     0.000 C 
BRANCH   5   6
ATOM      6  C   UNL     1      63.652  35.035  61.649  1.00  0.00     0.000 C 
BRANCH   6   7
ATOM      7  C   UNL     1      62.350  35.707  61.183  1.00  0.00     0.000 C 
BRANCH   7   8
ATOM      8  C   UNL     1      61.369  34.705  60.552  1.00  0.00     0.000 C 
BRANCH   8   9
ATOM      9  C   UNL     1      61.817  33.244  60.747  1.00  0.00     0.000 C 
BRANCH   9  10
ATOM     10  C   UNL     1      60.883  32.242  60.048  1.00  0.00     0.000 C 
BRANCH  10  11
ATOM     11  C   UNL     1      61.183  30.785  60.444  1.00  0.00     0.000 C 
BRANCH  11  12
ATOM     12  C   UNL     1      61.853  30.669  61.825  1.00  0.00     0.006 C 
BRANCH  12  13
ATOM     13  C   UNL     1      63.144  29.832  61.835  1.00  0.00     0.053 C 
BRANCH  13  14
ATOM     14  C   UNL     1      62.885  28.396  61.495  1.00  0.00     0.041 C 
ATOM     15  O   UNL     1      61.983  27.757  62.097  1.00  0.00    -0.550 OA
ATOM     16  O   UNL     1      63.615  27.775  60.490  1.00  0.00    -0.550 OA
ENDBRANCH  13  14
ENDBRANCH  12  13
ENDBRANCH  11  12
ENDBRANCH  10  11
ENDBRANCH   9  10
ENDBRANCH   8   9
ENDBRANCH   7   8
ENDBRANCH   6   7
ENDBRANCH   5   6
ENDBRANCH   4   5
ENDBRANCH   3   4
ENDBRANCH   2   3
ENDBRANCH   1   2
BRANCH   1  17
ATOM     17  C   UNL     1      65.099  33.010  58.836  1.00  0.00     0.000 C 
BRANCH  17  18
ATOM     18  C   UNL     1      64.182  31.909  58.272  1.00  0.00     0.000 C 
BRANCH  18  19
ATOM     19  C   UNL     1      64.713  30.489  58.527  1.00  0.00     0.000 C 
BRANCH  19  20
ATOM     20  C   UNL     1      66.132  30.449  59.136  1.00  0.00     0.000 C 
BRANCH  20  21
ATOM     21  C   UNL     1      67.185  29.704  58.285  1.00  0.00     0.000 C 
BRANCH  21  22
ATOM     22  C   UNL     1      66.774  29.377  56.835  1.00  0.00    -0.000 C 
BRANCH  22  23
ATOM     23  C   UNL     1      67.410  30.257  55.740  1.00  0.00    -0.000 C 
BRANCH  23  24
ATOM     24  C   UNL     1      66.533  31.447  55.299  1.00  0.00    -0.000 C 
BRANCH  24  25
ATOM     25  C   UNL     1      67.076  32.805  55.774  1.00  0.00    -0.000 C 
BRANCH  25  26
ATOM     26  C   UNL     1      68.547  32.739  56.219  1.00  0.00    -0.000 C 
BRANCH  26  27
ATOM     27  C   UNL     1      68.773  33.198  57.676  1.00  0.00    -0.000 C 
BRANCH  27  28
ATOM     28  C   UNL     1      69.827  32.338  58.398  1.00  0.00    -0.000 C 
BRANCH  28  29
ATOM     29  C   UNL     1      70.854  33.186  59.164  1.00  0.00    -0.003 C 
ATOM     30  C   UNL     1      71.690  32.360  60.144  1.00  0.00     0.004 C 
ENDBRANCH  28  29
ENDBRANCH  27  28
ENDBRANCH  26  27
ENDBRANCH  25  26
ENDBRANCH  24  25
ENDBRANCH  23  24
ENDBRANCH  22  23
ENDBRANCH  21  22
ENDBRANCH  20  21
ENDBRANCH  19  20
ENDBRANCH  18  19
ENDBRANCH  17  18
ENDBRANCH   1  17
TORSDOF 26
ENDMDL
MODEL 7
REMARK VINA RESULT:    -3.059     11.244     14.202
REMARK INTER + INTRA:         -12.723
REMARK INTER:                  -7.912
REMARK INTRA:                  -4.812
REMARK UNBOUND:                -5.014
REMARK SMILES CCCCCCCCCCCCCCCCCCCCCCCCCCCC(=O)[O-]
REMARK SMILES IDX 15 1 16 2 17 3 18 4 19 5 20 6 21 7 22 8 23 9 24 10 25 11
REMARK SMILES IDX 26 12 27 13 28 14 29 15 30 16 14 17 13 18 12 19 11 20 10 21
REMARK SMILES IDX 9 22 8 23 7 24 6 25 5 26 4 27 3 28 2 29 1 30
REMARK H PARENT
REMARK Flexibility Score: inf
ROOT
ATOM      1  C   UNL     1      56.703  25.880  49.972  1.00  0.00     0.000 C 
ENDROOT
BRANCH   1   2
ATOM      2  C   UNL     1      57.762  25.592  51.054  1.00  0.00     0.000 C 
BRANCH   2   3
ATOM      3  C   UNL     1      57.267  25.665  52.510  1.00  0.00     0.000 C 
BRANCH   3   4
ATOM      4  C   UNL     1      57.834  24.546  53.399  1.00  0.00     0.000 C 
BRANCH   4   5
ATOM      5  C   UNL     1      58.593  23.480  52.591  1.00  0.00     0.000 C 
BRANCH   5   6
ATOM      6  C   UNL     1      59.892  23.002  53.277  1.00  0.00     0.000 C 
BRANCH   6   7
ATOM      7  C   UNL     1      60.754  24.174  53.776  1.00  0.00     0.000 C 
BRANCH   7   8
ATOM      8  C   UNL     1      61.130  25.147  52.646  1.00  0.00     0.000 C 
BRANCH   8   9
ATOM      9  C   UNL     1      62.572  24.940  52.148  1.00  0.00     0.000 C 
BRANCH   9  10
ATOM     10  C   UNL     1      62.634  24.160  50.825  1.00  0.00     0.000 C 
BRANCH  10  11
ATOM     11  C   UNL     1      61.299  24.196  50.058  1.00  0.00     0.000 C 
BRANCH  11  12
ATOM     12  C   UNL     1      60.850  22.803  49.580  1.00  0.00     0.006 C 
BRANCH  12  13
ATOM     13  C   UNL     1      61.730  21.646  50.082  1.00  0.00     0.053 C 
BRANCH  13  14
ATOM     14  C   UNL     1      61.024  20.327  50.003  1.00  0.00     0.041 C 
ATOM     15  O   UNL     1      61.449  19.342  50.662  1.00  0.00    -0.550 OA
ATOM     16  O   UNL     1      59.878  20.194  49.230  1.00  0.00    -0.550 OA
ENDBRANCH  13  14
ENDBRANCH  12  13
ENDBRANCH  11  12
ENDBRANCH  10  11
ENDBRANCH   9  10
ENDBRANCH   8   9
ENDBRANCH   7   8
ENDBRANCH   6   7
ENDBRANCH   5   6
ENDBRANCH   4   5
ENDBRANCH   3   4
ENDBRANCH   2   3
ENDBRANCH   1   2
BRANCH   1  17
ATOM     17  C   UNL     1      55.257  25.527  50.381  1.00  0.00     0.000 C 
BRANCH  17  18
ATOM     18  C   UNL     1      54.197  26.284  49.559  1.00  0.00     0.000 C 
BRANCH  18  19
ATOM     19  C   UNL     1      53.458  27.360  50.371  1.00  0.00     0.000 C 
BRANCH  19  20
ATOM     20  C   UNL     1      54.083  28.769  50.263  1.00  0.00     0.000 C 
BRANCH  20  21
ATOM     21  C   UNL     1      55.289  29.020  51.195  1.00  0.00     0.000 C 
BRANCH  21  22
ATOM     22  C   UNL     1      56.632  29.319  50.498  1.00  0.00    -0.000 C 
BRANCH  22  23
ATOM     23  C   UNL     1      57.877  29.320  51.408  1.00  0.00    -0.000 C 
BRANCH  23  24
ATOM     24  C   UNL     1      59.215  29.406  50.645  1.00  0.00    -0.000 C 
BRANCH  24  25
ATOM     25  C   UNL     1      59.154  28.770  49.246  1.00  0.00    -0.000 C 
BRANCH  25  26
ATOM     26  C   UNL     1      60.168  27.628  49.063  1.00  0.00    -0.000 C 
BRANCH  26  27
ATOM     27  C   UNL     1      61.390  27.731  50.001  1.00  0.00    -0.000 C 
BRANCH  27  28
ATOM     28  C   UNL     1      62.689  28.031  49.231  1.00  0.00    -0.000 C 
BRANCH  28  29
ATOM     29  C   UNL     1      63.471  29.209  49.832  1.00  0.00    -0.003 C 
ATOM     30  C   UNL     1      62.698  30.528  49.766  1.00  0.00     0.004 C 
ENDBRANCH  28  29
ENDBRANCH  27  28
ENDBRANCH  26  27
ENDBRANCH  25  26
ENDBRANCH  24  25
ENDBRANCH  23  24
ENDBRANCH  22  23
ENDBRANCH  21  22
ENDBRANCH  20  21
ENDBRANCH  19  20
ENDBRANCH  18  19
ENDBRANCH  17  18
ENDBRANCH   1  17
TORSDOF 26
ENDMDL
MODEL 8
REMARK VINA RESULT:    -3.030      5.335      9.757
REMARK INTER + INTRA:         -12.650
REMARK INTER:                  -8.587
REMARK INTRA:                  -4.063
REMARK UNBOUND:                -5.014
REMARK SMILES CCCCCCCCCCCCCCCCCCCCCCCCCCCC(=O)[O-]
REMARK SMILES IDX 15 1 16 2 17 3 18 4 19 5 20 6 21 7 22 8 23 9 24 10 25 11
REMARK SMILES IDX 26 12 27 13 28 14 29 15 30 16 14 17 13 18 12 19 11 20 10 21
REMARK SMILES IDX 9 22 8 23 7 24 6 25 5 26 4 27 3 28 2 29 1 30
REMARK H PARENT
REMARK Flexibility Score: inf
ROOT
ATOM      1  C   UNL     1      63.387  28.708  61.317  1.00  0.00     0.000 C 
ENDROOT
BRANCH   1   2
ATOM      2  C   UNL     1      62.974  28.214  59.917  1.00  0.00     0.000 C 
BRANCH   2   3
ATOM      3  C   UNL     1      63.230  26.722  59.632  1.00  0.00     0.000 C 
BRANCH   3   4
ATOM      4  C   UNL     1      64.034  26.024  60.740  1.00  0.00     0.000 C 
BRANCH   4   5
ATOM      5  C   UNL     1      63.947  24.491  60.654  1.00  0.00     0.000 C 
BRANCH   5   6
ATOM      6  C   UNL     1      63.486  23.829  61.972  1.00  0.00     0.000 C 
BRANCH   6   7
ATOM      7  C   UNL     1      61.995  24.072  62.259  1.00  0.00     0.000 C 
BRANCH   7   8
ATOM      8  C   UNL     1      61.775  24.959  63.496  1.00  0.00     0.000 C 
BRANCH   8   9
ATOM      9  C   UNL     1      61.212  26.345  63.131  1.00  0.00     0.000 C 
BRANCH   9  10
ATOM     10  C   UNL     1      60.326  26.311  61.875  1.00  0.00     0.000 C 
BRANCH  10  11
ATOM     11  C   UNL     1      58.842  26.565  62.196  1.00  0.00     0.000 C 
BRANCH  11  12
ATOM     12  C   UNL     1      58.301  27.847  61.536  1.00  0.00     0.006 C 
BRANCH  12  13
ATOM     13  C   UNL     1      56.929  27.682  60.861  1.00  0.00     0.053 C 
BRANCH  13  14
ATOM     14  C   UNL     1      55.829  28.307  61.664  1.00  0.00     0.041 C 
ATOM     15  O   UNL     1      54.952  29.010  61.095  1.00  0.00    -0.550 OA
ATOM     16  O   UNL     1      55.751  28.087  63.032  1.00  0.00    -0.550 OA
ENDBRANCH  13  14
ENDBRANCH  12  13
ENDBRANCH  11  12
ENDBRANCH  10  11
ENDBRANCH   9  10
ENDBRANCH   8   9
ENDBRANCH   7   8
ENDBRANCH   6   7
ENDBRANCH   5   6
ENDBRANCH   4   5
ENDBRANCH   3   4
ENDBRANCH   2   3
ENDBRANCH   1   2
BRANCH   1  17
ATOM     17  C   UNL     1      62.979  30.164  61.629  1.00  0.00     0.000 C 
BRANCH  17  18
ATOM     18  C   UNL     1      61.537  30.285  62.155  1.00  0.00     0.000 C 
BRANCH  18  19
ATOM     19  C   UNL     1      60.765  31.462  61.537  1.00  0.00     0.000 C 
BRANCH  19  20
ATOM     20  C   UNL     1      60.434  31.280  60.039  1.00  0.00     0.000 C 
BRANCH  20  21
ATOM     21  C   UNL     1      61.038  32.351  59.104  1.00  0.00     0.000 C 
BRANCH  21  22
ATOM     22  C   UNL     1      61.979  31.829  57.998  1.00  0.00    -0.000 C 
BRANCH  22  23
ATOM     23  C   UNL     1      62.994  32.849  57.441  1.00  0.00    -0.000 C 
BRANCH  23  24
ATOM     24  C   UNL     1      64.460  32.545  57.812  1.00  0.00    -0.000 C 
BRANCH  24  25
ATOM     25  C   UNL     1      64.966  33.376  59.002  1.00  0.00    -0.000 C 
BRANCH  25  26
ATOM     26  C   UNL     1      64.541  32.795  60.362  1.00  0.00    -0.000 C 
BRANCH  26  27
ATOM     27  C   UNL     1      63.801  33.808  61.262  1.00  0.00    -0.000 C 
BRANCH  27  28
ATOM     28  C   UNL     1      63.791  35.223  60.656  1.00  0.00    -0.000 C 
BRANCH  28  29
ATOM     29  C   UNL     1      62.633  36.082  61.188  1.00  0.00    -0.003 C 
ATOM     30  C   UNL     1      61.259  35.510  60.831  1.00  0.00     0.004 C 
ENDBRANCH  28  29
ENDBRANCH  27  28
ENDBRANCH  26  27
ENDBRANCH  25  26
ENDBRANCH  24  25
ENDBRANCH  23  24
ENDBRANCH  22  23
ENDBRANCH  21  22
ENDBRANCH  20  21
ENDBRANCH  19  20
ENDBRANCH  18  19
ENDBRANCH  17  18
ENDBRANCH   1  17
TORSDOF 26
ENDMDL
MODEL 9
REMARK VINA RESULT:    -3.016      2.631      5.600
REMARK INTER + INTRA:         -12.615
REMARK INTER:                  -7.328
REMARK INTRA:                  -5.287
REMARK UNBOUND:                -5.014
REMARK SMILES CCCCCCCCCCCCCCCCCCCCCCCCCCCC(=O)[O-]
REMARK SMILES IDX 15 1 16 2 17 3 18 4 19 5 20 6 21 7 22 8 23 9 24 10 25 11
REMARK SMILES IDX 26 12 27 13 28 14 29 15 30 16 14 17 13 18 12 19 11 20 10 21
REMARK SMILES IDX 9 22 8 23 7 24 6 25 5 26 4 27 3 28 2 29 1 30
REMARK H PARENT
REMARK Flexibility Score: inf
ROOT
ATOM      1  C   UNL     1      62.351  32.628  60.359  1.00  0.00     0.000 C 
ENDROOT
BRANCH   1   2
ATOM      2  C   UNL     1      61.123  32.233  61.203  1.00  0.00     0.000 C 
BRANCH   2   3
ATOM      3  C   UNL     1      60.841  30.723  61.307  1.00  0.00     0.000 C 
BRANCH   3   4
ATOM      4  C   UNL     1      61.780  29.999  62.285  1.00  0.00     0.000 C 
BRANCH   4   5
ATOM      5  C   UNL     1      62.410  28.736  61.672  1.00  0.00     0.000 C 
BRANCH   5   6
ATOM      6  C   UNL     1      63.596  29.039  60.730  1.00  0.00     0.000 C 
BRANCH   6   7
ATOM      7  C   UNL     1      63.759  27.972  59.634  1.00  0.00     0.000 C 
BRANCH   7   8
ATOM      8  C   UNL     1      63.245  28.456  58.267  1.00  0.00     0.000 C 
BRANCH   8   9
ATOM      9  C   UNL     1      63.002  29.976  58.236  1.00  0.00     0.000 C 
BRANCH   9  10
ATOM     10  C   UNL     1      63.601  30.644  56.988  1.00  0.00     0.000 C 
BRANCH  10  11
ATOM     11  C   UNL     1      64.641  31.723  57.341  1.00  0.00     0.000 C 
BRANCH  11  12
ATOM     12  C   UNL     1      65.513  31.337  58.550  1.00  0.00     0.006 C 
BRANCH  12  13
ATOM     13  C   UNL     1      67.026  31.397  58.286  1.00  0.00     0.053 C 
BRANCH  13  14
ATOM     14  C   UNL     1      67.640  30.031  58.223  1.00  0.00     0.041 C 
ATOM     15  O   UNL     1      68.892  29.902  58.200  1.00  0.00    -0.550 OA
ATOM     16  O   UNL     1      66.833  28.902  58.225  1.00  0.00    -0.550 OA
ENDBRANCH  13  14
ENDBRANCH  12  13
ENDBRANCH  11  12
ENDBRANCH  10  11
ENDBRANCH   9  10
ENDBRANCH   8   9
ENDBRANCH   7   8
ENDBRANCH   6   7
ENDBRANCH   5   6
ENDBRANCH   4   5
ENDBRANCH   3   4
ENDBRANCH   2   3
ENDBRANCH   1   2
BRANCH   1  17
ATOM     17  C   UNL     1      63.643  32.854  61.174  1.00  0.00     0.000 C 
BRANCH  17  18
ATOM     18  C   UNL     1      64.398  34.131  60.763  1.00  0.00     0.000 C 
BRANCH  18  19
ATOM     19  C   UNL     1      64.145  35.315  61.711  1.00  0.00     0.000 C 
BRANCH  19  20
ATOM     20  C   UNL     1      63.498  36.541  61.028  1.00  0.00     0.000 C 
BRANCH  20  21
ATOM     21  C   UNL     1      62.000  36.747  61.344  1.00  0.00     0.000 C 
BRANCH  21  22
ATOM     22  C   UNL     1      61.020  35.798  60.624  1.00  0.00    -0.000 C 
BRANCH  22  23
ATOM     23  C   UNL     1      60.043  36.464  59.634  1.00  0.00    -0.000 C 
BRANCH  23  24
ATOM     24  C   UNL     1      60.339  36.156  58.152  1.00  0.00    -0.000 C 
BRANCH  24  25
ATOM     25  C   UNL     1      61.776  35.661  57.914  1.00  0.00    -0.000 C 
BRANCH  25  26
ATOM     26  C   UNL     1      61.829  34.248  57.309  1.00  0.00    -0.000 C 
BRANCH  26  27
ATOM     27  C   UNL     1      60.448  33.705  56.883  1.00  0.00    -0.000 C 
BRANCH  27  28
ATOM     28  C   UNL     1      60.196  32.282  57.412  1.00  0.00    -0.000 C 
BRANCH  28  29
ATOM     29  C   UNL     1      58.931  32.191  58.280  1.00  0.00    -0.003 C 
ATOM     30  C   UNL     1      58.349  30.777  58.332  1.00  0.00     0.004 C 
ENDBRANCH  28  29
ENDBRANCH  27  28
ENDBRANCH  26  27
ENDBRANCH  25  26
ENDBRANCH  24  25
ENDBRANCH  23  24
ENDBRANCH  22  23
ENDBRANCH  21  22
ENDBRANCH  20  21
ENDBRANCH  19  20
ENDBRANCH  18  19
ENDBRANCH  17  18
ENDBRANCH   1  17
TORSDOF 26
ENDMDL
