MODEL 1
REMARK VINA RESULT:    -4.113      0.000      0.000
REMARK INTER + INTRA:          -9.550
REMARK INTER:                  -7.238
REMARK INTRA:                  -2.312
REMARK UNBOUND:                -2.312
REMARK SMILES CCCCCCC=CCCCCCCCC(=O)[O-]
REMARK SMILES IDX 10 1 11 2 12 3 13 4 14 5 15 6 16 7 17 8 18 9 9 10 8 11 7 12
REMARK SMILES IDX 6 13 5 14 4 15 3 16 2 17 1 18
REMARK H PARENT
REMARK Flexibility Score: inf
ROOT
ATOM      1  C   UNL     1      30.996   8.183  32.886  1.00  0.00     0.004 C 
ENDROOT
BRANCH   1   2
ATOM      2  C   UNL     1      31.514   9.622  32.721  1.00  0.00     0.000 C 
BRANCH   2   3
ATOM      3  C   UNL     1      30.480  10.552  32.063  1.00  0.00     0.000 C 
BRANCH   3   4
ATOM      4  C   UNL     1      31.137  11.639  31.193  1.00  0.00     0.000 C 
BRANCH   4   5
ATOM      5  C   UNL     1      30.129  12.344  30.271  1.00  0.00     0.006 C 
BRANCH   5   6
ATOM      6  C   UNL     1      30.182  11.825  28.827  1.00  0.00     0.053 C 
BRANCH   6   7
ATOM      7  C   UNL     1      28.829  11.358  28.390  1.00  0.00     0.041 C 
ATOM      8  O   UNL     1      28.629  11.031  27.191  1.00  0.00    -0.550 OA
ATOM      9  O   UNL     1      27.803  11.234  29.319  1.00  0.00    -0.550 OA
ENDBRANCH   6   7
ENDBRANCH   5   6
ENDBRANCH   4   5
ENDBRANCH   3   4
ENDBRANCH   2   3
ENDBRANCH   1   2
BRANCH   1  10
ATOM     10  C   UNL     1      31.682   7.210  31.915  1.00  0.00     0.027 C 
BRANCH  10  11
ATOM     11  C   UNL     1      30.677   6.397  31.136  1.00  0.00    -0.031 C 
ATOM     12  C   UNL     1      30.044   6.820  30.025  1.00  0.00    -0.031 C 
BRANCH  12  13
ATOM     13  C   UNL     1      30.315   8.134  29.332  1.00  0.00     0.027 C 
BRANCH  13  14
ATOM     14  C   UNL     1      31.623   8.091  28.520  1.00  0.00     0.004 C 
BRANCH  14  15
ATOM     15  C   UNL     1      32.653   9.143  28.974  1.00  0.00     0.000 C 
BRANCH  15  16
ATOM     16  C   UNL     1      34.051   8.544  29.254  1.00  0.00    -0.000 C 
BRANCH  16  17
ATOM     17  C   UNL     1      34.601   8.901  30.647  1.00  0.00    -0.003 C 
ATOM     18  C   UNL     1      35.291   7.723  31.332  1.00  0.00     0.004 C 
ENDBRANCH  16  17
ENDBRANCH  15  16
ENDBRANCH  14  15
ENDBRANCH  13  14
ENDBRANCH  12  13
ENDBRANCH  10  11
ENDBRANCH   1  10
TORSDOF 13
ENDMDL
MODEL 2
REMARK VINA RESULT:    -4.054      1.382      3.455
REMARK INTER + INTRA:          -9.447
REMARK INTER:                  -7.410
REMARK INTRA:                  -2.037
REMARK UNBOUND:                -2.312
REMARK SMILES CCCCCCC=CCCCCCCCC(=O)[O-]
REMARK SMILES IDX 10 1 11 2 12 3 13 4 14 5 15 6 16 7 17 8 18 9 9 10 8 11 7 12
REMARK SMILES IDX 6 13 5 14 4 15 3 16 2 17 1 18
REMARK H PARENT
REMARK Flexibility Score: inf
ROOT
ATOM      1  C   UNL     1      30.850   7.889  31.537  1.00  0.00     0.004 C 
ENDROOT
BRANCH   1   2
ATOM      2  C   UNL     1      30.749   6.798  30.456  1.00  0.00     0.000 C 
BRANCH   2   3
ATOM      3  C   UNL     1      30.274   7.350  29.101  1.00  0.00     0.000 C 
BRANCH   3   4
ATOM      4  C   UNL     1      31.375   8.137  28.368  1.00  0.00     0.000 C 
BRANCH   4   5
ATOM      5  C   UNL     1      30.853   9.446  27.752  1.00  0.00     0.006 C 
BRANCH   5   6
ATOM      6  C   UNL     1      30.276  10.406  28.802  1.00  0.00     0.053 C 
BRANCH   6   7
ATOM      7  C   UNL     1      29.095  11.137  28.247  1.00  0.00     0.041 C 
ATOM      8  O   UNL     1      28.437  11.925  28.977  1.00  0.00    -0.550 OA
ATOM      9  O   UNL     1      28.750  10.988  26.909  1.00  0.00    -0.550 OA
ENDBRANCH   6   7
ENDBRANCH   5   6
ENDBRANCH   4   5
ENDBRANCH   3   4
ENDBRANCH   2   3
ENDBRANCH   1   2
BRANCH   1  10
ATOM     10  C   UNL     1      32.309   8.221  31.884  1.00  0.00     0.027 C 
BRANCH  10  11
ATOM     11  C   UNL     1      32.640   9.664  31.587  1.00  0.00    -0.031 C 
ATOM     12  C   UNL     1      33.629  10.071  30.770  1.00  0.00    -0.031 C 
BRANCH  12  13
ATOM     13  C   UNL     1      34.495   9.147  29.946  1.00  0.00     0.027 C 
BRANCH  13  14
ATOM     14  C   UNL     1      35.979   9.251  30.346  1.00  0.00     0.004 C 
BRANCH  14  15
ATOM     15  C   UNL     1      36.605   7.890  30.710  1.00  0.00     0.000 C 
BRANCH  15  16
ATOM     16  C   UNL     1      35.721   7.049  31.660  1.00  0.00    -0.000 C 
BRANCH  16  17
ATOM     17  C   UNL     1      35.666   7.603  33.095  1.00  0.00    -0.003 C 
ATOM     18  C   UNL     1      35.278   6.544  34.125  1.00  0.00     0.004 C 
ENDBRANCH  16  17
ENDBRANCH  15  16
ENDBRANCH  14  15
ENDBRANCH  13  14
ENDBRANCH  12  13
ENDBRANCH  10  11
ENDBRANCH   1  10
TORSDOF 13
ENDMDL
MODEL 3
REMARK VINA RESULT:    -4.027      3.385      5.277
REMARK INTER + INTRA:          -9.400
REMARK INTER:                  -6.910
REMARK INTRA:                  -2.490
REMARK UNBOUND:                -2.312
REMARK SMILES CCCCCCC=CCCCCCCCC(=O)[O-]
REMARK SMILES IDX 10 1 11 2 12 3 13 4 14 5 15 6 16 7 17 8 18 9 9 10 8 11 7 12
REMARK SMILES IDX 6 13 5 14 4 15 3 16 2 17 1 18
REMARK H PARENT
REMARK Flexibility Score: inf
ROOT
ATOM      1  C   UNL     1      29.866  10.422  31.849  1.00  0.00     0.004 C 
ENDROOT
BRANCH   1   2
ATOM      2  C   UNL     1      31.378  10.336  32.118  1.00  0.00     0.000 C 
BRANCH   2   3
ATOM      3  C   UNL     1      32.209  11.114  31.083  1.00  0.00     0.000 C 
BRANCH   3   4
ATOM      4  C   UNL     1      33.498  10.372  30.687  1.00  0.00     0.000 C 
BRANCH   4   5
ATOM      5  C   UNL     1      33.783   9.162  31.592  1.00  0.00     0.006 C 
BRANCH   5   6
ATOM      6  C   UNL     1      34.694   8.123  30.923  1.00  0.00     0.053 C 
BRANCH   6   7
ATOM      7  C   UNL     1      35.364   7.274  31.958  1.00  0.00     0.041 C 
ATOM      8  O   UNL     1      34.714   6.857  32.953  1.00  0.00    -0.550 OA
ATOM      9  O   UNL     1      36.693   6.901  31.796  1.00  0.00    -0.550 OA
ENDBRANCH   6   7
ENDBRANCH   5   6
ENDBRANCH   4   5
ENDBRANCH   3   4
ENDBRANCH   2   3
ENDBRANCH   1   2
BRANCH   1  10
ATOM     10  C   UNL     1      29.475  11.750  31.183  1.00  0.00     0.027 C 
BRANCH  10  11
ATOM     11  C   UNL     1      28.303  11.582  30.245  1.00  0.00    -0.031 C 
ATOM     12  C   UNL     1      28.407  11.381  28.918  1.00  0.00    -0.031 C 
BRANCH  12  13
ATOM     13  C   UNL     1      29.710  11.193  28.178  1.00  0.00     0.027 C 
BRANCH  13  14
ATOM     14  C   UNL     1      29.896   9.737  27.712  1.00  0.00     0.004 C 
BRANCH  14  15
ATOM     15  C   UNL     1      31.370   9.287  27.706  1.00  0.00     0.000 C 
BRANCH  15  16
ATOM     16  C   UNL     1      31.656   8.129  28.690  1.00  0.00    -0.000 C 
BRANCH  16  17
ATOM     17  C   UNL     1      30.397   7.612  29.409  1.00  0.00    -0.003 C 
ATOM     18  C   UNL     1      30.720   6.819  30.674  1.00  0.00     0.004 C 
ENDBRANCH  16  17
ENDBRANCH  15  16
ENDBRANCH  14  15
ENDBRANCH  13  14
ENDBRANCH  12  13
ENDBRANCH  10  11
ENDBRANCH   1  10
TORSDOF 13
ENDMDL
MODEL 4
REMARK VINA RESULT:    -4.009      3.087      5.526
REMARK INTER + INTRA:          -9.368
REMARK INTER:                  -6.907
REMARK INTRA:                  -2.461
REMARK UNBOUND:                -2.312
REMARK SMILES CCCCCCC=CCCCCCCCC(=O)[O-]
REMARK SMILES IDX 10 1 11 2 12 3 13 4 14 5 15 6 16 7 17 8 18 9 9 10 8 11 7 12
REMARK SMILES IDX 6 13 5 14 4 15 3 16 2 17 1 18
REMARK H PARENT
REMARK Flexibility Score: inf
ROOT
ATOM      1  C   UNL     1      30.990   6.707  30.940  1.00  0.00     0.004 C 
ENDROOT
BRANCH   1   2
ATOM      2  C   UNL     1      30.291   7.618  29.916  1.00  0.00     0.000 C 
BRANCH   2   3
ATOM      3  C   UNL     1      31.178   7.929  28.698  1.00  0.00     0.000 C 
BRANCH   3   4
ATOM      4  C   UNL     1      32.179   9.065  28.975  1.00  0.00     0.000 C 
BRANCH   4   5
ATOM      5  C   UNL     1      33.621   8.554  29.135  1.00  0.00     0.006 C 
BRANCH   5   6
ATOM      6  C   UNL     1      34.478   9.467  30.023  1.00  0.00     0.053 C 
BRANCH   6   7
ATOM      7  C   UNL     1      35.794   8.820  30.319  1.00  0.00     0.041 C 
ATOM      8  O   UNL     1      35.834   7.660  30.809  1.00  0.00    -0.550 OA
ATOM      9  O   UNL     1      36.978   9.476  30.006  1.00  0.00    -0.550 OA
ENDBRANCH   6   7
ENDBRANCH   5   6
ENDBRANCH   4   5
ENDBRANCH   3   4
ENDBRANCH   2   3
ENDBRANCH   1   2
BRANCH   1  10
ATOM     10  C   UNL     1      30.985   7.316  32.350  1.00  0.00     0.027 C 
BRANCH  10  11
ATOM     11  C   UNL     1      32.227   8.133  32.611  1.00  0.00    -0.031 C 
ATOM     12  C   UNL     1      32.241   9.464  32.808  1.00  0.00    -0.031 C 
BRANCH  12  13
ATOM     13  C   UNL     1      31.008  10.332  32.896  1.00  0.00     0.027 C 
BRANCH  13  14
ATOM     14  C   UNL     1      30.677  10.991  31.545  1.00  0.00     0.004 C 
BRANCH  14  15
ATOM     15  C   UNL     1      29.175  11.285  31.366  1.00  0.00     0.000 C 
BRANCH  15  16
ATOM     16  C   UNL     1      28.642  10.898  29.967  1.00  0.00    -0.000 C 
BRANCH  16  17
ATOM     17  C   UNL     1      29.396  11.584  28.814  1.00  0.00    -0.003 C 
ATOM     18  C   UNL     1      29.127  10.933  27.459  1.00  0.00     0.004 C 
ENDBRANCH  16  17
ENDBRANCH  15  16
ENDBRANCH  14  15
ENDBRANCH  13  14
ENDBRANCH  12  13
ENDBRANCH  10  11
ENDBRANCH   1  10
TORSDOF 13
ENDMDL
MODEL 5
REMARK VINA RESULT:    -3.998      1.467      2.996
REMARK INTER + INTRA:          -9.348
REMARK INTER:                  -6.743
REMARK INTRA:                  -2.604
REMARK UNBOUND:                -2.312
REMARK SMILES CCCCCCC=CCCCCCCCC(=O)[O-]
REMARK SMILES IDX 10 1 11 2 12 3 13 4 14 5 15 6 16 7 17 8 18 9 9 10 8 11 7 12
REMARK SMILES IDX 6 13 5 14 4 15 3 16 2 17 1 18
REMARK H PARENT
REMARK Flexibility Score: inf
ROOT
ATOM      1  C   UNL     1      30.747   6.601  30.950  1.00  0.00     0.004 C 
ENDROOT
BRANCH   1   2
ATOM      2  C   UNL     1      30.013   7.553  29.990  1.00  0.00     0.000 C 
BRANCH   2   3
ATOM      3  C   UNL     1      30.784   7.782  28.678  1.00  0.00     0.000 C 
BRANCH   3   4
ATOM      4  C   UNL     1      30.526   9.177  28.081  1.00  0.00     0.000 C 
BRANCH   4   5
ATOM      5  C   UNL     1      29.850  10.130  29.081  1.00  0.00     0.006 C 
BRANCH   5   6
ATOM      6  C   UNL     1      30.281  11.591  28.890  1.00  0.00     0.053 C 
BRANCH   6   7
ATOM      7  C   UNL     1      30.091  12.361  30.159  1.00  0.00     0.041 C 
ATOM      8  O   UNL     1      31.064  12.963  30.686  1.00  0.00    -0.550 OA
ATOM      9  O   UNL     1      28.829  12.456  30.733  1.00  0.00    -0.550 OA
ENDBRANCH   6   7
ENDBRANCH   5   6
ENDBRANCH   4   5
ENDBRANCH   3   4
ENDBRANCH   2   3
ENDBRANCH   1   2
BRANCH   1  10
ATOM     10  C   UNL     1      31.660   7.358  31.925  1.00  0.00     0.027 C 
BRANCH  10  11
ATOM     11  C   UNL     1      31.082   8.699  32.306  1.00  0.00    -0.031 C 
ATOM     12  C   UNL     1      31.777   9.852  32.336  1.00  0.00    -0.031 C 
BRANCH  12  13
ATOM     13  C   UNL     1      33.215   9.999  31.898  1.00  0.00     0.027 C 
BRANCH  13  14
ATOM     14  C   UNL     1      33.344  10.019  30.364  1.00  0.00     0.004 C 
BRANCH  14  15
ATOM     15  C   UNL     1      34.292   8.931  29.821  1.00  0.00     0.000 C 
BRANCH  15  16
ATOM     16  C   UNL     1      35.515   8.679  30.733  1.00  0.00    -0.000 C 
BRANCH  16  17
ATOM     17  C   UNL     1      35.621   7.226  31.227  1.00  0.00    -0.003 C 
ATOM     18  C   UNL     1      35.317   7.081  32.717  1.00  0.00     0.004 C 
ENDBRANCH  16  17
ENDBRANCH  15  16
ENDBRANCH  14  15
ENDBRANCH  13  14
ENDBRANCH  12  13
ENDBRANCH  10  11
ENDBRANCH   1  10
TORSDOF 13
ENDMDL
MODEL 6
REMARK VINA RESULT:    -3.974      3.495      5.357
REMARK INTER + INTRA:          -9.306
REMARK INTER:                  -6.721
REMARK INTRA:                  -2.584
REMARK UNBOUND:                -2.312
REMARK SMILES CCCCCCC=CCCCCCCCC(=O)[O-]
REMARK SMILES IDX 10 1 11 2 12 3 13 4 14 5 15 6 16 7 17 8 18 9 9 10 8 11 7 12
REMARK SMILES IDX 6 13 5 14 4 15 3 16 2 17 1 18
REMARK H PARENT
REMARK Flexibility Score: inf
ROOT
ATOM      1  C   UNL     1      31.124   7.992  32.038  1.00  0.00     0.004 C 
ENDROOT
BRANCH   1   2
ATOM      2  C   UNL     1      32.587   8.449  32.172  1.00  0.00     0.000 C 
BRANCH   2   3
ATOM      3  C   UNL     1      32.874   9.750  31.403  1.00  0.00     0.000 C 
BRANCH   3   4
ATOM      4  C   UNL     1      34.229   9.715  30.674  1.00  0.00     0.000 C 
BRANCH   4   5
ATOM      5  C   UNL     1      34.669   8.285  30.318  1.00  0.00     0.006 C 
BRANCH   5   6
ATOM      6  C   UNL     1      36.140   8.015  30.665  1.00  0.00     0.053 C 
BRANCH   6   7
ATOM      7  C   UNL     1      36.308   7.861  32.144  1.00  0.00     0.041 C 
ATOM      8  O   UNL     1      37.051   8.653  32.782  1.00  0.00    -0.550 OA
ATOM      9  O   UNL     1      35.604   6.876  32.825  1.00  0.00    -0.550 OA
ENDBRANCH   6   7
ENDBRANCH   5   6
ENDBRANCH   4   5
ENDBRANCH   3   4
ENDBRANCH   2   3
ENDBRANCH   1   2
BRANCH   1  10
ATOM     10  C   UNL     1      30.993   6.727  31.178  1.00  0.00     0.027 C 
BRANCH  10  11
ATOM     11  C   UNL     1      29.977   6.903  30.075  1.00  0.00    -0.031 C 
ATOM     12  C   UNL     1      30.238   7.445  28.871  1.00  0.00    -0.031 C 
BRANCH  12  13
ATOM     13  C   UNL     1      31.609   7.869  28.401  1.00  0.00     0.027 C 
BRANCH  13  14
ATOM     14  C   UNL     1      31.626   9.339  27.945  1.00  0.00     0.004 C 
BRANCH  14  15
ATOM     15  C   UNL     1      30.250  10.024  28.058  1.00  0.00     0.000 C 
BRANCH  15  16
ATOM     16  C   UNL     1      30.193  11.097  29.170  1.00  0.00    -0.000 C 
BRANCH  16  17
ATOM     17  C   UNL     1      29.048  10.877  30.174  1.00  0.00    -0.003 C 
ATOM     18  C   UNL     1      29.434  11.249  31.605  1.00  0.00     0.004 C 
ENDBRANCH  16  17
ENDBRANCH  15  16
ENDBRANCH  14  15
ENDBRANCH  13  14
ENDBRANCH  12  13
ENDBRANCH  10  11
ENDBRANCH   1  10
TORSDOF 13
ENDMDL
MODEL 7
REMARK VINA RESULT:    -3.964      3.271      5.740
REMARK INTER + INTRA:          -9.288
REMARK INTER:                  -6.827
REMARK INTRA:                  -2.462
REMARK UNBOUND:                -2.312
REMARK SMILES CCCCCCC=CCCCCCCCC(=O)[O-]
REMARK SMILES IDX 10 1 11 2 12 3 13 4 14 5 15 6 16 7 17 8 18 9 9 10 8 11 7 12
REMARK SMILES IDX 6 13 5 14 4 15 3 16 2 17 1 18
REMARK H PARENT
REMARK Flexibility Score: inf
ROOT
ATOM      1  C   UNL     1      30.291   7.225  28.862  1.00  0.00     0.004 C 
ENDROOT
BRANCH   1   2
ATOM      2  C   UNL     1      30.969   8.520  28.380  1.00  0.00     0.000 C 
BRANCH   2   3
ATOM      3  C   UNL     1      32.501   8.395  28.307  1.00  0.00     0.000 C 
BRANCH   3   4
ATOM      4  C   UNL     1      33.206   9.137  29.456  1.00  0.00     0.000 C 
BRANCH   4   5
ATOM      5  C   UNL     1      34.447   8.388  29.968  1.00  0.00     0.006 C 
BRANCH   5   6
ATOM      6  C   UNL     1      34.657   8.551  31.480  1.00  0.00     0.053 C 
BRANCH   6   7
ATOM      7  C   UNL     1      35.331   7.341  32.047  1.00  0.00     0.041 C 
ATOM      8  O   UNL     1      36.365   6.877  31.498  1.00  0.00    -0.550 OA
ATOM      9  O   UNL     1      34.847   6.757  33.210  1.00  0.00    -0.550 OA
ENDBRANCH   6   7
ENDBRANCH   5   6
ENDBRANCH   4   5
ENDBRANCH   3   4
ENDBRANCH   2   3
ENDBRANCH   1   2
BRANCH   1  10
ATOM     10  C   UNL     1      29.929   7.287  30.353  1.00  0.00     0.027 C 
BRANCH  10  11
ATOM     11  C   UNL     1      31.027   6.719  31.219  1.00  0.00    -0.031 C 
ATOM     12  C   UNL     1      31.428   7.244  32.392  1.00  0.00    -0.031 C 
BRANCH  12  13
ATOM     13  C   UNL     1      30.773   8.424  33.072  1.00  0.00     0.027 C 
BRANCH  13  14
ATOM     14  C   UNL     1      31.387   9.759  32.610  1.00  0.00     0.004 C 
BRANCH  14  15
ATOM     15  C   UNL     1      30.329  10.821  32.253  1.00  0.00     0.000 C 
BRANCH  15  16
ATOM     16  C   UNL     1      30.147  11.010  30.729  1.00  0.00    -0.000 C 
BRANCH  16  17
ATOM     17  C   UNL     1      28.687  10.862  30.264  1.00  0.00    -0.003 C 
ATOM     18  C   UNL     1      28.475  11.316  28.821  1.00  0.00     0.004 C 
ENDBRANCH  16  17
ENDBRANCH  15  16
ENDBRANCH  14  15
ENDBRANCH  13  14
ENDBRANCH  12  13
ENDBRANCH  10  11
ENDBRANCH   1  10
TORSDOF 13
ENDMDL
MODEL 8
REMARK VINA RESULT:    -3.879      1.287      3.271
REMARK INTER + INTRA:          -9.138
REMARK INTER:                  -7.084
REMARK INTRA:                  -2.055
REMARK UNBOUND:                -2.312
REMARK SMILES CCCCCCC=CCCCCCCCC(=O)[O-]
REMARK SMILES IDX 10 1 11 2 12 3 13 4 14 5 15 6 16 7 17 8 18 9 9 10 8 11 7 12
REMARK SMILES IDX 6 13 5 14 4 15 3 16 2 17 1 18
REMARK H PARENT
REMARK Flexibility Score: inf
ROOT
ATOM      1  C   UNL     1      33.227   8.619  31.726  1.00  0.00     0.004 C 
ENDROOT
BRANCH   1   2
ATOM      2  C   UNL     1      32.766   9.503  32.898  1.00  0.00     0.000 C 
BRANCH   2   3
ATOM      3  C   UNL     1      31.235   9.632  32.976  1.00  0.00     0.000 C 
BRANCH   3   4
ATOM      4  C   UNL     1      30.757  11.085  32.804  1.00  0.00     0.000 C 
BRANCH   4   5
ATOM      5  C   UNL     1      29.481  11.189  31.954  1.00  0.00     0.006 C 
BRANCH   5   6
ATOM      6  C   UNL     1      29.771  11.555  30.492  1.00  0.00     0.053 C 
BRANCH   6   7
ATOM      7  C   UNL     1      28.493  11.687  29.723  1.00  0.00     0.041 C 
ATOM      8  O   UNL     1      28.501  11.623  28.465  1.00  0.00    -0.550 OA
ATOM      9  O   UNL     1      27.287  11.828  30.398  1.00  0.00    -0.550 OA
ENDBRANCH   6   7
ENDBRANCH   5   6
ENDBRANCH   4   5
ENDBRANCH   3   4
ENDBRANCH   2   3
ENDBRANCH   1   2
BRANCH   1  10
ATOM     10  C   UNL     1      33.566   9.448  30.479  1.00  0.00     0.027 C 
BRANCH  10  11
ATOM     11  C   UNL     1      33.719   8.579  29.254  1.00  0.00    -0.031 C 
ATOM     12  C   UNL     1      32.778   8.422  28.304  1.00  0.00    -0.031 C 
BRANCH  12  13
ATOM     13  C   UNL     1      31.465   9.169  28.264  1.00  0.00     0.027 C 
BRANCH  13  14
ATOM     14  C   UNL     1      30.270   8.235  28.532  1.00  0.00     0.004 C 
BRANCH  14  15
ATOM     15  C   UNL     1      30.070   7.921  30.028  1.00  0.00     0.000 C 
BRANCH  15  16
ATOM     16  C   UNL     1      30.272   6.427  30.368  1.00  0.00    -0.000 C 
BRANCH  16  17
ATOM     17  C   UNL     1      29.547   5.476  29.399  1.00  0.00    -0.003 C 
ATOM     18  C   UNL     1      29.265   4.105  30.012  1.00  0.00     0.004 C 
ENDBRANCH  16  17
ENDBRANCH  15  16
ENDBRANCH  14  15
ENDBRANCH  13  14
ENDBRANCH  12  13
ENDBRANCH  10  11
ENDBRANCH   1  10
TORSDOF 13
ENDMDL
MODEL 9
REMARK VINA RESULT:    -3.865      1.538      3.454
REMARK INTER + INTRA:          -9.113
REMARK INTER:                  -7.014
REMARK INTRA:                  -2.099
REMARK UNBOUND:                -2.312
REMARK SMILES CCCCCCC=CCCCCCCCC(=O)[O-]
REMARK SMILES IDX 10 1 11 2 12 3 13 4 14 5 15 6 16 7 17 8 18 9 9 10 8 11 7 12
REMARK SMILES IDX 6 13 5 14 4 15 3 16 2 17 1 18
REMARK H PARENT
REMARK Flexibility Score: inf
ROOT
ATOM      1  C   UNL     1      31.020   7.410  32.359  1.00  0.00     0.004 C 
ENDROOT
BRANCH   1   2
ATOM      2  C   UNL     1      31.263   7.042  30.885  1.00  0.00     0.000 C 
BRANCH   2   3
ATOM      3  C   UNL     1      30.254   7.709  29.934  1.00  0.00     0.000 C 
BRANCH   3   4
ATOM      4  C   UNL     1      30.795   7.838  28.499  1.00  0.00     0.000 C 
BRANCH   4   5
ATOM      5  C   UNL     1      30.659   9.265  27.945  1.00  0.00     0.006 C 
BRANCH   5   6
ATOM      6  C   UNL     1      30.035  10.237  28.957  1.00  0.00     0.053 C 
BRANCH   6   7
ATOM      7  C   UNL     1      29.083  11.165  28.270  1.00  0.00     0.041 C 
ATOM      8  O   UNL     1      28.928  11.104  27.021  1.00  0.00    -0.550 OA
ATOM      9  O   UNL     1      28.328  12.062  29.015  1.00  0.00    -0.550 OA
ENDBRANCH   6   7
ENDBRANCH   5   6
ENDBRANCH   4   5
ENDBRANCH   3   4
ENDBRANCH   2   3
ENDBRANCH   1   2
BRANCH   1  10
ATOM     10  C   UNL     1      32.198   7.001  33.256  1.00  0.00     0.027 C 
BRANCH  10  11
ATOM     11  C   UNL     1      33.098   8.173  33.567  1.00  0.00    -0.031 C 
ATOM     12  C   UNL     1      34.443   8.139  33.524  1.00  0.00    -0.031 C 
BRANCH  12  13
ATOM     13  C   UNL     1      35.257   6.954  33.061  1.00  0.00     0.027 C 
BRANCH  13  14
ATOM     14  C   UNL     1      35.470   6.970  31.536  1.00  0.00     0.004 C 
BRANCH  14  15
ATOM     15  C   UNL     1      36.472   8.047  31.076  1.00  0.00     0.000 C 
BRANCH  15  16
ATOM     16  C   UNL     1      35.812   9.183  30.261  1.00  0.00    -0.000 C 
BRANCH  16  17
ATOM     17  C   UNL     1      34.338   8.909  29.913  1.00  0.00    -0.003 C 
ATOM     18  C   UNL     1      33.398  10.009  30.403  1.00  0.00     0.004 C 
ENDBRANCH  16  17
ENDBRANCH  15  16
ENDBRANCH  14  15
ENDBRANCH  13  14
ENDBRANCH  12  13
ENDBRANCH  10  11
ENDBRANCH   1  10
TORSDOF 13
ENDMDL
