MODEL 1
REMARK VINA RESULT:    -3.604      0.000      0.000
REMARK INTER + INTRA:          -4.696
REMARK INTER:                  -4.447
REMARK INTRA:                  -0.249
REMARK UNBOUND:                -0.249
REMARK SMILES CCCCCC(=O)[O-]
REMARK SMILES IDX 4 1 5 2 6 3 7 4 8 5 3 6 2 7 1 8
REMARK H PARENT
REMARK Flexibility Score: inf
ROOT
ATOM      1  C   UNL     1      59.791  29.660  11.374  1.00  0.00     0.006 C 
ENDROOT
BRANCH   1   2
ATOM      2  C   UNL     1      60.025  29.525   9.863  1.00  0.00     0.053 C 
BRANCH   2   3
ATOM      3  C   UNL     1      60.977  28.407   9.580  1.00  0.00     0.041 C 
ATOM      4  O   UNL     1      60.598  27.406   8.916  1.00  0.00    -0.550 OA
ATOM      5  O   UNL     1      62.268  28.446  10.090  1.00  0.00    -0.550 OA
ENDBRANCH   2   3
ENDBRANCH   1   2
BRANCH   1   6
ATOM      6  C   UNL     1      59.148  28.407  11.994  1.00  0.00     0.000 C 
BRANCH   6   7
ATOM      7  C   UNL     1      59.856  27.872  13.253  1.00  0.00    -0.003 C 
ATOM      8  C   UNL     1      61.285  28.393  13.402  1.00  0.00     0.004 C 
ENDBRANCH   6   7
ENDBRANCH   1   6
TORSDOF 4
ENDMDL
MODEL 2
REMARK VINA RESULT:    -3.583      1.347      2.167
REMARK INTER + INTRA:          -4.670
REMARK INTER:                  -4.426
REMARK INTRA:                  -0.244
REMARK UNBOUND:                -0.249
REMARK SMILES CCCCCC(=O)[O-]
REMARK SMILES IDX 4 1 5 2 6 3 7 4 8 5 3 6 2 7 1 8
REMARK H PARENT
REMARK Flexibility Score: inf
ROOT
ATOM      1  C   UNL     1      62.261  29.430  11.741  1.00  0.00     0.006 C 
ENDROOT
BRANCH   1   2
ATOM      2  C   UNL     1      62.341  28.669  10.410  1.00  0.00     0.053 C 
BRANCH   2   3
ATOM      3  C   UNL     1      60.992  28.596   9.769  1.00  0.00     0.041 C 
ATOM      4  O   UNL     1      60.154  29.520   9.949  1.00  0.00    -0.550 OA
ATOM      5  O   UNL     1      60.639  27.485   9.014  1.00  0.00    -0.550 OA
ENDBRANCH   2   3
ENDBRANCH   1   2
BRANCH   1   6
ATOM      6  C   UNL     1      62.097  28.498  12.955  1.00  0.00     0.000 C 
BRANCH   6   7
ATOM      7  C   UNL     1      60.748  28.619  13.685  1.00  0.00    -0.003 C 
ATOM      8  C   UNL     1      59.676  27.690  13.117  1.00  0.00     0.004 C 
ENDBRANCH   6   7
ENDBRANCH   1   6
TORSDOF 4
ENDMDL
MODEL 3
REMARK VINA RESULT:    -3.536     14.885     16.245
REMARK INTER + INTRA:          -4.612
REMARK INTER:                  -4.362
REMARK INTRA:                  -0.250
REMARK UNBOUND:                -0.249
REMARK SMILES CCCCCC(=O)[O-]
REMARK SMILES IDX 4 1 5 2 6 3 7 4 8 5 3 6 2 7 1 8
REMARK H PARENT
REMARK Flexibility Score: inf
ROOT
ATOM      1  C   UNL     1      62.612  29.314  26.324  1.00  0.00     0.006 C 
ENDROOT
BRANCH   1   2
ATOM      2  C   UNL     1      62.096  29.780  27.692  1.00  0.00     0.053 C 
BRANCH   2   3
ATOM      3  C   UNL     1      61.428  28.652  28.411  1.00  0.00     0.041 C 
ATOM      4  O   UNL     1      60.352  28.848  29.035  1.00  0.00    -0.550 OA
ATOM      5  O   UNL     1      62.018  27.394  28.433  1.00  0.00    -0.550 OA
ENDBRANCH   2   3
ENDBRANCH   1   2
BRANCH   1   6
ATOM      6  C   UNL     1      61.526  29.341  25.233  1.00  0.00     0.000 C 
BRANCH   6   7
ATOM      7  C   UNL     1      61.171  27.966  24.639  1.00  0.00    -0.003 C 
ATOM      8  C   UNL     1      59.967  27.315  25.318  1.00  0.00     0.004 C 
ENDBRANCH   6   7
ENDBRANCH   1   6
TORSDOF 4
ENDMDL
MODEL 4
REMARK VINA RESULT:    -3.499      1.445      1.841
REMARK INTER + INTRA:          -4.566
REMARK INTER:                  -4.363
REMARK INTRA:                  -0.203
REMARK UNBOUND:                -0.249
REMARK SMILES CCCCCC(=O)[O-]
REMARK SMILES IDX 4 1 5 2 6 3 7 4 8 5 3 6 2 7 1 8
REMARK H PARENT
REMARK Flexibility Score: inf
ROOT
ATOM      1  C   UNL     1      60.533  29.373  10.888  1.00  0.00     0.006 C 
ENDROOT
BRANCH   1   2
ATOM      2  C   UNL     1      61.357  28.401  10.033  1.00  0.00     0.053 C 
BRANCH   2   3
ATOM      3  C   UNL     1      62.815  28.714  10.145  1.00  0.00     0.041 C 
ATOM      4  O   UNL     1      63.276  29.212  11.207  1.00  0.00    -0.550 OA
ATOM      5  O   UNL     1      63.657  28.505   9.061  1.00  0.00    -0.550 OA
ENDBRANCH   2   3
ENDBRANCH   1   2
BRANCH   1   6
ATOM      6  C   UNL     1      59.397  28.677  11.660  1.00  0.00     0.000 C 
BRANCH   6   7
ATOM      7  C   UNL     1      59.850  27.880  12.897  1.00  0.00    -0.003 C 
ATOM      8  C   UNL     1      60.869  28.631  13.752  1.00  0.00     0.004 C 
ENDBRANCH   6   7
ENDBRANCH   1   6
TORSDOF 4
ENDMDL
MODEL 5
REMARK VINA RESULT:    -3.495      2.387      3.459
REMARK INTER + INTRA:          -4.562
REMARK INTER:                  -4.402
REMARK INTRA:                  -0.160
REMARK UNBOUND:                -0.249
REMARK SMILES CCCCCC(=O)[O-]
REMARK SMILES IDX 4 1 5 2 6 3 7 4 8 5 3 6 2 7 1 8
REMARK H PARENT
REMARK Flexibility Score: inf
ROOT
ATOM      1  C   UNL     1      59.533  28.823  10.198  1.00  0.00     0.006 C 
ENDROOT
BRANCH   1   2
ATOM      2  C   UNL     1      59.520  29.343  11.642  1.00  0.00     0.053 C 
BRANCH   2   3
ATOM      3  C   UNL     1      59.223  28.230  12.595  1.00  0.00     0.041 C 
ATOM      4  O   UNL     1      58.049  27.784  12.702  1.00  0.00    -0.550 OA
ATOM      5  O   UNL     1      60.231  27.716  13.402  1.00  0.00    -0.550 OA
ENDBRANCH   2   3
ENDBRANCH   1   2
BRANCH   1   6
ATOM      6  C   UNL     1      60.811  28.038   9.855  1.00  0.00     0.000 C 
BRANCH   6   7
ATOM      7  C   UNL     1      62.111  28.640  10.417  1.00  0.00    -0.003 C 
ATOM      8  C   UNL     1      63.222  28.742   9.373  1.00  0.00     0.004 C 
ENDBRANCH   6   7
ENDBRANCH   1   6
TORSDOF 4
ENDMDL
MODEL 6
REMARK VINA RESULT:    -3.490     14.808     16.277
REMARK INTER + INTRA:          -4.556
REMARK INTER:                  -4.322
REMARK INTRA:                  -0.234
REMARK UNBOUND:                -0.249
REMARK SMILES CCCCCC(=O)[O-]
REMARK SMILES IDX 4 1 5 2 6 3 7 4 8 5 3 6 2 7 1 8
REMARK H PARENT
REMARK Flexibility Score: inf
ROOT
ATOM      1  C   UNL     1      60.846  26.903  26.881  1.00  0.00     0.006 C 
ENDROOT
BRANCH   1   2
ATOM      2  C   UNL     1      61.883  27.592  27.777  1.00  0.00     0.053 C 
BRANCH   2   3
ATOM      3  C   UNL     1      61.301  28.821  28.400  1.00  0.00     0.041 C 
ATOM      4  O   UNL     1      60.271  28.738  29.121  1.00  0.00    -0.550 OA
ATOM      5  O   UNL     1      61.865  30.065  28.146  1.00  0.00    -0.550 OA
ENDBRANCH   2   3
ENDBRANCH   1   2
BRANCH   1   6
ATOM      6  C   UNL     1      60.352  27.803  25.734  1.00  0.00     0.000 C 
BRANCH   6   7
ATOM      7  C   UNL     1      61.366  28.012  24.594  1.00  0.00    -0.003 C 
ATOM      8  C   UNL     1      62.015  29.395  24.618  1.00  0.00     0.004 C 
ENDBRANCH   6   7
ENDBRANCH   1   6
TORSDOF 4
ENDMDL
MODEL 7
REMARK VINA RESULT:    -3.473     14.676     16.338
REMARK INTER + INTRA:          -4.535
REMARK INTER:                  -4.312
REMARK INTRA:                  -0.223
REMARK UNBOUND:                -0.249
REMARK SMILES CCCCCC(=O)[O-]
REMARK SMILES IDX 4 1 5 2 6 3 7 4 8 5 3 6 2 7 1 8
REMARK H PARENT
REMARK Flexibility Score: inf
ROOT
ATOM      1  C   UNL     1      61.700  27.615  27.463  1.00  0.00     0.006 C 
ENDROOT
BRANCH   1   2
ATOM      2  C   UNL     1      61.162  28.827  28.236  1.00  0.00     0.053 C 
BRANCH   2   3
ATOM      3  C   UNL     1      62.083  29.995  28.081  1.00  0.00     0.041 C 
ATOM      4  O   UNL     1      62.221  30.822  29.021  1.00  0.00    -0.550 OA
ATOM      5  O   UNL     1      62.751  30.200  26.880  1.00  0.00    -0.550 OA
ENDBRANCH   2   3
ENDBRANCH   1   2
BRANCH   1   6
ATOM      6  C   UNL     1      60.664  27.012  26.498  1.00  0.00     0.000 C 
BRANCH   6   7
ATOM      7  C   UNL     1      60.301  27.905  25.298  1.00  0.00    -0.003 C 
ATOM      8  C   UNL     1      61.473  28.129  24.344  1.00  0.00     0.004 C 
ENDBRANCH   6   7
ENDBRANCH   1   6
TORSDOF 4
ENDMDL
MODEL 8
REMARK VINA RESULT:    -3.403     14.733     16.210
REMARK INTER + INTRA:          -4.449
REMARK INTER:                  -4.245
REMARK INTRA:                  -0.204
REMARK UNBOUND:                -0.249
REMARK SMILES CCCCCC(=O)[O-]
REMARK SMILES IDX 4 1 5 2 6 3 7 4 8 5 3 6 2 7 1 8
REMARK H PARENT
REMARK Flexibility Score: inf
ROOT
ATOM      1  C   UNL     1      60.770  27.116  28.276  1.00  0.00     0.006 C 
ENDROOT
BRANCH   1   2
ATOM      2  C   UNL     1      61.359  26.788  26.897  1.00  0.00     0.053 C 
BRANCH   2   3
ATOM      3  C   UNL     1      60.373  27.106  25.819  1.00  0.00     0.041 C 
ATOM      4  O   UNL     1      59.389  26.347  25.617  1.00  0.00    -0.550 OA
ATOM      5  O   UNL     1      60.567  28.215  25.004  1.00  0.00    -0.550 OA
ENDBRANCH   2   3
ENDBRANCH   1   2
BRANCH   1   6
ATOM      6  C   UNL     1      60.694  28.628  28.551  1.00  0.00     0.000 C 
BRANCH   6   7
ATOM      7  C   UNL     1      62.045  29.299  28.857  1.00  0.00    -0.003 C 
ATOM      8  C   UNL     1      62.536  30.199  27.724  1.00  0.00     0.004 C 
ENDBRANCH   6   7
ENDBRANCH   1   6
TORSDOF 4
ENDMDL
MODEL 9
REMARK VINA RESULT:    -3.393      2.816      3.764
REMARK INTER + INTRA:          -4.435
REMARK INTER:                  -4.195
REMARK INTRA:                  -0.241
REMARK UNBOUND:                -0.249
REMARK SMILES CCCCCC(=O)[O-]
REMARK SMILES IDX 4 1 5 2 6 3 7 4 8 5 3 6 2 7 1 8
REMARK H PARENT
REMARK Flexibility Score: inf
ROOT
ATOM      1  C   UNL     1      61.167  29.487  13.401  1.00  0.00     0.006 C 
ENDROOT
BRANCH   1   2
ATOM      2  C   UNL     1      60.423  28.152  13.262  1.00  0.00     0.053 C 
BRANCH   2   3
ATOM      3  C   UNL     1      59.159  28.338  12.486  1.00  0.00     0.041 C 
ATOM      4  O   UNL     1      59.119  29.152  11.525  1.00  0.00    -0.550 OA
ATOM      5  O   UNL     1      58.009  27.649  12.852  1.00  0.00    -0.550 OA
ENDBRANCH   2   3
ENDBRANCH   1   2
BRANCH   1   6
ATOM      6  C   UNL     1      60.713  30.303  14.624  1.00  0.00     0.000 C 
BRANCH   6   7
ATOM      7  C   UNL     1      59.872  31.550  14.294  1.00  0.00    -0.003 C 
ATOM      8  C   UNL     1      60.319  32.250  13.012  1.00  0.00     0.004 C 
ENDBRANCH   6   7
ENDBRANCH   1   6
TORSDOF 4
ENDMDL
