MODEL 1
REMARK VINA RESULT:    -4.595      0.000      0.000
REMARK INTER + INTRA:          -6.486
REMARK INTER:                  -6.207
REMARK INTRA:                  -0.279
REMARK UNBOUND:                -0.279
REMARK SMILES O=C[C@H](O)[C@H](O)[C@@H](O)CO
REMARK SMILES IDX 7 1 9 2 10 3 5 5 3 6 2 7 1 8 4 9 6 11 8 13
REMARK H PARENT 10 4 4 10 6 12 8 14
REMARK Flexibility Score: inf
ROOT
ATOM      1  C   UNL     1       2.887   4.378  38.245  1.00  0.00     0.171 C 
ENDROOT
BRANCH   1   2
ATOM      2  C   UNL     1       3.254   3.629  36.952  1.00  0.00     0.190 C 
BRANCH   2   3
ATOM      3  O   UNL     1       4.607   3.824  36.638  1.00  0.00    -0.394 OA
ATOM      4  H   UNL     1       4.673   4.709  36.192  1.00  0.00     0.210 HD
ENDBRANCH   2   3
ENDBRANCH   1   2
BRANCH   1   5
ATOM      5  C   UNL     1       2.393   5.814  37.924  1.00  0.00     0.181 C 
BRANCH   5   6
ATOM      6  C   UNL     1       3.469   6.918  38.123  1.00  0.00     0.209 C 
BRANCH   6   7
ATOM      7  C   UNL     1       3.334   8.043  37.124  1.00  0.00     0.258 C 
ATOM      8  O   UNL     1       4.110   8.985  37.155  1.00  0.00    -0.300 OA
ENDBRANCH   6   7
BRANCH   6   9
ATOM      9  O   UNL     1       4.770   6.384  38.117  1.00  0.00    -0.383 OA
ATOM     10  H   UNL     1       5.385   7.063  38.500  1.00  0.00     0.211 HD
ENDBRANCH   6   9
ENDBRANCH   5   6
BRANCH   5  11
ATOM     11  O   UNL     1       1.231   6.119  38.656  1.00  0.00    -0.387 OA
ATOM     12  H   UNL     1       1.052   5.363  39.275  1.00  0.00     0.211 HD
ENDBRANCH   5  11
ENDBRANCH   1   5
BRANCH   1  13
ATOM     13  O   UNL     1       1.891   3.664  38.933  1.00  0.00    -0.388 OA
ATOM     14  H   UNL     1       2.258   3.439  39.828  1.00  0.00     0.211 HD
ENDBRANCH   1  13
TORSDOF 8
ENDMDL
MODEL 2
REMARK VINA RESULT:    -4.489      0.854      2.404
REMARK INTER + INTRA:          -6.343
REMARK INTER:                  -5.921
REMARK INTRA:                  -0.422
REMARK UNBOUND:                -0.279
REMARK SMILES O=C[C@H](O)[C@H](O)[C@@H](O)CO
REMARK SMILES IDX 7 1 9 2 10 3 5 5 3 6 2 7 1 8 4 9 6 11 8 13
REMARK H PARENT 10 4 4 10 6 12 8 14
REMARK Flexibility Score: inf
ROOT
ATOM      1  C   UNL     1       3.711   4.489  36.678  1.00  0.00     0.171 C 
ENDROOT
BRANCH   1   2
ATOM      2  C   UNL     1       2.980   3.232  37.178  1.00  0.00     0.190 C 
BRANCH   2   3
ATOM      3  O   UNL     1       2.230   3.523  38.327  1.00  0.00    -0.394 OA
ATOM      4  H   UNL     1       1.297   3.680  38.028  1.00  0.00     0.210 HD
ENDBRANCH   2   3
ENDBRANCH   1   2
BRANCH   1   5
ATOM      5  C   UNL     1       3.681   5.605  37.757  1.00  0.00     0.181 C 
BRANCH   5   6
ATOM      6  C   UNL     1       2.562   6.663  37.549  1.00  0.00     0.209 C 
BRANCH   6   7
ATOM      7  C   UNL     1       3.109   8.067  37.435  1.00  0.00     0.258 C 
ATOM      8  O   UNL     1       3.691   8.416  36.420  1.00  0.00    -0.300 OA
ENDBRANCH   6   7
BRANCH   6   9
ATOM      9  O   UNL     1       1.574   6.580  38.547  1.00  0.00    -0.383 OA
ATOM     10  H   UNL     1       1.519   7.461  39.001  1.00  0.00     0.211 HD
ENDBRANCH   6   9
ENDBRANCH   5   6
BRANCH   5  11
ATOM     11  O   UNL     1       4.937   6.229  37.868  1.00  0.00    -0.387 OA
ATOM     12  H   UNL     1       5.516   5.654  38.435  1.00  0.00     0.211 HD
ENDBRANCH   5  11
ENDBRANCH   1   5
BRANCH   1  13
ATOM     13  O   UNL     1       5.040   4.162  36.356  1.00  0.00    -0.388 OA
ATOM     14  H   UNL     1       5.068   3.983  35.380  1.00  0.00     0.211 HD
ENDBRANCH   1  13
TORSDOF 8
ENDMDL
MODEL 3
REMARK VINA RESULT:    -4.448      1.440      1.854
REMARK INTER + INTRA:          -6.287
REMARK INTER:                  -5.700
REMARK INTRA:                  -0.586
REMARK UNBOUND:                -0.279
REMARK SMILES O=C[C@H](O)[C@H](O)[C@@H](O)CO
REMARK SMILES IDX 7 1 9 2 10 3 5 5 3 6 2 7 1 8 4 9 6 11 8 13
REMARK H PARENT 10 4 4 10 6 12 8 14
REMARK Flexibility Score: inf
ROOT
ATOM      1  C   UNL     1       3.235   4.407  37.973  1.00  0.00     0.171 C 
ENDROOT
BRANCH   1   2
ATOM      2  C   UNL     1       3.431   3.096  37.193  1.00  0.00     0.190 C 
BRANCH   2   3
ATOM      3  O   UNL     1       2.192   2.564  36.805  1.00  0.00    -0.394 OA
ATOM      4  H   UNL     1       1.705   3.289  36.333  1.00  0.00     0.210 HD
ENDBRANCH   2   3
ENDBRANCH   1   2
BRANCH   1   5
ATOM      5  C   UNL     1       3.612   5.629  37.093  1.00  0.00     0.181 C 
BRANCH   5   6
ATOM      6  C   UNL     1       2.865   6.939  37.469  1.00  0.00     0.209 C 
BRANCH   6   7
ATOM      7  C   UNL     1       3.544   8.170  36.913  1.00  0.00     0.258 C 
ATOM      8  O   UNL     1       3.577   8.358  35.707  1.00  0.00    -0.300 OA
ENDBRANCH   6   7
BRANCH   6   9
ATOM      9  O   UNL     1       2.670   7.048  38.857  1.00  0.00    -0.383 OA
ATOM     10  H   UNL     1       1.880   7.629  39.013  1.00  0.00     0.211 HD
ENDBRANCH   6   9
ENDBRANCH   5   6
BRANCH   5  11
ATOM     11  O   UNL     1       3.440   5.335  35.728  1.00  0.00    -0.387 OA
ATOM     12  H   UNL     1       2.467   5.223  35.560  1.00  0.00     0.211 HD
ENDBRANCH   5  11
ENDBRANCH   1   5
BRANCH   1  13
ATOM     13  O   UNL     1       1.897   4.506  38.394  1.00  0.00    -0.388 OA
ATOM     14  H   UNL     1       1.704   5.470  38.532  1.00  0.00     0.211 HD
ENDBRANCH   1  13
TORSDOF 8
ENDMDL
MODEL 4
REMARK VINA RESULT:    -4.262      1.109      3.899
REMARK INTER + INTRA:          -6.036
REMARK INTER:                  -5.346
REMARK INTRA:                  -0.690
REMARK UNBOUND:                -0.279
REMARK SMILES O=C[C@H](O)[C@H](O)[C@@H](O)CO
REMARK SMILES IDX 7 1 9 2 10 3 5 5 3 6 2 7 1 8 4 9 6 11 8 13
REMARK H PARENT 10 4 4 10 6 12 8 14
REMARK Flexibility Score: inf
ROOT
ATOM      1  C   UNL     1       2.986   7.245  36.780  1.00  0.00     0.171 C 
ENDROOT
BRANCH   1   2
ATOM      2  C   UNL     1       3.706   8.589  36.572  1.00  0.00     0.190 C 
BRANCH   2   3
ATOM      3  O   UNL     1       4.336   8.998  37.757  1.00  0.00    -0.394 OA
ATOM      4  H   UNL     1       4.671   8.176  38.202  1.00  0.00     0.210 HD
ENDBRANCH   2   3
ENDBRANCH   1   2
BRANCH   1   5
ATOM      5  C   UNL     1       4.005   6.126  37.127  1.00  0.00     0.181 C 
BRANCH   5   6
ATOM      6  C   UNL     1       3.534   4.695  36.746  1.00  0.00     0.209 C 
BRANCH   6   7
ATOM      7  C   UNL     1       2.971   3.940  37.927  1.00  0.00     0.258 C 
ATOM      8  O   UNL     1       2.257   4.513  38.735  1.00  0.00    -0.300 OA
ENDBRANCH   6   7
BRANCH   6   9
ATOM      9  O   UNL     1       4.554   3.963  36.111  1.00  0.00    -0.383 OA
ATOM     10  H   UNL     1       5.119   4.599  35.600  1.00  0.00     0.211 HD
ENDBRANCH   6   9
ENDBRANCH   5   6
BRANCH   5  11
ATOM     11  O   UNL     1       4.368   6.183  38.484  1.00  0.00    -0.387 OA
ATOM     12  H   UNL     1       3.622   6.607  38.984  1.00  0.00     0.211 HD
ENDBRANCH   5  11
ENDBRANCH   1   5
BRANCH   1  13
ATOM     13  O   UNL     1       2.039   7.376  37.810  1.00  0.00    -0.388 OA
ATOM     14  H   UNL     1       2.498   7.146  38.660  1.00  0.00     0.211 HD
ENDBRANCH   1  13
TORSDOF 8
ENDMDL
MODEL 5
REMARK VINA RESULT:    -4.092      1.244      4.149
REMARK INTER + INTRA:          -5.807
REMARK INTER:                  -5.503
REMARK INTRA:                  -0.304
REMARK UNBOUND:                -0.279
REMARK SMILES O=C[C@H](O)[C@H](O)[C@@H](O)CO
REMARK SMILES IDX 7 1 9 2 10 3 5 5 3 6 2 7 1 8 4 9 6 11 8 13
REMARK H PARENT 10 4 4 10 6 12 8 14
REMARK Flexibility Score: inf
ROOT
ATOM      1  C   UNL     1       3.114   7.434  37.203  1.00  0.00     0.171 C 
ENDROOT
BRANCH   1   2
ATOM      2  C   UNL     1       3.217   7.851  35.726  1.00  0.00     0.190 C 
BRANCH   2   3
ATOM      3  O   UNL     1       3.892   9.075  35.607  1.00  0.00    -0.394 OA
ATOM      4  H   UNL     1       4.614   9.072  36.289  1.00  0.00     0.210 HD
ENDBRANCH   2   3
ENDBRANCH   1   2
BRANCH   1   5
ATOM      5  C   UNL     1       3.256   5.895  37.348  1.00  0.00     0.181 C 
BRANCH   5   6
ATOM      6  C   UNL     1       2.511   5.298  38.574  1.00  0.00     0.209 C 
BRANCH   6   7
ATOM      7  C   UNL     1       2.453   3.788  38.536  1.00  0.00     0.258 C 
ATOM      8  O   UNL     1       2.866   3.185  37.558  1.00  0.00    -0.300 OA
ENDBRANCH   6   7
BRANCH   6   9
ATOM      9  O   UNL     1       1.228   5.854  38.725  1.00  0.00    -0.383 OA
ATOM     10  H   UNL     1       1.332   6.820  38.928  1.00  0.00     0.211 HD
ENDBRANCH   6   9
ENDBRANCH   5   6
BRANCH   5  11
ATOM     11  O   UNL     1       4.611   5.516  37.361  1.00  0.00    -0.387 OA
ATOM     12  H   UNL     1       5.013   5.844  38.208  1.00  0.00     0.211 HD
ENDBRANCH   5  11
ENDBRANCH   1   5
BRANCH   1  13
ATOM     13  O   UNL     1       4.113   8.086  37.945  1.00  0.00    -0.388 OA
ATOM     14  H   UNL     1       4.513   7.411  38.555  1.00  0.00     0.211 HD
ENDBRANCH   1  13
TORSDOF 8
ENDMDL
MODEL 6
REMARK VINA RESULT:    -3.976      1.538      2.721
REMARK INTER + INTRA:          -5.650
REMARK INTER:                  -5.368
REMARK INTRA:                  -0.282
REMARK UNBOUND:                -0.279
REMARK SMILES O=C[C@H](O)[C@H](O)[C@@H](O)CO
REMARK SMILES IDX 7 1 9 2 10 3 5 5 3 6 2 7 1 8 4 9 6 11 8 13
REMARK H PARENT 10 4 4 10 6 12 8 14
REMARK Flexibility Score: inf
ROOT
ATOM      1  C   UNL     1       2.586   4.202  37.636  1.00  0.00     0.171 C 
ENDROOT
BRANCH   1   2
ATOM      2  C   UNL     1       2.132   4.274  39.104  1.00  0.00     0.190 C 
BRANCH   2   3
ATOM      3  O   UNL     1       1.094   5.205  39.253  1.00  0.00    -0.394 OA
ATOM      4  H   UNL     1       1.013   5.685  38.388  1.00  0.00     0.210 HD
ENDBRANCH   2   3
ENDBRANCH   1   2
BRANCH   1   5
ATOM      5  C   UNL     1       3.996   4.830  37.469  1.00  0.00     0.181 C 
BRANCH   5   6
ATOM      6  C   UNL     1       3.985   6.286  36.925  1.00  0.00     0.209 C 
BRANCH   6   7
ATOM      7  C   UNL     1       3.471   7.278  37.941  1.00  0.00     0.258 C 
ATOM      8  O   UNL     1       2.304   7.635  37.911  1.00  0.00    -0.300 OA
ENDBRANCH   6   7
BRANCH   6   9
ATOM      9  O   UNL     1       3.278   6.384  35.713  1.00  0.00    -0.383 OA
ATOM     10  H   UNL     1       2.438   6.885  35.885  1.00  0.00     0.211 HD
ENDBRANCH   6   9
ENDBRANCH   5   6
BRANCH   5  11
ATOM     11  O   UNL     1       4.818   4.011  36.673  1.00  0.00    -0.387 OA
ATOM     12  H   UNL     1       4.233   3.496  36.058  1.00  0.00     0.211 HD
ENDBRANCH   5  11
ENDBRANCH   1   5
BRANCH   1  13
ATOM     13  O   UNL     1       2.598   2.862  37.214  1.00  0.00    -0.388 OA
ATOM     14  H   UNL     1       3.354   2.762  36.577  1.00  0.00     0.211 HD
ENDBRANCH   1  13
TORSDOF 8
ENDMDL
MODEL 7
REMARK VINA RESULT:    -3.911      2.267      3.705
REMARK INTER + INTRA:          -5.562
REMARK INTER:                  -5.056
REMARK INTRA:                  -0.507
REMARK UNBOUND:                -0.279
REMARK SMILES O=C[C@H](O)[C@H](O)[C@@H](O)CO
REMARK SMILES IDX 7 1 9 2 10 3 5 5 3 6 2 7 1 8 4 9 6 11 8 13
REMARK H PARENT 10 4 4 10 6 12 8 14
REMARK Flexibility Score: inf
ROOT
ATOM      1  C   UNL     1       3.547   6.907  37.792  1.00  0.00     0.171 C 
ENDROOT
BRANCH   1   2
ATOM      2  C   UNL     1       2.053   7.010  38.143  1.00  0.00     0.190 C 
BRANCH   2   3
ATOM      3  O   UNL     1       1.560   5.767  38.565  1.00  0.00    -0.394 OA
ATOM      4  H   UNL     1       2.322   5.131  38.534  1.00  0.00     0.210 HD
ENDBRANCH   2   3
ENDBRANCH   1   2
BRANCH   1   5
ATOM      5  C   UNL     1       3.734   6.521  36.300  1.00  0.00     0.181 C 
BRANCH   5   6
ATOM      6  C   UNL     1       3.113   7.533  35.297  1.00  0.00     0.209 C 
BRANCH   6   7
ATOM      7  C   UNL     1       3.214   7.063  33.865  1.00  0.00     0.258 C 
ATOM      8  O   UNL     1       2.399   7.441  33.039  1.00  0.00    -0.300 OA
ENDBRANCH   6   7
BRANCH   6   9
ATOM      9  O   UNL     1       3.659   8.820  35.451  1.00  0.00    -0.383 OA
ATOM     10  H   UNL     1       3.217   9.253  36.228  1.00  0.00     0.211 HD
ENDBRANCH   6   9
ENDBRANCH   5   6
BRANCH   5  11
ATOM     11  O   UNL     1       3.250   5.222  36.055  1.00  0.00    -0.387 OA
ATOM     12  H   UNL     1       2.815   4.896  36.886  1.00  0.00     0.211 HD
ENDBRANCH   5  11
ENDBRANCH   1   5
BRANCH   1  13
ATOM     13  O   UNL     1       4.177   8.135  38.058  1.00  0.00    -0.388 OA
ATOM     14  H   UNL     1       3.489   8.845  37.958  1.00  0.00     0.211 HD
ENDBRANCH   1  13
TORSDOF 8
ENDMDL
MODEL 8
REMARK VINA RESULT:    -3.823      1.423      3.870
REMARK INTER + INTRA:          -5.443
REMARK INTER:                  -5.372
REMARK INTRA:                  -0.072
REMARK UNBOUND:                -0.279
REMARK SMILES O=C[C@H](O)[C@H](O)[C@@H](O)CO
REMARK SMILES IDX 7 1 9 2 10 3 5 5 3 6 2 7 1 8 4 9 6 11 8 13
REMARK H PARENT 10 4 4 10 6 12 8 14
REMARK Flexibility Score: inf
ROOT
ATOM      1  C   UNL     1       3.729   7.525  36.891  1.00  0.00     0.171 C 
ENDROOT
BRANCH   1   2
ATOM      2  C   UNL     1       3.742   9.042  37.149  1.00  0.00     0.190 C 
BRANCH   2   3
ATOM      3  O   UNL     1       4.831   9.394  37.960  1.00  0.00    -0.394 OA
ATOM      4  H   UNL     1       4.493  10.047  38.627  1.00  0.00     0.210 HD
ENDBRANCH   2   3
ENDBRANCH   1   2
BRANCH   1   5
ATOM      5  C   UNL     1       3.138   6.768  38.111  1.00  0.00     0.181 C 
BRANCH   5   6
ATOM      6  C   UNL     1       3.385   5.234  38.090  1.00  0.00     0.209 C 
BRANCH   6   7
ATOM      7  C   UNL     1       4.435   4.833  37.081  1.00  0.00     0.258 C 
ATOM      8  O   UNL     1       4.106   4.284  36.041  1.00  0.00    -0.300 OA
ENDBRANCH   6   7
BRANCH   6   9
ATOM      9  O   UNL     1       2.191   4.516  37.897  1.00  0.00    -0.383 OA
ATOM     10  H   UNL     1       2.378   3.769  37.270  1.00  0.00     0.211 HD
ENDBRANCH   6   9
ENDBRANCH   5   6
BRANCH   5  11
ATOM     11  O   UNL     1       1.766   7.046  38.255  1.00  0.00    -0.387 OA
ATOM     12  H   UNL     1       1.358   6.308  38.780  1.00  0.00     0.211 HD
ENDBRANCH   5  11
ENDBRANCH   1   5
BRANCH   1  13
ATOM     13  O   UNL     1       2.975   7.252  35.738  1.00  0.00    -0.388 OA
ATOM     14  H   UNL     1       2.091   7.690  35.855  1.00  0.00     0.211 HD
ENDBRANCH   1  13
TORSDOF 8
ENDMDL
MODEL 9
REMARK VINA RESULT:    -3.687      1.874      4.227
REMARK INTER + INTRA:          -5.260
REMARK INTER:                  -5.144
REMARK INTRA:                  -0.116
REMARK UNBOUND:                -0.279
REMARK SMILES O=C[C@H](O)[C@H](O)[C@@H](O)CO
REMARK SMILES IDX 7 1 9 2 10 3 5 5 3 6 2 7 1 8 4 9 6 11 8 13
REMARK H PARENT 10 4 4 10 6 12 8 14
REMARK Flexibility Score: inf
ROOT
ATOM      1  C   UNL     1       3.244   7.534  35.965  1.00  0.00     0.171 C 
ENDROOT
BRANCH   1   2
ATOM      2  C   UNL     1       3.236   7.102  34.488  1.00  0.00     0.190 C 
BRANCH   2   3
ATOM      3  O   UNL     1       2.518   8.022  33.710  1.00  0.00    -0.394 OA
ATOM      4  H   UNL     1       2.744   8.926  34.054  1.00  0.00     0.210 HD
ENDBRANCH   2   3
ENDBRANCH   1   2
BRANCH   1   5
ATOM      5  C   UNL     1       3.978   6.482  36.839  1.00  0.00     0.181 C 
BRANCH   5   6
ATOM      6  C   UNL     1       3.619   5.008  36.498  1.00  0.00     0.209 C 
BRANCH   6   7
ATOM      7  C   UNL     1       2.846   4.331  37.606  1.00  0.00     0.258 C 
ATOM      8  O   UNL     1       2.858   3.114  37.703  1.00  0.00    -0.300 OA
ENDBRANCH   6   7
BRANCH   6   9
ATOM      9  O   UNL     1       4.759   4.264  36.142  1.00  0.00    -0.383 OA
ATOM     10  H   UNL     1       5.419   4.884  35.736  1.00  0.00     0.211 HD
ENDBRANCH   6   9
ENDBRANCH   5   6
BRANCH   5  11
ATOM     11  O   UNL     1       3.773   6.737  38.207  1.00  0.00    -0.387 OA
ATOM     12  H   UNL     1       2.882   6.376  38.456  1.00  0.00     0.211 HD
ENDBRANCH   5  11
ENDBRANCH   1   5
BRANCH   1  13
ATOM     13  O   UNL     1       3.872   8.786  36.083  1.00  0.00    -0.388 OA
ATOM     14  H   UNL     1       4.483   8.882  35.306  1.00  0.00     0.211 HD
ENDBRANCH   1  13
TORSDOF 8
ENDMDL
