MODEL 1
REMARK VINA RESULT:    -4.193      0.000      0.000
REMARK INTER + INTRA:          -5.799
REMARK INTER:                  -5.663
REMARK INTRA:                  -0.136
REMARK UNBOUND:                -0.136
REMARK SMILES [NH3+]CCCC[C@@H]([NH3+])C(=O)[O-]
REMARK SMILES IDX 4 1 3 2 2 3 1 4 5 8 6 9 7 10 8 14 9 15 10 16
REMARK H PARENT 1 5 1 6 1 7 7 11 7 12 7 13
REMARK Flexibility Score: inf
ROOT
ATOM      1  C   UNL     1      19.002  33.905  25.089  1.00  0.00     0.012 C 
ENDROOT
BRANCH   1   2
ATOM      2  C   UNL     1      19.954  35.109  25.125  1.00  0.00     0.061 C 
BRANCH   2   3
ATOM      3  C   UNL     1      19.434  36.298  24.301  1.00  0.00     0.258 C 
BRANCH   3   4
ATOM      4  N   UNL     1      19.597  37.572  25.004  1.00  0.00    -0.358 N 
ATOM      5  H   UNL     1      19.445  38.371  24.350  1.00  0.00     0.344 HD
ATOM      6  H   UNL     1      20.573  37.631  25.376  1.00  0.00     0.344 HD
ATOM      7  H   UNL     1      18.928  37.634  25.806  1.00  0.00     0.344 HD
ENDBRANCH   3   4
ENDBRANCH   2   3
ENDBRANCH   1   2
BRANCH   1   8
ATOM      8  C   UNL     1      19.727  32.646  24.587  1.00  0.00     0.072 C 
BRANCH   8   9
ATOM      9  C   UNL     1      19.332  32.283  23.138  1.00  0.00     0.227 C 
BRANCH   9  10
ATOM     10  N   UNL     1      20.348  32.765  22.195  1.00  0.00    -0.350 N 
ATOM     11  H   UNL     1      20.825  31.962  21.722  1.00  0.00     0.345 HD
ATOM     12  H   UNL     1      19.900  33.374  21.471  1.00  0.00     0.345 HD
ATOM     13  H   UNL     1      21.062  33.335  22.703  1.00  0.00     0.345 HD
ENDBRANCH   9  10
BRANCH   9  14
ATOM     14  C   UNL     1      19.152  30.795  22.983  1.00  0.00     0.099 C 
ATOM     15  O   UNL     1      19.021  30.065  24.001  1.00  0.00    -0.544 OA
ATOM     16  O   UNL     1      19.133  30.218  21.719  1.00  0.00    -0.544 OA
ENDBRANCH   9  14
ENDBRANCH   8   9
ENDBRANCH   1   8
TORSDOF 7
ENDMDL
MODEL 2
REMARK VINA RESULT:    -3.967      1.791      2.143
REMARK INTER + INTRA:          -5.495
REMARK INTER:                  -5.383
REMARK INTRA:                  -0.112
REMARK UNBOUND:                -0.136
REMARK SMILES [NH3+]CCCC[C@@H]([NH3+])C(=O)[O-]
REMARK SMILES IDX 4 1 3 2 2 3 1 4 5 8 6 9 7 10 8 14 9 15 10 16
REMARK H PARENT 1 5 1 6 1 7 7 11 7 12 7 13
REMARK Flexibility Score: inf
ROOT
ATOM      1  C   UNL     1      19.841  32.217  24.689  1.00  0.00     0.012 C 
ENDROOT
BRANCH   1   2
ATOM      2  C   UNL     1      19.116  33.502  25.116  1.00  0.00     0.061 C 
BRANCH   2   3
ATOM      3  C   UNL     1      19.972  34.761  24.907  1.00  0.00     0.258 C 
BRANCH   3   4
ATOM      4  N   UNL     1      19.209  35.991  25.125  1.00  0.00    -0.358 N 
ATOM      5  H   UNL     1      18.820  36.344  24.222  1.00  0.00     0.344 HD
ATOM      6  H   UNL     1      19.847  36.722  25.516  1.00  0.00     0.344 HD
ATOM      7  H   UNL     1      18.434  35.824  25.807  1.00  0.00     0.344 HD
ENDBRANCH   3   4
ENDBRANCH   2   3
ENDBRANCH   1   2
BRANCH   1   8
ATOM      8  C   UNL     1      19.739  32.007  23.170  1.00  0.00     0.072 C 
BRANCH   8   9
ATOM      9  C   UNL     1      19.512  30.525  22.799  1.00  0.00     0.227 C 
BRANCH   9  10
ATOM     10  N   UNL     1      19.092  29.760  23.978  1.00  0.00    -0.350 N 
ATOM     11  H   UNL     1      19.413  30.228  24.857  1.00  0.00     0.345 HD
ATOM     12  H   UNL     1      18.049  29.677  23.994  1.00  0.00     0.345 HD
ATOM     13  H   UNL     1      19.494  28.796  23.938  1.00  0.00     0.345 HD
ENDBRANCH   9  10
BRANCH   9  14
ATOM     14  C   UNL     1      18.482  30.393  21.707  1.00  0.00     0.099 C 
ATOM     15  O   UNL     1      17.621  31.295  21.537  1.00  0.00    -0.544 OA
ATOM     16  O   UNL     1      18.473  29.273  20.883  1.00  0.00    -0.544 OA
ENDBRANCH   9  14
ENDBRANCH   8   9
ENDBRANCH   1   8
TORSDOF 7
ENDMDL
MODEL 3
REMARK VINA RESULT:    -3.964      2.734      5.140
REMARK INTER + INTRA:          -5.491
REMARK INTER:                  -5.435
REMARK INTRA:                  -0.055
REMARK UNBOUND:                -0.136
REMARK SMILES [NH3+]CCCC[C@@H]([NH3+])C(=O)[O-]
REMARK SMILES IDX 4 1 3 2 2 3 1 4 5 8 6 9 7 10 8 14 9 15 10 16
REMARK H PARENT 1 5 1 6 1 7 7 11 7 12 7 13
REMARK Flexibility Score: inf
ROOT
ATOM      1  C   UNL     1      19.449  30.620  22.374  1.00  0.00     0.012 C 
ENDROOT
BRANCH   1   2
ATOM      2  C   UNL     1      18.042  30.826  21.794  1.00  0.00     0.061 C 
BRANCH   2   3
ATOM      3  C   UNL     1      17.713  29.827  20.673  1.00  0.00     0.258 C 
BRANCH   3   4
ATOM      4  N   UNL     1      18.863  28.991  20.323  1.00  0.00    -0.358 N 
ATOM      5  H   UNL     1      19.487  29.493  19.652  1.00  0.00     0.344 HD
ATOM      6  H   UNL     1      18.520  28.117  19.862  1.00  0.00     0.344 HD
ATOM      7  H   UNL     1      19.399  28.728  21.182  1.00  0.00     0.344 HD
ENDBRANCH   3   4
ENDBRANCH   2   3
ENDBRANCH   1   2
BRANCH   1   8
ATOM      8  C   UNL     1      19.542  31.180  23.802  1.00  0.00     0.072 C 
BRANCH   8   9
ATOM      9  C   UNL     1      20.270  32.541  23.851  1.00  0.00     0.227 C 
BRANCH   9  10
ATOM     10  N   UNL     1      20.489  33.054  22.493  1.00  0.00    -0.350 N 
ATOM     11  H   UNL     1      19.659  33.600  22.165  1.00  0.00     0.345 HD
ATOM     12  H   UNL     1      21.335  33.671  22.478  1.00  0.00     0.345 HD
ATOM     13  H   UNL     1      20.656  32.258  21.836  1.00  0.00     0.345 HD
ENDBRANCH   9  10
BRANCH   9  14
ATOM     14  C   UNL     1      19.488  33.545  24.659  1.00  0.00     0.099 C 
ATOM     15  O   UNL     1      18.359  33.239  25.125  1.00  0.00    -0.544 OA
ATOM     16  O   UNL     1      20.004  34.814  24.890  1.00  0.00    -0.544 OA
ENDBRANCH   9  14
ENDBRANCH   8   9
ENDBRANCH   1   8
TORSDOF 7
ENDMDL
MODEL 4
REMARK VINA RESULT:    -3.887     18.091     19.141
REMARK INTER + INTRA:          -5.386
REMARK INTER:                  -5.239
REMARK INTRA:                  -0.147
REMARK UNBOUND:                -0.136
REMARK SMILES [NH3+]CCCC[C@@H]([NH3+])C(=O)[O-]
REMARK SMILES IDX 4 1 3 2 2 3 1 4 5 8 6 9 7 10 8 14 9 15 10 16
REMARK H PARENT 1 5 1 6 1 7 7 11 7 12 7 13
REMARK Flexibility Score: inf
ROOT
ATOM      1  C   UNL     1      27.518  32.879   5.246  1.00  0.00     0.012 C 
ENDROOT
BRANCH   1   2
ATOM      2  C   UNL     1      28.779  33.756   5.264  1.00  0.00     0.061 C 
BRANCH   2   3
ATOM      3  C   UNL     1      28.462  35.249   5.085  1.00  0.00     0.258 C 
BRANCH   3   4
ATOM      4  N   UNL     1      29.234  36.092   6.000  1.00  0.00    -0.358 N 
ATOM      5  H   UNL     1      29.490  36.993   5.537  1.00  0.00     0.344 HD
ATOM      6  H   UNL     1      30.115  35.593   6.260  1.00  0.00     0.344 HD
ATOM      7  H   UNL     1      28.687  36.281   6.871  1.00  0.00     0.344 HD
ENDBRANCH   3   4
ENDBRANCH   2   3
ENDBRANCH   1   2
BRANCH   1   8
ATOM      8  C   UNL     1      27.404  32.054   6.538  1.00  0.00     0.072 C 
BRANCH   8   9
ATOM      9  C   UNL     1      27.486  32.936   7.803  1.00  0.00     0.227 C 
BRANCH   9  10
ATOM     10  N   UNL     1      26.276  32.778   8.617  1.00  0.00    -0.350 N 
ATOM     11  H   UNL     1      26.393  33.239   9.549  1.00  0.00     0.345 HD
ATOM     12  H   UNL     1      25.457  33.204   8.123  1.00  0.00     0.345 HD
ATOM     13  H   UNL     1      26.075  31.762   8.762  1.00  0.00     0.345 HD
ENDBRANCH   9  10
BRANCH   9  14
ATOM     14  C   UNL     1      28.704  32.594   8.622  1.00  0.00     0.099 C 
ATOM     15  O   UNL     1      28.876  33.123   9.752  1.00  0.00    -0.544 OA
ATOM     16  O   UNL     1      29.648  31.697   8.136  1.00  0.00    -0.544 OA
ENDBRANCH   9  14
ENDBRANCH   8   9
ENDBRANCH   1   8
TORSDOF 7
ENDMDL
MODEL 5
REMARK VINA RESULT:    -3.694     15.948     16.603
REMARK INTER + INTRA:          -5.125
REMARK INTER:                  -4.987
REMARK INTRA:                  -0.139
REMARK UNBOUND:                -0.136
REMARK SMILES [NH3+]CCCC[C@@H]([NH3+])C(=O)[O-]
REMARK SMILES IDX 4 1 3 2 2 3 1 4 5 8 6 9 7 10 8 14 9 15 10 16
REMARK H PARENT 1 5 1 6 1 7 7 11 7 12 7 13
REMARK Flexibility Score: inf
ROOT
ATOM      1  C   UNL     1      31.444  37.217  12.202  1.00  0.00     0.012 C 
ENDROOT
BRANCH   1   2
ATOM      2  C   UNL     1      31.431  38.309  11.122  1.00  0.00     0.061 C 
BRANCH   2   3
ATOM      3  C   UNL     1      32.064  37.842   9.802  1.00  0.00     0.258 C 
BRANCH   3   4
ATOM      4  N   UNL     1      32.594  38.959   9.017  1.00  0.00    -0.358 N 
ATOM      5  H   UNL     1      33.638  38.960   9.044  1.00  0.00     0.344 HD
ATOM      6  H   UNL     1      32.252  39.857   9.431  1.00  0.00     0.344 HD
ATOM      7  H   UNL     1      32.262  38.899   8.027  1.00  0.00     0.344 HD
ENDBRANCH   3   4
ENDBRANCH   2   3
ENDBRANCH   1   2
BRANCH   1   8
ATOM      8  C   UNL     1      30.886  37.752  13.531  1.00  0.00     0.072 C 
BRANCH   8   9
ATOM      9  C   UNL     1      29.722  36.888  14.065  1.00  0.00     0.227 C 
BRANCH   9  10
ATOM     10  N   UNL     1      29.992  36.461  15.443  1.00  0.00    -0.350 N 
ATOM     11  H   UNL     1      30.855  36.925  15.812  1.00  0.00     0.345 HD
ATOM     12  H   UNL     1      29.180  36.705  16.056  1.00  0.00     0.345 HD
ATOM     13  H   UNL     1      30.123  35.424  15.474  1.00  0.00     0.345 HD
ENDBRANCH   9  10
BRANCH   9  14
ATOM     14  C   UNL     1      28.418  37.641  14.007  1.00  0.00     0.099 C 
ATOM     15  O   UNL     1      27.452  37.289  14.735  1.00  0.00    -0.544 OA
ATOM     16  O   UNL     1      28.271  38.724  13.148  1.00  0.00    -0.544 OA
ENDBRANCH   9  14
ENDBRANCH   8   9
ENDBRANCH   1   8
TORSDOF 7
ENDMDL
MODEL 6
REMARK VINA RESULT:    -3.684      2.918      5.129
REMARK INTER + INTRA:          -5.112
REMARK INTER:                  -4.947
REMARK INTRA:                  -0.165
REMARK UNBOUND:                -0.136
REMARK SMILES [NH3+]CCCC[C@@H]([NH3+])C(=O)[O-]
REMARK SMILES IDX 4 1 3 2 2 3 1 4 5 8 6 9 7 10 8 14 9 15 10 16
REMARK H PARENT 1 5 1 6 1 7 7 11 7 12 7 13
REMARK Flexibility Score: inf
ROOT
ATOM      1  C   UNL     1      19.119  30.544  23.025  1.00  0.00     0.012 C 
ENDROOT
BRANCH   1   2
ATOM      2  C   UNL     1      18.218  30.974  21.858  1.00  0.00     0.061 C 
BRANCH   2   3
ATOM      3  C   UNL     1      17.780  29.789  20.982  1.00  0.00     0.258 C 
BRANCH   3   4
ATOM      4  N   UNL     1      18.920  29.101  20.373  1.00  0.00    -0.358 N 
ATOM      5  H   UNL     1      18.915  28.089  20.630  1.00  0.00     0.344 HD
ATOM      6  H   UNL     1      19.805  29.528  20.731  1.00  0.00     0.344 HD
ATOM      7  H   UNL     1      18.896  29.205  19.332  1.00  0.00     0.344 HD
ENDBRANCH   3   4
ENDBRANCH   2   3
ENDBRANCH   1   2
BRANCH   1   8
ATOM      8  C   UNL     1      20.214  31.589  23.288  1.00  0.00     0.072 C 
BRANCH   8   9
ATOM      9  C   UNL     1      19.631  32.937  23.767  1.00  0.00     0.227 C 
BRANCH   9  10
ATOM     10  N   UNL     1      20.097  33.243  25.125  1.00  0.00    -0.350 N 
ATOM     11  H   UNL     1      21.022  32.791  25.310  1.00  0.00     0.345 HD
ATOM     12  H   UNL     1      20.190  34.279  25.244  1.00  0.00     0.345 HD
ATOM     13  H   UNL     1      19.402  32.897  25.825  1.00  0.00     0.345 HD
ENDBRANCH   9  10
BRANCH   9  14
ATOM     14  C   UNL     1      20.012  34.055  22.830  1.00  0.00     0.099 C 
ATOM     15  O   UNL     1      19.947  35.252  23.215  1.00  0.00    -0.544 OA
ATOM     16  O   UNL     1      20.431  33.773  21.536  1.00  0.00    -0.544 OA
ENDBRANCH   9  14
ENDBRANCH   8   9
ENDBRANCH   1   8
TORSDOF 7
ENDMDL
MODEL 7
REMARK VINA RESULT:    -3.675     19.412     20.175
REMARK INTER + INTRA:          -5.100
REMARK INTER:                  -5.015
REMARK INTRA:                  -0.085
REMARK UNBOUND:                -0.136
REMARK SMILES [NH3+]CCCC[C@@H]([NH3+])C(=O)[O-]
REMARK SMILES IDX 4 1 3 2 2 3 1 4 5 8 6 9 7 10 8 14 9 15 10 16
REMARK H PARENT 1 5 1 6 1 7 7 11 7 12 7 13
REMARK Flexibility Score: inf
ROOT
ATOM      1  C   UNL     1      28.967  34.895   5.544  1.00  0.00     0.012 C 
ENDROOT
BRANCH   1   2
ATOM      2  C   UNL     1      28.426  36.191   4.923  1.00  0.00     0.061 C 
BRANCH   2   3
ATOM      3  C   UNL     1      29.292  37.415   5.260  1.00  0.00     0.258 C 
BRANCH   3   4
ATOM      4  N   UNL     1      28.564  38.405   6.056  1.00  0.00    -0.358 N 
ATOM      5  H   UNL     1      28.706  39.363   5.665  1.00  0.00     0.344 HD
ATOM      6  H   UNL     1      28.932  38.391   7.035  1.00  0.00     0.344 HD
ATOM      7  H   UNL     1      27.544  38.176   6.079  1.00  0.00     0.344 HD
ENDBRANCH   3   4
ENDBRANCH   2   3
ENDBRANCH   1   2
BRANCH   1   8
ATOM      8  C   UNL     1      28.049  33.706   5.223  1.00  0.00     0.072 C 
BRANCH   8   9
ATOM      9  C   UNL     1      27.863  32.766   6.434  1.00  0.00     0.227 C 
BRANCH   9  10
ATOM     10  N   UNL     1      26.445  32.434   6.613  1.00  0.00    -0.350 N 
ATOM     11  H   UNL     1      26.287  31.972   7.539  1.00  0.00     0.345 HD
ATOM     12  H   UNL     1      25.867  33.304   6.558  1.00  0.00     0.345 HD
ATOM     13  H   UNL     1      26.133  31.788   5.852  1.00  0.00     0.345 HD
ENDBRANCH   9  10
BRANCH   9  14
ATOM     14  C   UNL     1      28.670  31.504   6.268  1.00  0.00     0.099 C 
ATOM     15  O   UNL     1      29.624  31.256   7.052  1.00  0.00    -0.544 OA
ATOM     16  O   UNL     1      28.371  30.609   5.248  1.00  0.00    -0.544 OA
ENDBRANCH   9  14
ENDBRANCH   8   9
ENDBRANCH   1   8
TORSDOF 7
ENDMDL
MODEL 8
REMARK VINA RESULT:    -3.664     17.909     19.227
REMARK INTER + INTRA:          -5.085
REMARK INTER:                  -4.863
REMARK INTRA:                  -0.223
REMARK UNBOUND:                -0.136
REMARK SMILES [NH3+]CCCC[C@@H]([NH3+])C(=O)[O-]
REMARK SMILES IDX 4 1 3 2 2 3 1 4 5 8 6 9 7 10 8 14 9 15 10 16
REMARK H PARENT 1 5 1 6 1 7 7 11 7 12 7 13
REMARK Flexibility Score: inf
ROOT
ATOM      1  C   UNL     1      28.113  33.630   6.044  1.00  0.00     0.012 C 
ENDROOT
BRANCH   1   2
ATOM      2  C   UNL     1      28.834  32.721   5.037  1.00  0.00     0.061 C 
BRANCH   2   3
ATOM      3  C   UNL     1      28.145  31.356   4.875  1.00  0.00     0.258 C 
BRANCH   3   4
ATOM      4  N   UNL     1      28.896  30.278   5.523  1.00  0.00    -0.358 N 
ATOM      5  H   UNL     1      29.422  30.645   6.347  1.00  0.00     0.344 HD
ATOM      6  H   UNL     1      29.584  29.887   4.840  1.00  0.00     0.344 HD
ATOM      7  H   UNL     1      28.249  29.513   5.822  1.00  0.00     0.344 HD
ENDBRANCH   3   4
ENDBRANCH   2   3
ENDBRANCH   1   2
BRANCH   1   8
ATOM      8  C   UNL     1      27.381  32.798   7.109  1.00  0.00     0.072 C 
BRANCH   8   9
ATOM      9  C   UNL     1      27.768  33.215   8.544  1.00  0.00     0.227 C 
BRANCH   9  10
ATOM     10  N   UNL     1      26.711  32.839   9.490  1.00  0.00    -0.350 N 
ATOM     11  H   UNL     1      27.111  32.655  10.439  1.00  0.00     0.345 HD
ATOM     12  H   UNL     1      26.004  33.609   9.557  1.00  0.00     0.345 HD
ATOM     13  H   UNL     1      26.223  31.978   9.153  1.00  0.00     0.345 HD
ENDBRANCH   9  10
BRANCH   9  14
ATOM     14  C   UNL     1      29.074  32.585   8.957  1.00  0.00     0.099 C 
ATOM     15  O   UNL     1      29.613  31.713   8.227  1.00  0.00    -0.544 OA
ATOM     16  O   UNL     1      29.688  32.959  10.146  1.00  0.00    -0.544 OA
ENDBRANCH   9  14
ENDBRANCH   8   9
ENDBRANCH   1   8
TORSDOF 7
ENDMDL
MODEL 9
REMARK VINA RESULT:    -3.609     18.570     19.509
REMARK INTER + INTRA:          -5.011
REMARK INTER:                  -4.890
REMARK INTRA:                  -0.121
REMARK UNBOUND:                -0.136
REMARK SMILES [NH3+]CCCC[C@@H]([NH3+])C(=O)[O-]
REMARK SMILES IDX 4 1 3 2 2 3 1 4 5 8 6 9 7 10 8 14 9 15 10 16
REMARK H PARENT 1 5 1 6 1 7 7 11 7 12 7 13
REMARK Flexibility Score: inf
ROOT
ATOM      1  C   UNL     1      28.857  34.113   5.595  1.00  0.00     0.012 C 
ENDROOT
BRANCH   1   2
ATOM      2  C   UNL     1      28.383  35.384   4.875  1.00  0.00     0.061 C 
BRANCH   2   3
ATOM      3  C   UNL     1      29.033  36.659   5.437  1.00  0.00     0.258 C 
BRANCH   3   4
ATOM      4  N   UNL     1      28.060  37.733   5.638  1.00  0.00    -0.358 N 
ATOM      5  H   UNL     1      28.139  38.121   6.605  1.00  0.00     0.344 HD
ATOM      6  H   UNL     1      27.096  37.345   5.517  1.00  0.00     0.344 HD
ATOM      7  H   UNL     1      28.205  38.494   4.935  1.00  0.00     0.344 HD
ENDBRANCH   3   4
ENDBRANCH   2   3
ENDBRANCH   1   2
BRANCH   1   8
ATOM      8  C   UNL     1      27.742  33.056   5.635  1.00  0.00     0.072 C 
BRANCH   8   9
ATOM      9  C   UNL     1      27.926  32.055   6.797  1.00  0.00     0.227 C 
BRANCH   9  10
ATOM     10  N   UNL     1      29.260  31.446   6.742  1.00  0.00    -0.350 N 
ATOM     11  H   UNL     1      29.705  31.443   7.690  1.00  0.00     0.345 HD
ATOM     12  H   UNL     1      29.187  30.462   6.393  1.00  0.00     0.345 HD
ATOM     13  H   UNL     1      29.868  31.981   6.081  1.00  0.00     0.345 HD
ENDBRANCH   9  10
BRANCH   9  14
ATOM     14  C   UNL     1      27.723  32.730   8.129  1.00  0.00     0.099 C 
ATOM     15  O   UNL     1      26.562  33.023   8.519  1.00  0.00    -0.544 OA
ATOM     16  O   UNL     1      28.814  33.038   8.933  1.00  0.00    -0.544 OA
ENDBRANCH   9  14
ENDBRANCH   8   9
ENDBRANCH   1   8
TORSDOF 7
ENDMDL
