MODEL 1
REMARK VINA RESULT:    -4.628      0.000      0.000
REMARK INTER + INTRA:          -8.693
REMARK INTER:                  -7.063
REMARK INTRA:                  -1.630
REMARK UNBOUND:                -1.630
REMARK SMILES CCCCCCCCCC=CC(=O)[O-]
REMARK SMILES IDX 7 1 8 2 9 3 10 4 11 5 12 6 13 7 14 8 6 9 5 10 4 11 3 12 2 13
REMARK SMILES IDX 1 14
REMARK H PARENT
REMARK Flexibility Score: inf
ROOT
ATOM      1  C   UNL     1      -1.176 -23.808  48.966  1.00  0.00     0.000 C 
ENDROOT
BRANCH   1   2
ATOM      2  C   UNL     1      -1.297 -23.513  50.465  1.00  0.00     0.004 C 
BRANCH   2   3
ATOM      3  C   UNL     1      -2.302 -22.383  50.724  1.00  0.00     0.027 C 
BRANCH   3   4
ATOM      4  C   UNL     1      -2.653 -21.662  49.451  1.00  0.00    -0.025 C 
ATOM      5  C   UNL     1      -3.717 -20.862  49.264  1.00  0.00     0.020 C 
BRANCH   5   6
ATOM      6  C   UNL     1      -4.733 -20.496  50.272  1.00  0.00     0.064 C 
ATOM      7  O   UNL     1      -5.901 -20.965  50.247  1.00  0.00    -0.545 OA
ATOM      8  O   UNL     1      -4.380 -19.622  51.292  1.00  0.00    -0.545 OA
ENDBRANCH   5   6
ENDBRANCH   3   4
ENDBRANCH   2   3
ENDBRANCH   1   2
BRANCH   1   9
ATOM      9  C   UNL     1      -1.602 -25.250  48.653  1.00  0.00     0.000 C 
BRANCH   9  10
ATOM     10  C   UNL     1      -2.120 -25.417  47.215  1.00  0.00     0.000 C 
BRANCH  10  11
ATOM     11  C   UNL     1      -3.152 -24.345  46.830  1.00  0.00    -0.000 C 
BRANCH  11  12
ATOM     12  C   UNL     1      -4.577 -24.816  47.158  1.00  0.00    -0.000 C 
BRANCH  12  13
ATOM     13  C   UNL     1      -5.233 -23.984  48.271  1.00  0.00    -0.003 C 
ATOM     14  C   UNL     1      -5.042 -24.597  49.658  1.00  0.00     0.004 C 
ENDBRANCH  12  13
ENDBRANCH  11  12
ENDBRANCH  10  11
ENDBRANCH   9  10
ENDBRANCH   1   9
TORSDOF 9
ENDMDL
MODEL 2
REMARK VINA RESULT:    -4.498      2.302      4.076
REMARK INTER + INTRA:          -8.494
REMARK INTER:                  -7.104
REMARK INTRA:                  -1.390
REMARK UNBOUND:                -1.630
REMARK SMILES CCCCCCCCCC=CC(=O)[O-]
REMARK SMILES IDX 7 1 8 2 9 3 10 4 11 5 12 6 13 7 14 8 6 9 5 10 4 11 3 12 2 13
REMARK SMILES IDX 1 14
REMARK H PARENT
REMARK Flexibility Score: inf
ROOT
ATOM      1  C   UNL     1      -4.614 -24.701  49.350  1.00  0.00     0.000 C 
ENDROOT
BRANCH   1   2
ATOM      2  C   UNL     1      -3.307 -24.661  48.549  1.00  0.00     0.004 C 
BRANCH   2   3
ATOM      3  C   UNL     1      -2.089 -24.693  49.482  1.00  0.00     0.027 C 
BRANCH   3   4
ATOM      4  C   UNL     1      -2.143 -23.574  50.487  1.00  0.00    -0.025 C 
ATOM      5  C   UNL     1      -1.627 -22.343  50.326  1.00  0.00     0.020 C 
BRANCH   5   6
ATOM      6  C   UNL     1      -0.940 -21.824  49.125  1.00  0.00     0.064 C 
ATOM      7  O   UNL     1       0.314 -21.773  49.039  1.00  0.00    -0.545 OA
ATOM      8  O   UNL     1      -1.706 -21.400  48.047  1.00  0.00    -0.545 OA
ENDBRANCH   5   6
ENDBRANCH   3   4
ENDBRANCH   2   3
ENDBRANCH   1   2
BRANCH   1   9
ATOM      9  C   UNL     1      -5.631 -23.692  48.794  1.00  0.00     0.000 C 
BRANCH   9  10
ATOM     10  C   UNL     1      -5.010 -22.727  47.772  1.00  0.00     0.000 C 
BRANCH  10  11
ATOM     11  C   UNL     1      -5.668 -21.339  47.794  1.00  0.00    -0.000 C 
BRANCH  11  12
ATOM     12  C   UNL     1      -5.856 -20.845  49.236  1.00  0.00    -0.000 C 
BRANCH  12  13
ATOM     13  C   UNL     1      -4.614 -20.123  49.780  1.00  0.00    -0.003 C 
ATOM     14  C   UNL     1      -4.475 -20.244  51.297  1.00  0.00     0.004 C 
ENDBRANCH  12  13
ENDBRANCH  11  12
ENDBRANCH  10  11
ENDBRANCH   9  10
ENDBRANCH   1   9
TORSDOF 9
ENDMDL
MODEL 3
REMARK VINA RESULT:    -4.488      1.665      3.713
REMARK INTER + INTRA:          -8.479
REMARK INTER:                  -7.282
REMARK INTRA:                  -1.196
REMARK UNBOUND:                -1.630
REMARK SMILES CCCCCCCCCC=CC(=O)[O-]
REMARK SMILES IDX 7 1 8 2 9 3 10 4 11 5 12 6 13 7 14 8 6 9 5 10 4 11 3 12 2 13
REMARK SMILES IDX 1 14
REMARK H PARENT
REMARK Flexibility Score: inf
ROOT
ATOM      1  C   UNL     1      -3.147 -24.260  49.298  1.00  0.00     0.000 C 
ENDROOT
BRANCH   1   2
ATOM      2  C   UNL     1      -4.567 -24.694  49.681  1.00  0.00     0.004 C 
BRANCH   2   3
ATOM      3  C   UNL     1      -5.606 -24.062  48.746  1.00  0.00     0.027 C 
BRANCH   3   4
ATOM      4  C   UNL     1      -4.975 -23.039  47.840  1.00  0.00    -0.025 C 
ATOM      5  C   UNL     1      -5.079 -21.705  47.964  1.00  0.00     0.020 C 
BRANCH   5   6
ATOM      6  C   UNL     1      -5.795 -20.970  49.027  1.00  0.00     0.064 C 
ATOM      7  O   UNL     1      -6.807 -20.262  48.788  1.00  0.00    -0.545 OA
ATOM      8  O   UNL     1      -5.347 -21.083  50.337  1.00  0.00    -0.545 OA
ENDBRANCH   5   6
ENDBRANCH   3   4
ENDBRANCH   2   3
ENDBRANCH   1   2
BRANCH   1   9
ATOM      9  C   UNL     1      -2.358 -23.807  50.535  1.00  0.00     0.000 C 
BRANCH   9  10
ATOM     10  C   UNL     1      -1.985 -22.317  50.488  1.00  0.00     0.000 C 
BRANCH  10  11
ATOM     11  C   UNL     1      -1.665 -21.832  49.065  1.00  0.00    -0.000 C 
BRANCH  11  12
ATOM     12  C   UNL     1      -0.151 -21.864  48.804  1.00  0.00    -0.000 C 
BRANCH  12  13
ATOM     13  C   UNL     1       0.189 -22.131  47.330  1.00  0.00    -0.003 C 
ATOM     14  C   UNL     1      -0.842 -23.022  46.638  1.00  0.00     0.004 C 
ENDBRANCH  12  13
ENDBRANCH  11  12
ENDBRANCH  10  11
ENDBRANCH   9  10
ENDBRANCH   1   9
TORSDOF 9
ENDMDL
MODEL 4
REMARK VINA RESULT:    -4.435      2.627      3.626
REMARK INTER + INTRA:          -8.398
REMARK INTER:                  -6.707
REMARK INTRA:                  -1.691
REMARK UNBOUND:                -1.630
REMARK SMILES CCCCCCCCCC=CC(=O)[O-]
REMARK SMILES IDX 7 1 8 2 9 3 10 4 11 5 12 6 13 7 14 8 6 9 5 10 4 11 3 12 2 13
REMARK SMILES IDX 1 14
REMARK H PARENT
REMARK Flexibility Score: inf
ROOT
ATOM      1  C   UNL     1      -1.790 -24.371  47.490  1.00  0.00     0.000 C 
ENDROOT
BRANCH   1   2
ATOM      2  C   UNL     1      -1.809 -22.925  46.983  1.00  0.00     0.004 C 
BRANCH   2   3
ATOM      3  C   UNL     1      -1.094 -21.988  47.966  1.00  0.00     0.027 C 
BRANCH   3   4
ATOM      4  C   UNL     1      -1.928 -21.747  49.195  1.00  0.00    -0.025 C 
ATOM      5  C   UNL     1      -1.617 -22.126  50.447  1.00  0.00     0.020 C 
BRANCH   5   6
ATOM      6  C   UNL     1      -0.384 -22.816  50.879  1.00  0.00     0.064 C 
ATOM      7  O   UNL     1       0.623 -22.189  51.299  1.00  0.00    -0.545 OA
ATOM      8  O   UNL     1      -0.345 -24.204  50.840  1.00  0.00    -0.545 OA
ENDBRANCH   5   6
ENDBRANCH   3   4
ENDBRANCH   2   3
ENDBRANCH   1   2
BRANCH   1   9
ATOM      9  C   UNL     1      -3.214 -24.872  47.777  1.00  0.00     0.000 C 
BRANCH   9  10
ATOM     10  C   UNL     1      -3.515 -24.974  49.281  1.00  0.00     0.000 C 
BRANCH  10  11
ATOM     11  C   UNL     1      -4.854 -24.324  49.662  1.00  0.00    -0.000 C 
BRANCH  11  12
ATOM     12  C   UNL     1      -5.523 -23.689  48.434  1.00  0.00    -0.000 C 
BRANCH  12  13
ATOM     13  C   UNL     1      -5.616 -22.159  48.537  1.00  0.00    -0.003 C 
ATOM     14  C   UNL     1      -5.182 -21.452  47.253  1.00  0.00     0.004 C 
ENDBRANCH  12  13
ENDBRANCH  11  12
ENDBRANCH  10  11
ENDBRANCH   9  10
ENDBRANCH   1   9
TORSDOF 9
ENDMDL
MODEL 5
REMARK VINA RESULT:    -4.411      2.731      3.877
REMARK INTER + INTRA:          -8.362
REMARK INTER:                  -7.413
REMARK INTRA:                  -0.949
REMARK UNBOUND:                -1.630
REMARK SMILES CCCCCCCCCC=CC(=O)[O-]
REMARK SMILES IDX 7 1 8 2 9 3 10 4 11 5 12 6 13 7 14 8 6 9 5 10 4 11 3 12 2 13
REMARK SMILES IDX 1 14
REMARK H PARENT
REMARK Flexibility Score: inf
ROOT
ATOM      1  C   UNL     1      -1.918 -24.784  47.559  1.00  0.00     0.000 C 
ENDROOT
BRANCH   1   2
ATOM      2  C   UNL     1      -2.055 -25.083  49.056  1.00  0.00     0.004 C 
BRANCH   2   3
ATOM      3  C   UNL     1      -3.095 -24.162  49.708  1.00  0.00     0.027 C 
BRANCH   3   4
ATOM      4  C   UNL     1      -4.492 -24.679  49.495  1.00  0.00    -0.025 C 
ATOM      5  C   UNL     1      -5.471 -24.050  48.821  1.00  0.00     0.020 C 
BRANCH   5   6
ATOM      6  C   UNL     1      -5.369 -22.752  48.123  1.00  0.00     0.064 C 
ATOM      7  O   UNL     1      -4.778 -22.629  47.019  1.00  0.00    -0.545 OA
ATOM      8  O   UNL     1      -5.965 -21.636  48.696  1.00  0.00    -0.545 OA
ENDBRANCH   5   6
ENDBRANCH   3   4
ENDBRANCH   2   3
ENDBRANCH   1   2
BRANCH   1   9
ATOM      9  C   UNL     1      -2.332 -25.999  46.714  1.00  0.00     0.000 C 
BRANCH   9  10
ATOM     10  C   UNL     1      -3.612 -25.748  45.902  1.00  0.00     0.000 C 
BRANCH  10  11
ATOM     11  C   UNL     1      -3.894 -26.863  44.883  1.00  0.00    -0.000 C 
BRANCH  11  12
ATOM     12  C   UNL     1      -3.138 -28.148  45.254  1.00  0.00    -0.000 C 
BRANCH  12  13
ATOM     13  C   UNL     1      -3.723 -29.395  44.574  1.00  0.00    -0.003 C 
ATOM     14  C   UNL     1      -5.178 -29.207  44.145  1.00  0.00     0.004 C 
ENDBRANCH  12  13
ENDBRANCH  11  12
ENDBRANCH  10  11
ENDBRANCH   9  10
ENDBRANCH   1   9
TORSDOF 9
ENDMDL
MODEL 6
REMARK VINA RESULT:    -4.411      1.634      2.690
REMARK INTER + INTRA:          -8.361
REMARK INTER:                  -6.809
REMARK INTRA:                  -1.552
REMARK UNBOUND:                -1.630
REMARK SMILES CCCCCCCCCC=CC(=O)[O-]
REMARK SMILES IDX 7 1 8 2 9 3 10 4 11 5 12 6 13 7 14 8 6 9 5 10 4 11 3 12 2 13
REMARK SMILES IDX 1 14
REMARK H PARENT
REMARK Flexibility Score: inf
ROOT
ATOM      1  C   UNL     1      -4.799 -24.540  49.699  1.00  0.00     0.000 C 
ENDROOT
BRANCH   1   2
ATOM      2  C   UNL     1      -3.267 -24.472  49.701  1.00  0.00     0.004 C 
BRANCH   2   3
ATOM      3  C   UNL     1      -2.772 -23.257  50.497  1.00  0.00     0.027 C 
BRANCH   3   4
ATOM      4  C   UNL     1      -2.623 -22.049  49.613  1.00  0.00    -0.025 C 
ATOM      5  C   UNL     1      -3.418 -20.966  49.616  1.00  0.00     0.020 C 
BRANCH   5   6
ATOM      6  C   UNL     1      -4.571 -20.720  50.508  1.00  0.00     0.064 C 
ATOM      7  O   UNL     1      -5.735 -21.101  50.219  1.00  0.00    -0.545 OA
ATOM      8  O   UNL     1      -4.356 -20.065  51.714  1.00  0.00    -0.545 OA
ENDBRANCH   5   6
ENDBRANCH   3   4
ENDBRANCH   2   3
ENDBRANCH   1   2
BRANCH   1   9
ATOM      9  C   UNL     1      -5.355 -24.363  48.278  1.00  0.00     0.000 C 
BRANCH   9  10
ATOM     10  C   UNL     1      -4.258 -24.397  47.203  1.00  0.00     0.000 C 
BRANCH  10  11
ATOM     11  C   UNL     1      -4.229 -23.122  46.346  1.00  0.00    -0.000 C 
BRANCH  11  12
ATOM     12  C   UNL     1      -5.234 -22.086  46.873  1.00  0.00    -0.000 C 
BRANCH  12  13
ATOM     13  C   UNL     1      -5.068 -20.711  46.209  1.00  0.00    -0.003 C 
ATOM     14  C   UNL     1      -5.920 -19.628  46.871  1.00  0.00     0.004 C 
ENDBRANCH  12  13
ENDBRANCH  11  12
ENDBRANCH  10  11
ENDBRANCH   9  10
ENDBRANCH   1   9
TORSDOF 9
ENDMDL
MODEL 7
REMARK VINA RESULT:    -4.395      2.626      4.045
REMARK INTER + INTRA:          -8.337
REMARK INTER:                  -6.762
REMARK INTRA:                  -1.575
REMARK UNBOUND:                -1.630
REMARK SMILES CCCCCCCCCC=CC(=O)[O-]
REMARK SMILES IDX 7 1 8 2 9 3 10 4 11 5 12 6 13 7 14 8 6 9 5 10 4 11 3 12 2 13
REMARK SMILES IDX 1 14
REMARK H PARENT
REMARK Flexibility Score: inf
ROOT
ATOM      1  C   UNL     1      -4.118 -24.376  49.556  1.00  0.00     0.000 C 
ENDROOT
BRANCH   1   2
ATOM      2  C   UNL     1      -4.092 -22.962  50.148  1.00  0.00     0.004 C 
BRANCH   2   3
ATOM      3  C   UNL     1      -2.655 -22.521  50.458  1.00  0.00     0.027 C 
BRANCH   3   4
ATOM      4  C   UNL     1      -1.725 -23.702  50.523  1.00  0.00    -0.025 C 
ATOM      5  C   UNL     1      -0.381 -23.650  50.513  1.00  0.00     0.020 C 
BRANCH   5   6
ATOM      6  C   UNL     1       0.454 -22.431  50.478  1.00  0.00     0.064 C 
ATOM      7  O   UNL     1       1.089 -22.084  49.448  1.00  0.00    -0.545 OA
ATOM      8  O   UNL     1       0.522 -21.633  51.612  1.00  0.00    -0.545 OA
ENDBRANCH   5   6
ENDBRANCH   3   4
ENDBRANCH   2   3
ENDBRANCH   1   2
BRANCH   1   9
ATOM      9  C   UNL     1      -5.080 -24.455  48.362  1.00  0.00     0.000 C 
BRANCH   9  10
ATOM     10  C   UNL     1      -4.371 -24.841  47.054  1.00  0.00     0.000 C 
BRANCH  10  11
ATOM     11  C   UNL     1      -3.358 -23.781  46.594  1.00  0.00    -0.000 C 
BRANCH  11  12
ATOM     12  C   UNL     1      -1.924 -24.327  46.667  1.00  0.00    -0.000 C 
BRANCH  12  13
ATOM     13  C   UNL     1      -0.874 -23.213  46.798  1.00  0.00    -0.003 C 
ATOM     14  C   UNL     1      -1.498 -21.836  47.023  1.00  0.00     0.004 C 
ENDBRANCH  12  13
ENDBRANCH  11  12
ENDBRANCH  10  11
ENDBRANCH   9  10
ENDBRANCH   1   9
TORSDOF 9
ENDMDL
MODEL 8
REMARK VINA RESULT:    -4.387      1.561      3.361
REMARK INTER + INTRA:          -8.325
REMARK INTER:                  -6.569
REMARK INTRA:                  -1.756
REMARK UNBOUND:                -1.630
REMARK SMILES CCCCCCCCCC=CC(=O)[O-]
REMARK SMILES IDX 7 1 8 2 9 3 10 4 11 5 12 6 13 7 14 8 6 9 5 10 4 11 3 12 2 13
REMARK SMILES IDX 1 14
REMARK H PARENT
REMARK Flexibility Score: inf
ROOT
ATOM      1  C   UNL     1      -2.369 -25.109  48.173  1.00  0.00     0.000 C 
ENDROOT
BRANCH   1   2
ATOM      2  C   UNL     1      -3.783 -24.589  47.890  1.00  0.00     0.004 C 
BRANCH   2   3
ATOM      3  C   UNL     1      -4.578 -24.422  49.192  1.00  0.00     0.027 C 
BRANCH   3   4
ATOM      4  C   UNL     1      -3.859 -23.521  50.159  1.00  0.00    -0.025 C 
ATOM      5  C   UNL     1      -4.010 -22.189  50.258  1.00  0.00     0.020 C 
BRANCH   5   6
ATOM      6  C   UNL     1      -4.934 -21.345  49.472  1.00  0.00     0.064 C 
ATOM      7  O   UNL     1      -5.988 -20.866  49.965  1.00  0.00    -0.545 OA
ATOM      8  O   UNL     1      -4.617 -21.054  48.151  1.00  0.00    -0.545 OA
ENDBRANCH   5   6
ENDBRANCH   3   4
ENDBRANCH   2   3
ENDBRANCH   1   2
BRANCH   1   9
ATOM      9  C   UNL     1      -1.318 -24.285  47.414  1.00  0.00     0.000 C 
BRANCH   9  10
ATOM     10  C   UNL     1      -1.827 -22.888  47.025  1.00  0.00     0.000 C 
BRANCH  10  11
ATOM     11  C   UNL     1      -1.158 -21.768  47.836  1.00  0.00    -0.000 C 
BRANCH  11  12
ATOM     12  C   UNL     1      -0.015 -22.324  48.700  1.00  0.00    -0.000 C 
BRANCH  12  13
ATOM     13  C   UNL     1      -0.299 -22.204  50.204  1.00  0.00    -0.003 C 
ATOM     14  C   UNL     1      -0.242 -23.550  50.927  1.00  0.00     0.004 C 
ENDBRANCH  12  13
ENDBRANCH  11  12
ENDBRANCH  10  11
ENDBRANCH   9  10
ENDBRANCH   1   9
TORSDOF 9
ENDMDL
MODEL 9
REMARK VINA RESULT:    -4.288      2.168      4.041
REMARK INTER + INTRA:          -8.174
REMARK INTER:                  -6.904
REMARK INTRA:                  -1.270
REMARK UNBOUND:                -1.630
REMARK SMILES CCCCCCCCCC=CC(=O)[O-]
REMARK SMILES IDX 7 1 8 2 9 3 10 4 11 5 12 6 13 7 14 8 6 9 5 10 4 11 3 12 2 13
REMARK SMILES IDX 1 14
REMARK H PARENT
REMARK Flexibility Score: inf
ROOT
ATOM      1  C   UNL     1      -3.899 -24.197  47.114  1.00  0.00     0.000 C 
ENDROOT
BRANCH   1   2
ATOM      2  C   UNL     1      -2.818 -25.280  47.012  1.00  0.00     0.004 C 
BRANCH   2   3
ATOM      3  C   UNL     1      -1.497 -24.797  47.624  1.00  0.00     0.027 C 
BRANCH   3   4
ATOM      4  C   UNL     1      -1.490 -23.303  47.801  1.00  0.00    -0.025 C 
ATOM      5  C   UNL     1      -1.443 -22.647  48.973  1.00  0.00     0.020 C 
BRANCH   5   6
ATOM      6  C   UNL     1      -1.347 -23.251  50.319  1.00  0.00     0.064 C 
ATOM      7  O   UNL     1      -2.315 -23.851  50.854  1.00  0.00    -0.545 OA
ATOM      8  O   UNL     1      -0.142 -23.170  51.005  1.00  0.00    -0.545 OA
ENDBRANCH   5   6
ENDBRANCH   3   4
ENDBRANCH   2   3
ENDBRANCH   1   2
BRANCH   1   9
ATOM      9  C   UNL     1      -4.917 -24.538  48.212  1.00  0.00     0.000 C 
BRANCH   9  10
ATOM     10  C   UNL     1      -5.463 -23.290  48.923  1.00  0.00     0.000 C 
BRANCH  10  11
ATOM     11  C   UNL     1      -5.387 -22.029  48.047  1.00  0.00    -0.000 C 
BRANCH  11  12
ATOM     12  C   UNL     1      -4.753 -20.863  48.822  1.00  0.00    -0.000 C 
BRANCH  12  13
ATOM     13  C   UNL     1      -4.575 -21.173  50.316  1.00  0.00    -0.003 C 
ATOM     14  C   UNL     1      -4.428 -19.913  51.168  1.00  0.00     0.004 C 
ENDBRANCH  12  13
ENDBRANCH  11  12
ENDBRANCH  10  11
ENDBRANCH   9  10
ENDBRANCH   1   9
TORSDOF 9
ENDMDL
