MODEL 1
REMARK VINA RESULT:    -1.874      0.000      0.000
REMARK INTER + INTRA:          -1.278
REMARK INTER:                  -2.859
REMARK INTRA:                   1.582
REMARK UNBOUND:                 1.582
REMARK SMILES CC1=CCC[C@@H](C)C(=O)C[C@H](C(C)C)C(=O)C1
REMARK SMILES IDX 8 1 9 2 6 3 7 4 5 5 4 6 3 7 2 8 1 9 10 11 11 12 15 13 16 14
REMARK SMILES IDX 17 15 12 17 13 18 14 19
REMARK H PARENT
REMARK Flexibility Score: 70.00
ROOT
ATOM      1  C   UNL     1      -1.382  -8.099 -14.783  1.00  0.00     0.136 C 
ATOM      2  O   UNL     1      -0.910  -9.120 -14.307  1.00  0.00    -0.299 OA
ENDROOT
BRANCH   1   3
ATOM      3  C   UNL     1      -2.094  -7.099 -13.849  1.00  0.00     0.053 C 
ATOM      4  C   UNL     1      -3.517  -6.779 -14.330  1.00  0.00     0.016 C 
BRANCH   3   5
ATOM      5  C   UNL     1      -1.230  -5.854 -13.825  1.00  0.00     0.015 C 
BRANCH   5   6
ATOM      6  C   UNL     1      -1.077  -4.856 -14.944  1.00  0.00     0.028 C 
BRANCH   6   7
ATOM      7  C   UNL     1      -2.391  -4.091 -15.111  1.00  0.00    -0.028 C 
ATOM      8  C   UNL     1      -3.153  -3.905 -16.244  1.00  0.00    -0.070 CG0
ATOM      9  C   UNL     1      -4.349  -2.994 -16.101  1.00  0.00     0.039 C 
ATOM     10  G   UNL     1      -2.927  -4.546 -17.632  1.00  0.00     0.000 G0
ENDBRANCH   6   7
ENDBRANCH   5   6
ENDBRANCH   3   5
ENDBRANCH   1   3
BRANCH   1  11
ATOM     11  C   UNL     1      -1.191  -7.848 -16.293  1.00  0.00     0.087 C 
BRANCH  11  12
ATOM     12  C   UNL     1      -2.390  -7.129 -17.033  1.00  0.00     0.066 C 
BRANCH  12  13
ATOM     13  C   UNL     1      -2.002  -5.755 -17.631  1.00  0.00     0.140 C 
ATOM     14  O   UNL     1      -0.894  -5.611 -18.125  1.00  0.00    -0.299 OA
BRANCH  13  15
ATOM     15  C   UNL     1      -2.958  -4.556 -17.633  1.00  0.00     0.106 CG0
ATOM     16  G   UNL     1      -3.158  -3.897 -16.250  1.00  0.00     0.000 G0
ENDBRANCH  13  15
ENDBRANCH  12  13
BRANCH  12  17
ATOM     17  C   UNL     1      -3.040  -8.054 -18.108  1.00  0.00    -0.006 C 
ATOM     18  C   UNL     1      -4.578  -8.077 -18.062  1.00  0.00     0.008 C 
ATOM     19  C   UNL     1      -2.489  -9.488 -18.026  1.00  0.00     0.008 C 
ENDBRANCH  12  17
ENDBRANCH  11  12
ENDBRANCH   1  11
TORSDOF 1
ENDMDL
