MODEL 1
REMARK VINA RESULT:    -5.996      0.000      0.000
REMARK INTER + INTRA:         -11.959
REMARK INTER:                  -9.852
REMARK INTRA:                  -2.107
REMARK UNBOUND:                -2.107
REMARK SMILES C[C@@H]1O[C@H](OC[C@H]2O[C@@H](Oc3c(-c4ccc(O)c(O)c4)oc4cc(O)cc(O)c4c3=O)[C@H](O)[C@@H](O)[C@H]2O)[C@@H](O)[C@H](O)[C@H]1O
REMARK SMILES IDX 7 1 36 2 34 3 32 4 9 5 8 6 6 7 5 8 4 9 1 10 2 11 42 12 3 13
REMARK SMILES IDX 40 14 38 15 43 16 41 18 39 20 37 22 35 24 10 26 11 27 12 28
REMARK SMILES IDX 30 29 21 30 29 31 31 32 22 33 27 34 23 35 26 36 24 37 13 38
REMARK SMILES IDX 20 39 14 40 18 41 15 42 16 43 19 44 17 46 28 48 25 50 33 52
REMARK H PARENT 43 17 41 19 39 21 37 23 35 25 19 45 17 47 28 49 25 51 33 53
REMARK Flexibility Score: inf
ROOT
ATOM      1  C   UNL     1     164.999 184.048  32.224  1.00  0.00     0.180 C 
ATOM      2  C   UNL     1     165.333 183.278  33.514  1.00  0.00     0.177 C 
ATOM      3  C   UNL     1     164.052 182.554  34.046  1.00  0.00     0.180 C 
ATOM      4  C   UNL     1     162.786 182.863  33.202  1.00  0.00     0.214 C 
ATOM      5  C   UNL     1     163.085 182.858  31.649  1.00  0.00     0.339 C 
ATOM      6  O   UNL     1     164.451 183.096  31.314  1.00  0.00    -0.332 OA
ENDROOT
BRANCH   1   7
ATOM      7  C   UNL     1     166.162 184.884  31.611  1.00  0.00     0.198 C 
BRANCH   7   8
ATOM      8  O   UNL     1     167.274 184.827  32.487  1.00  0.00    -0.347 OA
BRANCH   8   9
ATOM      9  C   UNL     1     168.180 185.918  32.329  1.00  0.00     0.281 C 
ATOM     10  C   UNL     1     169.401 183.818  34.018  1.00  0.00     0.041 C 
ATOM     11  C   UNL     1     169.793 185.326  33.982  1.00  0.00     0.150 C 
ATOM     12  C   UNL     1     171.052 185.604  33.096  1.00  0.00     0.174 C 
ATOM     13  O   UNL     1     168.737 186.200  33.609  1.00  0.00    -0.344 OA
ATOM     14  C   UNL     1     170.666 186.151  31.702  1.00  0.00     0.179 C 
ATOM     15  C   UNL     1     169.295 185.649  31.228  1.00  0.00     0.202 C 
BRANCH  12  16
ATOM     16  O   UNL     1     171.926 186.517  33.735  1.00  0.00    -0.388 OA
ATOM     17  H   UNL     1     172.837 186.088  33.699  1.00  0.00     0.211 HD
ENDBRANCH  12  16
BRANCH  14  18
ATOM     18  O   UNL     1     171.646 185.786  30.754  1.00  0.00    -0.387 OA
ATOM     19  H   UNL     1     172.153 186.609  30.531  1.00  0.00     0.211 HD
ENDBRANCH  14  18
BRANCH  15  20
ATOM     20  O   UNL     1     168.946 186.262  30.012  1.00  0.00    -0.385 OA
ATOM     21  H   UNL     1     168.770 185.540  29.345  1.00  0.00     0.211 HD
ENDBRANCH  15  20
ENDBRANCH   8   9
ENDBRANCH   7   8
ENDBRANCH   1   7
BRANCH   2  22
ATOM     22  O   UNL     1     166.369 182.355  33.258  1.00  0.00    -0.387 OA
ATOM     23  H   UNL     1     167.207 182.777  33.599  1.00  0.00     0.211 HD
ENDBRANCH   2  22
BRANCH   3  24
ATOM     24  O   UNL     1     164.221 181.164  34.244  1.00  0.00    -0.387 OA
ATOM     25  H   UNL     1     165.047 180.809  33.768  1.00  0.00     0.211 HD
ENDBRANCH   3  24
BRANCH   5  26
ATOM     26  O   UNL     1     162.541 181.750  30.878  1.00  0.00    -0.454 OA
BRANCH  26  27
ATOM     27  C   UNL     1     162.023 180.507  31.289  1.00  0.00     0.214 A 
ATOM     28  C   UNL     1     160.623 180.332  31.384  1.00  0.00     0.180 A 
ATOM     29  C   UNL     1     162.850 179.438  31.683  1.00  0.00     0.239 A 
ATOM     30  O   UNL     1     160.128 179.094  31.484  1.00  0.00    -0.452 OA
ATOM     31  C   UNL     1     162.305 178.140  31.710  1.00  0.00     0.111 A 
ATOM     32  O   UNL     1     164.064 179.647  31.981  1.00  0.00    -0.285 OA
ATOM     33  C   UNL     1     160.901 178.007  31.546  1.00  0.00     0.146 A 
ATOM     34  C   UNL     1     163.122 176.981  31.694  1.00  0.00     0.134 A 
ATOM     35  C   UNL     1     160.334 176.731  31.393  1.00  0.00     0.094 A 
ATOM     36  C   UNL     1     162.545 175.731  31.403  1.00  0.00     0.093 A 
ATOM     37  C   UNL     1     161.158 175.612  31.246  1.00  0.00     0.123 A 
BRANCH  28  38
ATOM     38  C   UNL     1     159.713 181.500  31.311  1.00  0.00     0.025 A 
ATOM     39  C   UNL     1     158.975 181.756  30.131  1.00  0.00     0.062 A 
ATOM     40  C   UNL     1     159.480 182.300  32.442  1.00  0.00     0.016 A 
ATOM     41  C   UNL     1     157.916 182.680  30.143  1.00  0.00     0.158 A 
ATOM     42  C   UNL     1     158.436 183.236  32.436  1.00  0.00     0.051 A 
ATOM     43  C   UNL     1     157.630 183.408  31.303  1.00  0.00     0.157 A 
BRANCH  41  44
ATOM     44  O   UNL     1     157.114 182.853  29.009  1.00  0.00    -0.504 OA
ATOM     45  H   UNL     1     157.522 182.984  28.090  1.00  0.00     0.293 HD
ENDBRANCH  41  44
BRANCH  43  46
ATOM     46  O   UNL     1     156.541 184.274  31.367  1.00  0.00    -0.504 OA
ATOM     47  H   UNL     1     155.621 183.958  31.669  1.00  0.00     0.293 HD
ENDBRANCH  43  46
ENDBRANCH  28  38
BRANCH  34  48
ATOM     48  O   UNL     1     164.511 177.069  31.853  1.00  0.00    -0.507 OA
ATOM     49  H   UNL     1     165.071 176.262  32.122  1.00  0.00     0.293 HD
ENDBRANCH  34  48
BRANCH  37  50
ATOM     50  O   UNL     1     160.609 174.409  30.796  1.00  0.00    -0.508 OA
ATOM     51  H   UNL     1     161.212 173.806  30.218  1.00  0.00     0.293 HD
ENDBRANCH  37  50
ENDBRANCH  26  27
ENDBRANCH   5  26
BRANCH   4  52
ATOM     52  O   UNL     1     162.287 184.112  33.602  1.00  0.00    -0.384 OA
ATOM     53  H   UNL     1     162.803 184.806  33.108  1.00  0.00     0.211 HD
ENDBRANCH   4  52
TORSDOF 16
ENDMDL
MODEL 2
REMARK VINA RESULT:    -5.621      3.262      8.788
REMARK INTER + INTRA:         -11.342
REMARK INTER:                  -9.525
REMARK INTRA:                  -1.817
REMARK UNBOUND:                -2.107
REMARK SMILES C[C@@H]1O[C@H](OC[C@H]2O[C@@H](Oc3c(-c4ccc(O)c(O)c4)oc4cc(O)cc(O)c4c3=O)[C@H](O)[C@@H](O)[C@H]2O)[C@@H](O)[C@H](O)[C@H]1O
REMARK SMILES IDX 7 1 36 2 34 3 32 4 9 5 8 6 6 7 5 8 4 9 1 10 2 11 42 12 3 13
REMARK SMILES IDX 40 14 38 15 43 16 41 18 39 20 37 22 35 24 10 26 11 27 12 28
REMARK SMILES IDX 30 29 21 30 29 31 31 32 22 33 27 34 23 35 26 36 24 37 13 38
REMARK SMILES IDX 20 39 14 40 18 41 15 42 16 43 19 44 17 46 28 48 25 50 33 52
REMARK H PARENT 43 17 41 19 39 21 37 23 35 25 19 45 17 47 28 49 25 51 33 53
REMARK Flexibility Score: inf
ROOT
ATOM      1  C   UNL     1     162.696 175.324  32.042  1.00  0.00     0.180 C 
ATOM      2  C   UNL     1     161.590 175.309  33.111  1.00  0.00     0.177 C 
ATOM      3  C   UNL     1     161.330 176.763  33.628  1.00  0.00     0.180 C 
ATOM      4  C   UNL     1     162.293 177.808  33.004  1.00  0.00     0.214 C 
ATOM      5  C   UNL     1     162.518 177.569  31.456  1.00  0.00     0.339 C 
ATOM      6  O   UNL     1     162.267 176.231  31.028  1.00  0.00    -0.332 OA
ENDROOT
BRANCH   1   7
ATOM      7  C   UNL     1     163.119 173.934  31.482  1.00  0.00     0.198 C 
BRANCH   7   8
ATOM      8  O   UNL     1     164.388 173.596  32.015  1.00  0.00    -0.347 OA
BRANCH   8   9
ATOM      9  C   UNL     1     165.424 173.554  31.035  1.00  0.00     0.281 C 
ATOM     10  C   UNL     1     166.594 173.599  33.753  1.00  0.00     0.041 C 
ATOM     11  C   UNL     1     167.298 174.031  32.431  1.00  0.00     0.150 C 
ATOM     12  C   UNL     1     168.230 172.917  31.848  1.00  0.00     0.174 C 
ATOM     13  O   UNL     1     166.416 174.501  31.421  1.00  0.00    -0.344 OA
ATOM     14  C   UNL     1     167.554 172.149  30.689  1.00  0.00     0.179 C 
ATOM     15  C   UNL     1     166.025 172.097  30.825  1.00  0.00     0.202 C 
BRANCH  12  16
ATOM     16  O   UNL     1     169.453 173.471  31.397  1.00  0.00    -0.388 OA
ATOM     17  H   UNL     1     169.354 173.562  30.397  1.00  0.00     0.211 HD
ENDBRANCH  12  16
BRANCH  14  18
ATOM     18  O   UNL     1     168.059 170.832  30.627  1.00  0.00    -0.387 OA
ATOM     19  H   UNL     1     168.891 170.867  30.089  1.00  0.00     0.211 HD
ENDBRANCH  14  18
BRANCH  15  20
ATOM     20  O   UNL     1     165.457 171.487  29.693  1.00  0.00    -0.385 OA
ATOM     21  H   UNL     1     164.672 172.037  29.411  1.00  0.00     0.211 HD
ENDBRANCH  15  20
ENDBRANCH   8   9
ENDBRANCH   7   8
ENDBRANCH   1   7
BRANCH   2  22
ATOM     22  O   UNL     1     160.416 174.745  32.568  1.00  0.00    -0.387 OA
ATOM     23  H   UNL     1     159.968 175.476  32.057  1.00  0.00     0.211 HD
ENDBRANCH   2  22
BRANCH   3  24
ATOM     24  O   UNL     1     159.980 177.172  33.529  1.00  0.00    -0.387 OA
ATOM     25  H   UNL     1     159.834 177.825  32.764  1.00  0.00     0.211 HD
ENDBRANCH   3  24
BRANCH   5  26
ATOM     26  O   UNL     1     161.917 178.533  30.547  1.00  0.00    -0.454 OA
BRANCH  26  27
ATOM     27  C   UNL     1     160.858 179.441  30.735  1.00  0.00     0.214 A 
ATOM     28  C   UNL     1     161.141 180.812  30.935  1.00  0.00     0.180 A 
ATOM     29  C   UNL     1     159.514 179.029  30.803  1.00  0.00     0.239 A 
ATOM     30  O   UNL     1     160.153 181.704  30.819  1.00  0.00    -0.452 OA
ATOM     31  C   UNL     1     158.504 179.990  30.607  1.00  0.00     0.111 A 
ATOM     32  O   UNL     1     159.229 177.811  31.010  1.00  0.00    -0.285 OA
ATOM     33  C   UNL     1     158.889 181.357  30.566  1.00  0.00     0.146 A 
ATOM     34  C   UNL     1     157.177 179.629  30.259  1.00  0.00     0.134 A 
ATOM     35  C   UNL     1     157.949 182.336  30.204  1.00  0.00     0.094 A 
ATOM     36  C   UNL     1     156.298 180.611  29.769  1.00  0.00     0.093 A 
ATOM     37  C   UNL     1     156.688 181.956  29.736  1.00  0.00     0.123 A 
BRANCH  28  38
ATOM     38  C   UNL     1     162.528 181.260  31.209  1.00  0.00     0.025 A 
ATOM     39  C   UNL     1     163.238 182.011  30.242  1.00  0.00     0.062 A 
ATOM     40  C   UNL     1     163.114 181.050  32.468  1.00  0.00     0.016 A 
ATOM     41  C   UNL     1     164.429 182.671  30.592  1.00  0.00     0.158 A 
ATOM     42  C   UNL     1     164.315 181.695  32.799  1.00  0.00     0.051 A 
ATOM     43  C   UNL     1     164.960 182.531  31.878  1.00  0.00     0.157 A 
BRANCH  41  44
ATOM     44  O   UNL     1     165.074 183.503  29.669  1.00  0.00    -0.504 OA
ATOM     45  H   UNL     1     164.858 184.492  29.610  1.00  0.00     0.293 HD
ENDBRANCH  41  44
BRANCH  43  46
ATOM     46  O   UNL     1     166.096 183.233  32.276  1.00  0.00    -0.504 OA
ATOM     47  H   UNL     1     166.388 184.089  31.809  1.00  0.00     0.293 HD
ENDBRANCH  43  46
ENDBRANCH  28  38
BRANCH  34  48
ATOM     48  O   UNL     1     156.758 178.292  30.287  1.00  0.00    -0.507 OA
ATOM     49  H   UNL     1     157.322 177.563  30.718  1.00  0.00     0.293 HD
ENDBRANCH  34  48
BRANCH  37  50
ATOM     50  O   UNL     1     155.879 182.900  29.098  1.00  0.00    -0.508 OA
ATOM     51  H   UNL     1     154.862 182.738  29.121  1.00  0.00     0.293 HD
ENDBRANCH  37  50
ENDBRANCH  26  27
ENDBRANCH   5  26
BRANCH   4  52
ATOM     52  O   UNL     1     163.514 177.745  33.693  1.00  0.00    -0.384 OA
ATOM     53  H   UNL     1     164.237 177.721  33.008  1.00  0.00     0.211 HD
ENDBRANCH   4  52
TORSDOF 16
ENDMDL
MODEL 3
REMARK VINA RESULT:    -5.604      7.454     12.783
REMARK INTER + INTRA:         -11.314
REMARK INTER:                  -8.626
REMARK INTRA:                  -2.688
REMARK UNBOUND:                -2.107
REMARK SMILES C[C@@H]1O[C@H](OC[C@H]2O[C@@H](Oc3c(-c4ccc(O)c(O)c4)oc4cc(O)cc(O)c4c3=O)[C@H](O)[C@@H](O)[C@H]2O)[C@@H](O)[C@H](O)[C@H]1O
REMARK SMILES IDX 7 1 36 2 34 3 32 4 9 5 8 6 6 7 5 8 4 9 1 10 2 11 42 12 3 13
REMARK SMILES IDX 40 14 38 15 43 16 41 18 39 20 37 22 35 24 10 26 11 27 12 28
REMARK SMILES IDX 30 29 21 30 29 31 31 32 22 33 27 34 23 35 26 36 24 37 13 38
REMARK SMILES IDX 20 39 14 40 18 41 15 42 16 43 19 44 17 46 28 48 25 50 33 52
REMARK H PARENT 43 17 41 19 39 21 37 23 35 25 19 45 17 47 28 49 25 51 33 53
REMARK Flexibility Score: inf
ROOT
ATOM      1  C   UNL     1     159.782 170.861  31.894  1.00  0.00     0.180 C 
ATOM      2  C   UNL     1     158.556 171.329  32.696  1.00  0.00     0.177 C 
ATOM      3  C   UNL     1     158.997 171.772  34.131  1.00  0.00     0.180 C 
ATOM      4  C   UNL     1     160.511 171.548  34.395  1.00  0.00     0.214 C 
ATOM      5  C   UNL     1     161.403 171.955  33.154  1.00  0.00     0.339 C 
ATOM      6  O   UNL     1     160.712 171.942  31.906  1.00  0.00    -0.332 OA
ENDROOT
BRANCH   1   7
ATOM      7  C   UNL     1     159.492 170.318  30.463  1.00  0.00     0.198 C 
BRANCH   7   8
ATOM      8  O   UNL     1     160.502 170.784  29.587  1.00  0.00    -0.347 OA
BRANCH   8   9
ATOM      9  C   UNL     1     160.967 169.790  28.675  1.00  0.00     0.281 C 
ATOM     10  C   UNL     1     160.033 172.175  27.193  1.00  0.00     0.041 C 
ATOM     11  C   UNL     1     160.156 170.724  26.636  1.00  0.00     0.150 C 
ATOM     12  C   UNL     1     161.468 170.499  25.814  1.00  0.00     0.174 C 
ATOM     13  O   UNL     1     160.019 169.704  27.616  1.00  0.00    -0.344 OA
ATOM     14  C   UNL     1     162.551 169.773  26.644  1.00  0.00     0.179 C 
ATOM     15  C   UNL     1     162.441 170.068  28.147  1.00  0.00     0.202 C 
BRANCH  12  16
ATOM     16  O   UNL     1     161.202 169.758  24.635  1.00  0.00    -0.388 OA
ATOM     17  H   UNL     1     162.073 169.310  24.397  1.00  0.00     0.211 HD
ENDBRANCH  12  16
BRANCH  14  18
ATOM     18  O   UNL     1     163.835 170.145  26.191  1.00  0.00    -0.387 OA
ATOM     19  H   UNL     1     163.929 169.795  25.268  1.00  0.00     0.211 HD
ENDBRANCH  14  18
BRANCH  15  20
ATOM     20  O   UNL     1     163.375 169.298  28.863  1.00  0.00    -0.385 OA
ATOM     21  H   UNL     1     164.286 169.529  28.522  1.00  0.00     0.211 HD
ENDBRANCH  15  20
ENDBRANCH   8   9
ENDBRANCH   7   8
ENDBRANCH   1   7
BRANCH   2  22
ATOM     22  O   UNL     1     157.919 172.386  32.012  1.00  0.00    -0.387 OA
ATOM     23  H   UNL     1     157.842 173.135  32.667  1.00  0.00     0.211 HD
ENDBRANCH   2  22
BRANCH   3  24
ATOM     24  O   UNL     1     158.596 173.084  34.473  1.00  0.00    -0.387 OA
ATOM     25  H   UNL     1     159.118 173.448  35.266  1.00  0.00     0.211 HD
ENDBRANCH   3  24
BRANCH   5  26
ATOM     26  O   UNL     1     162.215 173.155  33.293  1.00  0.00    -0.454 OA
BRANCH  26  27
ATOM     27  C   UNL     1     162.086 174.428  32.709  1.00  0.00     0.214 A 
ATOM     28  C   UNL     1     163.035 174.855  31.751  1.00  0.00     0.180 A 
ATOM     29  C   UNL     1     161.082 175.337  33.092  1.00  0.00     0.239 A 
ATOM     30  O   UNL     1     162.757 175.918  30.990  1.00  0.00    -0.452 OA
ATOM     31  C   UNL     1     160.774 176.405  32.228  1.00  0.00     0.111 A 
ATOM     32  O   UNL     1     160.454 175.172  34.181  1.00  0.00    -0.285 OA
ATOM     33  C   UNL     1     161.637 176.632  31.123  1.00  0.00     0.146 A 
ATOM     34  C   UNL     1     159.549 177.114  32.314  1.00  0.00     0.134 A 
ATOM     35  C   UNL     1     161.281 177.571  30.141  1.00  0.00     0.094 A 
ATOM     36  C   UNL     1     159.154 177.945  31.249  1.00  0.00     0.093 A 
ATOM     37  C   UNL     1     160.015 178.164  30.166  1.00  0.00     0.123 A 
BRANCH  28  38
ATOM     38  C   UNL     1     164.294 174.097  31.550  1.00  0.00     0.025 A 
ATOM     39  C   UNL     1     164.257 172.775  31.047  1.00  0.00     0.062 A 
ATOM     40  C   UNL     1     165.541 174.714  31.743  1.00  0.00     0.016 A 
ATOM     41  C   UNL     1     165.435 172.155  30.595  1.00  0.00     0.158 A 
ATOM     42  C   UNL     1     166.713 174.077  31.310  1.00  0.00     0.051 A 
ATOM     43  C   UNL     1     166.664 172.814  30.706  1.00  0.00     0.157 A 
BRANCH  41  44
ATOM     44  O   UNL     1     165.385 170.891  29.996  1.00  0.00    -0.504 OA
ATOM     45  H   UNL     1     165.461 170.781  28.990  1.00  0.00     0.293 HD
ENDBRANCH  41  44
BRANCH  43  46
ATOM     46  O   UNL     1     167.835 172.256  30.199  1.00  0.00    -0.504 OA
ATOM     47  H   UNL     1     167.848 171.745  29.318  1.00  0.00     0.293 HD
ENDBRANCH  43  46
ENDBRANCH  28  38
BRANCH  34  48
ATOM     48  O   UNL     1     158.671 176.919  33.388  1.00  0.00    -0.507 OA
ATOM     49  H   UNL     1     157.876 177.534  33.547  1.00  0.00     0.293 HD
ENDBRANCH  34  48
BRANCH  37  50
ATOM     50  O   UNL     1     159.556 178.852  29.040  1.00  0.00    -0.508 OA
ATOM     51  H   UNL     1     158.610 179.255  29.091  1.00  0.00     0.293 HD
ENDBRANCH  37  50
ENDBRANCH  26  27
ENDBRANCH   5  26
BRANCH   4  52
ATOM     52  O   UNL     1     160.703 170.195  34.716  1.00  0.00    -0.384 OA
ATOM     53  H   UNL     1     161.410 170.158  35.417  1.00  0.00     0.211 HD
ENDBRANCH   4  52
TORSDOF 16
ENDMDL
MODEL 4
REMARK VINA RESULT:    -5.558      3.378      8.761
REMARK INTER + INTRA:         -11.240
REMARK INTER:                  -9.007
REMARK INTRA:                  -2.232
REMARK UNBOUND:                -2.107
REMARK SMILES C[C@@H]1O[C@H](OC[C@H]2O[C@@H](Oc3c(-c4ccc(O)c(O)c4)oc4cc(O)cc(O)c4c3=O)[C@H](O)[C@@H](O)[C@H]2O)[C@@H](O)[C@H](O)[C@H]1O
REMARK SMILES IDX 7 1 36 2 34 3 32 4 9 5 8 6 6 7 5 8 4 9 1 10 2 11 42 12 3 13
REMARK SMILES IDX 40 14 38 15 43 16 41 18 39 20 37 22 35 24 10 26 11 27 12 28
REMARK SMILES IDX 30 29 21 30 29 31 31 32 22 33 27 34 23 35 26 36 24 37 13 38
REMARK SMILES IDX 20 39 14 40 18 41 15 42 16 43 19 44 17 46 28 48 25 50 33 52
REMARK H PARENT 43 17 41 19 39 21 37 23 35 25 19 45 17 47 28 49 25 51 33 53
REMARK Flexibility Score: inf
ROOT
ATOM      1  C   UNL     1     163.665 176.702  33.695  1.00  0.00     0.180 C 
ATOM      2  C   UNL     1     162.380 176.354  34.465  1.00  0.00     0.177 C 
ATOM      3  C   UNL     1     161.428 177.597  34.499  1.00  0.00     0.180 C 
ATOM      4  C   UNL     1     162.051 178.854  33.835  1.00  0.00     0.214 C 
ATOM      5  C   UNL     1     162.819 178.508  32.496  1.00  0.00     0.339 C 
ATOM      6  O   UNL     1     163.255 177.153  32.405  1.00  0.00    -0.332 OA
ENDROOT
BRANCH   1   7
ATOM      7  C   UNL     1     164.748 175.584  33.638  1.00  0.00     0.198 C 
BRANCH   7   8
ATOM      8  O   UNL     1     164.266 174.525  32.830  1.00  0.00    -0.347 OA
BRANCH   8   9
ATOM      9  C   UNL     1     165.208 173.468  32.654  1.00  0.00     0.281 C 
ATOM     10  C   UNL     1     162.907 173.095  30.831  1.00  0.00     0.041 C 
ATOM     11  C   UNL     1     163.890 171.990  31.326  1.00  0.00     0.150 C 
ATOM     12  C   UNL     1     165.008 171.662  30.281  1.00  0.00     0.174 C 
ATOM     13  O   UNL     1     164.475 172.248  32.594  1.00  0.00    -0.344 OA
ATOM     14  C   UNL     1     166.345 172.353  30.631  1.00  0.00     0.179 C 
ATOM     15  C   UNL     1     166.148 173.674  31.389  1.00  0.00     0.202 C 
BRANCH  12  16
ATOM     16  O   UNL     1     165.212 170.263  30.185  1.00  0.00    -0.388 OA
ATOM     17  H   UNL     1     165.384 170.083  29.208  1.00  0.00     0.211 HD
ENDBRANCH  12  16
BRANCH  14  18
ATOM     18  O   UNL     1     167.082 172.601  29.453  1.00  0.00    -0.387 OA
ATOM     19  H   UNL     1     167.485 171.738  29.177  1.00  0.00     0.211 HD
ENDBRANCH  14  18
BRANCH  15  20
ATOM     20  O   UNL     1     167.392 174.202  31.778  1.00  0.00    -0.385 OA
ATOM     21  H   UNL     1     167.661 173.753  32.630  1.00  0.00     0.211 HD
ENDBRANCH  15  20
ENDBRANCH   8   9
ENDBRANCH   7   8
ENDBRANCH   1   7
BRANCH   2  22
ATOM     22  O   UNL     1     161.750 175.248  33.858  1.00  0.00    -0.387 OA
ATOM     23  H   UNL     1     161.082 174.911  34.518  1.00  0.00     0.211 HD
ENDBRANCH   2  22
BRANCH   3  24
ATOM     24  O   UNL     1     160.128 177.334  34.006  1.00  0.00    -0.387 OA
ATOM     25  H   UNL     1     160.047 176.394  33.628  1.00  0.00     0.211 HD
ENDBRANCH   3  24
BRANCH   5  26
ATOM     26  O   UNL     1     162.206 178.948  31.252  1.00  0.00    -0.454 OA
BRANCH  26  27
ATOM     27  C   UNL     1     161.029 179.683  31.015  1.00  0.00     0.214 A 
ATOM     28  C   UNL     1     161.098 181.090  30.895  1.00  0.00     0.180 A 
ATOM     29  C   UNL     1     159.759 179.078  30.960  1.00  0.00     0.239 A 
ATOM     30  O   UNL     1     160.054 181.751  30.385  1.00  0.00    -0.452 OA
ATOM     31  C   UNL     1     158.703 179.783  30.352  1.00  0.00     0.111 A 
ATOM     32  O   UNL     1     159.587 177.912  31.427  1.00  0.00    -0.285 OA
ATOM     33  C   UNL     1     158.921 181.147  30.022  1.00  0.00     0.146 A 
ATOM     34  C   UNL     1     157.530 179.132  29.892  1.00  0.00     0.134 A 
ATOM     35  C   UNL     1     157.965 181.842  29.263  1.00  0.00     0.094 A 
ATOM     36  C   UNL     1     156.658 179.811  29.020  1.00  0.00     0.093 A 
ATOM     37  C   UNL     1     156.882 181.157  28.704  1.00  0.00     0.123 A 
BRANCH  28  38
ATOM     38  C   UNL     1     162.334 181.817  31.273  1.00  0.00     0.025 A 
ATOM     39  C   UNL     1     163.265 182.202  30.280  1.00  0.00     0.062 A 
ATOM     40  C   UNL     1     162.544 182.235  32.597  1.00  0.00     0.016 A 
ATOM     41  C   UNL     1     164.286 183.120  30.583  1.00  0.00     0.158 A 
ATOM     42  C   UNL     1     163.580 183.134  32.893  1.00  0.00     0.051 A 
ATOM     43  C   UNL     1     164.432 183.605  31.887  1.00  0.00     0.157 A 
BRANCH  41  44
ATOM     44  O   UNL     1     165.140 183.587  29.577  1.00  0.00    -0.504 OA
ATOM     45  H   UNL     1     164.802 184.191  28.836  1.00  0.00     0.293 HD
ENDBRANCH  41  44
BRANCH  43  46
ATOM     46  O   UNL     1     165.386 184.571  32.200  1.00  0.00    -0.504 OA
ATOM     47  H   UNL     1     165.560 185.370  31.592  1.00  0.00     0.293 HD
ENDBRANCH  43  46
ENDBRANCH  28  38
BRANCH  34  48
ATOM     48  O   UNL     1     157.278 177.788  30.197  1.00  0.00    -0.507 OA
ATOM     49  H   UNL     1     158.033 177.129  30.375  1.00  0.00     0.293 HD
ENDBRANCH  34  48
BRANCH  37  50
ATOM     50  O   UNL     1     156.114 181.776  27.715  1.00  0.00    -0.508 OA
ATOM     51  H   UNL     1     156.523 182.601  27.252  1.00  0.00     0.293 HD
ENDBRANCH  37  50
ENDBRANCH  26  27
ENDBRANCH   5  26
BRANCH   4  52
ATOM     52  O   UNL     1     162.919 179.453  34.760  1.00  0.00    -0.384 OA
ATOM     53  H   UNL     1     163.645 178.798  34.948  1.00  0.00     0.211 HD
ENDBRANCH   4  52
TORSDOF 16
ENDMDL
MODEL 5
REMARK VINA RESULT:    -5.445      7.794     11.536
REMARK INTER + INTRA:         -11.053
REMARK INTER:                  -7.558
REMARK INTRA:                  -3.495
REMARK UNBOUND:                -2.107
REMARK SMILES C[C@@H]1O[C@H](OC[C@H]2O[C@@H](Oc3c(-c4ccc(O)c(O)c4)oc4cc(O)cc(O)c4c3=O)[C@H](O)[C@@H](O)[C@H]2O)[C@@H](O)[C@H](O)[C@H]1O
REMARK SMILES IDX 7 1 36 2 34 3 32 4 9 5 8 6 6 7 5 8 4 9 1 10 2 11 42 12 3 13
REMARK SMILES IDX 40 14 38 15 43 16 41 18 39 20 37 22 35 24 10 26 11 27 12 28
REMARK SMILES IDX 30 29 21 30 29 31 31 32 22 33 27 34 23 35 26 36 24 37 13 38
REMARK SMILES IDX 20 39 14 40 18 41 15 42 16 43 19 44 17 46 28 48 25 50 33 52
REMARK H PARENT 43 17 41 19 39 21 37 23 35 25 19 45 17 47 28 49 25 51 33 53
REMARK Flexibility Score: inf
ROOT
ATOM      1  C   UNL     1     158.681 173.197  32.037  1.00  0.00     0.180 C 
ATOM      2  C   UNL     1     157.925 171.859  31.971  1.00  0.00     0.177 C 
ATOM      3  C   UNL     1     156.403 172.121  31.721  1.00  0.00     0.180 C 
ATOM      4  C   UNL     1     156.045 173.631  31.690  1.00  0.00     0.214 C 
ATOM      5  C   UNL     1     157.114 174.485  30.897  1.00  0.00     0.339 C 
ATOM      6  O   UNL     1     158.404 173.880  30.816  1.00  0.00    -0.332 OA
ENDROOT
BRANCH   1   7
ATOM      7  C   UNL     1     160.203 173.104  32.356  1.00  0.00     0.198 C 
BRANCH   7   8
ATOM      8  O   UNL     1     160.912 172.938  31.141  1.00  0.00    -0.347 OA
BRANCH   8   9
ATOM      9  C   UNL     1     161.810 171.830  31.152  1.00  0.00     0.281 C 
ATOM     10  C   UNL     1     160.789 172.286  28.412  1.00  0.00     0.041 C 
ATOM     11  C   UNL     1     161.374 170.955  28.977  1.00  0.00     0.150 C 
ATOM     12  C   UNL     1     162.871 170.735  28.580  1.00  0.00     0.174 C 
ATOM     13  O   UNL     1     161.216 170.791  30.378  1.00  0.00    -0.344 OA
ATOM     14  C   UNL     1     163.833 171.103  29.734  1.00  0.00     0.179 C 
ATOM     15  C   UNL     1     163.270 172.203  30.646  1.00  0.00     0.202 C 
BRANCH  12  16
ATOM     16  O   UNL     1     163.096 169.392  28.189  1.00  0.00    -0.388 OA
ATOM     17  H   UNL     1     162.189 169.030  27.938  1.00  0.00     0.211 HD
ENDBRANCH  12  16
BRANCH  14  18
ATOM     18  O   UNL     1     165.074 171.525  29.210  1.00  0.00    -0.387 OA
ATOM     19  H   UNL     1     165.548 172.002  29.939  1.00  0.00     0.211 HD
ENDBRANCH  14  18
BRANCH  15  20
ATOM     20  O   UNL     1     164.130 172.418  31.736  1.00  0.00    -0.385 OA
ATOM     21  H   UNL     1     164.429 171.525  32.071  1.00  0.00     0.211 HD
ENDBRANCH  15  20
ENDBRANCH   8   9
ENDBRANCH   7   8
ENDBRANCH   1   7
BRANCH   2  22
ATOM     22  O   UNL     1     158.477 171.054  30.952  1.00  0.00    -0.387 OA
ATOM     23  H   UNL     1     157.713 170.557  30.547  1.00  0.00     0.211 HD
ENDBRANCH   2  22
BRANCH   3  24
ATOM     24  O   UNL     1     155.882 171.437  30.597  1.00  0.00    -0.387 OA
ATOM     25  H   UNL     1     154.977 171.017  30.792  1.00  0.00     0.211 HD
ENDBRANCH   3  24
BRANCH   5  26
ATOM     26  O   UNL     1     156.703 175.022  29.608  1.00  0.00    -0.454 OA
BRANCH  26  27
ATOM     27  C   UNL     1     157.172 174.758  28.308  1.00  0.00     0.214 A 
ATOM     28  C   UNL     1     157.857 175.769  27.595  1.00  0.00     0.180 A 
ATOM     29  C   UNL     1     156.925 173.539  27.649  1.00  0.00     0.239 A 
ATOM     30  O   UNL     1     158.550 175.437  26.501  1.00  0.00    -0.452 OA
ATOM     31  C   UNL     1     157.723 173.198  26.541  1.00  0.00     0.111 A 
ATOM     32  O   UNL     1     156.017 172.760  28.068  1.00  0.00    -0.285 OA
ATOM     33  C   UNL     1     158.590 174.194  26.017  1.00  0.00     0.146 A 
ATOM     34  C   UNL     1     157.831 171.863  26.073  1.00  0.00     0.134 A 
ATOM     35  C   UNL     1     159.527 173.853  25.028  1.00  0.00     0.094 A 
ATOM     36  C   UNL     1     158.868 171.523  25.185  1.00  0.00     0.093 A 
ATOM     37  C   UNL     1     159.714 172.514  24.672  1.00  0.00     0.123 A 
BRANCH  28  38
ATOM     38  C   UNL     1     157.859 177.167  28.088  1.00  0.00     0.025 A 
ATOM     39  C   UNL     1     158.806 177.581  29.054  1.00  0.00     0.062 A 
ATOM     40  C   UNL     1     157.002 178.127  27.526  1.00  0.00     0.016 A 
ATOM     41  C   UNL     1     158.997 178.948  29.321  1.00  0.00     0.158 A 
ATOM     42  C   UNL     1     157.185 179.487  27.815  1.00  0.00     0.051 A 
ATOM     43  C   UNL     1     158.200 179.906  28.685  1.00  0.00     0.157 A 
BRANCH  41  44
ATOM     44  O   UNL     1     160.009 179.365  30.193  1.00  0.00    -0.504 OA
ATOM     45  H   UNL     1     160.142 180.345  30.417  1.00  0.00     0.293 HD
ENDBRANCH  41  44
BRANCH  43  46
ATOM     46  O   UNL     1     158.417 181.270  28.871  1.00  0.00    -0.504 OA
ATOM     47  H   UNL     1     159.257 181.623  29.327  1.00  0.00     0.293 HD
ENDBRANCH  43  46
ENDBRANCH  28  38
BRANCH  34  48
ATOM     48  O   UNL     1     156.995 170.852  26.564  1.00  0.00    -0.507 OA
ATOM     49  H   UNL     1     156.925 170.651  27.559  1.00  0.00     0.293 HD
ENDBRANCH  34  48
BRANCH  37  50
ATOM     50  O   UNL     1     160.838 172.153  23.925  1.00  0.00    -0.508 OA
ATOM     51  H   UNL     1     161.623 172.819  23.909  1.00  0.00     0.293 HD
ENDBRANCH  37  50
ENDBRANCH  26  27
ENDBRANCH   5  26
BRANCH   4  52
ATOM     52  O   UNL     1     155.939 174.083  33.015  1.00  0.00    -0.384 OA
ATOM     53  H   UNL     1     154.968 174.172  33.218  1.00  0.00     0.211 HD
ENDBRANCH   4  52
TORSDOF 16
ENDMDL
MODEL 6
REMARK VINA RESULT:    -5.421      8.309     11.063
REMARK INTER + INTRA:         -11.014
REMARK INTER:                  -8.536
REMARK INTRA:                  -2.479
REMARK UNBOUND:                -2.107
REMARK SMILES C[C@@H]1O[C@H](OC[C@H]2O[C@@H](Oc3c(-c4ccc(O)c(O)c4)oc4cc(O)cc(O)c4c3=O)[C@H](O)[C@@H](O)[C@H]2O)[C@@H](O)[C@H](O)[C@H]1O
REMARK SMILES IDX 7 1 36 2 34 3 32 4 9 5 8 6 6 7 5 8 4 9 1 10 2 11 42 12 3 13
REMARK SMILES IDX 40 14 38 15 43 16 41 18 39 20 37 22 35 24 10 26 11 27 12 28
REMARK SMILES IDX 30 29 21 30 29 31 31 32 22 33 27 34 23 35 26 36 24 37 13 38
REMARK SMILES IDX 20 39 14 40 18 41 15 42 16 43 19 44 17 46 28 48 25 50 33 52
REMARK H PARENT 43 17 41 19 39 21 37 23 35 25 19 45 17 47 28 49 25 51 33 53
REMARK Flexibility Score: inf
ROOT
ATOM      1  C   UNL     1     164.029 174.912  31.345  1.00  0.00     0.180 C 
ATOM      2  C   UNL     1     163.463 175.407  32.687  1.00  0.00     0.177 C 
ATOM      3  C   UNL     1     161.933 175.086  32.770  1.00  0.00     0.180 C 
ATOM      4  C   UNL     1     161.379 174.442  31.471  1.00  0.00     0.214 C 
ATOM      5  C   UNL     1     162.363 173.359  30.870  1.00  0.00     0.339 C 
ATOM      6  O   UNL     1     163.724 173.521  31.265  1.00  0.00    -0.332 OA
ENDROOT
BRANCH   1   7
ATOM      7  C   UNL     1     165.531 175.227  31.082  1.00  0.00     0.198 C 
BRANCH   7   8
ATOM      8  O   UNL     1     166.322 174.392  31.909  1.00  0.00    -0.347 OA
BRANCH   8   9
ATOM      9  C   UNL     1     167.201 173.537  31.181  1.00  0.00     0.281 C 
ATOM     10  C   UNL     1     167.175 172.772  34.038  1.00  0.00     0.041 C 
ATOM     11  C   UNL     1     168.301 172.465  33.004  1.00  0.00     0.150 C 
ATOM     12  C   UNL     1     168.212 171.014  32.425  1.00  0.00     0.174 C 
ATOM     13  O   UNL     1     168.397 173.404  31.943  1.00  0.00    -0.344 OA
ATOM     14  C   UNL     1     167.561 170.992  31.023  1.00  0.00     0.179 C 
ATOM     15  C   UNL     1     166.551 172.132  30.821  1.00  0.00     0.202 C 
BRANCH  12  16
ATOM     16  O   UNL     1     169.496 170.420  32.358  1.00  0.00    -0.388 OA
ATOM     17  H   UNL     1     169.523 169.752  33.112  1.00  0.00     0.211 HD
ENDBRANCH  12  16
BRANCH  14  18
ATOM     18  O   UNL     1     166.913 169.756  30.812  1.00  0.00    -0.387 OA
ATOM     19  H   UNL     1     166.059 169.953  30.347  1.00  0.00     0.211 HD
ENDBRANCH  14  18
BRANCH  15  20
ATOM     20  O   UNL     1     166.075 172.131  29.499  1.00  0.00    -0.385 OA
ATOM     21  H   UNL     1     166.832 172.392  28.901  1.00  0.00     0.211 HD
ENDBRANCH  15  20
ENDBRANCH   8   9
ENDBRANCH   7   8
ENDBRANCH   1   7
BRANCH   2  22
ATOM     22  O   UNL     1     164.168 174.802  33.749  1.00  0.00    -0.387 OA
ATOM     23  H   UNL     1     164.715 175.524  34.167  1.00  0.00     0.211 HD
ENDBRANCH   2  22
BRANCH   3  24
ATOM     24  O   UNL     1     161.567 174.345  33.918  1.00  0.00    -0.387 OA
ATOM     25  H   UNL     1     161.390 173.368  33.701  1.00  0.00     0.211 HD
ENDBRANCH   3  24
BRANCH   5  26
ATOM     26  O   UNL     1     161.949 171.967  30.969  1.00  0.00    -0.454 OA
BRANCH  26  27
ATOM     27  C   UNL     1     161.564 171.047  29.975  1.00  0.00     0.214 A 
ATOM     28  C   UNL     1     160.291 170.436  30.047  1.00  0.00     0.180 A 
ATOM     29  C   UNL     1     162.429 170.650  28.938  1.00  0.00     0.239 A 
ATOM     30  O   UNL     1     159.813 169.802  28.971  1.00  0.00    -0.452 OA
ATOM     31  C   UNL     1     161.875 170.047  27.793  1.00  0.00     0.111 A 
ATOM     32  O   UNL     1     163.676 170.860  29.032  1.00  0.00    -0.285 OA
ATOM     33  C   UNL     1     160.505 169.677  27.836  1.00  0.00     0.146 A 
ATOM     34  C   UNL     1     162.576 169.984  26.562  1.00  0.00     0.134 A 
ATOM     35  C   UNL     1     159.865 169.233  26.668  1.00  0.00     0.094 A 
ATOM     36  C   UNL     1     161.877 169.668  25.382  1.00  0.00     0.093 A 
ATOM     37  C   UNL     1     160.526 169.301  25.438  1.00  0.00     0.123 A 
BRANCH  28  38
ATOM     38  C   UNL     1     159.471 170.548  31.277  1.00  0.00     0.025 A 
ATOM     39  C   UNL     1     158.508 171.577  31.400  1.00  0.00     0.062 A 
ATOM     40  C   UNL     1     159.554 169.574  32.286  1.00  0.00     0.016 A 
ATOM     41  C   UNL     1     157.545 171.529  32.424  1.00  0.00     0.158 A 
ATOM     42  C   UNL     1     158.603 169.549  33.316  1.00  0.00     0.051 A 
ATOM     43  C   UNL     1     157.578 170.502  33.373  1.00  0.00     0.157 A 
BRANCH  41  44
ATOM     44  O   UNL     1     156.525 172.485  32.481  1.00  0.00    -0.504 OA
ATOM     45  H   UNL     1     155.588 172.240  32.783  1.00  0.00     0.293 HD
ENDBRANCH  41  44
BRANCH  43  46
ATOM     46  O   UNL     1     156.594 170.387  34.352  1.00  0.00    -0.504 OA
ATOM     47  H   UNL     1     156.366 169.492  34.781  1.00  0.00     0.293 HD
ENDBRANCH  43  46
ENDBRANCH  28  38
BRANCH  34  48
ATOM     48  O   UNL     1     163.928 170.340  26.477  1.00  0.00    -0.507 OA
ATOM     49  H   UNL     1     164.406 170.816  27.239  1.00  0.00     0.293 HD
ENDBRANCH  34  48
BRANCH  37  50
ATOM     50  O   UNL     1     159.796 169.150  24.256  1.00  0.00    -0.508 OA
ATOM     51  H   UNL     1     160.125 169.674  23.433  1.00  0.00     0.293 HD
ENDBRANCH  37  50
ENDBRANCH  26  27
ENDBRANCH   5  26
BRANCH   4  52
ATOM     52  O   UNL     1     161.147 175.466  30.539  1.00  0.00    -0.384 OA
ATOM     53  H   UNL     1     161.003 176.305  31.056  1.00  0.00     0.211 HD
ENDBRANCH   4  52
TORSDOF 16
ENDMDL
MODEL 7
REMARK VINA RESULT:    -5.399      2.804     10.147
REMARK INTER + INTRA:         -10.978
REMARK INTER:                  -7.597
REMARK INTRA:                  -3.380
REMARK UNBOUND:                -2.107
REMARK SMILES C[C@@H]1O[C@H](OC[C@H]2O[C@@H](Oc3c(-c4ccc(O)c(O)c4)oc4cc(O)cc(O)c4c3=O)[C@H](O)[C@@H](O)[C@H]2O)[C@@H](O)[C@H](O)[C@H]1O
REMARK SMILES IDX 7 1 36 2 34 3 32 4 9 5 8 6 6 7 5 8 4 9 1 10 2 11 42 12 3 13
REMARK SMILES IDX 40 14 38 15 43 16 41 18 39 20 37 22 35 24 10 26 11 27 12 28
REMARK SMILES IDX 30 29 21 30 29 31 31 32 22 33 27 34 23 35 26 36 24 37 13 38
REMARK SMILES IDX 20 39 14 40 18 41 15 42 16 43 19 44 17 46 28 48 25 50 33 52
REMARK H PARENT 43 17 41 19 39 21 37 23 35 25 19 45 17 47 28 49 25 51 33 53
REMARK Flexibility Score: inf
ROOT
ATOM      1  C   UNL     1     157.670 180.159  31.218  1.00  0.00     0.180 C 
ATOM      2  C   UNL     1     158.203 180.883  29.970  1.00  0.00     0.177 C 
ATOM      3  C   UNL     1     159.209 182.004  30.395  1.00  0.00     0.180 C 
ATOM      4  C   UNL     1     159.341 182.147  31.935  1.00  0.00     0.214 C 
ATOM      5  C   UNL     1     159.395 180.745  32.666  1.00  0.00     0.339 C 
ATOM      6  O   UNL     1     158.812 179.675  31.923  1.00  0.00    -0.332 OA
ENDROOT
BRANCH   1   7
ATOM      7  C   UNL     1     156.598 179.060  30.961  1.00  0.00     0.198 C 
BRANCH   7   8
ATOM      8  O   UNL     1     157.236 177.795  30.952  1.00  0.00    -0.347 OA
BRANCH   8   9
ATOM      9  C   UNL     1     156.992 177.025  32.127  1.00  0.00     0.281 C 
ATOM     10  C   UNL     1     157.481 175.235  29.823  1.00  0.00     0.041 C 
ATOM     11  C   UNL     1     156.719 174.874  31.135  1.00  0.00     0.150 C 
ATOM     12  C   UNL     1     157.612 174.101  32.161  1.00  0.00     0.174 C 
ATOM     13  O   UNL     1     156.094 175.977  31.774  1.00  0.00    -0.344 OA
ATOM     14  C   UNL     1     158.144 175.029  33.276  1.00  0.00     0.179 C 
ATOM     15  C   UNL     1     158.323 176.480  32.805  1.00  0.00     0.202 C 
BRANCH  12  16
ATOM     16  O   UNL     1     156.894 173.027  32.743  1.00  0.00    -0.388 OA
ATOM     17  H   UNL     1     156.167 173.458  33.293  1.00  0.00     0.211 HD
ENDBRANCH  12  16
BRANCH  14  18
ATOM     18  O   UNL     1     159.379 174.544  33.759  1.00  0.00    -0.387 OA
ATOM     19  H   UNL     1     159.180 173.737  34.301  1.00  0.00     0.211 HD
ENDBRANCH  14  18
BRANCH  15  20
ATOM     20  O   UNL     1     158.700 177.299  33.883  1.00  0.00    -0.385 OA
ATOM     21  H   UNL     1     157.866 177.649  34.308  1.00  0.00     0.211 HD
ENDBRANCH  15  20
ENDBRANCH   8   9
ENDBRANCH   7   8
ENDBRANCH   1   7
BRANCH   2  22
ATOM     22  O   UNL     1     158.816 179.950  29.107  1.00  0.00    -0.387 OA
ATOM     23  H   UNL     1     158.290 179.968  28.260  1.00  0.00     0.211 HD
ENDBRANCH   2  22
BRANCH   3  24
ATOM     24  O   UNL     1     160.474 181.904  29.769  1.00  0.00    -0.387 OA
ATOM     25  H   UNL     1     160.458 181.267  28.977  1.00  0.00     0.211 HD
ENDBRANCH   3  24
BRANCH   5  26
ATOM     26  O   UNL     1     160.673 180.351  33.240  1.00  0.00    -0.454 OA
BRANCH  26  27
ATOM     27  C   UNL     1     161.977 180.824  33.000  1.00  0.00     0.214 A 
ATOM     28  C   UNL     1     162.844 180.084  32.164  1.00  0.00     0.180 A 
ATOM     29  C   UNL     1     162.486 181.981  33.619  1.00  0.00     0.239 A 
ATOM     30  O   UNL     1     163.956 180.665  31.703  1.00  0.00    -0.452 OA
ATOM     31  C   UNL     1     163.620 182.601  33.059  1.00  0.00     0.111 A 
ATOM     32  O   UNL     1     161.913 182.463  34.642  1.00  0.00    -0.285 OA
ATOM     33  C   UNL     1     164.315 181.908  32.033  1.00  0.00     0.146 A 
ATOM     34  C   UNL     1     163.959 183.948  33.345  1.00  0.00     0.134 A 
ATOM     35  C   UNL     1     165.343 182.554  31.327  1.00  0.00     0.094 A 
ATOM     36  C   UNL     1     164.897 184.613  32.533  1.00  0.00     0.093 A 
ATOM     37  C   UNL     1     165.578 183.918  31.526  1.00  0.00     0.123 A 
BRANCH  28  38
ATOM     38  C   UNL     1     162.496 178.702  31.755  1.00  0.00     0.025 A 
ATOM     39  C   UNL     1     162.734 177.618  32.633  1.00  0.00     0.062 A 
ATOM     40  C   UNL     1     161.823 178.459  30.547  1.00  0.00     0.016 A 
ATOM     41  C   UNL     1     162.162 176.359  32.376  1.00  0.00     0.158 A 
ATOM     42  C   UNL     1     161.276 177.194  30.290  1.00  0.00     0.051 A 
ATOM     43  C   UNL     1     161.414 176.150  31.213  1.00  0.00     0.157 A 
BRANCH  41  44
ATOM     44  O   UNL     1     162.304 175.316  33.299  1.00  0.00    -0.504 OA
ATOM     45  H   UNL     1     161.678 174.518  33.294  1.00  0.00     0.293 HD
ENDBRANCH  41  44
BRANCH  43  46
ATOM     46  O   UNL     1     160.773 174.937  30.970  1.00  0.00    -0.504 OA
ATOM     47  H   UNL     1     160.678 174.226  31.693  1.00  0.00     0.293 HD
ENDBRANCH  43  46
ENDBRANCH  28  38
BRANCH  34  48
ATOM     48  O   UNL     1     163.298 184.667  34.350  1.00  0.00    -0.507 OA
ATOM     49  H   UNL     1     163.781 184.981  35.189  1.00  0.00     0.293 HD
ENDBRANCH  34  48
BRANCH  37  50
ATOM     50  O   UNL     1     166.380 184.615  30.619  1.00  0.00    -0.508 OA
ATOM     51  H   UNL     1     165.899 185.196  29.918  1.00  0.00     0.293 HD
ENDBRANCH  37  50
ENDBRANCH  26  27
ENDBRANCH   5  26
BRANCH   4  52
ATOM     52  O   UNL     1     158.253 182.902  32.400  1.00  0.00    -0.384 OA
ATOM     53  H   UNL     1     157.722 182.311  33.001  1.00  0.00     0.211 HD
ENDBRANCH   4  52
TORSDOF 16
ENDMDL
MODEL 8
REMARK VINA RESULT:    -5.372     11.869     14.072
REMARK INTER + INTRA:         -10.933
REMARK INTER:                  -7.481
REMARK INTRA:                  -3.452
REMARK UNBOUND:                -2.107
REMARK SMILES C[C@@H]1O[C@H](OC[C@H]2O[C@@H](Oc3c(-c4ccc(O)c(O)c4)oc4cc(O)cc(O)c4c3=O)[C@H](O)[C@@H](O)[C@H]2O)[C@@H](O)[C@H](O)[C@H]1O
REMARK SMILES IDX 7 1 36 2 34 3 32 4 9 5 8 6 6 7 5 8 4 9 1 10 2 11 42 12 3 13
REMARK SMILES IDX 40 14 38 15 43 16 41 18 39 20 37 22 35 24 10 26 11 27 12 28
REMARK SMILES IDX 30 29 21 30 29 31 31 32 22 33 27 34 23 35 26 36 24 37 13 38
REMARK SMILES IDX 20 39 14 40 18 41 15 42 16 43 19 44 17 46 28 48 25 50 33 52
REMARK H PARENT 43 17 41 19 39 21 37 23 35 25 19 45 17 47 28 49 25 51 33 53
REMARK Flexibility Score: inf
ROOT
ATOM      1  C   UNL     1     162.008 170.638  28.928  1.00  0.00     0.180 C 
ATOM      2  C   UNL     1     162.898 169.996  27.850  1.00  0.00     0.177 C 
ATOM      3  C   UNL     1     162.070 169.772  26.541  1.00  0.00     0.180 C 
ATOM      4  C   UNL     1     160.577 170.169  26.694  1.00  0.00     0.214 C 
ATOM      5  C   UNL     1     160.393 171.517  27.501  1.00  0.00     0.339 C 
ATOM      6  O   UNL     1     161.486 171.838  28.360  1.00  0.00    -0.332 OA
ENDROOT
BRANCH   1   7
ATOM      7  C   UNL     1     162.674 170.857  30.318  1.00  0.00     0.198 C 
BRANCH   7   8
ATOM      8  O   UNL     1     161.655 171.022  31.289  1.00  0.00    -0.347 OA
BRANCH   8   9
ATOM      9  C   UNL     1     161.044 169.796  31.688  1.00  0.00     0.281 C 
ATOM     10  C   UNL     1     160.346 171.948  33.594  1.00  0.00     0.041 C 
ATOM     11  C   UNL     1     160.322 170.415  33.874  1.00  0.00     0.150 C 
ATOM     12  C   UNL     1     158.888 169.800  33.758  1.00  0.00     0.174 C 
ATOM     13  O   UNL     1     161.236 169.660  33.093  1.00  0.00    -0.344 OA
ATOM     14  C   UNL     1     158.676 169.084  32.404  1.00  0.00     0.179 C 
ATOM     15  C   UNL     1     159.513 169.697  31.273  1.00  0.00     0.202 C 
BRANCH  12  16
ATOM     16  O   UNL     1     158.644 168.890  34.816  1.00  0.00    -0.388 OA
ATOM     17  H   UNL     1     159.510 168.390  34.945  1.00  0.00     0.211 HD
ENDBRANCH  12  16
BRANCH  14  18
ATOM     18  O   UNL     1     157.311 169.125  32.046  1.00  0.00    -0.387 OA
ATOM     19  H   UNL     1     157.268 169.029  31.060  1.00  0.00     0.211 HD
ENDBRANCH  14  18
BRANCH  15  20
ATOM     20  O   UNL     1     159.368 168.942  30.096  1.00  0.00    -0.385 OA
ATOM     21  H   UNL     1     160.257 168.908  29.642  1.00  0.00     0.211 HD
ENDBRANCH  15  20
ENDBRANCH   8   9
ENDBRANCH   7   8
ENDBRANCH   1   7
BRANCH   2  22
ATOM     22  O   UNL     1     164.017 170.821  27.608  1.00  0.00    -0.387 OA
ATOM     23  H   UNL     1     163.710 171.758  27.765  1.00  0.00     0.211 HD
ENDBRANCH   2  22
BRANCH   3  24
ATOM     24  O   UNL     1     162.650 170.356  25.390  1.00  0.00    -0.387 OA
ATOM     25  H   UNL     1     162.595 169.742  24.582  1.00  0.00     0.211 HD
ENDBRANCH   3  24
BRANCH   5  26
ATOM     26  O   UNL     1     159.957 172.682  26.746  1.00  0.00    -0.454 OA
BRANCH  26  27
ATOM     27  C   UNL     1     159.058 172.799  25.669  1.00  0.00     0.214 A 
ATOM     28  C   UNL     1     157.671 172.887  25.926  1.00  0.00     0.180 A 
ATOM     29  C   UNL     1     159.479 172.761  24.327  1.00  0.00     0.239 A 
ATOM     30  O   UNL     1     156.853 173.289  24.948  1.00  0.00    -0.452 OA
ATOM     31  C   UNL     1     158.613 173.257  23.335  1.00  0.00     0.111 A 
ATOM     32  O   UNL     1     160.627 172.312  24.031  1.00  0.00    -0.285 OA
ATOM     33  C   UNL     1     157.280 173.569  23.715  1.00  0.00     0.146 A 
ATOM     34  C   UNL     1     159.077 173.632  22.048  1.00  0.00     0.134 A 
ATOM     35  C   UNL     1     156.431 174.225  22.808  1.00  0.00     0.094 A 
ATOM     36  C   UNL     1     158.252 174.408  21.213  1.00  0.00     0.093 A 
ATOM     37  C   UNL     1     156.939 174.707  21.598  1.00  0.00     0.123 A 
BRANCH  28  38
ATOM     38  C   UNL     1     157.136 172.598  27.279  1.00  0.00     0.025 A 
ATOM     39  C   UNL     1     156.874 171.264  27.670  1.00  0.00     0.062 A 
ATOM     40  C   UNL     1     156.992 173.623  28.228  1.00  0.00     0.016 A 
ATOM     41  C   UNL     1     156.636 170.954  29.021  1.00  0.00     0.158 A 
ATOM     42  C   UNL     1     156.731 173.306  29.569  1.00  0.00     0.051 A 
ATOM     43  C   UNL     1     156.585 171.974  29.977  1.00  0.00     0.157 A 
BRANCH  41  44
ATOM     44  O   UNL     1     156.486 169.624  29.427  1.00  0.00    -0.504 OA
ATOM     45  H   UNL     1     156.348 168.879  28.753  1.00  0.00     0.293 HD
ENDBRANCH  41  44
BRANCH  43  46
ATOM     46  O   UNL     1     156.427 171.692  31.333  1.00  0.00    -0.504 OA
ATOM     47  H   UNL     1     156.865 170.881  31.766  1.00  0.00     0.293 HD
ENDBRANCH  43  46
ENDBRANCH  28  38
BRANCH  34  48
ATOM     48  O   UNL     1     160.384 173.342  21.635  1.00  0.00    -0.507 OA
ATOM     49  H   UNL     1     161.187 173.518  22.235  1.00  0.00     0.293 HD
ENDBRANCH  34  48
BRANCH  37  50
ATOM     50  O   UNL     1     156.182 175.610  20.847  1.00  0.00    -0.508 OA
ATOM     51  H   UNL     1     155.787 175.267  19.960  1.00  0.00     0.293 HD
ENDBRANCH  37  50
ENDBRANCH  26  27
ENDBRANCH   5  26
BRANCH   4  52
ATOM     52  O   UNL     1     159.908 169.116  27.337  1.00  0.00    -0.384 OA
ATOM     53  H   UNL     1     159.195 169.522  27.901  1.00  0.00     0.211 HD
ENDBRANCH   4  52
TORSDOF 16
ENDMDL
MODEL 9
REMARK VINA RESULT:    -5.350      7.977     11.284
REMARK INTER + INTRA:         -10.897
REMARK INTER:                  -7.153
REMARK INTRA:                  -3.744
REMARK UNBOUND:                -2.107
REMARK SMILES C[C@@H]1O[C@H](OC[C@H]2O[C@@H](Oc3c(-c4ccc(O)c(O)c4)oc4cc(O)cc(O)c4c3=O)[C@H](O)[C@@H](O)[C@H]2O)[C@@H](O)[C@H](O)[C@H]1O
REMARK SMILES IDX 7 1 36 2 34 3 32 4 9 5 8 6 6 7 5 8 4 9 1 10 2 11 42 12 3 13
REMARK SMILES IDX 40 14 38 15 43 16 41 18 39 20 37 22 35 24 10 26 11 27 12 28
REMARK SMILES IDX 30 29 21 30 29 31 31 32 22 33 27 34 23 35 26 36 24 37 13 38
REMARK SMILES IDX 20 39 14 40 18 41 15 42 16 43 19 44 17 46 28 48 25 50 33 52
REMARK H PARENT 43 17 41 19 39 21 37 23 35 25 19 45 17 47 28 49 25 51 33 53
REMARK Flexibility Score: inf
ROOT
ATOM      1  C   UNL     1     161.606 175.897  31.500  1.00  0.00     0.180 C 
ATOM      2  C   UNL     1     160.580 176.551  32.443  1.00  0.00     0.177 C 
ATOM      3  C   UNL     1     159.279 176.904  31.648  1.00  0.00     0.180 C 
ATOM      4  C   UNL     1     159.390 176.589  30.132  1.00  0.00     0.214 C 
ATOM      5  C   UNL     1     160.110 175.207  29.858  1.00  0.00     0.339 C 
ATOM      6  O   UNL     1     160.959 174.768  30.917  1.00  0.00    -0.332 OA
ENDROOT
BRANCH   1   7
ATOM      7  C   UNL     1     162.987 175.554  32.132  1.00  0.00     0.198 C 
BRANCH   7   8
ATOM      8  O   UNL     1     162.922 174.252  32.687  1.00  0.00    -0.347 OA
BRANCH   8   9
ATOM      9  C   UNL     1     164.122 173.500  32.519  1.00  0.00     0.281 C 
ATOM     10  C   UNL     1     161.773 171.703  32.423  1.00  0.00     0.041 C 
ATOM     11  C   UNL     1     163.239 171.299  32.766  1.00  0.00     0.150 C 
ATOM     12  C   UNL     1     163.997 170.675  31.547  1.00  0.00     0.174 C 
ATOM     13  O   UNL     1     164.018 172.339  33.338  1.00  0.00    -0.344 OA
ATOM     14  C   UNL     1     164.933 171.700  30.865  1.00  0.00     0.179 C 
ATOM     15  C   UNL     1     164.428 173.144  31.000  1.00  0.00     0.202 C 
BRANCH  12  16
ATOM     16  O   UNL     1     164.749 169.544  31.947  1.00  0.00    -0.388 OA
ATOM     17  H   UNL     1     164.465 169.355  32.896  1.00  0.00     0.211 HD
ENDBRANCH  12  16
BRANCH  14  18
ATOM     18  O   UNL     1     165.076 171.385  29.496  1.00  0.00    -0.387 OA
ATOM     19  H   UNL     1     165.410 170.452  29.448  1.00  0.00     0.211 HD
ENDBRANCH  14  18
BRANCH  15  20
ATOM     20  O   UNL     1     165.368 174.040  30.462  1.00  0.00    -0.385 OA
ATOM     21  H   UNL     1     164.962 174.461  29.652  1.00  0.00     0.211 HD
ENDBRANCH  15  20
ENDBRANCH   8   9
ENDBRANCH   7   8
ENDBRANCH   1   7
BRANCH   2  22
ATOM     22  O   UNL     1     160.300 175.677  33.514  1.00  0.00    -0.387 OA
ATOM     23  H   UNL     1     159.658 175.000  33.160  1.00  0.00     0.211 HD
ENDBRANCH   2  22
BRANCH   3  24
ATOM     24  O   UNL     1     158.100 176.359  32.210  1.00  0.00    -0.387 OA
ATOM     25  H   UNL     1     157.341 177.035  32.234  1.00  0.00     0.211 HD
ENDBRANCH   3  24
BRANCH   5  26
ATOM     26  O   UNL     1     159.278 174.119  29.365  1.00  0.00    -0.454 OA
BRANCH  26  27
ATOM     27  C   UNL     1     158.799 172.962  30.006  1.00  0.00     0.214 A 
ATOM     28  C   UNL     1     159.297 171.695  29.623  1.00  0.00     0.180 A 
ATOM     29  C   UNL     1     157.780 173.003  30.976  1.00  0.00     0.239 A 
ATOM     30  O   UNL     1     159.072 170.642  30.413  1.00  0.00    -0.452 OA
ATOM     31  C   UNL     1     157.621 171.898  31.833  1.00  0.00     0.111 A 
ATOM     32  O   UNL     1     157.044 174.030  31.085  1.00  0.00    -0.285 OA
ATOM     33  C   UNL     1     158.352 170.718  31.535  1.00  0.00     0.146 A 
ATOM     34  C   UNL     1     156.925 171.995  33.066  1.00  0.00     0.134 A 
ATOM     35  C   UNL     1     158.361 169.652  32.451  1.00  0.00     0.094 A 
ATOM     36  C   UNL     1     157.063 170.971  34.021  1.00  0.00     0.093 A 
ATOM     37  C   UNL     1     157.784 169.811  33.714  1.00  0.00     0.123 A 
BRANCH  28  38
ATOM     38  C   UNL     1     160.112 171.549  28.392  1.00  0.00     0.025 A 
ATOM     39  C   UNL     1     161.492 171.250  28.484  1.00  0.00     0.062 A 
ATOM     40  C   UNL     1     159.510 171.588  27.124  1.00  0.00     0.016 A 
ATOM     41  C   UNL     1     162.206 170.839  27.344  1.00  0.00     0.158 A 
ATOM     42  C   UNL     1     160.237 171.199  25.990  1.00  0.00     0.051 A 
ATOM     43  C   UNL     1     161.573 170.792  26.097  1.00  0.00     0.157 A 
BRANCH  41  44
ATOM     44  O   UNL     1     163.542 170.437  27.452  1.00  0.00    -0.504 OA
ATOM     45  H   UNL     1     164.125 170.317  26.631  1.00  0.00     0.293 HD
ENDBRANCH  41  44
BRANCH  43  46
ATOM     46  O   UNL     1     162.233 170.317  24.966  1.00  0.00    -0.504 OA
ATOM     47  H   UNL     1     161.739 169.827  24.222  1.00  0.00     0.293 HD
ENDBRANCH  43  46
ENDBRANCH  28  38
BRANCH  34  48
ATOM     48  O   UNL     1     156.192 173.142  33.397  1.00  0.00    -0.507 OA
ATOM     49  H   UNL     1     155.970 173.854  32.705  1.00  0.00     0.293 HD
ENDBRANCH  34  48
BRANCH  37  50
ATOM     50  O   UNL     1     158.057 168.875  34.716  1.00  0.00    -0.508 OA
ATOM     51  H   UNL     1     158.170 169.235  35.674  1.00  0.00     0.293 HD
ENDBRANCH  37  50
ENDBRANCH  26  27
ENDBRANCH   5  26
BRANCH   4  52
ATOM     52  O   UNL     1     160.091 177.639  29.518  1.00  0.00    -0.384 OA
ATOM     53  H   UNL     1     160.967 177.272  29.219  1.00  0.00     0.211 HD
ENDBRANCH   4  52
TORSDOF 16
ENDMDL
