MODEL 1
REMARK VINA RESULT:    -6.632      0.000      0.000
REMARK INTER + INTRA:          -7.932
REMARK INTER:                  -7.795
REMARK INTRA:                  -0.137
REMARK UNBOUND:                -0.137
REMARK SMILES O=c1c(O)c(-c2ccc(O)cc2)oc2cc(O)cc(O)c12
REMARK SMILES IDX 5 1 3 2 2 3 1 4 21 5 19 6 18 7 16 8 15 9 14 10 13 11 6 12
REMARK SMILES IDX 7 13 8 14 9 15 12 16 11 17 10 18 4 20 20 22 17 24
REMARK H PARENT 10 19 4 21 20 23 17 25
REMARK Flexibility Score: inf
ROOT
ATOM      1  C   UNL     1       4.857 -60.238 190.017  1.00  0.00     0.180 A 
ATOM      2  C   UNL     1       3.524 -60.437 189.618  1.00  0.00     0.208 A 
ATOM      3  C   UNL     1       3.203 -61.571 188.855  1.00  0.00     0.238 A 
ATOM      4  O   UNL     1       2.018 -61.715 188.455  1.00  0.00    -0.285 OA
ATOM      5  C   UNL     1       4.216 -62.500 188.513  1.00  0.00     0.111 A 
ATOM      6  C   UNL     1       3.997 -63.703 187.778  1.00  0.00     0.134 A 
ATOM      7  C   UNL     1       5.093 -64.482 187.384  1.00  0.00     0.093 A 
ATOM      8  C   UNL     1       6.393 -64.134 187.757  1.00  0.00     0.123 A 
ATOM      9  C   UNL     1       6.611 -62.993 188.525  1.00  0.00     0.094 A 
ATOM     10  C   UNL     1       5.542 -62.177 188.902  1.00  0.00     0.146 A 
ATOM     11  O   UNL     1       5.795 -61.092 189.625  1.00  0.00    -0.452 OA
ENDROOT
BRANCH   1  12
ATOM     12  C   UNL     1       5.268 -59.080 190.844  1.00  0.00     0.021 A 
ATOM     13  C   UNL     1       5.212 -57.786 190.297  1.00  0.00     0.016 A 
ATOM     14  C   UNL     1       5.617 -56.682 191.053  1.00  0.00     0.047 A 
ATOM     15  C   UNL     1       6.097 -56.858 192.358  1.00  0.00     0.115 A 
ATOM     16  C   UNL     1       5.769 -59.251 192.146  1.00  0.00     0.016 A 
ATOM     17  C   UNL     1       6.174 -58.144 192.899  1.00  0.00     0.047 A 
BRANCH  15  18
ATOM     18  O   UNL     1       6.501 -55.764 193.119  1.00  0.00    -0.508 OA
ATOM     19  H   UNL     1       6.725 -54.874 192.691  1.00  0.00     0.293 HD
ENDBRANCH  15  18
ENDBRANCH   1  12
BRANCH   2  20
ATOM     20  O   UNL     1       2.544 -59.496 189.947  1.00  0.00    -0.502 OA
ATOM     21  H   UNL     1       2.654 -58.841 190.711  1.00  0.00     0.293 HD
ENDBRANCH   2  20
BRANCH   6  22
ATOM     22  O   UNL     1       2.730 -64.189 187.436  1.00  0.00    -0.507 OA
ATOM     23  H   UNL     1       2.353 -64.201 186.501  1.00  0.00     0.293 HD
ENDBRANCH   6  22
BRANCH   8  24
ATOM     24  O   UNL     1       7.476 -64.923 187.375  1.00  0.00    -0.508 OA
ATOM     25  H   UNL     1       8.085 -65.354 188.060  1.00  0.00     0.293 HD
ENDBRANCH   8  24
TORSDOF 5
ENDMDL
MODEL 2
REMARK VINA RESULT:    -6.534      1.397      3.023
REMARK INTER + INTRA:          -7.818
REMARK INTER:                  -7.813
REMARK INTRA:                  -0.005
REMARK UNBOUND:                -0.137
REMARK SMILES O=c1c(O)c(-c2ccc(O)cc2)oc2cc(O)cc(O)c12
REMARK SMILES IDX 5 1 3 2 2 3 1 4 21 5 19 6 18 7 16 8 15 9 14 10 13 11 6 12
REMARK SMILES IDX 7 13 8 14 9 15 12 16 11 17 10 18 4 20 20 22 17 24
REMARK H PARENT 10 19 4 21 20 23 17 25
REMARK Flexibility Score: inf
ROOT
ATOM      1  C   UNL     1       5.726 -61.068 189.912  1.00  0.00     0.180 A 
ATOM      2  C   UNL     1       6.970 -61.721 189.893  1.00  0.00     0.208 A 
ATOM      3  C   UNL     1       7.121 -62.880 189.114  1.00  0.00     0.238 A 
ATOM      4  O   UNL     1       8.221 -63.490 189.143  1.00  0.00    -0.285 OA
ATOM      5  C   UNL     1       6.029 -63.362 188.352  1.00  0.00     0.111 A 
ATOM      6  C   UNL     1       6.079 -64.503 187.497  1.00  0.00     0.134 A 
ATOM      7  C   UNL     1       4.904 -64.966 186.892  1.00  0.00     0.093 A 
ATOM      8  C   UNL     1       3.694 -64.290 187.061  1.00  0.00     0.123 A 
ATOM      9  C   UNL     1       3.647 -63.141 187.846  1.00  0.00     0.094 A 
ATOM     10  C   UNL     1       4.795 -62.675 188.491  1.00  0.00     0.146 A 
ATOM     11  O   UNL     1       4.704 -61.582 189.239  1.00  0.00    -0.452 OA
ENDROOT
BRANCH   1  12
ATOM     12  C   UNL     1       5.499 -59.828 190.689  1.00  0.00     0.021 A 
ATOM     13  C   UNL     1       5.048 -58.672 190.029  1.00  0.00     0.016 A 
ATOM     14  C   UNL     1       4.849 -57.485 190.740  1.00  0.00     0.047 A 
ATOM     15  C   UNL     1       5.113 -57.433 192.115  1.00  0.00     0.115 A 
ATOM     16  C   UNL     1       5.781 -59.764 192.065  1.00  0.00     0.016 A 
ATOM     17  C   UNL     1       5.581 -58.573 192.772  1.00  0.00     0.047 A 
BRANCH  15  18
ATOM     18  O   UNL     1       4.917 -56.255 192.832  1.00  0.00    -0.508 OA
ATOM     19  H   UNL     1       5.371 -56.095 193.723  1.00  0.00     0.293 HD
ENDBRANCH  15  18
ENDBRANCH   1  12
BRANCH   2  20
ATOM     20  O   UNL     1       8.029 -61.241 190.670  1.00  0.00    -0.502 OA
ATOM     21  H   UNL     1       8.607 -61.849 191.236  1.00  0.00     0.293 HD
ENDBRANCH   2  20
BRANCH   6  22
ATOM     22  O   UNL     1       7.255 -65.196 187.188  1.00  0.00    -0.507 OA
ATOM     23  H   UNL     1       7.549 -65.440 186.255  1.00  0.00     0.293 HD
ENDBRANCH   6  22
BRANCH   8  24
ATOM     24  O   UNL     1       2.532 -64.748 186.442  1.00  0.00    -0.508 OA
ATOM     25  H   UNL     1       2.567 -65.373 185.646  1.00  0.00     0.293 HD
ENDBRANCH   8  24
TORSDOF 5
ENDMDL
MODEL 3
REMARK VINA RESULT:    -6.140      2.016      2.561
REMARK INTER + INTRA:          -7.354
REMARK INTER:                  -7.061
REMARK INTRA:                  -0.293
REMARK UNBOUND:                -0.137
REMARK SMILES O=c1c(O)c(-c2ccc(O)cc2)oc2cc(O)cc(O)c12
REMARK SMILES IDX 5 1 3 2 2 3 1 4 21 5 19 6 18 7 16 8 15 9 14 10 13 11 6 12
REMARK SMILES IDX 7 13 8 14 9 15 12 16 11 17 10 18 4 20 20 22 17 24
REMARK H PARENT 10 19 4 21 20 23 17 25
REMARK Flexibility Score: inf
ROOT
ATOM      1  C   UNL     1       5.127 -59.180 191.759  1.00  0.00     0.180 A 
ATOM      2  C   UNL     1       4.143 -59.317 190.764  1.00  0.00     0.208 A 
ATOM      3  C   UNL     1       4.301 -60.306 189.781  1.00  0.00     0.238 A 
ATOM      4  O   UNL     1       3.445 -60.389 188.863  1.00  0.00    -0.285 OA
ATOM      5  C   UNL     1       5.433 -61.157 189.814  1.00  0.00     0.111 A 
ATOM      6  C   UNL     1       5.675 -62.219 188.892  1.00  0.00     0.134 A 
ATOM      7  C   UNL     1       6.891 -62.913 188.940  1.00  0.00     0.093 A 
ATOM      8  C   UNL     1       7.845 -62.624 189.918  1.00  0.00     0.123 A 
ATOM      9  C   UNL     1       7.592 -61.629 190.860  1.00  0.00     0.094 A 
ATOM     10  C   UNL     1       6.404 -60.896 190.815  1.00  0.00     0.146 A 
ATOM     11  O   UNL     1       6.208 -59.949 191.724  1.00  0.00    -0.452 OA
ENDROOT
BRANCH   1  12
ATOM     12  C   UNL     1       5.017 -58.176 192.843  1.00  0.00     0.021 A 
ATOM     13  C   UNL     1       5.710 -56.959 192.730  1.00  0.00     0.016 A 
ATOM     14  C   UNL     1       5.638 -56.007 193.752  1.00  0.00     0.047 A 
ATOM     15  C   UNL     1       4.887 -56.267 194.906  1.00  0.00     0.115 A 
ATOM     16  C   UNL     1       4.281 -58.439 194.012  1.00  0.00     0.016 A 
ATOM     17  C   UNL     1       4.213 -57.485 195.033  1.00  0.00     0.047 A 
BRANCH  15  18
ATOM     18  O   UNL     1       4.808 -55.326 195.929  1.00  0.00    -0.508 OA
ATOM     19  H   UNL     1       4.616 -55.597 196.886  1.00  0.00     0.293 HD
ENDBRANCH  15  18
ENDBRANCH   1  12
BRANCH   2  20
ATOM     20  O   UNL     1       3.045 -58.452 190.738  1.00  0.00    -0.502 OA
ATOM     21  H   UNL     1       2.603 -58.108 191.582  1.00  0.00     0.293 HD
ENDBRANCH   2  20
BRANCH   6  22
ATOM     22  O   UNL     1       4.749 -62.649 187.936  1.00  0.00    -0.507 OA
ATOM     23  H   UNL     1       4.978 -63.187 187.115  1.00  0.00     0.293 HD
ENDBRANCH   6  22
BRANCH   8  24
ATOM     24  O   UNL     1       9.045 -63.330 189.969  1.00  0.00    -0.508 OA
ATOM     25  H   UNL     1       9.112 -64.230 190.429  1.00  0.00     0.293 HD
ENDBRANCH   8  24
TORSDOF 5
ENDMDL
MODEL 4
REMARK VINA RESULT:    -6.097      1.419      6.482
REMARK INTER + INTRA:          -7.304
REMARK INTER:                  -7.593
REMARK INTRA:                   0.289
REMARK UNBOUND:                -0.137
REMARK SMILES O=c1c(O)c(-c2ccc(O)cc2)oc2cc(O)cc(O)c12
REMARK SMILES IDX 5 1 3 2 2 3 1 4 21 5 19 6 18 7 16 8 15 9 14 10 13 11 6 12
REMARK SMILES IDX 7 13 8 14 9 15 12 16 11 17 10 18 4 20 20 22 17 24
REMARK H PARENT 10 19 4 21 20 23 17 25
REMARK Flexibility Score: inf
ROOT
ATOM      1  C   UNL     1       5.161 -60.773 189.732  1.00  0.00     0.180 A 
ATOM      2  C   UNL     1       3.996 -60.154 189.246  1.00  0.00     0.208 A 
ATOM      3  C   UNL     1       3.505 -59.014 189.901  1.00  0.00     0.238 A 
ATOM      4  O   UNL     1       2.432 -58.497 189.494  1.00  0.00    -0.285 OA
ATOM      5  C   UNL     1       4.194 -58.496 191.024  1.00  0.00     0.111 A 
ATOM      6  C   UNL     1       3.810 -57.323 191.741  1.00  0.00     0.134 A 
ATOM      7  C   UNL     1       4.490 -56.977 192.916  1.00  0.00     0.093 A 
ATOM      8  C   UNL     1       5.581 -57.726 193.363  1.00  0.00     0.123 A 
ATOM      9  C   UNL     1       6.001 -58.839 192.637  1.00  0.00     0.094 A 
ATOM     10  C   UNL     1       5.321 -59.229 191.482  1.00  0.00     0.146 A 
ATOM     11  O   UNL     1       5.747 -60.302 190.826  1.00  0.00    -0.452 OA
ENDROOT
BRANCH   1  12
ATOM     12  C   UNL     1       5.752 -61.963 189.079  1.00  0.00     0.021 A 
ATOM     13  C   UNL     1       7.148 -62.120 189.061  1.00  0.00     0.016 A 
ATOM     14  C   UNL     1       7.728 -63.225 188.430  1.00  0.00     0.047 A 
ATOM     15  C   UNL     1       6.921 -64.178 187.796  1.00  0.00     0.115 A 
ATOM     16  C   UNL     1       4.949 -62.914 188.423  1.00  0.00     0.016 A 
ATOM     17  C   UNL     1       5.533 -64.017 187.793  1.00  0.00     0.047 A 
BRANCH  15  18
ATOM     18  O   UNL     1       7.488 -65.283 187.166  1.00  0.00    -0.508 OA
ATOM     19  H   UNL     1       7.157 -65.607 186.265  1.00  0.00     0.293 HD
ENDBRANCH  15  18
ENDBRANCH   1  12
BRANCH   2  20
ATOM     20  O   UNL     1       3.318 -60.695 188.148  1.00  0.00    -0.502 OA
ATOM     21  H   UNL     1       2.880 -60.117 187.442  1.00  0.00     0.293 HD
ENDBRANCH   2  20
BRANCH   6  22
ATOM     22  O   UNL     1       2.794 -56.455 191.329  1.00  0.00    -0.507 OA
ATOM     23  H   UNL     1       1.929 -56.306 191.825  1.00  0.00     0.293 HD
ENDBRANCH   6  22
BRANCH   8  24
ATOM     24  O   UNL     1       6.262 -57.366 194.523  1.00  0.00    -0.508 OA
ATOM     25  H   UNL     1       6.614 -56.426 194.661  1.00  0.00     0.293 HD
ENDBRANCH   8  24
TORSDOF 5
ENDMDL
MODEL 5
REMARK VINA RESULT:    -5.820      9.915     11.971
REMARK INTER + INTRA:          -6.978
REMARK INTER:                  -6.754
REMARK INTRA:                  -0.224
REMARK UNBOUND:                -0.137
REMARK SMILES O=c1c(O)c(-c2ccc(O)cc2)oc2cc(O)cc(O)c12
REMARK SMILES IDX 5 1 3 2 2 3 1 4 21 5 19 6 18 7 16 8 15 9 14 10 13 11 6 12
REMARK SMILES IDX 7 13 8 14 9 15 12 16 11 17 10 18 4 20 20 22 17 24
REMARK H PARENT 10 19 4 21 20 23 17 25
REMARK Flexibility Score: inf
ROOT
ATOM      1  C   UNL     1      11.442 -56.341 197.430  1.00  0.00     0.180 A 
ATOM      2  C   UNL     1      10.545 -56.271 196.350  1.00  0.00     0.208 A 
ATOM      3  C   UNL     1      11.008 -55.814 195.106  1.00  0.00     0.238 A 
ATOM      4  O   UNL     1      10.188 -55.703 194.158  1.00  0.00    -0.285 OA
ATOM      5  C   UNL     1      12.367 -55.447 194.953  1.00  0.00     0.111 A 
ATOM      6  C   UNL     1      12.955 -55.008 193.729  1.00  0.00     0.134 A 
ATOM      7  C   UNL     1      14.278 -54.547 193.724  1.00  0.00     0.093 A 
ATOM      8  C   UNL     1      15.052 -54.570 194.885  1.00  0.00     0.123 A 
ATOM      9  C   UNL     1      14.506 -55.052 196.072  1.00  0.00     0.094 A 
ATOM     10  C   UNL     1      13.179 -55.486 196.117  1.00  0.00     0.146 A 
ATOM     11  O   UNL     1      12.694 -55.928 197.271  1.00  0.00    -0.452 OA
ENDROOT
BRANCH   1  12
ATOM     12  C   UNL     1      11.033 -56.836 198.764  1.00  0.00     0.021 A 
ATOM     13  C   UNL     1      11.393 -58.136 199.159  1.00  0.00     0.016 A 
ATOM     14  C   UNL     1      10.997 -58.631 200.405  1.00  0.00     0.047 A 
ATOM     15  C   UNL     1      10.224 -57.840 201.265  1.00  0.00     0.115 A 
ATOM     16  C   UNL     1      10.240 -56.055 199.624  1.00  0.00     0.016 A 
ATOM     17  C   UNL     1       9.846 -56.555 200.870  1.00  0.00     0.047 A 
BRANCH  15  18
ATOM     18  O   UNL     1       9.826 -58.324 202.509  1.00  0.00    -0.508 OA
ATOM     19  H   UNL     1       8.847 -58.393 202.763  1.00  0.00     0.293 HD
ENDBRANCH  15  18
ENDBRANCH   1  12
BRANCH   2  20
ATOM     20  O   UNL     1       9.202 -56.618 196.529  1.00  0.00    -0.502 OA
ATOM     21  H   UNL     1       8.448 -55.954 196.399  1.00  0.00     0.293 HD
ENDBRANCH   2  20
BRANCH   6  22
ATOM     22  O   UNL     1      12.297 -55.032 192.495  1.00  0.00    -0.507 OA
ATOM     23  H   UNL     1      11.720 -55.791 192.166  1.00  0.00     0.293 HD
ENDBRANCH   6  22
BRANCH   8  24
ATOM     24  O   UNL     1      16.372 -54.124 194.868  1.00  0.00    -0.508 OA
ATOM     25  H   UNL     1      17.099 -54.637 194.384  1.00  0.00     0.293 HD
ENDBRANCH   8  24
TORSDOF 5
ENDMDL
MODEL 6
REMARK VINA RESULT:    -5.661     10.381     12.183
REMARK INTER + INTRA:          -6.791
REMARK INTER:                  -6.502
REMARK INTRA:                  -0.289
REMARK UNBOUND:                -0.137
REMARK SMILES O=c1c(O)c(-c2ccc(O)cc2)oc2cc(O)cc(O)c12
REMARK SMILES IDX 5 1 3 2 2 3 1 4 21 5 19 6 18 7 16 8 15 9 14 10 13 11 6 12
REMARK SMILES IDX 7 13 8 14 9 15 12 16 11 17 10 18 4 20 20 22 17 24
REMARK H PARENT 10 19 4 21 20 23 17 25
REMARK Flexibility Score: inf
ROOT
ATOM      1  C   UNL     1      12.247 -55.625 196.707  1.00  0.00     0.180 A 
ATOM      2  C   UNL     1      10.967 -55.402 196.171  1.00  0.00     0.208 A 
ATOM      3  C   UNL     1       9.845 -55.884 196.862  1.00  0.00     0.238 A 
ATOM      4  O   UNL     1       8.706 -55.728 196.350  1.00  0.00    -0.285 OA
ATOM      5  C   UNL     1      10.015 -56.570 198.089  1.00  0.00     0.111 A 
ATOM      6  C   UNL     1       8.946 -57.067 198.894  1.00  0.00     0.134 A 
ATOM      7  C   UNL     1       9.235 -57.845 200.023  1.00  0.00     0.093 A 
ATOM      8  C   UNL     1      10.554 -58.087 200.411  1.00  0.00     0.123 A 
ATOM      9  C   UNL     1      11.604 -57.556 199.665  1.00  0.00     0.094 A 
ATOM     10  C   UNL     1      11.348 -56.807 198.514  1.00  0.00     0.146 A 
ATOM     11  O   UNL     1      12.377 -56.329 197.825  1.00  0.00    -0.452 OA
ENDROOT
BRANCH   1  12
ATOM     12  C   UNL     1      13.476 -55.125 196.049  1.00  0.00     0.021 A 
ATOM     13  C   UNL     1      13.946 -53.836 196.352  1.00  0.00     0.016 A 
ATOM     14  C   UNL     1      15.091 -53.336 195.724  1.00  0.00     0.047 A 
ATOM     15  C   UNL     1      15.771 -54.111 194.776  1.00  0.00     0.115 A 
ATOM     16  C   UNL     1      14.152 -55.890 195.081  1.00  0.00     0.016 A 
ATOM     17  C   UNL     1      15.296 -55.386 194.455  1.00  0.00     0.047 A 
BRANCH  15  18
ATOM     18  O   UNL     1      16.913 -53.623 194.146  1.00  0.00    -0.508 OA
ATOM     19  H   UNL     1      16.905 -53.350 193.170  1.00  0.00     0.293 HD
ENDBRANCH  15  18
ENDBRANCH   1  12
BRANCH   2  20
ATOM     20  O   UNL     1      10.824 -54.742 194.947  1.00  0.00    -0.502 OA
ATOM     21  H   UNL     1       9.924 -54.619 194.498  1.00  0.00     0.293 HD
ENDBRANCH   2  20
BRANCH   6  22
ATOM     22  O   UNL     1       7.595 -56.804 198.646  1.00  0.00    -0.507 OA
ATOM     23  H   UNL     1       7.202 -56.623 197.736  1.00  0.00     0.293 HD
ENDBRANCH   6  22
BRANCH   8  24
ATOM     24  O   UNL     1      10.833 -58.848 201.544  1.00  0.00    -0.508 OA
ATOM     25  H   UNL     1      10.277 -59.658 201.788  1.00  0.00     0.293 HD
ENDBRANCH   8  24
TORSDOF 5
ENDMDL
MODEL 7
REMARK VINA RESULT:    -5.657      2.100      3.325
REMARK INTER + INTRA:          -6.786
REMARK INTER:                  -6.580
REMARK INTRA:                  -0.206
REMARK UNBOUND:                -0.137
REMARK SMILES O=c1c(O)c(-c2ccc(O)cc2)oc2cc(O)cc(O)c12
REMARK SMILES IDX 5 1 3 2 2 3 1 4 21 5 19 6 18 7 16 8 15 9 14 10 13 11 6 12
REMARK SMILES IDX 7 13 8 14 9 15 12 16 11 17 10 18 4 20 20 22 17 24
REMARK H PARENT 10 19 4 21 20 23 17 25
REMARK Flexibility Score: inf
ROOT
ATOM      1  C   UNL     1       4.588 -59.759 190.819  1.00  0.00     0.180 A 
ATOM      2  C   UNL     1       5.855 -60.249 191.178  1.00  0.00     0.208 A 
ATOM      3  C   UNL     1       6.371 -61.367 190.503  1.00  0.00     0.238 A 
ATOM      4  O   UNL     1       7.482 -61.833 190.866  1.00  0.00    -0.285 OA
ATOM      5  C   UNL     1       5.619 -61.972 189.467  1.00  0.00     0.111 A 
ATOM      6  C   UNL     1       6.060 -63.084 188.689  1.00  0.00     0.134 A 
ATOM      7  C   UNL     1       5.181 -63.683 187.779  1.00  0.00     0.093 A 
ATOM      8  C   UNL     1       3.899 -63.169 187.572  1.00  0.00     0.123 A 
ATOM      9  C   UNL     1       3.480 -62.047 188.283  1.00  0.00     0.094 A 
ATOM     10  C   UNL     1       4.322 -61.449 189.224  1.00  0.00     0.146 A 
ATOM     11  O   UNL     1       3.880 -60.388 189.889  1.00  0.00    -0.452 OA
ENDROOT
BRANCH   1  12
ATOM     12  C   UNL     1       3.989 -58.570 191.467  1.00  0.00     0.021 A 
ATOM     13  C   UNL     1       2.841 -58.721 192.264  1.00  0.00     0.016 A 
ATOM     14  C   UNL     1       2.247 -57.608 192.866  1.00  0.00     0.047 A 
ATOM     15  C   UNL     1       2.783 -56.329 192.668  1.00  0.00     0.115 A 
ATOM     16  C   UNL     1       4.510 -57.281 191.257  1.00  0.00     0.016 A 
ATOM     17  C   UNL     1       3.912 -56.170 191.861  1.00  0.00     0.047 A 
BRANCH  15  18
ATOM     18  O   UNL     1       2.199 -55.214 193.265  1.00  0.00    -0.508 OA
ATOM     19  H   UNL     1       1.703 -54.520 192.720  1.00  0.00     0.293 HD
ENDBRANCH  15  18
ENDBRANCH   1  12
BRANCH   2  20
ATOM     20  O   UNL     1       6.571 -59.649 192.219  1.00  0.00    -0.502 OA
ATOM     21  H   UNL     1       6.940 -60.179 192.999  1.00  0.00     0.293 HD
ENDBRANCH   2  20
BRANCH   6  22
ATOM     22  O   UNL     1       7.352 -63.617 188.753  1.00  0.00    -0.507 OA
ATOM     23  H   UNL     1       8.191 -63.121 188.496  1.00  0.00     0.293 HD
ENDBRANCH   6  22
BRANCH   8  24
ATOM     24  O   UNL     1       3.036 -63.761 186.652  1.00  0.00    -0.508 OA
ATOM     25  H   UNL     1       2.525 -64.607 186.873  1.00  0.00     0.293 HD
ENDBRANCH   8  24
TORSDOF 5
ENDMDL
MODEL 8
REMARK VINA RESULT:    -5.424      8.969     10.684
REMARK INTER + INTRA:          -6.513
REMARK INTER:                  -6.318
REMARK INTRA:                  -0.195
REMARK UNBOUND:                -0.137
REMARK SMILES O=c1c(O)c(-c2ccc(O)cc2)oc2cc(O)cc(O)c12
REMARK SMILES IDX 5 1 3 2 2 3 1 4 21 5 19 6 18 7 16 8 15 9 14 10 13 11 6 12
REMARK SMILES IDX 7 13 8 14 9 15 12 16 11 17 10 18 4 20 20 22 17 24
REMARK H PARENT 10 19 4 21 20 23 17 25
REMARK Flexibility Score: inf
ROOT
ATOM      1  C   UNL     1       6.216 -59.169 200.165  1.00  0.00     0.180 A 
ATOM      2  C   UNL     1       5.412 -58.871 199.052  1.00  0.00     0.208 A 
ATOM      3  C   UNL     1       4.703 -59.908 198.425  1.00  0.00     0.238 A 
ATOM      4  O   UNL     1       4.028 -59.645 197.396  1.00  0.00    -0.285 OA
ATOM      5  C   UNL     1       4.795 -61.228 198.930  1.00  0.00     0.111 A 
ATOM      6  C   UNL     1       4.089 -62.349 198.399  1.00  0.00     0.134 A 
ATOM      7  C   UNL     1       4.355 -63.632 198.895  1.00  0.00     0.093 A 
ATOM      8  C   UNL     1       5.254 -63.824 199.946  1.00  0.00     0.123 A 
ATOM      9  C   UNL     1       5.903 -62.729 200.511  1.00  0.00     0.094 A 
ATOM     10  C   UNL     1       5.685 -61.442 200.014  1.00  0.00     0.146 A 
ATOM     11  O   UNL     1       6.332 -60.427 200.574  1.00  0.00    -0.452 OA
ENDROOT
BRANCH   1  12
ATOM     12  C   UNL     1       6.973 -58.125 200.893  1.00  0.00     0.021 A 
ATOM     13  C   UNL     1       8.378 -58.152 200.878  1.00  0.00     0.016 A 
ATOM     14  C   UNL     1       9.111 -57.189 201.577  1.00  0.00     0.047 A 
ATOM     15  C   UNL     1       8.450 -56.196 202.313  1.00  0.00     0.115 A 
ATOM     16  C   UNL     1       6.316 -57.138 201.650  1.00  0.00     0.016 A 
ATOM     17  C   UNL     1       7.054 -56.177 202.349  1.00  0.00     0.047 A 
BRANCH  15  18
ATOM     18  O   UNL     1       9.172 -55.232 203.013  1.00  0.00    -0.508 OA
ATOM     19  H   UNL     1       8.822 -54.288 203.127  1.00  0.00     0.293 HD
ENDBRANCH  15  18
ENDBRANCH   1  12
BRANCH   2  20
ATOM     20  O   UNL     1       5.353 -57.565 198.556  1.00  0.00    -0.502 OA
ATOM     21  H   UNL     1       6.133 -57.129 198.079  1.00  0.00     0.293 HD
ENDBRANCH   2  20
BRANCH   6  22
ATOM     22  O   UNL     1       3.103 -62.254 197.411  1.00  0.00    -0.507 OA
ATOM     23  H   UNL     1       2.667 -63.042 196.957  1.00  0.00     0.293 HD
ENDBRANCH   6  22
BRANCH   8  24
ATOM     24  O   UNL     1       5.501 -65.101 200.445  1.00  0.00    -0.508 OA
ATOM     25  H   UNL     1       6.040 -65.246 201.290  1.00  0.00     0.293 HD
ENDBRANCH   8  24
TORSDOF 5
ENDMDL
MODEL 9
REMARK VINA RESULT:    -5.244     10.126     11.830
REMARK INTER + INTRA:          -6.301
REMARK INTER:                  -6.234
REMARK INTRA:                  -0.067
REMARK UNBOUND:                -0.137
REMARK SMILES O=c1c(O)c(-c2ccc(O)cc2)oc2cc(O)cc(O)c12
REMARK SMILES IDX 5 1 3 2 2 3 1 4 21 5 19 6 18 7 16 8 15 9 14 10 13 11 6 12
REMARK SMILES IDX 7 13 8 14 9 15 12 16 11 17 10 18 4 20 20 22 17 24
REMARK H PARENT 10 19 4 21 20 23 17 25
REMARK Flexibility Score: inf
ROOT
ATOM      1  C   UNL     1      11.206 -56.255 196.960  1.00  0.00     0.180 A 
ATOM      2  C   UNL     1       9.911 -55.877 196.565  1.00  0.00     0.208 A 
ATOM      3  C   UNL     1       8.837 -56.111 197.438  1.00  0.00     0.238 A 
ATOM      4  O   UNL     1       7.673 -55.820 197.057  1.00  0.00    -0.285 OA
ATOM      5  C   UNL     1       9.072 -56.707 198.701  1.00  0.00     0.111 A 
ATOM      6  C   UNL     1       8.065 -56.955 199.680  1.00  0.00     0.134 A 
ATOM      7  C   UNL     1       8.390 -57.669 200.841  1.00  0.00     0.093 A 
ATOM      8  C   UNL     1       9.700 -58.085 201.086  1.00  0.00     0.123 A 
ATOM      9  C   UNL     1      10.703 -57.795 200.163  1.00  0.00     0.094 A 
ATOM     10  C   UNL     1      10.402 -57.117 198.980  1.00  0.00     0.146 A 
ATOM     11  O   UNL     1      11.385 -56.871 198.122  1.00  0.00    -0.452 OA
ENDROOT
BRANCH   1  12
ATOM     12  C   UNL     1      12.391 -56.017 196.105  1.00  0.00     0.021 A 
ATOM     13  C   UNL     1      12.464 -56.625 194.840  1.00  0.00     0.016 A 
ATOM     14  C   UNL     1      13.585 -56.432 194.026  1.00  0.00     0.047 A 
ATOM     15  C   UNL     1      14.653 -55.642 194.472  1.00  0.00     0.115 A 
ATOM     16  C   UNL     1      13.475 -55.243 196.555  1.00  0.00     0.016 A 
ATOM     17  C   UNL     1      14.595 -55.053 195.738  1.00  0.00     0.047 A 
BRANCH  15  18
ATOM     18  O   UNL     1      15.773 -55.443 193.669  1.00  0.00    -0.508 OA
ATOM     19  H   UNL     1      15.870 -54.618 193.090  1.00  0.00     0.293 HD
ENDBRANCH  15  18
ENDBRANCH   1  12
BRANCH   2  20
ATOM     20  O   UNL     1       9.698 -55.310 195.305  1.00  0.00    -0.502 OA
ATOM     21  H   UNL     1       9.085 -55.730 194.617  1.00  0.00     0.293 HD
ENDBRANCH   2  20
BRANCH   6  22
ATOM     22  O   UNL     1       6.746 -56.501 199.576  1.00  0.00    -0.507 OA
ATOM     23  H   UNL     1       6.460 -55.540 199.673  1.00  0.00     0.293 HD
ENDBRANCH   6  22
BRANCH   8  24
ATOM     24  O   UNL     1      10.018 -58.780 202.251  1.00  0.00    -0.508 OA
ATOM     25  H   UNL     1      10.379 -59.726 202.222  1.00  0.00     0.293 HD
ENDBRANCH   8  24
TORSDOF 5
ENDMDL
