MODEL 1
REMARK VINA RESULT:    -6.322      0.000      0.000
REMARK INTER + INTRA:         -19.436
REMARK INTER:                 -16.669
REMARK INTRA:                  -2.767
REMARK UNBOUND:                -2.767
REMARK SMILES CCCCCCCCCCCCCCCCCCCCCCCCCCCCCC(=O)[O-]
REMARK SMILES IDX 16 1 17 2 18 3 19 4 20 5 21 6 22 7 23 8 24 9 25 10 26 11
REMARK SMILES IDX 27 12 28 13 29 14 30 15 31 16 32 17 15 18 14 19 13 20 12 21
REMARK SMILES IDX 11 22 10 23 9 24 8 25 7 26 6 27 5 28 4 29 3 30 2 31 1 32
REMARK H PARENT
REMARK Flexibility Score: inf
ROOT
ATOM      1  C   UNL     1      -9.970  12.184   3.152  1.00  0.00     0.000 C 
ENDROOT
BRANCH   1   2
ATOM      2  C   UNL     1     -10.835  11.126   3.868  1.00  0.00     0.000 C 
BRANCH   2   3
ATOM      3  C   UNL     1     -11.185  11.490   5.321  1.00  0.00     0.000 C 
BRANCH   3   4
ATOM      4  C   UNL     1     -12.034  10.416   6.019  1.00  0.00     0.000 C 
BRANCH   4   5
ATOM      5  C   UNL     1     -12.672  10.903   7.334  1.00  0.00     0.000 C 
BRANCH   5   6
ATOM      6  C   UNL     1     -11.689  11.208   8.481  1.00  0.00     0.000 C 
BRANCH   6   7
ATOM      7  C   UNL     1     -11.662  12.696   8.874  1.00  0.00     0.000 C 
BRANCH   7   8
ATOM      8  C   UNL     1     -10.232  13.218   9.093  1.00  0.00     0.000 C 
BRANCH   8   9
ATOM      9  C   UNL     1     -10.196  14.687   9.541  1.00  0.00     0.000 C 
BRANCH   9  10
ATOM     10  C   UNL     1      -8.746  15.149   9.753  1.00  0.00     0.000 C 
BRANCH  10  11
ATOM     11  C   UNL     1      -7.897  14.104  10.495  1.00  0.00     0.000 C 
BRANCH  11  12
ATOM     12  C   UNL     1      -7.769  14.414  11.997  1.00  0.00     0.000 C 
BRANCH  12  13
ATOM     13  C   UNL     1      -7.708  13.145  12.865  1.00  0.00     0.006 C 
BRANCH  13  14
ATOM     14  C   UNL     1      -6.368  12.405  12.751  1.00  0.00     0.053 C 
BRANCH  14  15
ATOM     15  C   UNL     1      -6.575  10.996  12.291  1.00  0.00     0.041 C 
ATOM     16  O   UNL     1      -5.655  10.388  11.679  1.00  0.00    -0.550 OA
ATOM     17  O   UNL     1      -7.779  10.347  12.544  1.00  0.00    -0.550 OA
ENDBRANCH  14  15
ENDBRANCH  13  14
ENDBRANCH  12  13
ENDBRANCH  11  12
ENDBRANCH  10  11
ENDBRANCH   9  10
ENDBRANCH   8   9
ENDBRANCH   7   8
ENDBRANCH   6   7
ENDBRANCH   5   6
ENDBRANCH   4   5
ENDBRANCH   3   4
ENDBRANCH   2   3
ENDBRANCH   1   2
BRANCH   1  18
ATOM     18  C   UNL     1      -9.177  13.062   4.138  1.00  0.00     0.000 C 
BRANCH  18  19
ATOM     19  C   UNL     1      -7.696  13.217   3.727  1.00  0.00     0.000 C 
BRANCH  19  20
ATOM     20  C   UNL     1      -7.342  12.530   2.397  1.00  0.00     0.000 C 
BRANCH  20  21
ATOM     21  C   UNL     1      -5.988  11.799   2.434  1.00  0.00     0.000 C 
BRANCH  21  22
ATOM     22  C   UNL     1      -6.089  10.395   3.047  1.00  0.00     0.000 C 
BRANCH  22  23
ATOM     23  C   UNL     1      -4.934  10.088   4.019  1.00  0.00     0.000 C 
BRANCH  23  24
ATOM     24  C   UNL     1      -3.835   9.221   3.381  1.00  0.00    -0.000 C 
BRANCH  24  25
ATOM     25  C   UNL     1      -3.555   7.894   4.113  1.00  0.00    -0.000 C 
BRANCH  25  26
ATOM     26  C   UNL     1      -4.819   7.204   4.668  1.00  0.00    -0.000 C 
BRANCH  26  27
ATOM     27  C   UNL     1      -4.601   6.631   6.079  1.00  0.00    -0.000 C 
BRANCH  27  28
ATOM     28  C   UNL     1      -5.748   6.969   7.042  1.00  0.00    -0.000 C 
BRANCH  28  29
ATOM     29  C   UNL     1      -5.313   7.915   8.173  1.00  0.00    -0.000 C 
BRANCH  29  30
ATOM     30  C   UNL     1      -3.971   8.579   7.843  1.00  0.00    -0.000 C 
BRANCH  30  31
ATOM     31  C   UNL     1      -4.096  10.106   7.850  1.00  0.00    -0.003 C 
ATOM     32  C   UNL     1      -2.964  10.756   7.059  1.00  0.00     0.004 C 
ENDBRANCH  30  31
ENDBRANCH  29  30
ENDBRANCH  28  29
ENDBRANCH  27  28
ENDBRANCH  26  27
ENDBRANCH  25  26
ENDBRANCH  24  25
ENDBRANCH  23  24
ENDBRANCH  22  23
ENDBRANCH  21  22
ENDBRANCH  20  21
ENDBRANCH  19  20
ENDBRANCH  18  19
ENDBRANCH   1  18
TORSDOF 28
ENDMDL
MODEL 2
REMARK VINA RESULT:    -6.309      1.009      2.249
REMARK INTER + INTRA:         -19.402
REMARK INTER:                 -16.435
REMARK INTRA:                  -2.967
REMARK UNBOUND:                -2.767
REMARK SMILES CCCCCCCCCCCCCCCCCCCCCCCCCCCCCC(=O)[O-]
REMARK SMILES IDX 16 1 17 2 18 3 19 4 20 5 21 6 22 7 23 8 24 9 25 10 26 11
REMARK SMILES IDX 27 12 28 13 29 14 30 15 31 16 32 17 15 18 14 19 13 20 12 21
REMARK SMILES IDX 11 22 10 23 9 24 8 25 7 26 6 27 5 28 4 29 3 30 2 31 1 32
REMARK H PARENT
REMARK Flexibility Score: inf
ROOT
ATOM      1  C   UNL     1     -11.230  11.476   5.394  1.00  0.00     0.000 C 
ENDROOT
BRANCH   1   2
ATOM      2  C   UNL     1     -12.146  10.369   5.956  1.00  0.00     0.000 C 
BRANCH   2   3
ATOM      3  C   UNL     1     -12.707  10.678   7.355  1.00  0.00     0.000 C 
BRANCH   3   4
ATOM      4  C   UNL     1     -11.616  11.078   8.361  1.00  0.00     0.000 C 
BRANCH   4   5
ATOM      5  C   UNL     1     -11.751  12.528   8.862  1.00  0.00     0.000 C 
BRANCH   5   6
ATOM      6  C   UNL     1     -10.488  13.134   9.506  1.00  0.00     0.000 C 
BRANCH   6   7
ATOM      7  C   UNL     1      -9.573  13.842   8.491  1.00  0.00     0.000 C 
BRANCH   7   8
ATOM      8  C   UNL     1      -8.593  14.815   9.167  1.00  0.00     0.000 C 
BRANCH   8   9
ATOM      9  C   UNL     1      -9.301  15.877  10.021  1.00  0.00     0.000 C 
BRANCH   9  10
ATOM     10  C   UNL     1      -8.274  16.723  10.789  1.00  0.00     0.000 C 
BRANCH  10  11
ATOM     11  C   UNL     1      -7.318  15.865  11.634  1.00  0.00     0.000 C 
BRANCH  11  12
ATOM     12  C   UNL     1      -8.022  15.219  12.840  1.00  0.00     0.000 C 
BRANCH  12  13
ATOM     13  C   UNL     1      -7.434  13.846  13.209  1.00  0.00     0.006 C 
BRANCH  13  14
ATOM     14  C   UNL     1      -7.339  12.893  12.009  1.00  0.00     0.053 C 
BRANCH  14  15
ATOM     15  C   UNL     1      -7.902  11.549  12.350  1.00  0.00     0.041 C 
ATOM     16  O   UNL     1      -7.130  10.592  12.629  1.00  0.00    -0.550 OA
ATOM     17  O   UNL     1      -9.279  11.352  12.372  1.00  0.00    -0.550 OA
ENDBRANCH  14  15
ENDBRANCH  13  14
ENDBRANCH  12  13
ENDBRANCH  11  12
ENDBRANCH  10  11
ENDBRANCH   9  10
ENDBRANCH   8   9
ENDBRANCH   7   8
ENDBRANCH   6   7
ENDBRANCH   5   6
ENDBRANCH   4   5
ENDBRANCH   3   4
ENDBRANCH   2   3
ENDBRANCH   1   2
BRANCH   1  18
ATOM     18  C   UNL     1     -10.787  11.196   3.946  1.00  0.00     0.000 C 
BRANCH  18  19
ATOM     19  C   UNL     1      -9.967  12.360   3.347  1.00  0.00     0.000 C 
BRANCH  19  20
ATOM     20  C   UNL     1      -9.365  13.306   4.400  1.00  0.00     0.000 C 
BRANCH  20  21
ATOM     21  C   UNL     1      -7.827  13.349   4.367  1.00  0.00     0.000 C 
BRANCH  21  22
ATOM     22  C   UNL     1      -7.250  12.919   3.010  1.00  0.00     0.000 C 
BRANCH  22  23
ATOM     23  C   UNL     1      -6.245  11.759   3.135  1.00  0.00     0.000 C 
BRANCH  23  24
ATOM     24  C   UNL     1      -6.636  10.540   2.282  1.00  0.00    -0.000 C 
BRANCH  24  25
ATOM     25  C   UNL     1      -6.360   9.175   2.941  1.00  0.00    -0.000 C 
BRANCH  25  26
ATOM     26  C   UNL     1      -5.311   9.226   4.074  1.00  0.00    -0.000 C 
BRANCH  26  27
ATOM     27  C   UNL     1      -5.325   7.954   4.941  1.00  0.00    -0.000 C 
BRANCH  27  28
ATOM     28  C   UNL     1      -3.918   7.400   5.204  1.00  0.00    -0.000 C 
BRANCH  28  29
ATOM     29  C   UNL     1      -3.238   8.061   6.414  1.00  0.00    -0.000 C 
BRANCH  29  30
ATOM     30  C   UNL     1      -4.227   8.228   7.573  1.00  0.00    -0.000 C 
BRANCH  30  31
ATOM     31  C   UNL     1      -4.173   9.648   8.144  1.00  0.00    -0.003 C 
ATOM     32  C   UNL     1      -3.527  10.616   7.157  1.00  0.00     0.004 C 
ENDBRANCH  30  31
ENDBRANCH  29  30
ENDBRANCH  28  29
ENDBRANCH  27  28
ENDBRANCH  26  27
ENDBRANCH  25  26
ENDBRANCH  24  25
ENDBRANCH  23  24
ENDBRANCH  22  23
ENDBRANCH  21  22
ENDBRANCH  20  21
ENDBRANCH  19  20
ENDBRANCH  18  19
ENDBRANCH   1  18
TORSDOF 28
ENDMDL
MODEL 3
REMARK VINA RESULT:    -6.292      1.030      2.100
REMARK INTER + INTRA:         -19.357
REMARK INTER:                 -16.235
REMARK INTRA:                  -3.122
REMARK UNBOUND:                -2.767
REMARK SMILES CCCCCCCCCCCCCCCCCCCCCCCCCCCCCC(=O)[O-]
REMARK SMILES IDX 16 1 17 2 18 3 19 4 20 5 21 6 22 7 23 8 24 9 25 10 26 11
REMARK SMILES IDX 27 12 28 13 29 14 30 15 31 16 32 17 15 18 14 19 13 20 12 21
REMARK SMILES IDX 11 22 10 23 9 24 8 25 7 26 6 27 5 28 4 29 3 30 2 31 1 32
REMARK H PARENT
REMARK Flexibility Score: inf
ROOT
ATOM      1  C   UNL     1     -10.734  11.101   4.001  1.00  0.00     0.000 C 
ENDROOT
BRANCH   1   2
ATOM      2  C   UNL     1     -11.185  11.490   5.424  1.00  0.00     0.000 C 
BRANCH   2   3
ATOM      3  C   UNL     1     -12.163  10.488   6.061  1.00  0.00     0.000 C 
BRANCH   3   4
ATOM      4  C   UNL     1     -12.349  10.711   7.570  1.00  0.00     0.000 C 
BRANCH   4   5
ATOM      5  C   UNL     1     -11.157  11.430   8.231  1.00  0.00     0.000 C 
BRANCH   5   6
ATOM      6  C   UNL     1     -11.484  12.769   8.921  1.00  0.00     0.000 C 
BRANCH   6   7
ATOM      7  C   UNL     1     -10.273  13.388   9.641  1.00  0.00     0.000 C 
BRANCH   7   8
ATOM      8  C   UNL     1      -9.405  14.239   8.699  1.00  0.00     0.000 C 
BRANCH   8   9
ATOM      9  C   UNL     1      -8.056  14.628   9.321  1.00  0.00     0.000 C 
BRANCH   9  10
ATOM     10  C   UNL     1      -8.242  15.757  10.348  1.00  0.00     0.000 C 
BRANCH  10  11
ATOM     11  C   UNL     1      -8.070  15.269  11.796  1.00  0.00     0.000 C 
BRANCH  11  12
ATOM     12  C   UNL     1      -6.965  14.205  11.927  1.00  0.00     0.000 C 
BRANCH  12  13
ATOM     13  C   UNL     1      -7.285  13.142  12.993  1.00  0.00     0.006 C 
BRANCH  13  14
ATOM     14  C   UNL     1      -8.533  12.314  12.657  1.00  0.00     0.053 C 
BRANCH  14  15
ATOM     15  C   UNL     1      -8.186  10.865  12.510  1.00  0.00     0.041 C 
ATOM     16  O   UNL     1      -9.100   9.999  12.453  1.00  0.00    -0.550 OA
ATOM     17  O   UNL     1      -6.855  10.469  12.425  1.00  0.00    -0.550 OA
ENDBRANCH  14  15
ENDBRANCH  13  14
ENDBRANCH  12  13
ENDBRANCH  11  12
ENDBRANCH  10  11
ENDBRANCH   9  10
ENDBRANCH   8   9
ENDBRANCH   7   8
ENDBRANCH   6   7
ENDBRANCH   5   6
ENDBRANCH   4   5
ENDBRANCH   3   4
ENDBRANCH   2   3
ENDBRANCH   1   2
BRANCH   1  18
ATOM     18  C   UNL     1      -9.842  12.174   3.351  1.00  0.00     0.000 C 
BRANCH  18  19
ATOM     19  C   UNL     1      -9.106  13.040   4.397  1.00  0.00     0.000 C 
BRANCH  19  20
ATOM     20  C   UNL     1      -7.634  13.322   4.051  1.00  0.00     0.000 C 
BRANCH  20  21
ATOM     21  C   UNL     1      -7.119  12.485   2.867  1.00  0.00     0.000 C 
BRANCH  21  22
ATOM     22  C   UNL     1      -6.173  11.357   3.305  1.00  0.00     0.000 C 
BRANCH  22  23
ATOM     23  C   UNL     1      -6.615   9.977   2.784  1.00  0.00     0.000 C 
BRANCH  23  24
ATOM     24  C   UNL     1      -5.442   8.993   2.638  1.00  0.00    -0.000 C 
BRANCH  24  25
ATOM     25  C   UNL     1      -5.293   7.990   3.799  1.00  0.00    -0.000 C 
BRANCH  25  26
ATOM     26  C   UNL     1      -3.834   7.774   4.257  1.00  0.00    -0.000 C 
BRANCH  26  27
ATOM     27  C   UNL     1      -3.348   8.886   5.204  1.00  0.00    -0.000 C 
BRANCH  27  28
ATOM     28  C   UNL     1      -4.359   9.204   6.316  1.00  0.00    -0.000 C 
BRANCH  28  29
ATOM     29  C   UNL     1      -4.087   8.414   7.606  1.00  0.00    -0.000 C 
BRANCH  29  30
ATOM     30  C   UNL     1      -5.388   7.839   8.179  1.00  0.00    -0.000 C 
BRANCH  30  31
ATOM     31  C   UNL     1      -5.936   6.722   7.287  1.00  0.00    -0.003 C 
ATOM     32  C   UNL     1      -5.021   5.501   7.305  1.00  0.00     0.004 C 
ENDBRANCH  30  31
ENDBRANCH  29  30
ENDBRANCH  28  29
ENDBRANCH  27  28
ENDBRANCH  26  27
ENDBRANCH  25  26
ENDBRANCH  24  25
ENDBRANCH  23  24
ENDBRANCH  22  23
ENDBRANCH  21  22
ENDBRANCH  20  21
ENDBRANCH  19  20
ENDBRANCH  18  19
ENDBRANCH   1  18
TORSDOF 28
ENDMDL
MODEL 4
REMARK VINA RESULT:    -6.278      1.263      3.389
REMARK INTER + INTRA:         -19.320
REMARK INTER:                 -16.131
REMARK INTRA:                  -3.189
REMARK UNBOUND:                -2.767
REMARK SMILES CCCCCCCCCCCCCCCCCCCCCCCCCCCCCC(=O)[O-]
REMARK SMILES IDX 16 1 17 2 18 3 19 4 20 5 21 6 22 7 23 8 24 9 25 10 26 11
REMARK SMILES IDX 27 12 28 13 29 14 30 15 31 16 32 17 15 18 14 19 13 20 12 21
REMARK SMILES IDX 11 22 10 23 9 24 8 25 7 26 6 27 5 28 4 29 3 30 2 31 1 32
REMARK H PARENT
REMARK Flexibility Score: inf
ROOT
ATOM      1  C   UNL     1     -11.238  11.461   6.675  1.00  0.00     0.000 C 
ENDROOT
BRANCH   1   2
ATOM      2  C   UNL     1     -12.553  11.729   7.437  1.00  0.00     0.000 C 
BRANCH   2   3
ATOM      3  C   UNL     1     -12.374  12.587   8.701  1.00  0.00     0.000 C 
BRANCH   3   4
ATOM      4  C   UNL     1     -10.943  12.539   9.260  1.00  0.00     0.000 C 
BRANCH   4   5
ATOM      5  C   UNL     1     -10.308  13.933   9.430  1.00  0.00     0.000 C 
BRANCH   5   6
ATOM      6  C   UNL     1      -8.891  14.097   8.847  1.00  0.00     0.000 C 
BRANCH   6   7
ATOM      7  C   UNL     1      -8.120  15.281   9.458  1.00  0.00     0.000 C 
BRANCH   7   8
ATOM      8  C   UNL     1      -8.837  15.876  10.682  1.00  0.00     0.000 C 
BRANCH   8   9
ATOM      9  C   UNL     1      -7.901  16.068  11.885  1.00  0.00     0.000 C 
BRANCH   9  10
ATOM     10  C   UNL     1      -7.905  14.816  12.776  1.00  0.00     0.000 C 
BRANCH  10  11
ATOM     11  C   UNL     1      -6.732  13.872  12.469  1.00  0.00     0.000 C 
BRANCH  11  12
ATOM     12  C   UNL     1      -7.202  12.443  12.137  1.00  0.00     0.000 C 
BRANCH  12  13
ATOM     13  C   UNL     1      -8.703  12.234  12.401  1.00  0.00     0.006 C 
BRANCH  13  14
ATOM     14  C   UNL     1      -9.090  10.753  12.515  1.00  0.00     0.053 C 
BRANCH  14  15
ATOM     15  C   UNL     1      -8.426  10.118  13.697  1.00  0.00     0.041 C 
ATOM     16  O   UNL     1      -8.541  10.636  14.841  1.00  0.00    -0.550 OA
ATOM     17  O   UNL     1      -7.688   8.949  13.541  1.00  0.00    -0.550 OA
ENDBRANCH  14  15
ENDBRANCH  13  14
ENDBRANCH  12  13
ENDBRANCH  11  12
ENDBRANCH  10  11
ENDBRANCH   9  10
ENDBRANCH   8   9
ENDBRANCH   7   8
ENDBRANCH   6   7
ENDBRANCH   5   6
ENDBRANCH   4   5
ENDBRANCH   3   4
ENDBRANCH   2   3
ENDBRANCH   1   2
BRANCH   1  18
ATOM     18  C   UNL     1     -11.476  10.828   5.292  1.00  0.00     0.000 C 
BRANCH  18  19
ATOM     19  C   UNL     1     -11.142  11.796   4.136  1.00  0.00     0.000 C 
BRANCH  19  20
ATOM     20  C   UNL     1      -9.641  11.888   3.814  1.00  0.00     0.000 C 
BRANCH  20  21
ATOM     21  C   UNL     1      -8.995  13.197   4.301  1.00  0.00     0.000 C 
BRANCH  21  22
ATOM     22  C   UNL     1      -7.492  13.267   3.995  1.00  0.00     0.000 C 
BRANCH  22  23
ATOM     23  C   UNL     1      -7.119  12.543   2.688  1.00  0.00     0.000 C 
BRANCH  23  24
ATOM     24  C   UNL     1      -5.855  11.677   2.829  1.00  0.00    -0.000 C 
BRANCH  24  25
ATOM     25  C   UNL     1      -6.108  10.157   2.813  1.00  0.00    -0.000 C 
BRANCH  25  26
ATOM     26  C   UNL     1      -5.661   9.434   4.102  1.00  0.00    -0.000 C 
BRANCH  26  27
ATOM     27  C   UNL     1      -4.436  10.102   4.753  1.00  0.00    -0.000 C 
BRANCH  27  28
ATOM     28  C   UNL     1      -3.770   9.215   5.815  1.00  0.00    -0.000 C 
BRANCH  28  29
ATOM     29  C   UNL     1      -4.001   9.729   7.245  1.00  0.00    -0.000 C 
BRANCH  29  30
ATOM     30  C   UNL     1      -4.725   8.677   8.093  1.00  0.00    -0.000 C 
BRANCH  30  31
ATOM     31  C   UNL     1      -4.815   7.339   7.354  1.00  0.00    -0.003 C 
ATOM     32  C   UNL     1      -6.029   6.536   7.811  1.00  0.00     0.004 C 
ENDBRANCH  30  31
ENDBRANCH  29  30
ENDBRANCH  28  29
ENDBRANCH  27  28
ENDBRANCH  26  27
ENDBRANCH  25  26
ENDBRANCH  24  25
ENDBRANCH  23  24
ENDBRANCH  22  23
ENDBRANCH  21  22
ENDBRANCH  20  21
ENDBRANCH  19  20
ENDBRANCH  18  19
ENDBRANCH   1  18
TORSDOF 28
ENDMDL
MODEL 5
REMARK VINA RESULT:    -6.238      1.593      7.441
REMARK INTER + INTRA:         -19.217
REMARK INTER:                 -16.251
REMARK INTRA:                  -2.966
REMARK UNBOUND:                -2.767
REMARK SMILES CCCCCCCCCCCCCCCCCCCCCCCCCCCCCC(=O)[O-]
REMARK SMILES IDX 16 1 17 2 18 3 19 4 20 5 21 6 22 7 23 8 24 9 25 10 26 11
REMARK SMILES IDX 27 12 28 13 29 14 30 15 31 16 32 17 15 18 14 19 13 20 12 21
REMARK SMILES IDX 11 22 10 23 9 24 8 25 7 26 6 27 5 28 4 29 3 30 2 31 1 32
REMARK H PARENT
REMARK Flexibility Score: inf
ROOT
ATOM      1  C   UNL     1     -11.229  11.455   5.861  1.00  0.00     0.000 C 
ENDROOT
BRANCH   1   2
ATOM      2  C   UNL     1     -11.317  11.272   4.332  1.00  0.00     0.000 C 
BRANCH   2   3
ATOM      3  C   UNL     1      -9.975  11.463   3.605  1.00  0.00     0.000 C 
BRANCH   3   4
ATOM      4  C   UNL     1      -9.612  12.941   3.397  1.00  0.00     0.000 C 
BRANCH   4   5
ATOM      5  C   UNL     1      -8.289  13.345   4.077  1.00  0.00     0.000 C 
BRANCH   5   6
ATOM      6  C   UNL     1      -7.037  12.573   3.615  1.00  0.00     0.000 C 
BRANCH   6   7
ATOM      7  C   UNL     1      -6.812  12.644   2.094  1.00  0.00     0.000 C 
BRANCH   7   8
ATOM      8  C   UNL     1      -6.642  11.252   1.462  1.00  0.00     0.000 C 
BRANCH   8   9
ATOM      9  C   UNL     1      -6.914  10.111   2.454  1.00  0.00     0.000 C 
BRANCH   9  10
ATOM     10  C   UNL     1      -5.645   9.272   2.671  1.00  0.00     0.000 C 
BRANCH  10  11
ATOM     11  C   UNL     1      -5.326   9.063   4.160  1.00  0.00     0.000 C 
BRANCH  11  12
ATOM     12  C   UNL     1      -4.429  10.178   4.729  1.00  0.00     0.000 C 
BRANCH  12  13
ATOM     13  C   UNL     1      -4.058   9.950   6.204  1.00  0.00     0.006 C 
BRANCH  13  14
ATOM     14  C   UNL     1      -4.031   8.466   6.593  1.00  0.00     0.053 C 
BRANCH  14  15
ATOM     15  C   UNL     1      -4.925   8.206   7.765  1.00  0.00     0.041 C 
ATOM     16  O   UNL     1      -4.826   8.912   8.805  1.00  0.00    -0.550 OA
ATOM     17  O   UNL     1      -5.875   7.191   7.709  1.00  0.00    -0.550 OA
ENDBRANCH  14  15
ENDBRANCH  13  14
ENDBRANCH  12  13
ENDBRANCH  11  12
ENDBRANCH  10  11
ENDBRANCH   9  10
ENDBRANCH   8   9
ENDBRANCH   7   8
ENDBRANCH   6   7
ENDBRANCH   5   6
ENDBRANCH   4   5
ENDBRANCH   3   4
ENDBRANCH   2   3
ENDBRANCH   1   2
BRANCH   1  18
ATOM     18  C   UNL     1     -12.119  10.460   6.627  1.00  0.00     0.000 C 
BRANCH  18  19
ATOM     19  C   UNL     1     -12.083  10.693   8.154  1.00  0.00     0.000 C 
BRANCH  19  20
ATOM     20  C   UNL     1     -12.008  12.176   8.558  1.00  0.00     0.000 C 
BRANCH  20  21
ATOM     21  C   UNL     1     -10.764  12.513   9.397  1.00  0.00     0.000 C 
BRANCH  21  22
ATOM     22  C   UNL     1     -10.388  14.000   9.329  1.00  0.00     0.000 C 
BRANCH  22  23
ATOM     23  C   UNL     1      -9.187  14.266   8.402  1.00  0.00     0.000 C 
BRANCH  23  24
ATOM     24  C   UNL     1      -7.891  14.558   9.177  1.00  0.00    -0.000 C 
BRANCH  24  25
ATOM     25  C   UNL     1      -8.086  15.339  10.491  1.00  0.00    -0.000 C 
BRANCH  25  26
ATOM     26  C   UNL     1      -7.211  14.833  11.658  1.00  0.00    -0.000 C 
BRANCH  26  27
ATOM     27  C   UNL     1      -8.043  14.151  12.760  1.00  0.00    -0.000 C 
BRANCH  27  28
ATOM     28  C   UNL     1      -8.561  12.767  12.343  1.00  0.00    -0.000 C 
BRANCH  28  29
ATOM     29  C   UNL     1      -8.267  11.684  13.393  1.00  0.00    -0.000 C 
BRANCH  29  30
ATOM     30  C   UNL     1      -8.212  10.295  12.745  1.00  0.00    -0.000 C 
BRANCH  30  31
ATOM     31  C   UNL     1      -6.828   9.663  12.913  1.00  0.00    -0.003 C 
ATOM     32  C   UNL     1      -5.890  10.078  11.783  1.00  0.00     0.004 C 
ENDBRANCH  30  31
ENDBRANCH  29  30
ENDBRANCH  28  29
ENDBRANCH  27  28
ENDBRANCH  26  27
ENDBRANCH  25  26
ENDBRANCH  24  25
ENDBRANCH  23  24
ENDBRANCH  22  23
ENDBRANCH  21  22
ENDBRANCH  20  21
ENDBRANCH  19  20
ENDBRANCH  18  19
ENDBRANCH   1  18
TORSDOF 28
ENDMDL
MODEL 6
REMARK VINA RESULT:    -6.212      1.656      3.930
REMARK INTER + INTRA:         -19.146
REMARK INTER:                 -16.374
REMARK INTRA:                  -2.772
REMARK UNBOUND:                -2.767
REMARK SMILES CCCCCCCCCCCCCCCCCCCCCCCCCCCCCC(=O)[O-]
REMARK SMILES IDX 16 1 17 2 18 3 19 4 20 5 21 6 22 7 23 8 24 9 25 10 26 11
REMARK SMILES IDX 27 12 28 13 29 14 30 15 31 16 32 17 15 18 14 19 13 20 12 21
REMARK SMILES IDX 11 22 10 23 9 24 8 25 7 26 6 27 5 28 4 29 3 30 2 31 1 32
REMARK H PARENT
REMARK Flexibility Score: inf
ROOT
ATOM      1  C   UNL     1     -11.929  11.158   7.395  1.00  0.00     0.000 C 
ENDROOT
BRANCH   1   2
ATOM      2  C   UNL     1     -10.875  12.223   7.763  1.00  0.00     0.000 C 
BRANCH   2   3
ATOM      3  C   UNL     1     -10.870  12.600   9.254  1.00  0.00     0.000 C 
BRANCH   3   4
ATOM      4  C   UNL     1     -10.322  14.013   9.512  1.00  0.00     0.000 C 
BRANCH   4   5
ATOM      5  C   UNL     1      -8.987  14.289   8.794  1.00  0.00     0.000 C 
BRANCH   5   6
ATOM      6  C   UNL     1      -7.836  14.784   9.692  1.00  0.00     0.000 C 
BRANCH   6   7
ATOM      7  C   UNL     1      -8.296  15.781  10.770  1.00  0.00     0.000 C 
BRANCH   7   8
ATOM      8  C   UNL     1      -7.894  15.338  12.186  1.00  0.00     0.000 C 
BRANCH   8   9
ATOM      9  C   UNL     1      -6.886  14.179  12.185  1.00  0.00     0.000 C 
BRANCH   9  10
ATOM     10  C   UNL     1      -6.902  13.450  13.537  1.00  0.00     0.000 C 
BRANCH  10  11
ATOM     11  C   UNL     1      -7.465  12.024  13.430  1.00  0.00     0.000 C 
BRANCH  11  12
ATOM     12  C   UNL     1      -8.455  11.872  12.261  1.00  0.00     0.000 C 
BRANCH  12  13
ATOM     13  C   UNL     1      -9.412  10.681  12.442  1.00  0.00     0.006 C 
BRANCH  13  14
ATOM     14  C   UNL     1      -8.678   9.350  12.658  1.00  0.00     0.053 C 
BRANCH  14  15
ATOM     15  C   UNL     1      -9.635   8.200  12.611  1.00  0.00     0.041 C 
ATOM     16  O   UNL     1      -9.274   7.060  13.010  1.00  0.00    -0.550 OA
ATOM     17  O   UNL     1     -10.930   8.387  12.138  1.00  0.00    -0.550 OA
ENDBRANCH  14  15
ENDBRANCH  13  14
ENDBRANCH  12  13
ENDBRANCH  11  12
ENDBRANCH  10  11
ENDBRANCH   9  10
ENDBRANCH   8   9
ENDBRANCH   7   8
ENDBRANCH   6   7
ENDBRANCH   5   6
ENDBRANCH   4   5
ENDBRANCH   3   4
ENDBRANCH   2   3
ENDBRANCH   1   2
BRANCH   1  18
ATOM     18  C   UNL     1     -11.787  10.665   5.943  1.00  0.00     0.000 C 
BRANCH  18  19
ATOM     19  C   UNL     1     -10.907  11.602   5.087  1.00  0.00     0.000 C 
BRANCH  19  20
ATOM     20  C   UNL     1     -10.873  11.236   3.593  1.00  0.00     0.000 C 
BRANCH  20  21
ATOM     21  C   UNL     1      -9.837  12.044   2.794  1.00  0.00     0.000 C 
BRANCH  21  22
ATOM     22  C   UNL     1      -8.784  12.711   3.691  1.00  0.00     0.000 C 
BRANCH  22  23
ATOM     23  C   UNL     1      -7.348  12.276   3.344  1.00  0.00     0.000 C 
BRANCH  23  24
ATOM     24  C   UNL     1      -7.295  10.908   2.642  1.00  0.00    -0.000 C 
BRANCH  24  25
ATOM     25  C   UNL     1      -5.968  10.144   2.817  1.00  0.00    -0.000 C 
BRANCH  25  26
ATOM     26  C   UNL     1      -4.893  10.925   3.604  1.00  0.00    -0.000 C 
BRANCH  26  27
ATOM     27  C   UNL     1      -4.598  10.291   4.976  1.00  0.00    -0.000 C 
BRANCH  27  28
ATOM     28  C   UNL     1      -4.176   8.819   4.871  1.00  0.00    -0.000 C 
BRANCH  28  29
ATOM     29  C   UNL     1      -5.084   7.883   5.685  1.00  0.00    -0.000 C 
BRANCH  29  30
ATOM     30  C   UNL     1      -4.444   7.537   7.034  1.00  0.00    -0.000 C 
BRANCH  30  31
ATOM     31  C   UNL     1      -4.954   8.464   8.141  1.00  0.00    -0.003 C 
ATOM     32  C   UNL     1      -3.887   9.475   8.550  1.00  0.00     0.004 C 
ENDBRANCH  30  31
ENDBRANCH  29  30
ENDBRANCH  28  29
ENDBRANCH  27  28
ENDBRANCH  26  27
ENDBRANCH  25  26
ENDBRANCH  24  25
ENDBRANCH  23  24
ENDBRANCH  22  23
ENDBRANCH  21  22
ENDBRANCH  20  21
ENDBRANCH  19  20
ENDBRANCH  18  19
ENDBRANCH   1  18
TORSDOF 28
ENDMDL
MODEL 7
REMARK VINA RESULT:    -6.129      2.332      8.072
REMARK INTER + INTRA:         -18.928
REMARK INTER:                 -15.929
REMARK INTRA:                  -2.999
REMARK UNBOUND:                -2.767
REMARK SMILES CCCCCCCCCCCCCCCCCCCCCCCCCCCCCC(=O)[O-]
REMARK SMILES IDX 16 1 17 2 18 3 19 4 20 5 21 6 22 7 23 8 24 9 25 10 26 11
REMARK SMILES IDX 27 12 28 13 29 14 30 15 31 16 32 17 15 18 14 19 13 20 12 21
REMARK SMILES IDX 11 22 10 23 9 24 8 25 7 26 6 27 5 28 4 29 3 30 2 31 1 32
REMARK H PARENT
REMARK Flexibility Score: inf
ROOT
ATOM      1  C   UNL     1     -11.030  11.602   5.104  1.00  0.00     0.000 C 
ENDROOT
BRANCH   1   2
ATOM      2  C   UNL     1     -10.888  11.051   3.670  1.00  0.00     0.000 C 
BRANCH   2   3
ATOM      3  C   UNL     1     -10.301  12.063   2.671  1.00  0.00     0.000 C 
BRANCH   3   4
ATOM      4  C   UNL     1      -9.580  13.233   3.359  1.00  0.00     0.000 C 
BRANCH   4   5
ATOM      5  C   UNL     1      -9.688  14.558   2.580  1.00  0.00     0.000 C 
BRANCH   5   6
ATOM      6  C   UNL     1      -8.395  15.036   1.892  1.00  0.00     0.000 C 
BRANCH   6   7
ATOM      7  C   UNL     1      -8.114  14.311   0.563  1.00  0.00     0.000 C 
BRANCH   7   8
ATOM      8  C   UNL     1      -6.871  13.410   0.640  1.00  0.00     0.000 C 
BRANCH   8   9
ATOM      9  C   UNL     1      -7.219  11.913   0.624  1.00  0.00     0.000 C 
BRANCH   9  10
ATOM     10  C   UNL     1      -6.271  11.130   1.546  1.00  0.00     0.000 C 
BRANCH  10  11
ATOM     11  C   UNL     1      -6.291  11.654   2.991  1.00  0.00     0.000 C 
BRANCH  11  12
ATOM     12  C   UNL     1      -5.154  11.061   3.844  1.00  0.00     0.000 C 
BRANCH  12  13
ATOM     13  C   UNL     1      -4.719   9.664   3.369  1.00  0.00     0.006 C 
BRANCH  13  14
ATOM     14  C   UNL     1      -5.466   8.529   4.083  1.00  0.00     0.053 C 
BRANCH  14  15
ATOM     15  C   UNL     1      -4.657   7.994   5.223  1.00  0.00     0.041 C 
ATOM     16  O   UNL     1      -4.753   8.515   6.367  1.00  0.00    -0.550 OA
ATOM     17  O   UNL     1      -3.803   6.913   5.027  1.00  0.00    -0.550 OA
ENDBRANCH  14  15
ENDBRANCH  13  14
ENDBRANCH  12  13
ENDBRANCH  11  12
ENDBRANCH  10  11
ENDBRANCH   9  10
ENDBRANCH   8   9
ENDBRANCH   7   8
ENDBRANCH   6   7
ENDBRANCH   5   6
ENDBRANCH   4   5
ENDBRANCH   3   4
ENDBRANCH   2   3
ENDBRANCH   1   2
BRANCH   1  18
ATOM     18  C   UNL     1     -11.936  10.724   5.986  1.00  0.00     0.000 C 
BRANCH  18  19
ATOM     19  C   UNL     1     -11.870  11.123   7.477  1.00  0.00     0.000 C 
BRANCH  19  20
ATOM     20  C   UNL     1     -10.847  12.230   7.783  1.00  0.00     0.000 C 
BRANCH  20  21
ATOM     21  C   UNL     1     -10.788  12.607   9.273  1.00  0.00     0.000 C 
BRANCH  21  22
ATOM     22  C   UNL     1     -10.372  14.067   9.501  1.00  0.00     0.000 C 
BRANCH  22  23
ATOM     23  C   UNL     1      -9.106  14.452   8.714  1.00  0.00     0.000 C 
BRANCH  23  24
ATOM     24  C   UNL     1      -7.872  14.615   9.618  1.00  0.00    -0.000 C 
BRANCH  24  25
ATOM     25  C   UNL     1      -7.939  15.806  10.593  1.00  0.00    -0.000 C 
BRANCH  25  26
ATOM     26  C   UNL     1      -7.918  15.399  12.083  1.00  0.00    -0.000 C 
BRANCH  26  27
ATOM     27  C   UNL     1      -7.053  14.151  12.336  1.00  0.00    -0.000 C 
BRANCH  27  28
ATOM     28  C   UNL     1      -7.788  13.072  13.144  1.00  0.00    -0.000 C 
BRANCH  28  29
ATOM     29  C   UNL     1      -8.330  11.936  12.260  1.00  0.00    -0.000 C 
BRANCH  29  30
ATOM     30  C   UNL     1      -9.226  10.993  13.072  1.00  0.00    -0.000 C 
BRANCH  30  31
ATOM     31  C   UNL     1      -9.784   9.871  12.192  1.00  0.00    -0.003 C 
ATOM     32  C   UNL     1      -9.593   8.507  12.850  1.00  0.00     0.004 C 
ENDBRANCH  30  31
ENDBRANCH  29  30
ENDBRANCH  28  29
ENDBRANCH  27  28
ENDBRANCH  26  27
ENDBRANCH  25  26
ENDBRANCH  24  25
ENDBRANCH  23  24
ENDBRANCH  22  23
ENDBRANCH  21  22
ENDBRANCH  20  21
ENDBRANCH  19  20
ENDBRANCH  18  19
ENDBRANCH   1  18
TORSDOF 28
ENDMDL
MODEL 8
REMARK VINA RESULT:    -6.051      1.576      7.852
REMARK INTER + INTRA:         -18.724
REMARK INTER:                 -15.635
REMARK INTRA:                  -3.089
REMARK UNBOUND:                -2.767
REMARK SMILES CCCCCCCCCCCCCCCCCCCCCCCCCCCCCC(=O)[O-]
REMARK SMILES IDX 16 1 17 2 18 3 19 4 20 5 21 6 22 7 23 8 24 9 25 10 26 11
REMARK SMILES IDX 27 12 28 13 29 14 30 15 31 16 32 17 15 18 14 19 13 20 12 21
REMARK SMILES IDX 11 22 10 23 9 24 8 25 7 26 6 27 5 28 4 29 3 30 2 31 1 32
REMARK H PARENT
REMARK Flexibility Score: inf
ROOT
ATOM      1  C   UNL     1      -9.403  12.983   4.300  1.00  0.00     0.000 C 
ENDROOT
BRANCH   1   2
ATOM      2  C   UNL     1     -10.035  13.195   2.909  1.00  0.00     0.000 C 
BRANCH   2   3
ATOM      3  C   UNL     1      -9.717  14.564   2.283  1.00  0.00     0.000 C 
BRANCH   3   4
ATOM      4  C   UNL     1      -8.217  14.764   2.013  1.00  0.00     0.000 C 
BRANCH   4   5
ATOM      5  C   UNL     1      -7.753  14.152   0.677  1.00  0.00     0.000 C 
BRANCH   5   6
ATOM      6  C   UNL     1      -7.264  12.692   0.744  1.00  0.00     0.000 C 
BRANCH   6   7
ATOM      7  C   UNL     1      -6.003  12.517   1.609  1.00  0.00     0.000 C 
BRANCH   7   8
ATOM      8  C   UNL     1      -6.309  11.853   2.961  1.00  0.00     0.000 C 
BRANCH   8   9
ATOM      9  C   UNL     1      -7.105  10.547   2.817  1.00  0.00     0.000 C 
BRANCH   9  10
ATOM     10  C   UNL     1      -6.173   9.388   2.430  1.00  0.00     0.000 C 
BRANCH  10  11
ATOM     11  C   UNL     1      -5.679   8.597   3.652  1.00  0.00     0.000 C 
BRANCH  11  12
ATOM     12  C   UNL     1      -4.192   8.858   3.956  1.00  0.00     0.000 C 
BRANCH  12  13
ATOM     13  C   UNL     1      -3.800   8.467   5.391  1.00  0.00     0.006 C 
BRANCH  13  14
ATOM     14  C   UNL     1      -4.141   9.552   6.422  1.00  0.00     0.053 C 
BRANCH  14  15
ATOM     15  C   UNL     1      -4.580   8.938   7.715  1.00  0.00     0.041 C 
ATOM     16  O   UNL     1      -4.239   9.461   8.811  1.00  0.00    -0.550 OA
ATOM     17  O   UNL     1      -5.373   7.796   7.713  1.00  0.00    -0.550 OA
ENDBRANCH  14  15
ENDBRANCH  13  14
ENDBRANCH  12  13
ENDBRANCH  11  12
ENDBRANCH  10  11
ENDBRANCH   9  10
ENDBRANCH   8   9
ENDBRANCH   7   8
ENDBRANCH   6   7
ENDBRANCH   5   6
ENDBRANCH   4   5
ENDBRANCH   3   4
ENDBRANCH   2   3
ENDBRANCH   1   2
BRANCH   1  18
ATOM     18  C   UNL     1     -10.400  12.405   5.320  1.00  0.00     0.000 C 
BRANCH  18  19
ATOM     19  C   UNL     1     -11.080  11.115   4.811  1.00  0.00     0.000 C 
BRANCH  19  20
ATOM     20  C   UNL     1     -12.023  10.460   5.835  1.00  0.00     0.000 C 
BRANCH  20  21
ATOM     21  C   UNL     1     -12.745  11.479   6.733  1.00  0.00     0.000 C 
BRANCH  21  22
ATOM     22  C   UNL     1     -12.359  11.346   8.213  1.00  0.00     0.000 C 
BRANCH  22  23
ATOM     23  C   UNL     1     -11.975  12.695   8.849  1.00  0.00     0.000 C 
BRANCH  23  24
ATOM     24  C   UNL     1     -10.490  12.766   9.242  1.00  0.00    -0.000 C 
BRANCH  24  25
ATOM     25  C   UNL     1      -9.773  14.063   8.822  1.00  0.00    -0.000 C 
BRANCH  25  26
ATOM     26  C   UNL     1     -10.246  15.318   9.587  1.00  0.00    -0.000 C 
BRANCH  26  27
ATOM     27  C   UNL     1      -9.076  16.093  10.221  1.00  0.00    -0.000 C 
BRANCH  27  28
ATOM     28  C   UNL     1      -7.992  15.168  10.793  1.00  0.00    -0.000 C 
BRANCH  28  29
ATOM     29  C   UNL     1      -7.892  15.249  12.324  1.00  0.00    -0.000 C 
BRANCH  29  30
ATOM     30  C   UNL     1      -7.723  13.852  12.935  1.00  0.00    -0.000 C 
BRANCH  30  31
ATOM     31  C   UNL     1      -7.741  12.771  11.851  1.00  0.00    -0.003 C 
ATOM     32  C   UNL     1      -6.855  11.589  12.236  1.00  0.00     0.004 C 
ENDBRANCH  30  31
ENDBRANCH  29  30
ENDBRANCH  28  29
ENDBRANCH  27  28
ENDBRANCH  26  27
ENDBRANCH  25  26
ENDBRANCH  24  25
ENDBRANCH  23  24
ENDBRANCH  22  23
ENDBRANCH  21  22
ENDBRANCH  20  21
ENDBRANCH  19  20
ENDBRANCH  18  19
ENDBRANCH   1  18
TORSDOF 28
ENDMDL
MODEL 9
REMARK VINA RESULT:    -6.035      1.866      7.777
REMARK INTER + INTRA:         -18.681
REMARK INTER:                 -15.930
REMARK INTRA:                  -2.751
REMARK UNBOUND:                -2.767
REMARK SMILES CCCCCCCCCCCCCCCCCCCCCCCCCCCCCC(=O)[O-]
REMARK SMILES IDX 16 1 17 2 18 3 19 4 20 5 21 6 22 7 23 8 24 9 25 10 26 11
REMARK SMILES IDX 27 12 28 13 29 14 30 15 31 16 32 17 15 18 14 19 13 20 12 21
REMARK SMILES IDX 11 22 10 23 9 24 8 25 7 26 6 27 5 28 4 29 3 30 2 31 1 32
REMARK H PARENT
REMARK Flexibility Score: inf
ROOT
ATOM      1  C   UNL     1     -11.161  11.132   4.385  1.00  0.00     0.000 C 
ENDROOT
BRANCH   1   2
ATOM      2  C   UNL     1     -10.036  11.887   3.647  1.00  0.00     0.000 C 
BRANCH   2   3
ATOM      3  C   UNL     1      -9.372  12.989   4.490  1.00  0.00     0.000 C 
BRANCH   3   4
ATOM      4  C   UNL     1      -7.963  13.352   3.997  1.00  0.00     0.000 C 
BRANCH   4   5
ATOM      5  C   UNL     1      -7.929  13.795   2.521  1.00  0.00     0.000 C 
BRANCH   5   6
ATOM      6  C   UNL     1      -6.700  13.334   1.713  1.00  0.00     0.000 C 
BRANCH   6   7
ATOM      7  C   UNL     1      -5.916  12.202   2.400  1.00  0.00     0.000 C 
BRANCH   7   8
ATOM      8  C   UNL     1      -6.394  10.809   1.960  1.00  0.00     0.000 C 
BRANCH   8   9
ATOM      9  C   UNL     1      -6.023   9.707   2.964  1.00  0.00     0.000 C 
BRANCH   9  10
ATOM     10  C   UNL     1      -5.269  10.303   4.164  1.00  0.00     0.000 C 
BRANCH  10  11
ATOM     11  C   UNL     1      -4.243   9.325   4.759  1.00  0.00     0.000 C 
BRANCH  11  12
ATOM     12  C   UNL     1      -4.222   9.364   6.298  1.00  0.00     0.000 C 
BRANCH  12  13
ATOM     13  C   UNL     1      -4.157   7.962   6.929  1.00  0.00     0.006 C 
BRANCH  13  14
ATOM     14  C   UNL     1      -5.241   7.732   7.990  1.00  0.00     0.053 C 
BRANCH  14  15
ATOM     15  C   UNL     1      -5.990   6.464   7.721  1.00  0.00     0.041 C 
ATOM     16  O   UNL     1      -6.788   6.006   8.582  1.00  0.00    -0.550 OA
ATOM     17  O   UNL     1      -5.816   5.793   6.515  1.00  0.00    -0.550 OA
ENDBRANCH  14  15
ENDBRANCH  13  14
ENDBRANCH  12  13
ENDBRANCH  11  12
ENDBRANCH  10  11
ENDBRANCH   9  10
ENDBRANCH   8   9
ENDBRANCH   7   8
ENDBRANCH   6   7
ENDBRANCH   5   6
ENDBRANCH   4   5
ENDBRANCH   3   4
ENDBRANCH   2   3
ENDBRANCH   1   2
BRANCH   1  18
ATOM     18  C   UNL     1     -11.213  11.470   5.886  1.00  0.00     0.000 C 
BRANCH  18  19
ATOM     19  C   UNL     1     -12.634  11.325   6.474  1.00  0.00     0.000 C 
BRANCH  19  20
ATOM     20  C   UNL     1     -12.683  11.377   8.010  1.00  0.00     0.000 C 
BRANCH  20  21
ATOM     21  C   UNL     1     -12.149  12.699   8.589  1.00  0.00     0.000 C 
BRANCH  21  22
ATOM     22  C   UNL     1     -10.821  12.525   9.340  1.00  0.00     0.000 C 
BRANCH  22  23
ATOM     23  C   UNL     1      -9.811  13.644   9.024  1.00  0.00     0.000 C 
BRANCH  23  24
ATOM     24  C   UNL     1     -10.407  15.050   9.206  1.00  0.00    -0.000 C 
BRANCH  24  25
ATOM     25  C   UNL     1      -9.648  15.949  10.202  1.00  0.00    -0.000 C 
BRANCH  25  26
ATOM     26  C   UNL     1      -8.210  15.475  10.504  1.00  0.00    -0.000 C 
BRANCH  26  27
ATOM     27  C   UNL     1      -8.079  14.865  11.911  1.00  0.00    -0.000 C 
BRANCH  27  28
ATOM     28  C   UNL     1      -6.855  13.949  12.050  1.00  0.00    -0.000 C 
BRANCH  28  29
ATOM     29  C   UNL     1      -7.222  12.457  12.003  1.00  0.00    -0.000 C 
BRANCH  29  30
ATOM     30  C   UNL     1      -8.720  12.255  12.260  1.00  0.00    -0.000 C 
BRANCH  30  31
ATOM     31  C   UNL     1      -8.967  11.038  13.157  1.00  0.00    -0.003 C 
ATOM     32  C   UNL     1      -7.689  10.228  13.352  1.00  0.00     0.004 C 
ENDBRANCH  30  31
ENDBRANCH  29  30
ENDBRANCH  28  29
ENDBRANCH  27  28
ENDBRANCH  26  27
ENDBRANCH  25  26
ENDBRANCH  24  25
ENDBRANCH  23  24
ENDBRANCH  22  23
ENDBRANCH  21  22
ENDBRANCH  20  21
ENDBRANCH  19  20
ENDBRANCH  18  19
ENDBRANCH   1  18
TORSDOF 28
ENDMDL
