MODEL 1
REMARK VINA RESULT:    58.562      0.000      0.000
REMARK INTER + INTRA:          64.002
REMARK INTER:                  63.697
REMARK INTRA:                   0.305
REMARK UNBOUND:                 0.305
REMARK SMILES CC(=O)[C@@H]1CC[C@H]2[C@@H]3CC=C4C[C@H](O)CC[C@]4(C)[C@@H]3CC[C@@]12C
REMARK SMILES IDX 4 1 5 2 6 3 7 4 22 5 21 6 20 7 19 8 8 9 9 10 10 11 11 12
REMARK SMILES IDX 17 13 16 14 15 15 13 16 12 17 18 18 23 19 2 20 1 21 3 22
REMARK SMILES IDX 14 23
REMARK H PARENT 14 24
REMARK Flexibility Score: inf
ROOT
ATOM      1  C   UNL     1      -0.198  -6.217  18.252  1.00  0.00     0.062 C 
ATOM      2  C   UNL     1       1.125  -6.674  17.623  1.00  0.00     0.012 C 
ATOM      3  C   UNL     1       0.932  -6.651  16.107  1.00  0.00     0.005 C 
ATOM      4  C   UNL     1      -0.519  -6.209  15.834  1.00  0.00    -0.001 C 
ATOM      5  C   UNL     1      -1.286  -6.458  17.159  1.00  0.00    -0.020 C 
ATOM      6  C   UNL     1      -1.769  -7.934  17.250  1.00  0.00     0.008 C 
ATOM      7  C   UNL     1      -2.475  -8.437  15.985  1.00  0.00     0.005 C 
ATOM      8  C   UNL     1      -1.543  -8.348  14.750  1.00  0.00     0.003 C 
ATOM      9  C   UNL     1      -1.108  -6.870  14.548  1.00  0.00     0.000 C 
ATOM     10  C   UNL     1      -2.224  -5.993  13.919  1.00  0.00     0.031 C 
ATOM     11  C   UNL     1      -3.242  -6.725  13.080  1.00  0.00    -0.027 C 
ATOM     12  C   UNL     1      -3.274  -8.063  12.899  1.00  0.00    -0.065 C 
ATOM     13  C   UNL     1      -2.137  -8.944  13.408  1.00  0.00    -0.008 C 
ATOM     14  C   UNL     1      -2.623 -10.420  13.607  1.00  0.00     0.014 C 
ATOM     15  C   UNL     1      -3.494 -10.951  12.460  1.00  0.00     0.033 C 
ATOM     16  C   UNL     1      -4.709 -10.043  12.228  1.00  0.00     0.118 C 
ATOM     17  C   UNL     1      -4.262  -8.618  11.890  1.00  0.00     0.063 C 
ATOM     18  C   UNL     1      -1.028  -8.958  12.316  1.00  0.00     0.016 C 
ATOM     19  C   UNL     1      -2.505  -5.514  17.355  1.00  0.00     0.012 C 
ENDROOT
BRANCH   1  20
ATOM     20  C   UNL     1      -0.116  -4.780  18.769  1.00  0.00     0.133 C 
ATOM     21  C   UNL     1       1.046  -3.863  18.497  1.00  0.00     0.088 C 
ATOM     22  O   UNL     1      -1.065  -4.330  19.397  1.00  0.00    -0.300 OA
ENDBRANCH   1  20
BRANCH  16  23
ATOM     23  O   UNL     1      -5.542 -10.022  13.359  1.00  0.00    -0.393 OA
ATOM     24  H   UNL     1      -5.183  -9.320  13.965  1.00  0.00     0.210 HD
ENDBRANCH  16  23
TORSDOF 2
ENDMDL
MODEL 2
REMARK VINA RESULT:    61.059     12.217     13.715
REMARK INTER + INTRA:          66.718
REMARK INTER:                  66.276
REMARK INTRA:                   0.442
REMARK UNBOUND:                 0.305
REMARK SMILES CC(=O)[C@@H]1CC[C@H]2[C@@H]3CC=C4C[C@H](O)CC[C@]4(C)[C@@H]3CC[C@@]12C
REMARK SMILES IDX 4 1 5 2 6 3 7 4 22 5 21 6 20 7 19 8 8 9 9 10 10 11 11 12
REMARK SMILES IDX 17 13 16 14 15 15 13 16 12 17 18 18 23 19 2 20 1 21 3 22
REMARK SMILES IDX 14 23
REMARK H PARENT 14 24
REMARK Flexibility Score: inf
ROOT
ATOM      1  C   UNL     1     -12.985  -8.738  22.487  1.00  0.00     0.062 C 
ATOM      2  C   UNL     1     -14.427  -9.223  22.683  1.00  0.00     0.012 C 
ATOM      3  C   UNL     1     -14.349 -10.662  23.195  1.00  0.00     0.005 C 
ATOM      4  C   UNL     1     -12.859 -11.044  23.271  1.00  0.00    -0.001 C 
ATOM      5  C   UNL     1     -12.122 -10.032  22.355  1.00  0.00    -0.020 C 
ATOM      6  C   UNL     1     -12.151 -10.504  20.873  1.00  0.00     0.008 C 
ATOM      7  C   UNL     1     -11.747 -11.972  20.679  1.00  0.00     0.005 C 
ATOM      8  C   UNL     1     -12.685 -12.920  21.468  1.00  0.00     0.003 C 
ATOM      9  C   UNL     1     -12.619 -12.558  22.979  1.00  0.00     0.000 C 
ATOM     10  C   UNL     1     -11.324 -13.072  23.665  1.00  0.00     0.031 C 
ATOM     11  C   UNL     1     -10.672 -14.273  23.026  1.00  0.00    -0.027 C 
ATOM     12  C   UNL     1     -11.099 -14.871  21.894  1.00  0.00    -0.065 C 
ATOM     13  C   UNL     1     -12.423 -14.467  21.252  1.00  0.00    -0.008 C 
ATOM     14  C   UNL     1     -12.441 -14.839  19.730  1.00  0.00     0.014 C 
ATOM     15  C   UNL     1     -11.882 -16.236  19.422  1.00  0.00     0.033 C 
ATOM     16  C   UNL     1     -10.456 -16.389  19.966  1.00  0.00     0.118 C 
ATOM     17  C   UNL     1     -10.428 -16.168  21.481  1.00  0.00     0.063 C 
ATOM     18  C   UNL     1     -13.551 -15.282  21.949  1.00  0.00     0.016 C 
ATOM     19  C   UNL     1     -10.648  -9.775  22.775  1.00  0.00     0.012 C 
ENDROOT
BRANCH   1  20
ATOM     20  C   UNL     1     -12.547  -7.786  23.600  1.00  0.00     0.133 C 
ATOM     21  C   UNL     1     -12.692  -6.290  23.520  1.00  0.00     0.088 C 
ATOM     22  O   UNL     1     -12.100  -8.263  24.634  1.00  0.00    -0.300 OA
ENDBRANCH   1  20
BRANCH  16  23
ATOM     23  O   UNL     1      -9.582 -15.483  19.340  1.00  0.00    -0.393 OA
ATOM     24  H   UNL     1     -10.150 -14.796  18.900  1.00  0.00     0.210 HD
ENDBRANCH  16  23
TORSDOF 2
ENDMDL
