MODEL 1
REMARK VINA RESULT:    -4.303      0.000      0.000
REMARK INTER + INTRA:          -8.383
REMARK INTER:                  -7.447
REMARK INTRA:                  -0.936
REMARK UNBOUND:                -0.936
REMARK SMILES CCCCCCCCCCCCCCO
REMARK SMILES IDX 8 1 7 2 6 3 5 4 4 5 3 6 2 7 1 8 9 9 10 10 11 11 12 12 13 13
REMARK SMILES IDX 14 14 15 15
REMARK H PARENT 15 16
REMARK Flexibility Score: inf
ROOT
ATOM      1  C   UNL     1      -1.992   4.166 -23.267  1.00  0.00     0.000 C 
ENDROOT
BRANCH   1   2
ATOM      2  C   UNL     1      -1.831   2.633 -23.313  1.00  0.00    -0.000 C 
BRANCH   2   3
ATOM      3  C   UNL     1      -1.169   2.087 -24.589  1.00  0.00    -0.000 C 
BRANCH   3   4
ATOM      4  C   UNL     1       0.038   1.181 -24.294  1.00  0.00    -0.000 C 
BRANCH   4   5
ATOM      5  C   UNL     1      -0.052   0.497 -22.919  1.00  0.00    -0.000 C 
BRANCH   5   6
ATOM      6  C   UNL     1       1.288  -0.012 -22.347  1.00  0.00    -0.000 C 
BRANCH   6   7
ATOM      7  C   UNL     1       1.241  -1.426 -21.742  1.00  0.00    -0.003 C 
ATOM      8  C   UNL     1       2.275  -2.370 -22.355  1.00  0.00     0.004 C 
ENDBRANCH   6   7
ENDBRANCH   5   6
ENDBRANCH   4   5
ENDBRANCH   3   4
ENDBRANCH   2   3
ENDBRANCH   1   2
BRANCH   1   9
ATOM      9  C   UNL     1      -2.873   4.737 -24.400  1.00  0.00     0.000 C 
BRANCH   9  10
ATOM     10  C   UNL     1      -4.276   4.102 -24.492  1.00  0.00     0.000 C 
BRANCH  10  11
ATOM     11  C   UNL     1      -5.178   4.309 -23.255  1.00  0.00     0.000 C 
BRANCH  11  12
ATOM     12  C   UNL     1      -6.014   3.087 -22.834  1.00  0.00     0.002 C 
BRANCH  12  13
ATOM     13  C   UNL     1      -5.429   2.352 -21.620  1.00  0.00     0.028 C 
BRANCH  13  14
ATOM     14  C   UNL     1      -4.942   3.341 -20.559  1.00  0.00     0.156 C 
BRANCH  14  15
ATOM     15  O   UNL     1      -3.616   3.059 -20.204  1.00  0.00    -0.396 OA
ATOM     16  H   UNL     1      -3.138   2.833 -21.045  1.00  0.00     0.210 HD
ENDBRANCH  14  15
ENDBRANCH  13  14
ENDBRANCH  12  13
ENDBRANCH  11  12
ENDBRANCH  10  11
ENDBRANCH   9  10
ENDBRANCH   1   9
TORSDOF 13
ENDMDL
MODEL 2
REMARK VINA RESULT:    -4.302      1.753      6.251
REMARK INTER + INTRA:          -8.382
REMARK INTER:                  -7.203
REMARK INTRA:                  -1.179
REMARK UNBOUND:                -0.936
REMARK SMILES CCCCCCCCCCCCCCO
REMARK SMILES IDX 8 1 7 2 6 3 5 4 4 5 3 6 2 7 1 8 9 9 10 10 11 11 12 12 13 13
REMARK SMILES IDX 14 14 15 15
REMARK H PARENT 15 16
REMARK Flexibility Score: inf
ROOT
ATOM      1  C   UNL     1      -2.276   4.120 -23.223  1.00  0.00     0.000 C 
ENDROOT
BRANCH   1   2
ATOM      2  C   UNL     1      -3.078   4.487 -24.488  1.00  0.00    -0.000 C 
BRANCH   2   3
ATOM      3  C   UNL     1      -4.568   4.108 -24.447  1.00  0.00    -0.000 C 
BRANCH   3   4
ATOM      4  C   UNL     1      -5.413   5.099 -23.628  1.00  0.00    -0.000 C 
BRANCH   4   5
ATOM      5  C   UNL     1      -6.023   4.461 -22.367  1.00  0.00    -0.000 C 
BRANCH   5   6
ATOM      6  C   UNL     1      -6.214   2.931 -22.430  1.00  0.00    -0.000 C 
BRANCH   6   7
ATOM      7  C   UNL     1      -5.346   2.128 -21.446  1.00  0.00    -0.003 C 
ATOM      8  C   UNL     1      -4.634   3.011 -20.422  1.00  0.00     0.004 C 
ENDBRANCH   6   7
ENDBRANCH   5   6
ENDBRANCH   4   5
ENDBRANCH   3   4
ENDBRANCH   2   3
ENDBRANCH   1   2
BRANCH   1   9
ATOM      9  C   UNL     1      -1.894   2.626 -23.136  1.00  0.00     0.000 C 
BRANCH   9  10
ATOM     10  C   UNL     1      -1.201   2.076 -24.400  1.00  0.00     0.000 C 
BRANCH  10  11
ATOM     11  C   UNL     1       0.045   1.201 -24.144  1.00  0.00     0.000 C 
BRANCH  11  12
ATOM     12  C   UNL     1       0.024   0.388 -22.837  1.00  0.00     0.002 C 
BRANCH  12  13
ATOM     13  C   UNL     1       1.427  -0.011 -22.358  1.00  0.00     0.028 C 
BRANCH  13  14
ATOM     14  C   UNL     1       1.509  -1.514 -22.083  1.00  0.00     0.156 C 
BRANCH  14  15
ATOM     15  O   UNL     1       0.530  -1.892 -21.155  1.00  0.00    -0.396 OA
ATOM     16  H   UNL     1       1.006  -2.323 -20.398  1.00  0.00     0.210 HD
ENDBRANCH  14  15
ENDBRANCH  13  14
ENDBRANCH  12  13
ENDBRANCH  11  12
ENDBRANCH  10  11
ENDBRANCH   9  10
ENDBRANCH   1   9
TORSDOF 13
ENDMDL
MODEL 3
REMARK VINA RESULT:    -4.228      3.728      7.451
REMARK INTER + INTRA:          -8.254
REMARK INTER:                  -7.118
REMARK INTRA:                  -1.136
REMARK UNBOUND:                -0.936
REMARK SMILES CCCCCCCCCCCCCCO
REMARK SMILES IDX 8 1 7 2 6 3 5 4 4 5 3 6 2 7 1 8 9 9 10 10 11 11 12 12 13 13
REMARK SMILES IDX 14 14 15 15
REMARK H PARENT 15 16
REMARK Flexibility Score: inf
ROOT
ATOM      1  C   UNL     1      -5.600   3.269 -21.589  1.00  0.00     0.000 C 
ENDROOT
BRANCH   1   2
ATOM      2  C   UNL     1      -6.330   2.009 -22.098  1.00  0.00    -0.000 C 
BRANCH   2   3
ATOM      3  C   UNL     1      -7.623   2.279 -22.886  1.00  0.00    -0.000 C 
BRANCH   3   4
ATOM      4  C   UNL     1      -7.392   3.161 -24.126  1.00  0.00    -0.000 C 
BRANCH   4   5
ATOM      5  C   UNL     1      -8.073   4.537 -24.012  1.00  0.00    -0.000 C 
BRANCH   5   6
ATOM      6  C   UNL     1      -9.038   4.698 -22.819  1.00  0.00    -0.000 C 
BRANCH   6   7
ATOM      7  C   UNL     1      -8.560   5.668 -21.724  1.00  0.00    -0.003 C 
ATOM      8  C   UNL     1      -7.408   6.561 -22.182  1.00  0.00     0.004 C 
ENDBRANCH   6   7
ENDBRANCH   5   6
ENDBRANCH   4   5
ENDBRANCH   3   4
ENDBRANCH   2   3
ENDBRANCH   1   2
BRANCH   1   9
ATOM      9  C   UNL     1      -4.089   3.288 -21.910  1.00  0.00     0.000 C 
BRANCH   9  10
ATOM     10  C   UNL     1      -3.739   3.927 -23.270  1.00  0.00     0.000 C 
BRANCH  10  11
ATOM     11  C   UNL     1      -2.250   3.851 -23.673  1.00  0.00     0.000 C 
BRANCH  11  12
ATOM     12  C   UNL     1      -1.836   4.756 -24.847  1.00  0.00     0.002 C 
BRANCH  12  13
ATOM     13  C   UNL     1      -0.457   5.400 -24.648  1.00  0.00     0.028 C 
BRANCH  13  14
ATOM     14  C   UNL     1      -0.584   6.799 -24.041  1.00  0.00     0.156 C 
BRANCH  14  15
ATOM     15  O   UNL     1      -0.594   6.722 -22.642  1.00  0.00    -0.396 OA
ATOM     16  H   UNL     1      -0.018   5.953 -22.395  1.00  0.00     0.210 HD
ENDBRANCH  14  15
ENDBRANCH  13  14
ENDBRANCH  12  13
ENDBRANCH  11  12
ENDBRANCH  10  11
ENDBRANCH   9  10
ENDBRANCH   1   9
TORSDOF 13
ENDMDL
MODEL 4
REMARK VINA RESULT:    -4.129      2.250      7.311
REMARK INTER + INTRA:          -8.081
REMARK INTER:                  -7.453
REMARK INTRA:                  -0.629
REMARK UNBOUND:                -0.936
REMARK SMILES CCCCCCCCCCCCCCO
REMARK SMILES IDX 8 1 7 2 6 3 5 4 4 5 3 6 2 7 1 8 9 9 10 10 11 11 12 12 13 13
REMARK SMILES IDX 14 14 15 15
REMARK H PARENT 15 16
REMARK Flexibility Score: inf
ROOT
ATOM      1  C   UNL     1      -2.165   2.992 -22.667  1.00  0.00     0.000 C 
ENDROOT
BRANCH   1   2
ATOM      2  C   UNL     1      -3.654   3.386 -22.602  1.00  0.00    -0.000 C 
BRANCH   2   3
ATOM      3  C   UNL     1      -4.418   2.844 -21.381  1.00  0.00    -0.000 C 
BRANCH   3   4
ATOM      4  C   UNL     1      -5.792   2.259 -21.747  1.00  0.00    -0.000 C 
BRANCH   4   5
ATOM      5  C   UNL     1      -6.435   2.961 -22.957  1.00  0.00    -0.000 C 
BRANCH   5   6
ATOM      6  C   UNL     1      -7.559   3.962 -22.615  1.00  0.00    -0.000 C 
BRANCH   6   7
ATOM      7  C   UNL     1      -7.076   5.323 -22.082  1.00  0.00    -0.003 C 
ATOM      8  C   UNL     1      -8.210   6.334 -21.919  1.00  0.00     0.004 C 
ENDBRANCH   6   7
ENDBRANCH   5   6
ENDBRANCH   4   5
ENDBRANCH   3   4
ENDBRANCH   2   3
ENDBRANCH   1   2
BRANCH   1   9
ATOM      9  C   UNL     1      -1.607   2.892 -24.104  1.00  0.00     0.000 C 
BRANCH   9  10
ATOM     10  C   UNL     1      -0.822   1.595 -24.389  1.00  0.00     0.000 C 
BRANCH  10  11
ATOM     11  C   UNL     1      -0.220   0.900 -23.148  1.00  0.00     0.000 C 
BRANCH  11  12
ATOM     12  C   UNL     1       1.207   0.352 -23.325  1.00  0.00     0.002 C 
BRANCH  12  13
ATOM     13  C   UNL     1       1.804  -0.194 -22.020  1.00  0.00     0.028 C 
BRANCH  13  14
ATOM     14  C   UNL     1       1.580  -1.703 -21.900  1.00  0.00     0.156 C 
BRANCH  14  15
ATOM     15  O   UNL     1       0.471  -1.965 -21.083  1.00  0.00    -0.396 OA
ATOM     16  H   UNL     1       0.803  -1.979 -20.148  1.00  0.00     0.210 HD
ENDBRANCH  14  15
ENDBRANCH  13  14
ENDBRANCH  12  13
ENDBRANCH  11  12
ENDBRANCH  10  11
ENDBRANCH   9  10
ENDBRANCH   1   9
TORSDOF 13
ENDMDL
MODEL 5
REMARK VINA RESULT:    -4.053      3.455      8.101
REMARK INTER + INTRA:          -7.951
REMARK INTER:                  -7.478
REMARK INTRA:                  -0.473
REMARK UNBOUND:                -0.936
REMARK SMILES CCCCCCCCCCCCCCO
REMARK SMILES IDX 8 1 7 2 6 3 5 4 4 5 3 6 2 7 1 8 9 9 10 10 11 11 12 12 13 13
REMARK SMILES IDX 14 14 15 15
REMARK H PARENT 15 16
REMARK Flexibility Score: inf
ROOT
ATOM      1  C   UNL     1      -0.343   0.616 -22.911  1.00  0.00     0.000 C 
ENDROOT
BRANCH   1   2
ATOM      2  C   UNL     1      -0.495   1.153 -24.348  1.00  0.00    -0.000 C 
BRANCH   2   3
ATOM      3  C   UNL     1      -1.194   2.519 -24.461  1.00  0.00    -0.000 C 
BRANCH   3   4
ATOM      4  C   UNL     1      -1.684   3.053 -23.105  1.00  0.00    -0.000 C 
BRANCH   4   5
ATOM      5  C   UNL     1      -2.833   4.068 -23.244  1.00  0.00    -0.000 C 
BRANCH   5   6
ATOM      6  C   UNL     1      -4.224   3.549 -22.827  1.00  0.00    -0.000 C 
BRANCH   6   7
ATOM      7  C   UNL     1      -4.223   2.567 -21.642  1.00  0.00    -0.003 C 
ATOM      8  C   UNL     1      -5.590   1.932 -21.394  1.00  0.00     0.004 C 
ENDBRANCH   6   7
ENDBRANCH   5   6
ENDBRANCH   4   5
ENDBRANCH   3   4
ENDBRANCH   2   3
ENDBRANCH   1   2
BRANCH   1   9
ATOM      9  C   UNL     1       1.115   0.292 -22.515  1.00  0.00     0.000 C 
BRANCH   9  10
ATOM     10  C   UNL     1       1.315  -1.125 -21.938  1.00  0.00     0.000 C 
BRANCH  10  11
ATOM     11  C   UNL     1       2.460  -1.942 -22.573  1.00  0.00     0.000 C 
BRANCH  11  12
ATOM     12  C   UNL     1       2.848  -3.229 -21.824  1.00  0.00     0.002 C 
BRANCH  12  13
ATOM     13  C   UNL     1       3.703  -4.181 -22.673  1.00  0.00     0.028 C 
BRANCH  13  14
ATOM     14  C   UNL     1       4.404  -5.222 -21.797  1.00  0.00     0.156 C 
BRANCH  14  15
ATOM     15  O   UNL     1       4.014  -6.515 -22.172  1.00  0.00    -0.396 OA
ATOM     16  H   UNL     1       3.053  -6.463 -22.414  1.00  0.00     0.210 HD
ENDBRANCH  14  15
ENDBRANCH  13  14
ENDBRANCH  12  13
ENDBRANCH  11  12
ENDBRANCH  10  11
ENDBRANCH   9  10
ENDBRANCH   1   9
TORSDOF 13
ENDMDL
MODEL 6
REMARK VINA RESULT:    -4.021      1.516      3.405
REMARK INTER + INTRA:          -7.895
REMARK INTER:                  -7.432
REMARK INTRA:                  -0.463
REMARK UNBOUND:                -0.936
REMARK SMILES CCCCCCCCCCCCCCO
REMARK SMILES IDX 8 1 7 2 6 3 5 4 4 5 3 6 2 7 1 8 9 9 10 10 11 11 12 12 13 13
REMARK SMILES IDX 14 14 15 15
REMARK H PARENT 15 16
REMARK Flexibility Score: inf
ROOT
ATOM      1  C   UNL     1      -0.081   0.604 -22.860  1.00  0.00     0.000 C 
ENDROOT
BRANCH   1   2
ATOM      2  C   UNL     1       1.327   0.363 -23.441  1.00  0.00    -0.000 C 
BRANCH   2   3
ATOM      3  C   UNL     1       2.287  -0.410 -22.521  1.00  0.00    -0.000 C 
BRANCH   3   4
ATOM      4  C   UNL     1       1.594  -1.553 -21.760  1.00  0.00    -0.000 C 
BRANCH   4   5
ATOM      5  C   UNL     1       2.117  -2.942 -22.165  1.00  0.00    -0.000 C 
BRANCH   5   6
ATOM      6  C   UNL     1       3.647  -3.121 -22.077  1.00  0.00    -0.000 C 
BRANCH   6   7
ATOM      7  C   UNL     1       4.113  -4.514 -21.619  1.00  0.00    -0.003 C 
ATOM      8  C   UNL     1       4.059  -5.556 -22.735  1.00  0.00     0.004 C 
ENDBRANCH   6   7
ENDBRANCH   5   6
ENDBRANCH   4   5
ENDBRANCH   3   4
ENDBRANCH   2   3
ENDBRANCH   1   2
BRANCH   1   9
ATOM      9  C   UNL     1      -0.949   1.565 -23.702  1.00  0.00     0.000 C 
BRANCH   9  10
ATOM     10  C   UNL     1      -1.623   2.688 -22.887  1.00  0.00     0.000 C 
BRANCH  10  11
ATOM     11  C   UNL     1      -2.696   3.502 -23.643  1.00  0.00     0.000 C 
BRANCH  11  12
ATOM     12  C   UNL     1      -4.030   3.689 -22.899  1.00  0.00     0.002 C 
BRANCH  12  13
ATOM     13  C   UNL     1      -4.284   2.602 -21.845  1.00  0.00     0.028 C 
BRANCH  13  14
ATOM     14  C   UNL     1      -4.799   3.210 -20.539  1.00  0.00     0.156 C 
BRANCH  14  15
ATOM     15  O   UNL     1      -4.213   2.567 -19.440  1.00  0.00    -0.396 OA
ATOM     16  H   UNL     1      -4.634   1.670 -19.378  1.00  0.00     0.210 HD
ENDBRANCH  14  15
ENDBRANCH  13  14
ENDBRANCH  12  13
ENDBRANCH  11  12
ENDBRANCH  10  11
ENDBRANCH   9  10
ENDBRANCH   1   9
TORSDOF 13
ENDMDL
MODEL 7
REMARK VINA RESULT:    -4.016      2.895      5.527
REMARK INTER + INTRA:          -7.886
REMARK INTER:                  -7.569
REMARK INTRA:                  -0.317
REMARK UNBOUND:                -0.936
REMARK SMILES CCCCCCCCCCCCCCO
REMARK SMILES IDX 8 1 7 2 6 3 5 4 4 5 3 6 2 7 1 8 9 9 10 10 11 11 12 12 13 13
REMARK SMILES IDX 14 14 15 15
REMARK H PARENT 15 16
REMARK Flexibility Score: inf
ROOT
ATOM      1  C   UNL     1       1.295  -0.191 -22.956  1.00  0.00     0.000 C 
ENDROOT
BRANCH   1   2
ATOM      2  C   UNL     1       1.343  -1.413 -22.017  1.00  0.00    -0.000 C 
BRANCH   2   3
ATOM      3  C   UNL     1       2.743  -2.008 -21.794  1.00  0.00    -0.000 C 
BRANCH   3   4
ATOM      4  C   UNL     1       2.986  -3.286 -22.615  1.00  0.00    -0.000 C 
BRANCH   4   5
ATOM      5  C   UNL     1       3.723  -4.376 -21.815  1.00  0.00    -0.000 C 
BRANCH   5   6
ATOM      6  C   UNL     1       4.442  -5.443 -22.666  1.00  0.00    -0.000 C 
BRANCH   6   7
ATOM      7  C   UNL     1       3.614  -6.706 -22.961  1.00  0.00    -0.003 C 
ATOM      8  C   UNL     1       3.831  -7.243 -24.375  1.00  0.00     0.004 C 
ENDBRANCH   6   7
ENDBRANCH   5   6
ENDBRANCH   4   5
ENDBRANCH   3   4
ENDBRANCH   2   3
ENDBRANCH   1   2
BRANCH   1   9
ATOM      9  C   UNL     1       0.164   0.807 -22.627  1.00  0.00     0.000 C 
BRANCH   9  10
ATOM     10  C   UNL     1      -0.853   1.012 -23.770  1.00  0.00     0.000 C 
BRANCH  10  11
ATOM     11  C   UNL     1      -0.513   2.145 -24.762  1.00  0.00     0.000 C 
BRANCH  11  12
ATOM     12  C   UNL     1      -1.531   3.298 -24.822  1.00  0.00     0.002 C 
BRANCH  12  13
ATOM     13  C   UNL     1      -1.460   4.223 -23.598  1.00  0.00     0.028 C 
BRANCH  13  14
ATOM     14  C   UNL     1      -0.967   5.618 -23.990  1.00  0.00     0.156 C 
BRANCH  14  15
ATOM     15  O   UNL     1      -0.670   6.368 -22.843  1.00  0.00    -0.396 OA
ATOM     16  H   UNL     1      -1.494   6.378 -22.289  1.00  0.00     0.210 HD
ENDBRANCH  14  15
ENDBRANCH  13  14
ENDBRANCH  12  13
ENDBRANCH  11  12
ENDBRANCH  10  11
ENDBRANCH   9  10
ENDBRANCH   1   9
TORSDOF 13
ENDMDL
MODEL 8
REMARK VINA RESULT:    -3.968      2.199      7.185
REMARK INTER + INTRA:          -7.804
REMARK INTER:                  -6.393
REMARK INTRA:                  -1.411
REMARK UNBOUND:                -0.936
REMARK SMILES CCCCCCCCCCCCCCO
REMARK SMILES IDX 8 1 7 2 6 3 5 4 4 5 3 6 2 7 1 8 9 9 10 10 11 11 12 12 13 13
REMARK SMILES IDX 14 14 15 15
REMARK H PARENT 15 16
REMARK Flexibility Score: inf
ROOT
ATOM      1  C   UNL     1      -5.491   3.158 -21.430  1.00  0.00     0.000 C 
ENDROOT
BRANCH   1   2
ATOM      2  C   UNL     1      -6.205   1.915 -21.997  1.00  0.00    -0.000 C 
BRANCH   2   3
ATOM      3  C   UNL     1      -7.548   2.196 -22.693  1.00  0.00    -0.000 C 
BRANCH   3   4
ATOM      4  C   UNL     1      -7.390   3.015 -23.985  1.00  0.00    -0.000 C 
BRANCH   4   5
ATOM      5  C   UNL     1      -8.066   4.395 -23.902  1.00  0.00    -0.000 C 
BRANCH   5   6
ATOM      6  C   UNL     1      -8.923   4.633 -22.641  1.00  0.00    -0.000 C 
BRANCH   6   7
ATOM      7  C   UNL     1      -8.515   5.854 -21.798  1.00  0.00    -0.003 C 
ATOM      8  C   UNL     1      -7.132   6.392 -22.162  1.00  0.00     0.004 C 
ENDBRANCH   6   7
ENDBRANCH   5   6
ENDBRANCH   4   5
ENDBRANCH   3   4
ENDBRANCH   2   3
ENDBRANCH   1   2
BRANCH   1   9
ATOM      9  C   UNL     1      -4.075   3.382 -22.006  1.00  0.00     0.000 C 
BRANCH   9  10
ATOM     10  C   UNL     1      -4.046   4.201 -23.313  1.00  0.00     0.000 C 
BRANCH  10  11
ATOM     11  C   UNL     1      -2.970   3.776 -24.337  1.00  0.00     0.000 C 
BRANCH  11  12
ATOM     12  C   UNL     1      -1.611   3.373 -23.738  1.00  0.00     0.002 C 
BRANCH  12  13
ATOM     13  C   UNL     1      -0.938   2.224 -24.502  1.00  0.00     0.028 C 
BRANCH  13  14
ATOM     14  C   UNL     1      -0.664   1.034 -23.579  1.00  0.00     0.156 C 
BRANCH  14  15
ATOM     15  O   UNL     1      -1.788   0.768 -22.784  1.00  0.00    -0.396 OA
ATOM     16  H   UNL     1      -2.370   0.159 -23.308  1.00  0.00     0.210 HD
ENDBRANCH  14  15
ENDBRANCH  13  14
ENDBRANCH  12  13
ENDBRANCH  11  12
ENDBRANCH  10  11
ENDBRANCH   9  10
ENDBRANCH   1   9
TORSDOF 13
ENDMDL
MODEL 9
REMARK VINA RESULT:    -3.735      3.712      5.036
REMARK INTER + INTRA:          -7.401
REMARK INTER:                  -6.374
REMARK INTRA:                  -1.027
REMARK UNBOUND:                -0.936
REMARK SMILES CCCCCCCCCCCCCCO
REMARK SMILES IDX 8 1 7 2 6 3 5 4 4 5 3 6 2 7 1 8 9 9 10 10 11 11 12 12 13 13
REMARK SMILES IDX 14 14 15 15
REMARK H PARENT 15 16
REMARK Flexibility Score: inf
ROOT
ATOM      1  C   UNL     1      -5.498   3.311 -21.723  1.00  0.00     0.000 C 
ENDROOT
BRANCH   1   2
ATOM      2  C   UNL     1      -4.148   2.577 -21.854  1.00  0.00    -0.000 C 
BRANCH   2   3
ATOM      3  C   UNL     1      -3.041   3.373 -22.567  1.00  0.00    -0.000 C 
BRANCH   3   4
ATOM      4  C   UNL     1      -3.555   4.134 -23.801  1.00  0.00    -0.000 C 
BRANCH   4   5
ATOM      5  C   UNL     1      -2.596   4.037 -25.002  1.00  0.00    -0.000 C 
BRANCH   5   6
ATOM      6  C   UNL     1      -1.096   4.146 -24.657  1.00  0.00    -0.000 C 
BRANCH   6   7
ATOM      7  C   UNL     1      -0.451   5.504 -24.985  1.00  0.00    -0.003 C 
ATOM      8  C   UNL     1      -0.476   6.475 -23.806  1.00  0.00     0.004 C 
ENDBRANCH   6   7
ENDBRANCH   5   6
ENDBRANCH   4   5
ENDBRANCH   3   4
ENDBRANCH   2   3
ENDBRANCH   1   2
BRANCH   1   9
ATOM      9  C   UNL     1      -6.691   2.535 -22.323  1.00  0.00     0.000 C 
BRANCH   9  10
ATOM     10  C   UNL     1      -7.088   2.985 -23.745  1.00  0.00     0.000 C 
BRANCH  10  11
ATOM     11  C   UNL     1      -7.828   4.338 -23.827  1.00  0.00     0.000 C 
BRANCH  11  12
ATOM     12  C   UNL     1      -8.717   4.680 -22.619  1.00  0.00     0.002 C 
BRANCH  12  13
ATOM     13  C   UNL     1      -8.240   5.927 -21.859  1.00  0.00     0.028 C 
BRANCH  13  14
ATOM     14  C   UNL     1      -7.291   6.766 -22.718  1.00  0.00     0.156 C 
BRANCH  14  15
ATOM     15  O   UNL     1      -6.524   7.613 -21.906  1.00  0.00    -0.396 OA
ATOM     16  H   UNL     1      -5.613   7.222 -21.866  1.00  0.00     0.210 HD
ENDBRANCH  14  15
ENDBRANCH  13  14
ENDBRANCH  12  13
ENDBRANCH  11  12
ENDBRANCH  10  11
ENDBRANCH   9  10
ENDBRANCH   1   9
TORSDOF 13
ENDMDL
