MODEL 1
REMARK VINA RESULT:    -7.523      0.000      0.000
REMARK INTER + INTRA:         -14.200
REMARK INTER:                 -12.361
REMARK INTRA:                  -1.839
REMARK UNBOUND:                -1.839
REMARK SMILES C[C@@H]1O[C@@H](OC[C@@H]2O[C@H](Oc3c(-c4ccc(O)c(O)c4)oc4cc(O)cc(O)c4c3=O)[C@@H](O)[C@@H](O)[C@@H]2O)[C@@H](O)[C@H](O)[C@@H]1O
REMARK SMILES IDX 7 1 36 2 34 3 32 4 9 5 8 6 6 7 5 8 4 9 1 10 2 11 42 12 3 13
REMARK SMILES IDX 40 14 38 15 43 16 41 18 39 20 37 22 35 24 10 26 11 27 12 28
REMARK SMILES IDX 30 29 21 30 29 31 31 32 22 33 27 34 23 35 26 36 24 37 13 38
REMARK SMILES IDX 20 39 14 40 18 41 15 42 16 43 19 44 17 46 28 48 25 50 33 52
REMARK H PARENT 43 17 41 19 39 21 37 23 35 25 19 45 17 47 28 49 25 51 33 53
REMARK Flexibility Score: inf
ROOT
ATOM      1  C   UNL     1      -5.452  -0.812   9.101  1.00  0.00     0.180 C 
ATOM      2  C   UNL     1      -5.860  -1.949   8.082  1.00  0.00     0.177 C 
ATOM      3  C   UNL     1      -4.662  -2.910   7.751  1.00  0.00     0.180 C 
ATOM      4  C   UNL     1      -3.793  -3.295   9.002  1.00  0.00     0.214 C 
ATOM      5  C   UNL     1      -4.277  -2.452  10.182  1.00  0.00     0.339 C 
ATOM      6  O   UNL     1      -4.236  -1.094   9.769  1.00  0.00    -0.332 OA
ENDROOT
BRANCH   1   7
ATOM      7  C   UNL     1      -5.492   0.633   8.558  1.00  0.00     0.198 C 
BRANCH   7   8
ATOM      8  O   UNL     1      -4.467   0.867   7.583  1.00  0.00    -0.347 OA
BRANCH   8   9
ATOM      9  C   UNL     1      -3.421   1.725   8.037  1.00  0.00     0.281 C 
ATOM     10  C   UNL     1      -1.854   4.137   8.707  1.00  0.00     0.041 C 
ATOM     11  C   UNL     1      -2.192   3.620   7.282  1.00  0.00     0.150 C 
ATOM     12  C   UNL     1      -1.050   2.867   6.562  1.00  0.00     0.174 C 
ATOM     13  O   UNL     1      -3.409   2.877   7.195  1.00  0.00    -0.344 OA
ATOM     14  C   UNL     1      -1.084   1.327   6.914  1.00  0.00     0.179 C 
ATOM     15  C   UNL     1      -2.037   0.954   8.076  1.00  0.00     0.202 C 
BRANCH  12  16
ATOM     16  O   UNL     1       0.184   3.493   6.830  1.00  0.00    -0.388 OA
ATOM     17  H   UNL     1      -0.009   4.354   7.311  1.00  0.00     0.211 HD
ENDBRANCH  12  16
BRANCH  14  18
ATOM     18  O   UNL     1       0.173   0.701   7.103  1.00  0.00    -0.387 OA
ATOM     19  H   UNL     1       0.843   1.091   6.485  1.00  0.00     0.211 HD
ENDBRANCH  14  18
BRANCH  15  20
ATOM     20  O   UNL     1      -2.218  -0.434   8.019  1.00  0.00    -0.385 OA
ATOM     21  H   UNL     1      -1.487  -0.847   8.555  1.00  0.00     0.211 HD
ENDBRANCH  15  20
ENDBRANCH   8   9
ENDBRANCH   7   8
ENDBRANCH   1   7
BRANCH   2  22
ATOM     22  O   UNL     1      -6.388  -1.432   6.892  1.00  0.00    -0.387 OA
ATOM     23  H   UNL     1      -6.489  -0.448   7.003  1.00  0.00     0.211 HD
ENDBRANCH   2  22
BRANCH   3  24
ATOM     24  O   UNL     1      -5.125  -4.063   7.095  1.00  0.00    -0.387 OA
ATOM     25  H   UNL     1      -4.907  -4.843   7.686  1.00  0.00     0.211 HD
ENDBRANCH   3  24
BRANCH   5  26
ATOM     26  O   UNL     1      -3.583  -2.633  11.421  1.00  0.00    -0.454 OA
BRANCH  26  27
ATOM     27  C   UNL     1      -3.542  -1.522  12.288  1.00  0.00     0.214 A 
ATOM     28  C   UNL     1      -4.536  -1.377  13.272  1.00  0.00     0.180 A 
ATOM     29  C   UNL     1      -2.721  -0.433  11.992  1.00  0.00     0.239 A 
ATOM     30  O   UNL     1      -4.770  -0.183  13.808  1.00  0.00    -0.452 OA
ATOM     31  C   UNL     1      -3.019   0.828  12.551  1.00  0.00     0.111 A 
ATOM     32  O   UNL     1      -1.780  -0.576  11.165  1.00  0.00    -0.285 OA
ATOM     33  C   UNL     1      -4.082   0.905  13.483  1.00  0.00     0.146 A 
ATOM     34  C   UNL     1      -2.344   2.015  12.180  1.00  0.00     0.134 A 
ATOM     35  C   UNL     1      -4.454   2.132  14.029  1.00  0.00     0.094 A 
ATOM     36  C   UNL     1      -2.757   3.236  12.728  1.00  0.00     0.093 A 
ATOM     37  C   UNL     1      -3.804   3.302  13.653  1.00  0.00     0.123 A 
BRANCH  28  38
ATOM     38  C   UNL     1      -5.400  -2.520  13.631  1.00  0.00     0.025 A 
ATOM     39  C   UNL     1      -5.231  -3.125  14.882  1.00  0.00     0.062 A 
ATOM     40  C   UNL     1      -6.382  -2.986  12.757  1.00  0.00     0.016 A 
ATOM     41  C   UNL     1      -6.034  -4.208  15.265  1.00  0.00     0.158 A 
ATOM     42  C   UNL     1      -7.188  -4.075  13.128  1.00  0.00     0.051 A 
ATOM     43  C   UNL     1      -7.016  -4.687  14.377  1.00  0.00     0.157 A 
BRANCH  41  44
ATOM     44  O   UNL     1      -5.877  -4.753  16.536  1.00  0.00    -0.504 OA
ATOM     45  H   UNL     1      -5.045  -5.278  16.807  1.00  0.00     0.293 HD
ENDBRANCH  41  44
BRANCH  43  46
ATOM     46  O   UNL     1      -7.794  -5.781  14.752  1.00  0.00    -0.504 OA
ATOM     47  H   UNL     1      -8.734  -5.929  14.353  1.00  0.00     0.293 HD
ENDBRANCH  43  46
ENDBRANCH  28  38
BRANCH  34  48
ATOM     48  O   UNL     1      -1.304   2.007  11.251  1.00  0.00    -0.507 OA
ATOM     49  H   UNL     1      -1.192   1.254  10.576  1.00  0.00     0.293 HD
ENDBRANCH  34  48
BRANCH  37  50
ATOM     50  O   UNL     1      -4.194   4.531  14.183  1.00  0.00    -0.508 OA
ATOM     51  H   UNL     1      -5.144   4.862  14.110  1.00  0.00     0.293 HD
ENDBRANCH  37  50
ENDBRANCH  26  27
ENDBRANCH   5  26
BRANCH   4  52
ATOM     52  O   UNL     1      -3.919  -4.661   9.304  1.00  0.00    -0.384 OA
ATOM     53  H   UNL     1      -3.974  -5.151   8.440  1.00  0.00     0.211 HD
ENDBRANCH   4  52
TORSDOF 16
ENDMDL
MODEL 2
REMARK VINA RESULT:    -7.438      2.081      8.119
REMARK INTER + INTRA:         -14.060
REMARK INTER:                 -13.428
REMARK INTRA:                  -0.632
REMARK UNBOUND:                -1.839
REMARK SMILES C[C@@H]1O[C@@H](OC[C@@H]2O[C@H](Oc3c(-c4ccc(O)c(O)c4)oc4cc(O)cc(O)c4c3=O)[C@@H](O)[C@@H](O)[C@@H]2O)[C@@H](O)[C@H](O)[C@@H]1O
REMARK SMILES IDX 7 1 36 2 34 3 32 4 9 5 8 6 6 7 5 8 4 9 1 10 2 11 42 12 3 13
REMARK SMILES IDX 40 14 38 15 43 16 41 18 39 20 37 22 35 24 10 26 11 27 12 28
REMARK SMILES IDX 30 29 21 30 29 31 31 32 22 33 27 34 23 35 26 36 24 37 13 38
REMARK SMILES IDX 20 39 14 40 18 41 15 42 16 43 19 44 17 46 28 48 25 50 33 52
REMARK H PARENT 43 17 41 19 39 21 37 23 35 25 19 45 17 47 28 49 25 51 33 53
REMARK Flexibility Score: inf
ROOT
ATOM      1  C   UNL     1      -4.699  -2.315  13.195  1.00  0.00     0.180 C 
ATOM      2  C   UNL     1      -3.960  -3.587  12.618  1.00  0.00     0.177 C 
ATOM      3  C   UNL     1      -4.398  -3.915  11.146  1.00  0.00     0.180 C 
ATOM      4  C   UNL     1      -4.541  -2.647  10.229  1.00  0.00     0.214 C 
ATOM      5  C   UNL     1      -4.381  -1.411  11.115  1.00  0.00     0.339 C 
ATOM      6  O   UNL     1      -5.311  -1.539  12.181  1.00  0.00    -0.332 OA
ENDROOT
BRANCH   1   7
ATOM      7  C   UNL     1      -5.649  -2.563  14.386  1.00  0.00     0.198 C 
BRANCH   7   8
ATOM      8  O   UNL     1      -6.434  -3.750  14.207  1.00  0.00    -0.347 OA
BRANCH   8   9
ATOM      9  C   UNL     1      -6.885  -4.335  15.426  1.00  0.00     0.281 C 
ATOM     10  C   UNL     1      -7.187  -4.982  18.292  1.00  0.00     0.041 C 
ATOM     11  C   UNL     1      -5.975  -5.335  17.387  1.00  0.00     0.150 C 
ATOM     12  C   UNL     1      -5.927  -6.797  16.885  1.00  0.00     0.174 C 
ATOM     13  O   UNL     1      -5.763  -4.431  16.303  1.00  0.00    -0.344 OA
ATOM     14  C   UNL     1      -6.729  -6.952  15.532  1.00  0.00     0.179 C 
ATOM     15  C   UNL     1      -7.596  -5.725  15.155  1.00  0.00     0.202 C 
BRANCH  12  16
ATOM     16  O   UNL     1      -6.344  -7.672  17.908  1.00  0.00    -0.388 OA
ATOM     17  H   UNL     1      -6.871  -7.133  18.574  1.00  0.00     0.211 HD
ENDBRANCH  12  16
BRANCH  14  18
ATOM     18  O   UNL     1      -7.489  -8.140  15.390  1.00  0.00    -0.387 OA
ATOM     19  H   UNL     1      -8.456  -7.925  15.374  1.00  0.00     0.211 HD
ENDBRANCH  14  18
BRANCH  15  20
ATOM     20  O   UNL     1      -7.939  -5.875  13.804  1.00  0.00    -0.385 OA
ATOM     21  H   UNL     1      -8.798  -5.392  13.665  1.00  0.00     0.211 HD
ENDBRANCH  15  20
ENDBRANCH   8   9
ENDBRANCH   7   8
ENDBRANCH   1   7
BRANCH   2  22
ATOM     22  O   UNL     1      -4.142  -4.719  13.424  1.00  0.00    -0.387 OA
ATOM     23  H   UNL     1      -5.082  -5.028  13.310  1.00  0.00     0.211 HD
ENDBRANCH   2  22
BRANCH   3  24
ATOM     24  O   UNL     1      -3.520  -4.847  10.568  1.00  0.00    -0.387 OA
ATOM     25  H   UNL     1      -2.913  -5.170  11.299  1.00  0.00     0.211 HD
ENDBRANCH   3  24
BRANCH   5  26
ATOM     26  O   UNL     1      -4.512  -0.142  10.468  1.00  0.00    -0.454 OA
BRANCH  26  27
ATOM     27  C   UNL     1      -3.472   0.227   9.589  1.00  0.00     0.214 A 
ATOM     28  C   UNL     1      -2.157   0.320  10.077  1.00  0.00     0.180 A 
ATOM     29  C   UNL     1      -3.772   0.782   8.344  1.00  0.00     0.239 A 
ATOM     30  O   UNL     1      -1.255   1.042   9.418  1.00  0.00    -0.452 OA
ATOM     31  C   UNL     1      -2.803   1.573   7.690  1.00  0.00     0.111 A 
ATOM     32  O   UNL     1      -4.931   0.640   7.868  1.00  0.00    -0.285 OA
ATOM     33  C   UNL     1      -1.521   1.673   8.282  1.00  0.00     0.146 A 
ATOM     34  C   UNL     1      -3.074   2.306   6.511  1.00  0.00     0.134 A 
ATOM     35  C   UNL     1      -0.540   2.480   7.708  1.00  0.00     0.094 A 
ATOM     36  C   UNL     1      -2.076   3.126   5.971  1.00  0.00     0.093 A 
ATOM     37  C   UNL     1      -0.810   3.215   6.558  1.00  0.00     0.123 A 
BRANCH  28  38
ATOM     38  C   UNL     1      -1.801  -0.285  11.375  1.00  0.00     0.025 A 
ATOM     39  C   UNL     1      -1.171  -1.536  11.386  1.00  0.00     0.062 A 
ATOM     40  C   UNL     1      -2.063   0.374  12.576  1.00  0.00     0.016 A 
ATOM     41  C   UNL     1      -0.811  -2.143  12.596  1.00  0.00     0.158 A 
ATOM     42  C   UNL     1      -1.711  -0.229  13.796  1.00  0.00     0.051 A 
ATOM     43  C   UNL     1      -1.088  -1.484  13.809  1.00  0.00     0.157 A 
BRANCH  41  44
ATOM     44  O   UNL     1      -0.139  -3.363  12.570  1.00  0.00    -0.504 OA
ATOM     45  H   UNL     1      -0.254  -4.034  11.810  1.00  0.00     0.293 HD
ENDBRANCH  41  44
BRANCH  43  46
ATOM     46  O   UNL     1      -0.751  -2.104  15.011  1.00  0.00    -0.504 OA
ATOM     47  H   UNL     1       0.207  -2.045  15.391  1.00  0.00     0.293 HD
ENDBRANCH  43  46
ENDBRANCH  28  38
BRANCH  34  48
ATOM     48  O   UNL     1      -4.324   2.264   5.893  1.00  0.00    -0.507 OA
ATOM     49  H   UNL     1      -5.181   2.474   6.399  1.00  0.00     0.293 HD
ENDBRANCH  34  48
BRANCH  37  50
ATOM     50  O   UNL     1       0.166   4.039   5.999  1.00  0.00    -0.508 OA
ATOM     51  H   UNL     1       0.054   5.041   5.961  1.00  0.00     0.293 HD
ENDBRANCH  37  50
ENDBRANCH  26  27
ENDBRANCH   5  26
BRANCH   4  52
ATOM     52  O   UNL     1      -3.568  -2.642   9.217  1.00  0.00    -0.384 OA
ATOM     53  H   UNL     1      -3.255  -1.705   9.111  1.00  0.00     0.211 HD
ENDBRANCH   4  52
TORSDOF 16
ENDMDL
MODEL 3
REMARK VINA RESULT:    -7.303      2.141      4.674
REMARK INTER + INTRA:         -13.838
REMARK INTER:                 -11.967
REMARK INTRA:                  -1.872
REMARK UNBOUND:                -1.839
REMARK SMILES C[C@@H]1O[C@@H](OC[C@@H]2O[C@H](Oc3c(-c4ccc(O)c(O)c4)oc4cc(O)cc(O)c4c3=O)[C@@H](O)[C@@H](O)[C@@H]2O)[C@@H](O)[C@H](O)[C@@H]1O
REMARK SMILES IDX 7 1 36 2 34 3 32 4 9 5 8 6 6 7 5 8 4 9 1 10 2 11 42 12 3 13
REMARK SMILES IDX 40 14 38 15 43 16 41 18 39 20 37 22 35 24 10 26 11 27 12 28
REMARK SMILES IDX 30 29 21 30 29 31 31 32 22 33 27 34 23 35 26 36 24 37 13 38
REMARK SMILES IDX 20 39 14 40 18 41 15 42 16 43 19 44 17 46 28 48 25 50 33 52
REMARK H PARENT 43 17 41 19 39 21 37 23 35 25 19 45 17 47 28 49 25 51 33 53
REMARK Flexibility Score: inf
ROOT
ATOM      1  C   UNL     1      -1.497  -1.971  10.571  1.00  0.00     0.180 C 
ATOM      2  C   UNL     1      -0.201  -2.106  11.466  1.00  0.00     0.177 C 
ATOM      3  C   UNL     1      -0.060  -0.926  12.493  1.00  0.00     0.180 C 
ATOM      4  C   UNL     1      -1.413  -0.518  13.181  1.00  0.00     0.214 C 
ATOM      5  C   UNL     1      -2.536  -1.296  12.496  1.00  0.00     0.339 C 
ATOM      6  O   UNL     1      -2.427  -1.045  11.102  1.00  0.00    -0.332 OA
ENDROOT
BRANCH   1   7
ATOM      7  C   UNL     1      -1.259  -1.751   9.062  1.00  0.00     0.198 C 
BRANCH   7   8
ATOM      8  O   UNL     1      -0.637  -0.486   8.796  1.00  0.00    -0.347 OA
BRANCH   8   9
ATOM      9  C   UNL     1      -1.484   0.447   8.130  1.00  0.00     0.281 C 
ATOM     10  C   UNL     1      -2.942   1.915   6.022  1.00  0.00     0.041 C 
ATOM     11  C   UNL     1      -1.411   1.940   6.275  1.00  0.00     0.150 C 
ATOM     12  C   UNL     1      -0.883   3.188   7.020  1.00  0.00     0.174 C 
ATOM     13  O   UNL     1      -0.889   0.751   6.868  1.00  0.00    -0.344 OA
ATOM     14  C   UNL     1      -0.939   2.973   8.585  1.00  0.00     0.179 C 
ATOM     15  C   UNL     1      -1.737   1.724   9.034  1.00  0.00     0.202 C 
BRANCH  12  16
ATOM     16  O   UNL     1      -1.561   4.339   6.572  1.00  0.00    -0.388 OA
ATOM     17  H   UNL     1      -1.178   4.590   5.677  1.00  0.00     0.211 HD
ENDBRANCH  12  16
BRANCH  14  18
ATOM     18  O   UNL     1      -1.328   4.096   9.357  1.00  0.00    -0.387 OA
ATOM     19  H   UNL     1      -1.180   4.930   8.842  1.00  0.00     0.211 HD
ENDBRANCH  14  18
BRANCH  15  20
ATOM     20  O   UNL     1      -1.393   1.486  10.371  1.00  0.00    -0.385 OA
ATOM     21  H   UNL     1      -1.236   2.373  10.796  1.00  0.00     0.211 HD
ENDBRANCH  15  20
ENDBRANCH   8   9
ENDBRANCH   7   8
ENDBRANCH   1   7
BRANCH   2  22
ATOM     22  O   UNL     1       0.968  -2.202  10.699  1.00  0.00    -0.387 OA
ATOM     23  H   UNL     1       1.386  -3.085  10.886  1.00  0.00     0.211 HD
ENDBRANCH   2  22
BRANCH   3  24
ATOM     24  O   UNL     1       0.916  -1.228  13.457  1.00  0.00    -0.387 OA
ATOM     25  H   UNL     1       1.787  -0.864  13.116  1.00  0.00     0.211 HD
ENDBRANCH   3  24
BRANCH   5  26
ATOM     26  O   UNL     1      -3.865  -1.039  12.962  1.00  0.00    -0.454 OA
BRANCH  26  27
ATOM     27  C   UNL     1      -4.899  -1.153  12.011  1.00  0.00     0.214 A 
ATOM     28  C   UNL     1      -5.605  -2.364  11.901  1.00  0.00     0.180 A 
ATOM     29  C   UNL     1      -5.025  -0.203  10.996  1.00  0.00     0.239 A 
ATOM     30  O   UNL     1      -6.269  -2.645  10.784  1.00  0.00    -0.452 OA
ATOM     31  C   UNL     1      -5.707  -0.548   9.809  1.00  0.00     0.111 A 
ATOM     32  O   UNL     1      -4.454   0.914  11.122  1.00  0.00    -0.285 OA
ATOM     33  C   UNL     1      -6.333  -1.816   9.750  1.00  0.00     0.146 A 
ATOM     34  C   UNL     1      -5.741   0.289   8.669  1.00  0.00     0.134 A 
ATOM     35  C   UNL     1      -6.978  -2.231   8.586  1.00  0.00     0.094 A 
ATOM     36  C   UNL     1      -6.376  -0.166   7.506  1.00  0.00     0.093 A 
ATOM     37  C   UNL     1      -6.998  -1.417   7.458  1.00  0.00     0.123 A 
BRANCH  28  38
ATOM     38  C   UNL     1      -5.518  -3.375  12.973  1.00  0.00     0.025 A 
ATOM     39  C   UNL     1      -6.632  -3.583  13.795  1.00  0.00     0.062 A 
ATOM     40  C   UNL     1      -4.361  -4.131  13.162  1.00  0.00     0.016 A 
ATOM     41  C   UNL     1      -6.594  -4.537  14.821  1.00  0.00     0.158 A 
ATOM     42  C   UNL     1      -4.311  -5.086  14.191  1.00  0.00     0.051 A 
ATOM     43  C   UNL     1      -5.422  -5.290  15.020  1.00  0.00     0.157 A 
BRANCH  41  44
ATOM     44  O   UNL     1      -7.737  -4.757  15.586  1.00  0.00    -0.504 OA
ATOM     45  H   UNL     1      -7.695  -5.116  16.540  1.00  0.00     0.293 HD
ENDBRANCH  41  44
BRANCH  43  46
ATOM     46  O   UNL     1      -5.380  -6.219  16.058  1.00  0.00    -0.504 OA
ATOM     47  H   UNL     1      -5.819  -6.020  16.970  1.00  0.00     0.293 HD
ENDBRANCH  43  46
ENDBRANCH  28  38
BRANCH  34  48
ATOM     48  O   UNL     1      -5.124   1.540   8.659  1.00  0.00    -0.507 OA
ATOM     49  H   UNL     1      -5.610   2.376   8.345  1.00  0.00     0.293 HD
ENDBRANCH  34  48
BRANCH  37  50
ATOM     50  O   UNL     1      -7.623  -1.844   6.287  1.00  0.00    -0.508 OA
ATOM     51  H   UNL     1      -7.385  -2.722   5.850  1.00  0.00     0.293 HD
ENDBRANCH  37  50
ENDBRANCH  26  27
ENDBRANCH   5  26
BRANCH   4  52
ATOM     52  O   UNL     1      -1.390  -0.815  14.554  1.00  0.00    -0.384 OA
ATOM     53  H   UNL     1      -0.447  -1.015  14.798  1.00  0.00     0.211 HD
ENDBRANCH   4  52
TORSDOF 16
ENDMDL
MODEL 4
REMARK VINA RESULT:    -7.276      2.119      8.180
REMARK INTER + INTRA:         -13.794
REMARK INTER:                 -12.848
REMARK INTRA:                  -0.945
REMARK UNBOUND:                -1.839
REMARK SMILES C[C@@H]1O[C@@H](OC[C@@H]2O[C@H](Oc3c(-c4ccc(O)c(O)c4)oc4cc(O)cc(O)c4c3=O)[C@@H](O)[C@@H](O)[C@@H]2O)[C@@H](O)[C@H](O)[C@@H]1O
REMARK SMILES IDX 7 1 36 2 34 3 32 4 9 5 8 6 6 7 5 8 4 9 1 10 2 11 42 12 3 13
REMARK SMILES IDX 40 14 38 15 43 16 41 18 39 20 37 22 35 24 10 26 11 27 12 28
REMARK SMILES IDX 30 29 21 30 29 31 31 32 22 33 27 34 23 35 26 36 24 37 13 38
REMARK SMILES IDX 20 39 14 40 18 41 15 42 16 43 19 44 17 46 28 48 25 50 33 52
REMARK H PARENT 43 17 41 19 39 21 37 23 35 25 19 45 17 47 28 49 25 51 33 53
REMARK Flexibility Score: inf
ROOT
ATOM      1  C   UNL     1      -4.988  -2.209  12.756  1.00  0.00     0.180 C 
ATOM      2  C   UNL     1      -4.137  -1.628  13.956  1.00  0.00     0.177 C 
ATOM      3  C   UNL     1      -2.603  -1.923  13.794  1.00  0.00     0.180 C 
ATOM      4  C   UNL     1      -2.069  -1.730  12.329  1.00  0.00     0.214 C 
ATOM      5  C   UNL     1      -3.276  -1.478  11.425  1.00  0.00     0.339 C 
ATOM      6  O   UNL     1      -4.188  -2.545  11.638  1.00  0.00    -0.332 OA
ENDROOT
BRANCH   1   7
ATOM      7  C   UNL     1      -5.985  -3.333  13.113  1.00  0.00     0.198 C 
BRANCH   7   8
ATOM      8  O   UNL     1      -5.451  -4.231  14.095  1.00  0.00    -0.347 OA
BRANCH   8   9
ATOM      9  C   UNL     1      -6.418  -5.115  14.658  1.00  0.00     0.281 C 
ATOM     10  C   UNL     1      -8.982  -6.274  15.556  1.00  0.00     0.041 C 
ATOM     11  C   UNL     1      -8.261  -5.041  16.165  1.00  0.00     0.150 C 
ATOM     12  C   UNL     1      -7.484  -5.308  17.475  1.00  0.00     0.174 C 
ATOM     13  O   UNL     1      -7.446  -4.316  15.244  1.00  0.00    -0.344 OA
ATOM     14  C   UNL     1      -6.004  -5.771  17.165  1.00  0.00     0.179 C 
ATOM     15  C   UNL     1      -5.738  -6.118  15.679  1.00  0.00     0.202 C 
BRANCH  12  16
ATOM     16  O   UNL     1      -8.207  -6.198  18.292  1.00  0.00    -0.388 OA
ATOM     17  H   UNL     1      -7.704  -6.296  19.157  1.00  0.00     0.211 HD
ENDBRANCH  12  16
BRANCH  14  18
ATOM     18  O   UNL     1      -5.481  -6.790  17.999  1.00  0.00    -0.387 OA
ATOM     19  H   UNL     1      -5.741  -7.681  17.650  1.00  0.00     0.211 HD
ENDBRANCH  14  18
BRANCH  15  20
ATOM     20  O   UNL     1      -4.346  -6.154  15.518  1.00  0.00    -0.385 OA
ATOM     21  H   UNL     1      -3.955  -6.379  16.406  1.00  0.00     0.211 HD
ENDBRANCH  15  20
ENDBRANCH   8   9
ENDBRANCH   7   8
ENDBRANCH   1   7
BRANCH   2  22
ATOM     22  O   UNL     1      -4.577  -2.102  15.198  1.00  0.00    -0.387 OA
ATOM     23  H   UNL     1      -3.820  -2.028  15.840  1.00  0.00     0.211 HD
ENDBRANCH   2  22
BRANCH   3  24
ATOM     24  O   UNL     1      -1.857  -1.149  14.699  1.00  0.00    -0.387 OA
ATOM     25  H   UNL     1      -2.513  -0.602  15.227  1.00  0.00     0.211 HD
ENDBRANCH   3  24
BRANCH   5  26
ATOM     26  O   UNL     1      -3.001  -1.307  10.030  1.00  0.00    -0.454 OA
BRANCH  26  27
ATOM     27  C   UNL     1      -2.517  -0.043   9.634  1.00  0.00     0.214 A 
ATOM     28  C   UNL     1      -3.345   1.085   9.766  1.00  0.00     0.180 A 
ATOM     29  C   UNL     1      -1.366   0.051   8.849  1.00  0.00     0.239 A 
ATOM     30  O   UNL     1      -3.100   2.175   9.045  1.00  0.00    -0.452 OA
ATOM     31  C   UNL     1      -1.156   1.208   8.070  1.00  0.00     0.111 A 
ATOM     32  O   UNL     1      -0.581  -0.934   8.785  1.00  0.00    -0.285 OA
ATOM     33  C   UNL     1      -2.075   2.276   8.208  1.00  0.00     0.146 A 
ATOM     34  C   UNL     1      -0.109   1.322   7.125  1.00  0.00     0.134 A 
ATOM     35  C   UNL     1      -1.946   3.423   7.427  1.00  0.00     0.094 A 
ATOM     36  C   UNL     1      -0.020   2.477   6.338  1.00  0.00     0.093 A 
ATOM     37  C   UNL     1      -0.928   3.529   6.486  1.00  0.00     0.123 A 
BRANCH  28  38
ATOM     38  C   UNL     1      -4.552   1.027  10.614  1.00  0.00     0.025 A 
ATOM     39  C   UNL     1      -4.471   1.490  11.934  1.00  0.00     0.062 A 
ATOM     40  C   UNL     1      -5.761   0.541  10.118  1.00  0.00     0.016 A 
ATOM     41  C   UNL     1      -5.595   1.458  12.771  1.00  0.00     0.158 A 
ATOM     42  C   UNL     1      -6.892   0.500  10.951  1.00  0.00     0.051 A 
ATOM     43  C   UNL     1      -6.812   0.955  12.274  1.00  0.00     0.157 A 
BRANCH  41  44
ATOM     44  O   UNL     1      -5.495   1.975  14.060  1.00  0.00    -0.504 OA
ATOM     45  H   UNL     1      -4.632   1.927  14.603  1.00  0.00     0.293 HD
ENDBRANCH  41  44
BRANCH  43  46
ATOM     46  O   UNL     1      -7.919   0.901  13.119  1.00  0.00    -0.504 OA
ATOM     47  H   UNL     1      -8.242   0.007  13.519  1.00  0.00     0.293 HD
ENDBRANCH  43  46
ENDBRANCH  28  38
BRANCH  34  48
ATOM     48  O   UNL     1       0.815   0.295   6.928  1.00  0.00    -0.507 OA
ATOM     49  H   UNL     1       1.747   0.474   6.562  1.00  0.00     0.293 HD
ENDBRANCH  34  48
BRANCH  37  50
ATOM     50  O   UNL     1      -0.815   4.669   5.689  1.00  0.00    -0.508 OA
ATOM     51  H   UNL     1      -0.092   4.758   4.992  1.00  0.00     0.293 HD
ENDBRANCH  37  50
ENDBRANCH  26  27
ENDBRANCH   5  26
BRANCH   4  52
ATOM     52  O   UNL     1      -1.177  -0.648  12.254  1.00  0.00    -0.384 OA
ATOM     53  H   UNL     1      -1.584   0.030  11.653  1.00  0.00     0.211 HD
ENDBRANCH   4  52
TORSDOF 16
ENDMDL
MODEL 5
REMARK VINA RESULT:    -7.232      2.052      8.166
REMARK INTER + INTRA:         -13.721
REMARK INTER:                 -14.223
REMARK INTRA:                   0.501
REMARK UNBOUND:                -1.839
REMARK SMILES C[C@@H]1O[C@@H](OC[C@@H]2O[C@H](Oc3c(-c4ccc(O)c(O)c4)oc4cc(O)cc(O)c4c3=O)[C@@H](O)[C@@H](O)[C@@H]2O)[C@@H](O)[C@H](O)[C@@H]1O
REMARK SMILES IDX 7 1 36 2 34 3 32 4 9 5 8 6 6 7 5 8 4 9 1 10 2 11 42 12 3 13
REMARK SMILES IDX 40 14 38 15 43 16 41 18 39 20 37 22 35 24 10 26 11 27 12 28
REMARK SMILES IDX 30 29 21 30 29 31 31 32 22 33 27 34 23 35 26 36 24 37 13 38
REMARK SMILES IDX 20 39 14 40 18 41 15 42 16 43 19 44 17 46 28 48 25 50 33 52
REMARK H PARENT 43 17 41 19 39 21 37 23 35 25 19 45 17 47 28 49 25 51 33 53
REMARK Flexibility Score: inf
ROOT
ATOM      1  C   UNL     1      -5.636  -1.536  13.494  1.00  0.00     0.180 C 
ATOM      2  C   UNL     1      -5.634  -0.002  13.878  1.00  0.00     0.177 C 
ATOM      3  C   UNL     1      -4.452   0.779  13.199  1.00  0.00     0.180 C 
ATOM      4  C   UNL     1      -4.203   0.377  11.700  1.00  0.00     0.214 C 
ATOM      5  C   UNL     1      -5.096  -0.823  11.386  1.00  0.00     0.339 C 
ATOM      6  O   UNL     1      -4.824  -1.813  12.368  1.00  0.00    -0.332 OA
ENDROOT
BRANCH   1   7
ATOM      7  C   UNL     1      -5.379  -2.526  14.651  1.00  0.00     0.198 C 
BRANCH   7   8
ATOM      8  O   UNL     1      -6.009  -3.794  14.421  1.00  0.00    -0.347 OA
BRANCH   8   9
ATOM      9  C   UNL     1      -6.635  -4.346  15.577  1.00  0.00     0.281 C 
ATOM     10  C   UNL     1      -7.267  -5.021  18.382  1.00  0.00     0.041 C 
ATOM     11  C   UNL     1      -6.035  -5.504  17.570  1.00  0.00     0.150 C 
ATOM     12  C   UNL     1      -6.128  -6.947  17.021  1.00  0.00     0.174 C 
ATOM     13  O   UNL     1      -5.615  -4.608  16.540  1.00  0.00    -0.344 OA
ATOM     14  C   UNL     1      -6.822  -6.963  15.601  1.00  0.00     0.179 C 
ATOM     15  C   UNL     1      -7.490  -5.626  15.197  1.00  0.00     0.202 C 
BRANCH  12  16
ATOM     16  O   UNL     1      -6.741  -7.786  17.972  1.00  0.00    -0.388 OA
ATOM     17  H   UNL     1      -6.872  -7.249  18.813  1.00  0.00     0.211 HD
ENDBRANCH  12  16
BRANCH  14  18
ATOM     18  O   UNL     1      -7.710  -8.039  15.352  1.00  0.00    -0.387 OA
ATOM     19  H   UNL     1      -7.240  -8.762  14.862  1.00  0.00     0.211 HD
ENDBRANCH  14  18
BRANCH  15  20
ATOM     20  O   UNL     1      -7.729  -5.696  13.817  1.00  0.00    -0.385 OA
ATOM     21  H   UNL     1      -7.684  -4.766  13.465  1.00  0.00     0.211 HD
ENDBRANCH  15  20
ENDBRANCH   8   9
ENDBRANCH   7   8
ENDBRANCH   1   7
BRANCH   2  22
ATOM     22  O   UNL     1      -5.592   0.199  15.264  1.00  0.00    -0.387 OA
ATOM     23  H   UNL     1      -6.518   0.396  15.573  1.00  0.00     0.211 HD
ENDBRANCH   2  22
BRANCH   3  24
ATOM     24  O   UNL     1      -4.651   2.165  13.314  1.00  0.00    -0.387 OA
ATOM     25  H   UNL     1      -5.621   2.339  13.121  1.00  0.00     0.211 HD
ENDBRANCH   3  24
BRANCH   5  26
ATOM     26  O   UNL     1      -4.992  -1.367  10.066  1.00  0.00    -0.454 OA
BRANCH  26  27
ATOM     27  C   UNL     1      -3.860  -0.986   9.316  1.00  0.00     0.214 A 
ATOM     28  C   UNL     1      -2.578  -1.336   9.776  1.00  0.00     0.180 A 
ATOM     29  C   UNL     1      -3.978  -0.029   8.308  1.00  0.00     0.239 A 
ATOM     30  O   UNL     1      -1.514  -0.665   9.347  1.00  0.00    -0.452 OA
ATOM     31  C   UNL     1      -2.833   0.690   7.901  1.00  0.00     0.111 A 
ATOM     32  O   UNL     1      -5.118   0.237   7.839  1.00  0.00    -0.285 OA
ATOM     33  C   UNL     1      -1.587   0.323   8.463  1.00  0.00     0.146 A 
ATOM     34  C   UNL     1      -2.887   1.786   7.008  1.00  0.00     0.134 A 
ATOM     35  C   UNL     1      -0.430   1.030   8.138  1.00  0.00     0.094 A 
ATOM     36  C   UNL     1      -1.712   2.491   6.720  1.00  0.00     0.093 A 
ATOM     37  C   UNL     1      -0.485   2.118   7.274  1.00  0.00     0.123 A 
BRANCH  28  38
ATOM     38  C   UNL     1      -2.418  -2.368  10.819  1.00  0.00     0.025 A 
ATOM     39  C   UNL     1      -1.807  -2.015  12.029  1.00  0.00     0.062 A 
ATOM     40  C   UNL     1      -2.879  -3.670  10.625  1.00  0.00     0.016 A 
ATOM     41  C   UNL     1      -1.641  -2.962  13.048  1.00  0.00     0.158 A 
ATOM     42  C   UNL     1      -2.712  -4.629  11.638  1.00  0.00     0.051 A 
ATOM     43  C   UNL     1      -2.094  -4.280  12.846  1.00  0.00     0.157 A 
BRANCH  41  44
ATOM     44  O   UNL     1      -1.078  -2.566  14.258  1.00  0.00    -0.504 OA
ATOM     45  H   UNL     1      -1.558  -2.689  15.150  1.00  0.00     0.293 HD
ENDBRANCH  41  44
BRANCH  43  46
ATOM     46  O   UNL     1      -1.903  -5.225  13.853  1.00  0.00    -0.504 OA
ATOM     47  H   UNL     1      -1.646  -6.198  13.629  1.00  0.00     0.293 HD
ENDBRANCH  43  46
ENDBRANCH  28  38
BRANCH  34  48
ATOM     48  O   UNL     1      -4.089   2.208   6.439  1.00  0.00    -0.507 OA
ATOM     49  H   UNL     1      -4.928   1.635   6.468  1.00  0.00     0.293 HD
ENDBRANCH  34  48
BRANCH  37  50
ATOM     50  O   UNL     1       0.670   2.838   6.969  1.00  0.00    -0.508 OA
ATOM     51  H   UNL     1       1.138   3.406   7.659  1.00  0.00     0.293 HD
ENDBRANCH  37  50
ENDBRANCH  26  27
ENDBRANCH   5  26
BRANCH   4  52
ATOM     52  O   UNL     1      -4.506   1.441  10.835  1.00  0.00    -0.384 OA
ATOM     53  H   UNL     1      -5.495   1.482  10.750  1.00  0.00     0.211 HD
ENDBRANCH   4  52
TORSDOF 16
ENDMDL
MODEL 6
REMARK VINA RESULT:    -7.179      2.178      4.630
REMARK INTER + INTRA:         -13.634
REMARK INTER:                 -11.768
REMARK INTRA:                  -1.865
REMARK UNBOUND:                -1.839
REMARK SMILES C[C@@H]1O[C@@H](OC[C@@H]2O[C@H](Oc3c(-c4ccc(O)c(O)c4)oc4cc(O)cc(O)c4c3=O)[C@@H](O)[C@@H](O)[C@@H]2O)[C@@H](O)[C@H](O)[C@@H]1O
REMARK SMILES IDX 7 1 36 2 34 3 32 4 9 5 8 6 6 7 5 8 4 9 1 10 2 11 42 12 3 13
REMARK SMILES IDX 40 14 38 15 43 16 41 18 39 20 37 22 35 24 10 26 11 27 12 28
REMARK SMILES IDX 30 29 21 30 29 31 31 32 22 33 27 34 23 35 26 36 24 37 13 38
REMARK SMILES IDX 20 39 14 40 18 41 15 42 16 43 19 44 17 46 28 48 25 50 33 52
REMARK H PARENT 43 17 41 19 39 21 37 23 35 25 19 45 17 47 28 49 25 51 33 53
REMARK Flexibility Score: inf
ROOT
ATOM      1  C   UNL     1      -3.508   1.334  12.315  1.00  0.00     0.180 C 
ATOM      2  C   UNL     1      -4.650   2.272  12.876  1.00  0.00     0.177 C 
ATOM      3  C   UNL     1      -5.923   2.276  11.955  1.00  0.00     0.180 C 
ATOM      4  C   UNL     1      -6.314   0.857  11.406  1.00  0.00     0.214 C 
ATOM      5  C   UNL     1      -5.201  -0.116  11.796  1.00  0.00     0.339 C 
ATOM      6  O   UNL     1      -3.981   0.438  11.327  1.00  0.00    -0.332 OA
ENDROOT
BRANCH   1   7
ATOM      7  C   UNL     1      -2.204   2.039  11.880  1.00  0.00     0.198 C 
BRANCH   7   8
ATOM      8  O   UNL     1      -2.385   2.810  10.685  1.00  0.00    -0.347 OA
BRANCH   8   9
ATOM      9  C   UNL     1      -1.734   2.262   9.540  1.00  0.00     0.281 C 
ATOM     10  C   UNL     1       0.318   1.589   7.525  1.00  0.00     0.041 C 
ATOM     11  C   UNL     1      -0.336   2.979   7.749  1.00  0.00     0.150 C 
ATOM     12  C   UNL     1      -1.448   3.358   6.743  1.00  0.00     0.174 C 
ATOM     13  O   UNL     1      -0.775   3.219   9.086  1.00  0.00    -0.344 OA
ATOM     14  C   UNL     1      -2.855   2.836   7.238  1.00  0.00     0.179 C 
ATOM     15  C   UNL     1      -2.791   1.853   8.433  1.00  0.00     0.202 C 
BRANCH  12  16
ATOM     16  O   UNL     1      -1.095   2.926   5.449  1.00  0.00    -0.388 OA
ATOM     17  H   UNL     1      -0.093   2.843   5.418  1.00  0.00     0.211 HD
ENDBRANCH  12  16
BRANCH  14  18
ATOM     18  O   UNL     1      -3.718   2.323   6.238  1.00  0.00    -0.387 OA
ATOM     19  H   UNL     1      -3.552   1.355   6.109  1.00  0.00     0.211 HD
ENDBRANCH  14  18
BRANCH  15  20
ATOM     20  O   UNL     1      -4.087   1.776   8.960  1.00  0.00    -0.385 OA
ATOM     21  H   UNL     1      -4.687   1.484   8.221  1.00  0.00     0.211 HD
ENDBRANCH  15  20
ENDBRANCH   8   9
ENDBRANCH   7   8
ENDBRANCH   1   7
BRANCH   2  22
ATOM     22  O   UNL     1      -4.210   3.587  13.073  1.00  0.00    -0.387 OA
ATOM     23  H   UNL     1      -4.814   4.017  13.737  1.00  0.00     0.211 HD
ENDBRANCH   2  22
BRANCH   3  24
ATOM     24  O   UNL     1      -7.009   2.866  12.623  1.00  0.00    -0.387 OA
ATOM     25  H   UNL     1      -7.704   2.152  12.740  1.00  0.00     0.211 HD
ENDBRANCH   3  24
BRANCH   5  26
ATOM     26  O   UNL     1      -5.355  -1.469  11.356  1.00  0.00    -0.454 OA
BRANCH  26  27
ATOM     27  C   UNL     1      -4.172  -2.218  11.198  1.00  0.00     0.214 A 
ATOM     28  C   UNL     1      -3.686  -2.978  12.277  1.00  0.00     0.180 A 
ATOM     29  C   UNL     1      -3.334  -1.981  10.107  1.00  0.00     0.239 A 
ATOM     30  O   UNL     1      -2.408  -3.343  12.308  1.00  0.00    -0.452 OA
ATOM     31  C   UNL     1      -1.974  -2.350  10.188  1.00  0.00     0.111 A 
ATOM     32  O   UNL     1      -3.785  -1.364   9.104  1.00  0.00    -0.285 OA
ATOM     33  C   UNL     1      -1.546  -3.053  11.341  1.00  0.00     0.146 A 
ATOM     34  C   UNL     1      -1.020  -2.002   9.203  1.00  0.00     0.134 A 
ATOM     35  C   UNL     1      -0.206  -3.399  11.499  1.00  0.00     0.094 A 
ATOM     36  C   UNL     1       0.324  -2.343   9.402  1.00  0.00     0.093 A 
ATOM     37  C   UNL     1       0.736  -3.043  10.540  1.00  0.00     0.123 A 
BRANCH  28  38
ATOM     38  C   UNL     1      -4.558  -3.273  13.431  1.00  0.00     0.025 A 
ATOM     39  C   UNL     1      -5.041  -4.578  13.594  1.00  0.00     0.062 A 
ATOM     40  C   UNL     1      -4.888  -2.286  14.359  1.00  0.00     0.016 A 
ATOM     41  C   UNL     1      -5.866  -4.902  14.678  1.00  0.00     0.158 A 
ATOM     42  C   UNL     1      -5.720  -2.600  15.447  1.00  0.00     0.051 A 
ATOM     43  C   UNL     1      -6.210  -3.903  15.608  1.00  0.00     0.157 A 
BRANCH  41  44
ATOM     44  O   UNL     1      -6.286  -6.220  14.841  1.00  0.00    -0.504 OA
ATOM     45  H   UNL     1      -5.827  -7.002  14.371  1.00  0.00     0.293 HD
ENDBRANCH  41  44
BRANCH  43  46
ATOM     46  O   UNL     1      -7.053  -4.225  16.670  1.00  0.00    -0.504 OA
ATOM     47  H   UNL     1      -7.680  -5.043  16.624  1.00  0.00     0.293 HD
ENDBRANCH  43  46
ENDBRANCH  28  38
BRANCH  34  48
ATOM     48  O   UNL     1      -1.376  -1.293   8.056  1.00  0.00    -0.507 OA
ATOM     49  H   UNL     1      -2.016  -0.503   8.091  1.00  0.00     0.293 HD
ENDBRANCH  34  48
BRANCH  37  50
ATOM     50  O   UNL     1       2.081  -3.370  10.713  1.00  0.00    -0.508 OA
ATOM     51  H   UNL     1       2.431  -4.294  10.511  1.00  0.00     0.293 HD
ENDBRANCH  37  50
ENDBRANCH  26  27
ENDBRANCH   5  26
BRANCH   4  52
ATOM     52  O   UNL     1      -7.539   0.428  11.943  1.00  0.00    -0.384 OA
ATOM     53  H   UNL     1      -7.765   1.040  12.693  1.00  0.00     0.211 HD
ENDBRANCH   4  52
TORSDOF 16
ENDMDL
MODEL 7
REMARK VINA RESULT:    -7.075      1.903      7.526
REMARK INTER + INTRA:         -13.463
REMARK INTER:                 -13.609
REMARK INTRA:                   0.146
REMARK UNBOUND:                -1.839
REMARK SMILES C[C@@H]1O[C@@H](OC[C@@H]2O[C@H](Oc3c(-c4ccc(O)c(O)c4)oc4cc(O)cc(O)c4c3=O)[C@@H](O)[C@@H](O)[C@@H]2O)[C@@H](O)[C@H](O)[C@@H]1O
REMARK SMILES IDX 7 1 36 2 34 3 32 4 9 5 8 6 6 7 5 8 4 9 1 10 2 11 42 12 3 13
REMARK SMILES IDX 40 14 38 15 43 16 41 18 39 20 37 22 35 24 10 26 11 27 12 28
REMARK SMILES IDX 30 29 21 30 29 31 31 32 22 33 27 34 23 35 26 36 24 37 13 38
REMARK SMILES IDX 20 39 14 40 18 41 15 42 16 43 19 44 17 46 28 48 25 50 33 52
REMARK H PARENT 43 17 41 19 39 21 37 23 35 25 19 45 17 47 28 49 25 51 33 53
REMARK Flexibility Score: inf
ROOT
ATOM      1  C   UNL     1      -5.378  -3.284  11.752  1.00  0.00     0.180 C 
ATOM      2  C   UNL     1      -5.936  -3.484  10.287  1.00  0.00     0.177 C 
ATOM      3  C   UNL     1      -5.676  -2.233   9.374  1.00  0.00     0.180 C 
ATOM      4  C   UNL     1      -4.250  -1.599   9.557  1.00  0.00     0.214 C 
ATOM      5  C   UNL     1      -3.577  -2.300  10.737  1.00  0.00     0.339 C 
ATOM      6  O   UNL     1      -4.467  -2.204  11.841  1.00  0.00    -0.332 OA
ENDROOT
BRANCH   1   7
ATOM      7  C   UNL     1      -6.432  -3.245  12.880  1.00  0.00     0.198 C 
BRANCH   7   8
ATOM      8  O   UNL     1      -5.930  -3.801  14.102  1.00  0.00    -0.347 OA
BRANCH   8   9
ATOM      9  C   UNL     1      -6.733  -4.852  14.633  1.00  0.00     0.281 C 
ATOM     10  C   UNL     1      -9.044  -6.391  15.641  1.00  0.00     0.041 C 
ATOM     11  C   UNL     1      -8.356  -5.190  16.344  1.00  0.00     0.150 C 
ATOM     12  C   UNL     1      -7.389  -5.559  17.493  1.00  0.00     0.174 C 
ATOM     13  O   UNL     1      -7.738  -4.258  15.456  1.00  0.00    -0.344 OA
ATOM     14  C   UNL     1      -5.931  -5.815  16.938  1.00  0.00     0.179 C 
ATOM     15  C   UNL     1      -5.839  -5.915  15.395  1.00  0.00     0.202 C 
BRANCH  12  16
ATOM     16  O   UNL     1      -7.917  -6.630  18.242  1.00  0.00    -0.388 OA
ATOM     17  H   UNL     1      -7.143  -7.162  18.600  1.00  0.00     0.211 HD
ENDBRANCH  12  16
BRANCH  14  18
ATOM     18  O   UNL     1      -5.215  -6.884  17.533  1.00  0.00    -0.387 OA
ATOM     19  H   UNL     1      -5.555  -7.751  17.195  1.00  0.00     0.211 HD
ENDBRANCH  14  18
BRANCH  15  20
ATOM     20  O   UNL     1      -4.484  -5.782  15.064  1.00  0.00    -0.385 OA
ATOM     21  H   UNL     1      -4.037  -6.637  15.311  1.00  0.00     0.211 HD
ENDBRANCH  15  20
ENDBRANCH   8   9
ENDBRANCH   7   8
ENDBRANCH   1   7
BRANCH   2  22
ATOM     22  O   UNL     1      -7.302  -3.795  10.276  1.00  0.00    -0.387 OA
ATOM     23  H   UNL     1      -7.792  -3.015   9.899  1.00  0.00     0.211 HD
ENDBRANCH   2  22
BRANCH   3  24
ATOM     24  O   UNL     1      -5.906  -2.553   8.025  1.00  0.00    -0.387 OA
ATOM     25  H   UNL     1      -6.235  -1.717   7.578  1.00  0.00     0.211 HD
ENDBRANCH   3  24
BRANCH   5  26
ATOM     26  O   UNL     1      -2.269  -1.840  11.090  1.00  0.00    -0.454 OA
BRANCH  26  27
ATOM     27  C   UNL     1      -1.934  -0.529  10.693  1.00  0.00     0.214 A 
ATOM     28  C   UNL     1      -2.639   0.559  11.238  1.00  0.00     0.180 A 
ATOM     29  C   UNL     1      -1.137  -0.321   9.566  1.00  0.00     0.239 A 
ATOM     30  O   UNL     1      -2.646   1.728  10.606  1.00  0.00    -0.452 OA
ATOM     31  C   UNL     1      -1.196   0.921   8.899  1.00  0.00     0.111 A 
ATOM     32  O   UNL     1      -0.445  -1.273   9.116  1.00  0.00    -0.285 OA
ATOM     33  C   UNL     1      -1.985   1.946   9.476  1.00  0.00     0.146 A 
ATOM     34  C   UNL     1      -0.552   1.164   7.663  1.00  0.00     0.134 A 
ATOM     35  C   UNL     1      -2.121   3.176   8.836  1.00  0.00     0.094 A 
ATOM     36  C   UNL     1      -0.728   2.403   7.033  1.00  0.00     0.093 A 
ATOM     37  C   UNL     1      -1.504   3.411   7.612  1.00  0.00     0.123 A 
BRANCH  28  38
ATOM     38  C   UNL     1      -3.465   0.378  12.448  1.00  0.00     0.025 A 
ATOM     39  C   UNL     1      -4.812   0.759  12.408  1.00  0.00     0.062 A 
ATOM     40  C   UNL     1      -2.932  -0.178  13.611  1.00  0.00     0.016 A 
ATOM     41  C   UNL     1      -5.633   0.599  13.532  1.00  0.00     0.158 A 
ATOM     42  C   UNL     1      -3.746  -0.337  14.746  1.00  0.00     0.051 A 
ATOM     43  C   UNL     1      -5.092   0.051  14.710  1.00  0.00     0.157 A 
BRANCH  41  44
ATOM     44  O   UNL     1      -6.981   0.938  13.442  1.00  0.00    -0.504 OA
ATOM     45  H   UNL     1      -7.671   0.619  14.122  1.00  0.00     0.293 HD
ENDBRANCH  41  44
BRANCH  43  46
ATOM     46  O   UNL     1      -5.906  -0.082  15.833  1.00  0.00    -0.504 OA
ATOM     47  H   UNL     1      -6.908   0.162  15.797  1.00  0.00     0.293 HD
ENDBRANCH  43  46
ENDBRANCH  28  38
BRANCH  34  48
ATOM     48  O   UNL     1       0.221   0.188   7.035  1.00  0.00    -0.507 OA
ATOM     49  H   UNL     1       0.857   0.413   6.274  1.00  0.00     0.293 HD
ENDBRANCH  34  48
BRANCH  37  50
ATOM     50  O   UNL     1      -1.661   4.635   6.963  1.00  0.00    -0.508 OA
ATOM     51  H   UNL     1      -1.719   4.697   5.957  1.00  0.00     0.293 HD
ENDBRANCH  37  50
ENDBRANCH  26  27
ENDBRANCH   5  26
BRANCH   4  52
ATOM     52  O   UNL     1      -3.473  -1.758   8.398  1.00  0.00    -0.384 OA
ATOM     53  H   UNL     1      -3.977  -1.346   7.646  1.00  0.00     0.211 HD
ENDBRANCH   4  52
TORSDOF 16
ENDMDL
MODEL 8
REMARK VINA RESULT:    -6.961      2.061      8.002
REMARK INTER + INTRA:         -13.276
REMARK INTER:                 -13.476
REMARK INTRA:                   0.200
REMARK UNBOUND:                -1.839
REMARK SMILES C[C@@H]1O[C@@H](OC[C@@H]2O[C@H](Oc3c(-c4ccc(O)c(O)c4)oc4cc(O)cc(O)c4c3=O)[C@@H](O)[C@@H](O)[C@@H]2O)[C@@H](O)[C@H](O)[C@@H]1O
REMARK SMILES IDX 7 1 36 2 34 3 32 4 9 5 8 6 6 7 5 8 4 9 1 10 2 11 42 12 3 13
REMARK SMILES IDX 40 14 38 15 43 16 41 18 39 20 37 22 35 24 10 26 11 27 12 28
REMARK SMILES IDX 30 29 21 30 29 31 31 32 22 33 27 34 23 35 26 36 24 37 13 38
REMARK SMILES IDX 20 39 14 40 18 41 15 42 16 43 19 44 17 46 28 48 25 50 33 52
REMARK H PARENT 43 17 41 19 39 21 37 23 35 25 19 45 17 47 28 49 25 51 33 53
REMARK Flexibility Score: inf
ROOT
ATOM      1  C   UNL     1      -3.518  -2.930  13.327  1.00  0.00     0.180 C 
ATOM      2  C   UNL     1      -1.956  -3.105  13.160  1.00  0.00     0.177 C 
ATOM      3  C   UNL     1      -1.432  -2.510  11.803  1.00  0.00     0.180 C 
ATOM      4  C   UNL     1      -2.082  -1.132  11.421  1.00  0.00     0.214 C 
ATOM      5  C   UNL     1      -3.200  -0.851  12.424  1.00  0.00     0.339 C 
ATOM      6  O   UNL     1      -4.056  -1.984  12.423  1.00  0.00    -0.332 OA
ENDROOT
BRANCH   1   7
ATOM      7  C   UNL     1      -4.346  -4.233  13.363  1.00  0.00     0.198 C 
BRANCH   7   8
ATOM      8  O   UNL     1      -5.528  -4.095  14.162  1.00  0.00    -0.347 OA
BRANCH   8   9
ATOM      9  C   UNL     1      -5.652  -5.079  15.187  1.00  0.00     0.281 C 
ATOM     10  C   UNL     1      -5.710  -7.668  16.608  1.00  0.00     0.041 C 
ATOM     11  C   UNL     1      -6.736  -7.167  15.556  1.00  0.00     0.150 C 
ATOM     12  C   UNL     1      -8.065  -6.625  16.132  1.00  0.00     0.174 C 
ATOM     13  O   UNL     1      -6.203  -6.255  14.595  1.00  0.00    -0.344 OA
ATOM     14  C   UNL     1      -7.947  -5.083  16.459  1.00  0.00     0.179 C 
ATOM     15  C   UNL     1      -6.504  -4.523  16.402  1.00  0.00     0.202 C 
BRANCH  12  16
ATOM     16  O   UNL     1      -8.475  -7.416  17.223  1.00  0.00    -0.388 OA
ATOM     17  H   UNL     1      -9.311  -7.005  17.601  1.00  0.00     0.211 HD
ENDBRANCH  12  16
BRANCH  14  18
ATOM     18  O   UNL     1      -8.587  -4.645  17.645  1.00  0.00    -0.387 OA
ATOM     19  H   UNL     1      -9.549  -4.481  17.471  1.00  0.00     0.211 HD
ENDBRANCH  14  18
BRANCH  15  20
ATOM     20  O   UNL     1      -6.616  -3.127  16.358  1.00  0.00    -0.385 OA
ATOM     21  H   UNL     1      -7.413  -2.915  15.800  1.00  0.00     0.211 HD
ENDBRANCH  15  20
ENDBRANCH   8   9
ENDBRANCH   7   8
ENDBRANCH   1   7
BRANCH   2  22
ATOM     22  O   UNL     1      -1.555  -4.442  13.271  1.00  0.00    -0.387 OA
ATOM     23  H   UNL     1      -2.295  -4.950  13.701  1.00  0.00     0.211 HD
ENDBRANCH   2  22
BRANCH   3  24
ATOM     24  O   UNL     1      -0.031  -2.410  11.820  1.00  0.00    -0.387 OA
ATOM     25  H   UNL     1       0.193  -1.479  12.120  1.00  0.00     0.211 HD
ENDBRANCH   3  24
BRANCH   5  26
ATOM     26  O   UNL     1      -3.944   0.356  12.227  1.00  0.00    -0.454 OA
BRANCH  26  27
ATOM     27  C   UNL     1      -3.921   0.905  10.928  1.00  0.00     0.214 A 
ATOM     28  C   UNL     1      -4.483   0.180   9.863  1.00  0.00     0.180 A 
ATOM     29  C   UNL     1      -3.099   1.996  10.644  1.00  0.00     0.239 A 
ATOM     30  O   UNL     1      -4.123   0.452   8.612  1.00  0.00    -0.452 OA
ATOM     31  C   UNL     1      -2.707   2.235   9.309  1.00  0.00     0.111 A 
ATOM     32  O   UNL     1      -2.651   2.695  11.592  1.00  0.00    -0.285 OA
ATOM     33  C   UNL     1      -3.264   1.415   8.298  1.00  0.00     0.146 A 
ATOM     34  C   UNL     1      -1.749   3.212   8.949  1.00  0.00     0.134 A 
ATOM     35  C   UNL     1      -2.877   1.572   6.969  1.00  0.00     0.094 A 
ATOM     36  C   UNL     1      -1.363   3.330   7.608  1.00  0.00     0.093 A 
ATOM     37  C   UNL     1      -1.923   2.520   6.616  1.00  0.00     0.123 A 
BRANCH  28  38
ATOM     38  C   UNL     1      -5.383  -0.960  10.131  1.00  0.00     0.025 A 
ATOM     39  C   UNL     1      -5.061  -2.213   9.596  1.00  0.00     0.062 A 
ATOM     40  C   UNL     1      -6.525  -0.809  10.917  1.00  0.00     0.016 A 
ATOM     41  C   UNL     1      -5.884  -3.322   9.832  1.00  0.00     0.158 A 
ATOM     42  C   UNL     1      -7.361  -1.914  11.153  1.00  0.00     0.051 A 
ATOM     43  C   UNL     1      -7.045  -3.167  10.613  1.00  0.00     0.157 A 
BRANCH  41  44
ATOM     44  O   UNL     1      -5.508  -4.566   9.330  1.00  0.00    -0.504 OA
ATOM     45  H   UNL     1      -6.119  -5.121   8.730  1.00  0.00     0.293 HD
ENDBRANCH  41  44
BRANCH  43  46
ATOM     46  O   UNL     1      -7.874  -4.268  10.822  1.00  0.00    -0.504 OA
ATOM     47  H   UNL     1      -8.202  -4.516  11.769  1.00  0.00     0.293 HD
ENDBRANCH  43  46
ENDBRANCH  28  38
BRANCH  34  48
ATOM     48  O   UNL     1      -1.150   4.036   9.902  1.00  0.00    -0.507 OA
ATOM     49  H   UNL     1      -0.238   3.823  10.298  1.00  0.00     0.293 HD
ENDBRANCH  34  48
BRANCH  37  50
ATOM     50  O   UNL     1      -1.520   2.659   5.288  1.00  0.00    -0.508 OA
ATOM     51  H   UNL     1      -1.993   2.178   4.538  1.00  0.00     0.293 HD
ENDBRANCH  37  50
ENDBRANCH  26  27
ENDBRANCH   5  26
BRANCH   4  52
ATOM     52  O   UNL     1      -1.132  -0.098  11.457  1.00  0.00    -0.384 OA
ATOM     53  H   UNL     1      -0.607  -0.148  10.614  1.00  0.00     0.211 HD
ENDBRANCH   4  52
TORSDOF 16
ENDMDL
MODEL 9
REMARK VINA RESULT:    -6.921      2.142      6.226
REMARK INTER + INTRA:         -13.210
REMARK INTER:                 -10.679
REMARK INTRA:                  -2.531
REMARK UNBOUND:                -1.839
REMARK SMILES C[C@@H]1O[C@@H](OC[C@@H]2O[C@H](Oc3c(-c4ccc(O)c(O)c4)oc4cc(O)cc(O)c4c3=O)[C@@H](O)[C@@H](O)[C@@H]2O)[C@@H](O)[C@H](O)[C@@H]1O
REMARK SMILES IDX 7 1 36 2 34 3 32 4 9 5 8 6 6 7 5 8 4 9 1 10 2 11 42 12 3 13
REMARK SMILES IDX 40 14 38 15 43 16 41 18 39 20 37 22 35 24 10 26 11 27 12 28
REMARK SMILES IDX 30 29 21 30 29 31 31 32 22 33 27 34 23 35 26 36 24 37 13 38
REMARK SMILES IDX 20 39 14 40 18 41 15 42 16 43 19 44 17 46 28 48 25 50 33 52
REMARK H PARENT 43 17 41 19 39 21 37 23 35 25 19 45 17 47 28 49 25 51 33 53
REMARK Flexibility Score: inf
ROOT
ATOM      1  C   UNL     1      -3.234   1.040  12.329  1.00  0.00     0.180 C 
ATOM      2  C   UNL     1      -4.404   1.991  12.802  1.00  0.00     0.177 C 
ATOM      3  C   UNL     1      -5.696   1.829  11.923  1.00  0.00     0.180 C 
ATOM      4  C   UNL     1      -6.036   0.338  11.563  1.00  0.00     0.214 C 
ATOM      5  C   UNL     1      -4.873  -0.532  12.039  1.00  0.00     0.339 C 
ATOM      6  O   UNL     1      -3.688   0.009  11.472  1.00  0.00    -0.332 OA
ENDROOT
BRANCH   1   7
ATOM      7  C   UNL     1      -1.973   1.738  11.775  1.00  0.00     0.198 C 
BRANCH   7   8
ATOM      8  O   UNL     1      -2.263   2.525  10.612  1.00  0.00    -0.347 OA
BRANCH   8   9
ATOM      9  C   UNL     1      -1.667   2.030   9.415  1.00  0.00     0.281 C 
ATOM     10  C   UNL     1       0.294   1.428   7.290  1.00  0.00     0.041 C 
ATOM     11  C   UNL     1      -0.320   2.816   7.615  1.00  0.00     0.150 C 
ATOM     12  C   UNL     1      -1.458   3.275   6.674  1.00  0.00     0.174 C 
ATOM     13  O   UNL     1      -0.704   2.989   8.980  1.00  0.00    -0.344 OA
ATOM     14  C   UNL     1      -2.858   2.755   7.193  1.00  0.00     0.179 C 
ATOM     15  C   UNL     1      -2.773   1.705   8.328  1.00  0.00     0.202 C 
BRANCH  12  16
ATOM     16  O   UNL     1      -1.162   2.909   5.346  1.00  0.00    -0.388 OA
ATOM     17  H   UNL     1      -1.971   3.116   4.786  1.00  0.00     0.211 HD
ENDBRANCH  12  16
BRANCH  14  18
ATOM     18  O   UNL     1      -3.769   2.318   6.199  1.00  0.00    -0.387 OA
ATOM     19  H   UNL     1      -4.652   2.747   6.335  1.00  0.00     0.211 HD
ENDBRANCH  14  18
BRANCH  15  20
ATOM     20  O   UNL     1      -4.051   1.626   8.898  1.00  0.00    -0.385 OA
ATOM     21  H   UNL     1      -4.092   0.771   9.407  1.00  0.00     0.211 HD
ENDBRANCH  15  20
ENDBRANCH   8   9
ENDBRANCH   7   8
ENDBRANCH   1   7
BRANCH   2  22
ATOM     22  O   UNL     1      -4.019   3.338  12.823  1.00  0.00    -0.387 OA
ATOM     23  H   UNL     1      -4.117   3.670  13.757  1.00  0.00     0.211 HD
ENDBRANCH   2  22
BRANCH   3  24
ATOM     24  O   UNL     1      -6.792   2.452  12.543  1.00  0.00    -0.387 OA
ATOM     25  H   UNL     1      -6.958   3.310  12.050  1.00  0.00     0.211 HD
ENDBRANCH   3  24
BRANCH   5  26
ATOM     26  O   UNL     1      -4.976  -1.935  11.772  1.00  0.00    -0.454 OA
BRANCH  26  27
ATOM     27  C   UNL     1      -4.765  -2.801  12.865  1.00  0.00     0.214 A 
ATOM     28  C   UNL     1      -3.547  -3.497  12.968  1.00  0.00     0.180 A 
ATOM     29  C   UNL     1      -5.839  -3.197  13.663  1.00  0.00     0.239 A 
ATOM     30  O   UNL     1      -3.473  -4.594  13.715  1.00  0.00    -0.452 OA
ATOM     31  C   UNL     1      -5.738  -4.387  14.415  1.00  0.00     0.111 A 
ATOM     32  O   UNL     1      -6.910  -2.532  13.630  1.00  0.00    -0.285 OA
ATOM     33  C   UNL     1      -4.498  -5.069  14.412  1.00  0.00     0.146 A 
ATOM     34  C   UNL     1      -6.829  -4.949  15.119  1.00  0.00     0.134 A 
ATOM     35  C   UNL     1      -4.353  -6.274  15.096  1.00  0.00     0.094 A 
ATOM     36  C   UNL     1      -6.660  -6.174  15.776  1.00  0.00     0.093 A 
ATOM     37  C   UNL     1      -5.429  -6.838  15.773  1.00  0.00     0.123 A 
BRANCH  28  38
ATOM     38  C   UNL     1      -2.383  -3.082  12.162  1.00  0.00     0.025 A 
ATOM     39  C   UNL     1      -2.483  -3.117  10.765  1.00  0.00     0.062 A 
ATOM     40  C   UNL     1      -1.205  -2.642  12.765  1.00  0.00     0.016 A 
ATOM     41  C   UNL     1      -1.403  -2.726   9.962  1.00  0.00     0.158 A 
ATOM     42  C   UNL     1      -0.114  -2.254  11.969  1.00  0.00     0.051 A 
ATOM     43  C   UNL     1      -0.210  -2.296  10.572  1.00  0.00     0.157 A 
BRANCH  41  44
ATOM     44  O   UNL     1      -1.554  -2.723   8.578  1.00  0.00    -0.504 OA
ATOM     45  H   UNL     1      -2.396  -2.372   8.120  1.00  0.00     0.293 HD
ENDBRANCH  41  44
BRANCH  43  46
ATOM     46  O   UNL     1       0.870  -1.933   9.768  1.00  0.00    -0.504 OA
ATOM     47  H   UNL     1       1.042  -2.398   8.864  1.00  0.00     0.293 HD
ENDBRANCH  43  46
ENDBRANCH  28  38
BRANCH  34  48
ATOM     48  O   UNL     1      -8.081  -4.336  15.142  1.00  0.00    -0.507 OA
ATOM     49  H   UNL     1      -8.286  -3.555  15.761  1.00  0.00     0.293 HD
ENDBRANCH  34  48
BRANCH  37  50
ATOM     50  O   UNL     1      -5.289  -8.056  16.437  1.00  0.00    -0.508 OA
ATOM     51  H   UNL     1      -4.388  -8.389  16.748  1.00  0.00     0.293 HD
ENDBRANCH  37  50
ENDBRANCH  26  27
ENDBRANCH   5  26
BRANCH   4  52
ATOM     52  O   UNL     1      -7.228  -0.072  12.182  1.00  0.00    -0.384 OA
ATOM     53  H   UNL     1      -7.644  -0.761  11.598  1.00  0.00     0.211 HD
ENDBRANCH   4  52
TORSDOF 16
ENDMDL
