MODEL 1
REMARK VINA RESULT:    -3.652      0.000      0.000
REMARK INTER + INTRA:          -8.308
REMARK INTER:                  -6.641
REMARK INTRA:                  -1.667
REMARK UNBOUND:                -1.667
REMARK SMILES CCCCCCCCCCCCCCCC(=O)[O-]
REMARK SMILES IDX 9 1 10 2 11 3 12 4 13 5 14 6 15 7 16 8 17 9 18 10 8 11 7 12
REMARK SMILES IDX 6 13 5 14 4 15 3 16 2 17 1 18
REMARK H PARENT
REMARK Flexibility Score: inf
ROOT
ATOM      1  C   UNL     1     -14.947 -73.856 -11.138  1.00  0.00     0.000 C 
ENDROOT
BRANCH   1   2
ATOM      2  C   UNL     1     -14.446 -73.710  -9.691  1.00  0.00     0.000 C 
BRANCH   2   3
ATOM      3  C   UNL     1     -13.255 -72.746  -9.511  1.00  0.00     0.000 C 
BRANCH   3   4
ATOM      4  C   UNL     1     -11.958 -73.400  -8.997  1.00  0.00     0.000 C 
BRANCH   4   5
ATOM      5  C   UNL     1     -10.750 -73.291  -9.948  1.00  0.00     0.000 C 
BRANCH   5   6
ATOM      6  C   UNL     1     -10.575 -71.918 -10.619  1.00  0.00     0.006 C 
BRANCH   6   7
ATOM      7  C   UNL     1      -9.907 -70.886  -9.701  1.00  0.00     0.053 C 
BRANCH   7   8
ATOM      8  C   UNL     1      -8.589 -71.400  -9.211  1.00  0.00     0.041 C 
ATOM      9  O   UNL     1      -8.361 -71.483  -7.976  1.00  0.00    -0.550 OA
ATOM     10  O   UNL     1      -7.596 -71.742 -10.119  1.00  0.00    -0.550 OA
ENDBRANCH   7   8
ENDBRANCH   6   7
ENDBRANCH   5   6
ENDBRANCH   4   5
ENDBRANCH   3   4
ENDBRANCH   2   3
ENDBRANCH   1   2
BRANCH   1  11
ATOM     11  C   UNL     1     -14.365 -75.092 -11.848  1.00  0.00     0.000 C 
BRANCH  11  12
ATOM     12  C   UNL     1     -13.593 -76.012 -10.889  1.00  0.00    -0.000 C 
BRANCH  12  13
ATOM     13  C   UNL     1     -14.249 -77.398 -10.747  1.00  0.00    -0.000 C 
BRANCH  13  14
ATOM     14  C   UNL     1     -13.997 -78.035  -9.371  1.00  0.00    -0.000 C 
BRANCH  14  15
ATOM     15  C   UNL     1     -13.545 -77.008  -8.319  1.00  0.00    -0.000 C 
BRANCH  15  16
ATOM     16  C   UNL     1     -14.242 -77.197  -6.959  1.00  0.00    -0.000 C 
BRANCH  16  17
ATOM     17  C   UNL     1     -15.780 -77.155  -7.006  1.00  0.00    -0.003 C 
ATOM     18  C   UNL     1     -16.330 -75.786  -7.403  1.00  0.00     0.004 C 
ENDBRANCH  16  17
ENDBRANCH  15  16
ENDBRANCH  14  15
ENDBRANCH  13  14
ENDBRANCH  12  13
ENDBRANCH  11  12
ENDBRANCH   1  11
TORSDOF 14
ENDMDL
MODEL 2
REMARK VINA RESULT:    -3.531     11.091     13.066
REMARK INTER + INTRA:          -8.088
REMARK INTER:                  -5.750
REMARK INTRA:                  -2.339
REMARK UNBOUND:                -1.667
REMARK SMILES CCCCCCCCCCCCCCCC(=O)[O-]
REMARK SMILES IDX 9 1 10 2 11 3 12 4 13 5 14 6 15 7 16 8 17 9 18 10 8 11 7 12
REMARK SMILES IDX 6 13 5 14 4 15 3 16 2 17 1 18
REMARK H PARENT
REMARK Flexibility Score: inf
ROOT
ATOM      1  C   UNL     1      -6.203 -63.528  -5.473  1.00  0.00     0.000 C 
ENDROOT
BRANCH   1   2
ATOM      2  C   UNL     1      -5.380 -63.341  -6.759  1.00  0.00     0.000 C 
BRANCH   2   3
ATOM      3  C   UNL     1      -4.646 -64.607  -7.248  1.00  0.00     0.000 C 
BRANCH   3   4
ATOM      4  C   UNL     1      -5.450 -65.917  -7.119  1.00  0.00     0.000 C 
BRANCH   4   5
ATOM      5  C   UNL     1      -4.611 -67.167  -6.786  1.00  0.00     0.000 C 
BRANCH   5   6
ATOM      6  C   UNL     1      -3.610 -66.987  -5.633  1.00  0.00     0.006 C 
BRANCH   6   7
ATOM      7  C   UNL     1      -4.249 -67.183  -4.252  1.00  0.00     0.053 C 
BRANCH   7   8
ATOM      8  C   UNL     1      -4.193 -65.911  -3.466  1.00  0.00     0.041 C 
ATOM      9  O   UNL     1      -4.936 -65.754  -2.462  1.00  0.00    -0.550 OA
ATOM     10  O   UNL     1      -3.354 -64.881  -3.871  1.00  0.00    -0.550 OA
ENDBRANCH   7   8
ENDBRANCH   6   7
ENDBRANCH   5   6
ENDBRANCH   4   5
ENDBRANCH   3   4
ENDBRANCH   2   3
ENDBRANCH   1   2
BRANCH   1  11
ATOM     11  C   UNL     1      -7.467 -62.650  -5.442  1.00  0.00     0.000 C 
BRANCH  11  12
ATOM     12  C   UNL     1      -8.301 -62.775  -6.726  1.00  0.00    -0.000 C 
BRANCH  12  13
ATOM     13  C   UNL     1      -9.121 -64.077  -6.771  1.00  0.00    -0.000 C 
BRANCH  13  14
ATOM     14  C   UNL     1      -8.784 -64.950  -7.991  1.00  0.00    -0.000 C 
BRANCH  14  15
ATOM     15  C   UNL     1      -8.682 -64.132  -9.290  1.00  0.00    -0.000 C 
BRANCH  15  16
ATOM     16  C   UNL     1      -7.295 -64.231  -9.953  1.00  0.00    -0.000 C 
BRANCH  16  17
ATOM     17  C   UNL     1      -6.868 -62.988 -10.754  1.00  0.00    -0.003 C 
ATOM     18  C   UNL     1      -6.492 -61.803  -9.865  1.00  0.00     0.004 C 
ENDBRANCH  16  17
ENDBRANCH  15  16
ENDBRANCH  14  15
ENDBRANCH  13  14
ENDBRANCH  12  13
ENDBRANCH  11  12
ENDBRANCH   1  11
TORSDOF 14
ENDMDL
MODEL 3
REMARK VINA RESULT:    -3.473     11.296     13.473
REMARK INTER + INTRA:          -7.982
REMARK INTER:                  -5.609
REMARK INTRA:                  -2.372
REMARK UNBOUND:                -1.667
REMARK SMILES CCCCCCCCCCCCCCCC(=O)[O-]
REMARK SMILES IDX 9 1 10 2 11 3 12 4 13 5 14 6 15 7 16 8 17 9 18 10 8 11 7 12
REMARK SMILES IDX 6 13 5 14 4 15 3 16 2 17 1 18
REMARK H PARENT
REMARK Flexibility Score: inf
ROOT
ATOM      1  C   UNL     1      -6.310 -65.258  -7.462  1.00  0.00     0.000 C 
ENDROOT
BRANCH   1   2
ATOM      2  C   UNL     1      -5.246 -64.147  -7.492  1.00  0.00     0.000 C 
BRANCH   2   3
ATOM      3  C   UNL     1      -5.115 -63.341  -6.183  1.00  0.00     0.000 C 
BRANCH   3   4
ATOM      4  C   UNL     1      -5.978 -63.853  -5.012  1.00  0.00     0.000 C 
BRANCH   4   5
ATOM      5  C   UNL     1      -5.201 -64.177  -3.721  1.00  0.00     0.000 C 
BRANCH   5   6
ATOM      6  C   UNL     1      -3.914 -64.995  -3.926  1.00  0.00     0.006 C 
BRANCH   6   7
ATOM      7  C   UNL     1      -4.189 -66.440  -4.360  1.00  0.00     0.053 C 
BRANCH   7   8
ATOM      8  C   UNL     1      -3.417 -66.769  -5.599  1.00  0.00     0.041 C 
ATOM      9  O   UNL     1      -3.677 -67.815  -6.248  1.00  0.00    -0.550 OA
ATOM     10  O   UNL     1      -2.378 -65.944  -6.009  1.00  0.00    -0.550 OA
ENDBRANCH   7   8
ENDBRANCH   6   7
ENDBRANCH   5   6
ENDBRANCH   4   5
ENDBRANCH   3   4
ENDBRANCH   2   3
ENDBRANCH   1   2
BRANCH   1  11
ATOM     11  C   UNL     1      -7.573 -64.896  -8.262  1.00  0.00     0.000 C 
BRANCH  11  12
ATOM     12  C   UNL     1      -8.729 -64.436  -7.360  1.00  0.00    -0.000 C 
BRANCH  12  13
ATOM     13  C   UNL     1      -8.961 -62.915  -7.429  1.00  0.00    -0.000 C 
BRANCH  13  14
ATOM     14  C   UNL     1      -9.442 -62.450  -8.813  1.00  0.00    -0.000 C 
BRANCH  14  15
ATOM     15  C   UNL     1      -8.622 -61.266  -9.355  1.00  0.00    -0.000 C 
BRANCH  15  16
ATOM     16  C   UNL     1      -7.239 -61.141  -8.688  1.00  0.00    -0.000 C 
BRANCH  16  17
ATOM     17  C   UNL     1      -6.043 -61.422  -9.616  1.00  0.00    -0.003 C 
ATOM     18  C   UNL     1      -6.386 -62.369 -10.766  1.00  0.00     0.004 C 
ENDBRANCH  16  17
ENDBRANCH  15  16
ENDBRANCH  14  15
ENDBRANCH  13  14
ENDBRANCH  12  13
ENDBRANCH  11  12
ENDBRANCH   1  11
TORSDOF 14
ENDMDL
MODEL 4
REMARK VINA RESULT:    -3.467     12.174     14.463
REMARK INTER + INTRA:          -7.971
REMARK INTER:                  -5.893
REMARK INTRA:                  -2.078
REMARK UNBOUND:                -1.667
REMARK SMILES CCCCCCCCCCCCCCCC(=O)[O-]
REMARK SMILES IDX 9 1 10 2 11 3 12 4 13 5 14 6 15 7 16 8 17 9 18 10 8 11 7 12
REMARK SMILES IDX 6 13 5 14 4 15 3 16 2 17 1 18
REMARK H PARENT
REMARK Flexibility Score: inf
ROOT
ATOM      1  C   UNL     1      -5.168 -64.345  -3.186  1.00  0.00     0.000 C 
ENDROOT
BRANCH   1   2
ATOM      2  C   UNL     1      -4.400 -63.035  -3.434  1.00  0.00     0.000 C 
BRANCH   2   3
ATOM      3  C   UNL     1      -2.934 -63.218  -3.877  1.00  0.00     0.000 C 
BRANCH   3   4
ATOM      4  C   UNL     1      -2.436 -62.199  -4.922  1.00  0.00     0.000 C 
BRANCH   4   5
ATOM      5  C   UNL     1      -2.896 -62.470  -6.368  1.00  0.00     0.000 C 
BRANCH   5   6
ATOM      6  C   UNL     1      -1.800 -62.998  -7.309  1.00  0.00     0.006 C 
BRANCH   6   7
ATOM      7  C   UNL     1      -0.386 -62.792  -6.752  1.00  0.00     0.053 C 
BRANCH   7   8
ATOM      8  C   UNL     1       0.323 -64.105  -6.633  1.00  0.00     0.041 C 
ATOM      9  O   UNL     1       1.053 -64.342  -5.635  1.00  0.00    -0.550 OA
ATOM     10  O   UNL     1       0.216 -65.047  -7.647  1.00  0.00    -0.550 OA
ENDBRANCH   7   8
ENDBRANCH   6   7
ENDBRANCH   5   6
ENDBRANCH   4   5
ENDBRANCH   3   4
ENDBRANCH   2   3
ENDBRANCH   1   2
BRANCH   1  11
ATOM     11  C   UNL     1      -4.236 -65.541  -2.922  1.00  0.00     0.000 C 
BRANCH  11  12
ATOM     12  C   UNL     1      -4.616 -66.777  -3.752  1.00  0.00    -0.000 C 
BRANCH  12  13
ATOM     13  C   UNL     1      -3.565 -67.110  -4.827  1.00  0.00    -0.000 C 
BRANCH  13  14
ATOM     14  C   UNL     1      -3.653 -66.183  -6.050  1.00  0.00    -0.000 C 
BRANCH  14  15
ATOM     15  C   UNL     1      -4.729 -66.634  -7.054  1.00  0.00    -0.000 C 
BRANCH  15  16
ATOM     16  C   UNL     1      -5.490 -65.454  -7.686  1.00  0.00    -0.000 C 
BRANCH  16  17
ATOM     17  C   UNL     1      -5.982 -64.390  -6.689  1.00  0.00    -0.003 C 
ATOM     18  C   UNL     1      -7.479 -64.103  -6.810  1.00  0.00     0.004 C 
ENDBRANCH  16  17
ENDBRANCH  15  16
ENDBRANCH  14  15
ENDBRANCH  13  14
ENDBRANCH  12  13
ENDBRANCH  11  12
ENDBRANCH   1  11
TORSDOF 14
ENDMDL
MODEL 5
REMARK VINA RESULT:    -3.447     10.997     13.336
REMARK INTER + INTRA:          -7.936
REMARK INTER:                  -5.689
REMARK INTRA:                  -2.247
REMARK UNBOUND:                -1.667
REMARK SMILES CCCCCCCCCCCCCCCC(=O)[O-]
REMARK SMILES IDX 9 1 10 2 11 3 12 4 13 5 14 6 15 7 16 8 17 9 18 10 8 11 7 12
REMARK SMILES IDX 6 13 5 14 4 15 3 16 2 17 1 18
REMARK H PARENT
REMARK Flexibility Score: inf
ROOT
ATOM      1  C   UNL     1      -5.303 -64.878  -9.019  1.00  0.00     0.000 C 
ENDROOT
BRANCH   1   2
ATOM      2  C   UNL     1      -5.123 -66.076  -8.070  1.00  0.00     0.000 C 
BRANCH   2   3
ATOM      3  C   UNL     1      -5.315 -65.751  -6.574  1.00  0.00     0.000 C 
BRANCH   3   4
ATOM      4  C   UNL     1      -4.010 -65.551  -5.777  1.00  0.00     0.000 C 
BRANCH   4   5
ATOM      5  C   UNL     1      -3.807 -64.136  -5.200  1.00  0.00     0.000 C 
BRANCH   5   6
ATOM      6  C   UNL     1      -2.479 -63.463  -5.587  1.00  0.00     0.006 C 
BRANCH   6   7
ATOM      7  C   UNL     1      -1.906 -63.989  -6.909  1.00  0.00     0.053 C 
BRANCH   7   8
ATOM      8  C   UNL     1      -0.446 -64.282  -6.766  1.00  0.00     0.041 C 
ATOM      9  O   UNL     1       0.160 -64.933  -7.656  1.00  0.00    -0.550 OA
ATOM     10  O   UNL     1       0.235 -63.878  -5.625  1.00  0.00    -0.550 OA
ENDBRANCH   7   8
ENDBRANCH   6   7
ENDBRANCH   5   6
ENDBRANCH   4   5
ENDBRANCH   3   4
ENDBRANCH   2   3
ENDBRANCH   1   2
BRANCH   1  11
ATOM     11  C   UNL     1      -6.524 -65.030  -9.944  1.00  0.00     0.000 C 
BRANCH  11  12
ATOM     12  C   UNL     1      -7.712 -65.709  -9.243  1.00  0.00    -0.000 C 
BRANCH  12  13
ATOM     13  C   UNL     1      -8.787 -64.701  -8.797  1.00  0.00    -0.000 C 
BRANCH  13  14
ATOM     14  C   UNL     1      -8.852 -64.539  -7.270  1.00  0.00    -0.000 C 
BRANCH  14  15
ATOM     15  C   UNL     1      -8.794 -63.065  -6.831  1.00  0.00    -0.000 C 
BRANCH  15  16
ATOM     16  C   UNL     1      -7.495 -62.714  -6.081  1.00  0.00    -0.000 C 
BRANCH  16  17
ATOM     17  C   UNL     1      -6.377 -62.125  -6.960  1.00  0.00    -0.003 C 
ATOM     18  C   UNL     1      -6.901 -61.475  -8.240  1.00  0.00     0.004 C 
ENDBRANCH  16  17
ENDBRANCH  15  16
ENDBRANCH  14  15
ENDBRANCH  13  14
ENDBRANCH  12  13
ENDBRANCH  11  12
ENDBRANCH   1  11
TORSDOF 14
ENDMDL
MODEL 6
REMARK VINA RESULT:    -3.427     12.210     14.768
REMARK INTER + INTRA:          -7.899
REMARK INTER:                  -5.772
REMARK INTRA:                  -2.127
REMARK UNBOUND:                -1.667
REMARK SMILES CCCCCCCCCCCCCCCC(=O)[O-]
REMARK SMILES IDX 9 1 10 2 11 3 12 4 13 5 14 6 15 7 16 8 17 9 18 10 8 11 7 12
REMARK SMILES IDX 6 13 5 14 4 15 3 16 2 17 1 18
REMARK H PARENT
REMARK Flexibility Score: inf
ROOT
ATOM      1  C   UNL     1      -4.650 -66.800  -6.881  1.00  0.00     0.000 C 
ENDROOT
BRANCH   1   2
ATOM      2  C   UNL     1      -3.925 -66.361  -5.596  1.00  0.00     0.000 C 
BRANCH   2   3
ATOM      3  C   UNL     1      -4.233 -67.220  -4.353  1.00  0.00     0.000 C 
BRANCH   3   4
ATOM      4  C   UNL     1      -4.665 -66.427  -3.103  1.00  0.00     0.000 C 
BRANCH   4   5
ATOM      5  C   UNL     1      -4.549 -64.895  -3.229  1.00  0.00     0.000 C 
BRANCH   5   6
ATOM      6  C   UNL     1      -5.769 -64.109  -2.720  1.00  0.00     0.006 C 
BRANCH   6   7
ATOM      7  C   UNL     1      -5.779 -62.650  -3.197  1.00  0.00     0.053 C 
BRANCH   7   8
ATOM      8  C   UNL     1      -7.151 -62.069  -3.067  1.00  0.00     0.041 C 
ATOM      9  O   UNL     1      -7.837 -62.287  -2.034  1.00  0.00    -0.550 OA
ATOM     10  O   UNL     1      -7.692 -61.325  -4.108  1.00  0.00    -0.550 OA
ENDBRANCH   7   8
ENDBRANCH   6   7
ENDBRANCH   5   6
ENDBRANCH   4   5
ENDBRANCH   3   4
ENDBRANCH   2   3
ENDBRANCH   1   2
BRANCH   1  11
ATOM     11  C   UNL     1      -5.601 -65.720  -7.426  1.00  0.00     0.000 C 
BRANCH  11  12
ATOM     12  C   UNL     1      -5.798 -64.557  -6.440  1.00  0.00    -0.000 C 
BRANCH  12  13
ATOM     13  C   UNL     1      -5.342 -63.207  -7.024  1.00  0.00    -0.000 C 
BRANCH  13  14
ATOM     14  C   UNL     1      -3.815 -63.111  -7.174  1.00  0.00    -0.000 C 
BRANCH  14  15
ATOM     15  C   UNL     1      -3.120 -62.689  -5.868  1.00  0.00    -0.000 C 
BRANCH  15  16
ATOM     16  C   UNL     1      -1.682 -63.230  -5.754  1.00  0.00    -0.000 C 
BRANCH  16  17
ATOM     17  C   UNL     1      -1.230 -64.126  -6.921  1.00  0.00    -0.003 C 
ATOM     18  C   UNL     1       0.206 -64.627  -6.769  1.00  0.00     0.004 C 
ENDBRANCH  16  17
ENDBRANCH  15  16
ENDBRANCH  14  15
ENDBRANCH  13  14
ENDBRANCH  12  13
ENDBRANCH  11  12
ENDBRANCH   1  11
TORSDOF 14
ENDMDL
MODEL 7
REMARK VINA RESULT:    -3.420     10.879     12.845
REMARK INTER + INTRA:          -7.886
REMARK INTER:                  -5.518
REMARK INTRA:                  -2.368
REMARK UNBOUND:                -1.667
REMARK SMILES CCCCCCCCCCCCCCCC(=O)[O-]
REMARK SMILES IDX 9 1 10 2 11 3 12 4 13 5 14 6 15 7 16 8 17 9 18 10 8 11 7 12
REMARK SMILES IDX 6 13 5 14 4 15 3 16 2 17 1 18
REMARK H PARENT
REMARK Flexibility Score: inf
ROOT
ATOM      1  C   UNL     1      -6.024 -61.622  -8.464  1.00  0.00     0.000 C 
ENDROOT
BRANCH   1   2
ATOM      2  C   UNL     1      -5.384 -62.896  -9.043  1.00  0.00     0.000 C 
BRANCH   2   3
ATOM      3  C   UNL     1      -3.878 -63.054  -8.752  1.00  0.00     0.000 C 
BRANCH   3   4
ATOM      4  C   UNL     1      -3.484 -64.364  -8.041  1.00  0.00     0.000 C 
BRANCH   4   5
ATOM      5  C   UNL     1      -4.250 -65.617  -8.510  1.00  0.00     0.000 C 
BRANCH   5   6
ATOM      6  C   UNL     1      -5.127 -66.281  -7.435  1.00  0.00     0.006 C 
BRANCH   6   7
ATOM      7  C   UNL     1      -4.593 -66.065  -6.013  1.00  0.00     0.053 C 
BRANCH   7   8
ATOM      8  C   UNL     1      -4.082 -67.352  -5.447  1.00  0.00     0.041 C 
ATOM      9  O   UNL     1      -4.792 -68.390  -5.492  1.00  0.00    -0.550 OA
ATOM     10  O   UNL     1      -2.841 -67.393  -4.825  1.00  0.00    -0.550 OA
ENDBRANCH   7   8
ENDBRANCH   6   7
ENDBRANCH   5   6
ENDBRANCH   4   5
ENDBRANCH   3   4
ENDBRANCH   2   3
ENDBRANCH   1   2
BRANCH   1  11
ATOM     11  C   UNL     1      -6.513 -61.806  -7.017  1.00  0.00     0.000 C 
BRANCH  11  12
ATOM     12  C   UNL     1      -6.894 -63.262  -6.705  1.00  0.00    -0.000 C 
BRANCH  12  13
ATOM     13  C   UNL     1      -8.379 -63.415  -6.327  1.00  0.00    -0.000 C 
BRANCH  13  14
ATOM     14  C   UNL     1      -9.066 -64.569  -7.075  1.00  0.00    -0.000 C 
BRANCH  14  15
ATOM     15  C   UNL     1      -8.375 -64.900  -8.409  1.00  0.00    -0.000 C 
BRANCH  15  16
ATOM     16  C   UNL     1      -9.208 -64.482  -9.635  1.00  0.00    -0.000 C 
BRANCH  16  17
ATOM     17  C   UNL     1      -8.900 -63.076 -10.181  1.00  0.00    -0.003 C 
ATOM     18  C   UNL     1      -9.749 -61.983  -9.534  1.00  0.00     0.004 C 
ENDBRANCH  16  17
ENDBRANCH  15  16
ENDBRANCH  14  15
ENDBRANCH  13  14
ENDBRANCH  12  13
ENDBRANCH  11  12
ENDBRANCH   1  11
TORSDOF 14
ENDMDL
MODEL 8
REMARK VINA RESULT:    -3.401     10.244     12.509
REMARK INTER + INTRA:          -7.851
REMARK INTER:                  -5.718
REMARK INTRA:                  -2.133
REMARK UNBOUND:                -1.667
REMARK SMILES CCCCCCCCCCCCCCCC(=O)[O-]
REMARK SMILES IDX 9 1 10 2 11 3 12 4 13 5 14 6 15 7 16 8 17 9 18 10 8 11 7 12
REMARK SMILES IDX 6 13 5 14 4 15 3 16 2 17 1 18
REMARK H PARENT
REMARK Flexibility Score: inf
ROOT
ATOM      1  C   UNL     1      -8.591 -64.895  -8.770  1.00  0.00     0.000 C 
ENDROOT
BRANCH   1   2
ATOM      2  C   UNL     1      -7.432 -65.865  -9.062  1.00  0.00     0.000 C 
BRANCH   2   3
ATOM      3  C   UNL     1      -6.096 -65.185  -9.429  1.00  0.00     0.000 C 
BRANCH   3   4
ATOM      4  C   UNL     1      -5.092 -65.052  -8.267  1.00  0.00     0.000 C 
BRANCH   4   5
ATOM      5  C   UNL     1      -5.396 -65.930  -7.037  1.00  0.00     0.000 C 
BRANCH   5   6
ATOM      6  C   UNL     1      -4.286 -66.927  -6.661  1.00  0.00     0.006 C 
BRANCH   6   7
ATOM      7  C   UNL     1      -4.703 -68.389  -6.864  1.00  0.00     0.053 C 
BRANCH   7   8
ATOM      8  C   UNL     1      -4.712 -68.731  -8.321  1.00  0.00     0.041 C 
ATOM      9  O   UNL     1      -3.797 -68.310  -9.076  1.00  0.00    -0.550 OA
ATOM     10  O   UNL     1      -5.757 -69.475  -8.853  1.00  0.00    -0.550 OA
ENDBRANCH   7   8
ENDBRANCH   6   7
ENDBRANCH   5   6
ENDBRANCH   4   5
ENDBRANCH   3   4
ENDBRANCH   2   3
ENDBRANCH   1   2
BRANCH   1  11
ATOM     11  C   UNL     1      -8.785 -64.635  -7.266  1.00  0.00     0.000 C 
BRANCH  11  12
ATOM     12  C   UNL     1      -9.259 -63.203  -6.973  1.00  0.00    -0.000 C 
BRANCH  12  13
ATOM     13  C   UNL     1      -8.274 -62.428  -6.080  1.00  0.00    -0.000 C 
BRANCH  13  14
ATOM     14  C   UNL     1      -6.891 -62.258  -6.731  1.00  0.00    -0.000 C 
BRANCH  14  15
ATOM     15  C   UNL     1      -5.740 -62.445  -5.727  1.00  0.00    -0.000 C 
BRANCH  15  16
ATOM     16  C   UNL     1      -6.204 -63.057  -4.392  1.00  0.00    -0.000 C 
BRANCH  16  17
ATOM     17  C   UNL     1      -5.069 -63.507  -3.454  1.00  0.00    -0.003 C 
ATOM     18  C   UNL     1      -4.854 -65.020  -3.458  1.00  0.00     0.004 C 
ENDBRANCH  16  17
ENDBRANCH  15  16
ENDBRANCH  14  15
ENDBRANCH  13  14
ENDBRANCH  12  13
ENDBRANCH  11  12
ENDBRANCH   1  11
TORSDOF 14
ENDMDL
MODEL 9
REMARK VINA RESULT:    -3.349      2.269      4.172
REMARK INTER + INTRA:          -7.758
REMARK INTER:                  -5.523
REMARK INTRA:                  -2.234
REMARK UNBOUND:                -1.667
REMARK SMILES CCCCCCCCCCCCCCCC(=O)[O-]
REMARK SMILES IDX 9 1 10 2 11 3 12 4 13 5 14 6 15 7 16 8 17 9 18 10 8 11 7 12
REMARK SMILES IDX 6 13 5 14 4 15 3 16 2 17 1 18
REMARK H PARENT
REMARK Flexibility Score: inf
ROOT
ATOM      1  C   UNL     1     -17.887 -73.072 -10.231  1.00  0.00     0.000 C 
ENDROOT
BRANCH   1   2
ATOM      2  C   UNL     1     -17.145 -74.421 -10.245  1.00  0.00     0.000 C 
BRANCH   2   3
ATOM      3  C   UNL     1     -16.363 -74.716 -11.542  1.00  0.00     0.000 C 
BRANCH   3   4
ATOM      4  C   UNL     1     -14.843 -74.471 -11.458  1.00  0.00     0.000 C 
BRANCH   4   5
ATOM      5  C   UNL     1     -14.387 -73.054 -11.861  1.00  0.00     0.000 C 
BRANCH   5   6
ATOM      6  C   UNL     1     -14.004 -72.137 -10.687  1.00  0.00     0.006 C 
BRANCH   6   7
ATOM      7  C   UNL     1     -13.580 -72.917  -9.435  1.00  0.00     0.053 C 
BRANCH   7   8
ATOM      8  C   UNL     1     -12.089 -73.018  -9.364  1.00  0.00     0.041 C 
ATOM      9  O   UNL     1     -11.547 -74.020  -8.829  1.00  0.00    -0.550 OA
ATOM     10  O   UNL     1     -11.299 -71.981  -9.844  1.00  0.00    -0.550 OA
ENDBRANCH   7   8
ENDBRANCH   6   7
ENDBRANCH   5   6
ENDBRANCH   4   5
ENDBRANCH   3   4
ENDBRANCH   2   3
ENDBRANCH   1   2
BRANCH   1  11
ATOM     11  C   UNL     1     -17.459 -72.169  -9.061  1.00  0.00     0.000 C 
BRANCH  11  12
ATOM     12  C   UNL     1     -16.803 -72.960  -7.918  1.00  0.00    -0.000 C 
BRANCH  12  13
ATOM     13  C   UNL     1     -17.756 -73.177  -6.729  1.00  0.00    -0.000 C 
BRANCH  13  14
ATOM     14  C   UNL     1     -17.412 -74.435  -5.914  1.00  0.00    -0.000 C 
BRANCH  14  15
ATOM     15  C   UNL     1     -17.342 -75.701  -6.786  1.00  0.00    -0.000 C 
BRANCH  15  16
ATOM     16  C   UNL     1     -15.984 -76.419  -6.692  1.00  0.00    -0.000 C 
BRANCH  16  17
ATOM     17  C   UNL     1     -15.141 -76.388  -7.980  1.00  0.00    -0.003 C 
ATOM     18  C   UNL     1     -13.670 -76.729  -7.741  1.00  0.00     0.004 C 
ENDBRANCH  16  17
ENDBRANCH  15  16
ENDBRANCH  14  15
ENDBRANCH  13  14
ENDBRANCH  12  13
ENDBRANCH  11  12
ENDBRANCH   1  11
TORSDOF 14
ENDMDL
