MODEL 1
REMARK VINA RESULT:    -2.839      0.000      0.000
REMARK INTER + INTRA:          -3.622
REMARK INTER:                  -3.586
REMARK INTRA:                  -0.036
REMARK UNBOUND:                -0.036
REMARK SMILES CCCCCCO
REMARK SMILES IDX 4 1 3 2 2 3 1 4 5 5 6 6 7 7
REMARK H PARENT 7 8
REMARK Flexibility Score: inf
ROOT
ATOM      1  C   UNL     1      -0.722   2.583  -5.362  1.00  0.00     0.002 C 
ENDROOT
BRANCH   1   2
ATOM      2  C   UNL     1      -0.025   1.981  -4.127  1.00  0.00    -0.000 C 
BRANCH   2   3
ATOM      3  C   UNL     1       1.505   2.069  -4.202  1.00  0.00    -0.003 C 
ATOM      4  C   UNL     1       2.161   0.934  -3.420  1.00  0.00     0.004 C 
ENDBRANCH   2   3
ENDBRANCH   1   2
BRANCH   1   5
ATOM      5  C   UNL     1      -2.157   3.084  -5.115  1.00  0.00     0.028 C 
BRANCH   5   6
ATOM      6  C   UNL     1      -3.055   2.963  -6.350  1.00  0.00     0.156 C 
BRANCH   6   7
ATOM      7  O   UNL     1      -3.426   1.625  -6.548  1.00  0.00    -0.396 OA
ATOM      8  H   UNL     1      -2.956   1.319  -7.368  1.00  0.00     0.210 HD
ENDBRANCH   6   7
ENDBRANCH   5   6
ENDBRANCH   1   5
TORSDOF 5
ENDMDL
MODEL 2
REMARK VINA RESULT:    -2.802      2.235      3.116
REMARK INTER + INTRA:          -3.575
REMARK INTER:                  -3.464
REMARK INTRA:                  -0.111
REMARK UNBOUND:                -0.036
REMARK SMILES CCCCCCO
REMARK SMILES IDX 4 1 3 2 2 3 1 4 5 5 6 6 7 7
REMARK H PARENT 7 8
REMARK Flexibility Score: inf
ROOT
ATOM      1  C   UNL     1       2.088   2.255  -4.190  1.00  0.00     0.002 C 
ENDROOT
BRANCH   1   2
ATOM      2  C   UNL     1       2.076   0.913  -3.436  1.00  0.00    -0.000 C 
BRANCH   2   3
ATOM      3  C   UNL     1       3.484   0.360  -3.176  1.00  0.00    -0.003 C 
ATOM      4  C   UNL     1       4.556   1.362  -3.597  1.00  0.00     0.004 C 
ENDBRANCH   2   3
ENDBRANCH   1   2
BRANCH   1   5
ATOM      5  C   UNL     1       0.896   2.476  -5.139  1.00  0.00     0.028 C 
BRANCH   5   6
ATOM      6  C   UNL     1      -0.453   2.133  -4.497  1.00  0.00     0.156 C 
BRANCH   6   7
ATOM      7  O   UNL     1      -0.796   3.106  -3.547  1.00  0.00    -0.396 OA
ATOM      8  H   UNL     1      -0.881   3.965  -4.038  1.00  0.00     0.210 HD
ENDBRANCH   6   7
ENDBRANCH   5   6
ENDBRANCH   1   5
TORSDOF 5
ENDMDL
MODEL 3
REMARK VINA RESULT:    -2.790     12.214     13.228
REMARK INTER + INTRA:          -3.559
REMARK INTER:                  -3.464
REMARK INTRA:                  -0.095
REMARK UNBOUND:                -0.036
REMARK SMILES CCCCCCO
REMARK SMILES IDX 4 1 3 2 2 3 1 4 5 5 6 6 7 7
REMARK H PARENT 7 8
REMARK Flexibility Score: inf
ROOT
ATOM      1  C   UNL     1      -1.416   2.160   8.446  1.00  0.00     0.002 C 
ENDROOT
BRANCH   1   2
ATOM      2  C   UNL     1      -1.908   2.016   6.994  1.00  0.00    -0.000 C 
BRANCH   2   3
ATOM      3  C   UNL     1      -1.924   0.560   6.509  1.00  0.00    -0.003 C 
ATOM      4  C   UNL     1      -0.800   0.301   5.509  1.00  0.00     0.004 C 
ENDBRANCH   2   3
ENDBRANCH   1   2
BRANCH   1   5
ATOM      5  C   UNL     1       0.114   2.213   8.608  1.00  0.00     0.028 C 
BRANCH   5   6
ATOM      6  C   UNL     1       0.622   3.589   9.053  1.00  0.00     0.156 C 
BRANCH   6   7
ATOM      7  O   UNL     1       1.428   4.153   8.054  1.00  0.00    -0.396 OA
ATOM      8  H   UNL     1       1.972   4.859   8.493  1.00  0.00     0.210 HD
ENDBRANCH   6   7
ENDBRANCH   5   6
ENDBRANCH   1   5
TORSDOF 5
ENDMDL
MODEL 4
REMARK VINA RESULT:    -2.755      3.585      5.318
REMARK INTER + INTRA:          -3.515
REMARK INTER:                  -3.443
REMARK INTRA:                  -0.072
REMARK UNBOUND:                -0.036
REMARK SMILES CCCCCCO
REMARK SMILES IDX 4 1 3 2 2 3 1 4 5 5 6 6 7 7
REMARK H PARENT 7 8
REMARK Flexibility Score: inf
ROOT
ATOM      1  C   UNL     1       1.635   1.941  -4.067  1.00  0.00     0.002 C 
ENDROOT
BRANCH   1   2
ATOM      2  C   UNL     1       0.096   1.934  -4.114  1.00  0.00    -0.000 C 
BRANCH   2   3
ATOM      3  C   UNL     1      -0.473   2.838  -5.216  1.00  0.00    -0.003 C 
ATOM      4  C   UNL     1       0.250   2.614  -6.541  1.00  0.00     0.004 C 
ENDBRANCH   2   3
ENDBRANCH   1   2
BRANCH   1   5
ATOM      5  C   UNL     1       2.267   0.723  -3.369  1.00  0.00     0.028 C 
BRANCH   5   6
ATOM      6  C   UNL     1       3.698   0.984  -2.887  1.00  0.00     0.156 C 
BRANCH   6   7
ATOM      7  O   UNL     1       3.835   0.595  -1.546  1.00  0.00    -0.396 OA
ATOM      8  H   UNL     1       2.925   0.624  -1.149  1.00  0.00     0.210 HD
ENDBRANCH   6   7
ENDBRANCH   5   6
ENDBRANCH   1   5
TORSDOF 5
ENDMDL
MODEL 5
REMARK VINA RESULT:    -2.708      2.592      4.600
REMARK INTER + INTRA:          -3.456
REMARK INTER:                  -3.382
REMARK INTRA:                  -0.074
REMARK UNBOUND:                -0.036
REMARK SMILES CCCCCCO
REMARK SMILES IDX 4 1 3 2 2 3 1 4 5 5 6 6 7 7
REMARK H PARENT 7 8
REMARK Flexibility Score: inf
ROOT
ATOM      1  C   UNL     1      -0.167   3.464  -4.281  1.00  0.00     0.002 C 
ENDROOT
BRANCH   1   2
ATOM      2  C   UNL     1      -1.668   3.709  -4.525  1.00  0.00    -0.000 C 
BRANCH   2   3
ATOM      3  C   UNL     1      -2.329   2.598  -5.352  1.00  0.00    -0.003 C 
ATOM      4  C   UNL     1      -3.161   3.180  -6.491  1.00  0.00     0.004 C 
ENDBRANCH   2   3
ENDBRANCH   1   2
BRANCH   1   5
ATOM      5  C   UNL     1       0.229   1.985  -4.120  1.00  0.00     0.028 C 
BRANCH   5   6
ATOM      6  C   UNL     1       1.740   1.783  -3.962  1.00  0.00     0.156 C 
BRANCH   6   7
ATOM      7  O   UNL     1       1.999   0.836  -2.960  1.00  0.00    -0.396 OA
ATOM      8  H   UNL     1       2.982   0.835  -2.818  1.00  0.00     0.210 HD
ENDBRANCH   6   7
ENDBRANCH   5   6
ENDBRANCH   1   5
TORSDOF 5
ENDMDL
MODEL 6
REMARK VINA RESULT:    -2.684      2.656      4.611
REMARK INTER + INTRA:          -3.426
REMARK INTER:                  -3.369
REMARK INTRA:                  -0.058
REMARK UNBOUND:                -0.036
REMARK SMILES CCCCCCO
REMARK SMILES IDX 4 1 3 2 2 3 1 4 5 5 6 6 7 7
REMARK H PARENT 7 8
REMARK Flexibility Score: inf
ROOT
ATOM      1  C   UNL     1      -0.392   2.524  -5.393  1.00  0.00     0.002 C 
ENDROOT
BRANCH   1   2
ATOM      2  C   UNL     1      -1.836   3.059  -5.388  1.00  0.00    -0.000 C 
BRANCH   2   3
ATOM      3  C   UNL     1      -2.091   4.085  -4.276  1.00  0.00    -0.003 C 
ATOM      4  C   UNL     1      -3.414   4.814  -4.491  1.00  0.00     0.004 C 
ENDBRANCH   2   3
ENDBRANCH   1   2
BRANCH   1   5
ATOM      5  C   UNL     1       0.060   1.871  -4.073  1.00  0.00     0.028 C 
BRANCH   5   6
ATOM      6  C   UNL     1       1.584   1.786  -3.937  1.00  0.00     0.156 C 
BRANCH   6   7
ATOM      7  O   UNL     1       1.930   0.850  -2.953  1.00  0.00    -0.396 OA
ATOM      8  H   UNL     1       1.096   0.637  -2.458  1.00  0.00     0.210 HD
ENDBRANCH   6   7
ENDBRANCH   5   6
ENDBRANCH   1   5
TORSDOF 5
ENDMDL
MODEL 7
REMARK VINA RESULT:    -2.657     11.286     12.243
REMARK INTER + INTRA:          -3.391
REMARK INTER:                  -3.323
REMARK INTRA:                  -0.068
REMARK UNBOUND:                -0.036
REMARK SMILES CCCCCCO
REMARK SMILES IDX 4 1 3 2 2 3 1 4 5 5 6 6 7 7
REMARK H PARENT 7 8
REMARK Flexibility Score: inf
ROOT
ATOM      1  C   UNL     1      -0.432   1.103   7.298  1.00  0.00     0.002 C 
ENDROOT
BRANCH   1   2
ATOM      2  C   UNL     1      -1.149   1.997   8.327  1.00  0.00    -0.000 C 
BRANCH   2   3
ATOM      3  C   UNL     1      -0.192   2.603   9.362  1.00  0.00    -0.003 C 
ATOM      4  C   UNL     1       0.834   3.516   8.696  1.00  0.00     0.004 C 
ENDBRANCH   2   3
ENDBRANCH   1   2
BRANCH   1   5
ATOM      5  C   UNL     1      -1.186   0.914   5.968  1.00  0.00     0.028 C 
BRANCH   5   6
ATOM      6  C   UNL     1      -0.475  -0.046   5.008  1.00  0.00     0.156 C 
BRANCH   6   7
ATOM      7  O   UNL     1      -0.524   0.456   3.699  1.00  0.00    -0.396 OA
ATOM      8  H   UNL     1      -0.800   1.407   3.771  1.00  0.00     0.210 HD
ENDBRANCH   6   7
ENDBRANCH   5   6
ENDBRANCH   1   5
TORSDOF 5
ENDMDL
MODEL 8
REMARK VINA RESULT:    -2.633     12.541     13.556
REMARK INTER + INTRA:          -3.361
REMARK INTER:                  -3.262
REMARK INTRA:                  -0.099
REMARK UNBOUND:                -0.036
REMARK SMILES CCCCCCO
REMARK SMILES IDX 4 1 3 2 2 3 1 4 5 5 6 6 7 7
REMARK H PARENT 7 8
REMARK Flexibility Score: inf
ROOT
ATOM      1  C   UNL     1      -0.418   1.884   7.441  1.00  0.00     0.002 C 
ENDROOT
BRANCH   1   2
ATOM      2  C   UNL     1      -1.738   1.477   6.761  1.00  0.00    -0.000 C 
BRANCH   2   3
ATOM      3  C   UNL     1      -2.877   2.470   7.023  1.00  0.00    -0.003 C 
ATOM      4  C   UNL     1      -4.037   1.798   7.753  1.00  0.00     0.004 C 
ENDBRANCH   2   3
ENDBRANCH   1   2
BRANCH   1   5
ATOM      5  C   UNL     1      -0.582   2.669   8.755  1.00  0.00     0.028 C 
BRANCH   5   6
ATOM      6  C   UNL     1       0.686   3.426   9.165  1.00  0.00     0.156 C 
BRANCH   6   7
ATOM      7  O   UNL     1       1.261   4.046   8.046  1.00  0.00    -0.396 OA
ATOM      8  H   UNL     1       2.193   4.279   8.299  1.00  0.00     0.210 HD
ENDBRANCH   6   7
ENDBRANCH   5   6
ENDBRANCH   1   5
TORSDOF 5
ENDMDL
MODEL 9
REMARK VINA RESULT:    -2.576      2.797      3.123
REMARK INTER + INTRA:          -3.289
REMARK INTER:                  -3.244
REMARK INTRA:                  -0.045
REMARK UNBOUND:                -0.036
REMARK SMILES CCCCCCO
REMARK SMILES IDX 4 1 3 2 2 3 1 4 5 5 6 6 7 7
REMARK H PARENT 7 8
REMARK Flexibility Score: inf
ROOT
ATOM      1  C   UNL     1      -0.004   1.992  -4.136  1.00  0.00     0.002 C 
ENDROOT
BRANCH   1   2
ATOM      2  C   UNL     1       1.536   1.974  -4.112  1.00  0.00    -0.000 C 
BRANCH   2   3
ATOM      3  C   UNL     1       2.109   0.775  -3.346  1.00  0.00    -0.003 C 
ATOM      4  C   UNL     1       3.618   0.910  -3.159  1.00  0.00     0.004 C 
ENDBRANCH   2   3
ENDBRANCH   1   2
BRANCH   1   5
ATOM      5  C   UNL     1      -0.634   3.394  -4.223  1.00  0.00     0.028 C 
BRANCH   5   6
ATOM      6  C   UNL     1       0.338   4.457  -4.746  1.00  0.00     0.156 C 
BRANCH   6   7
ATOM      7  O   UNL     1       0.739   5.301  -3.701  1.00  0.00    -0.396 OA
ATOM      8  H   UNL     1       0.230   6.147  -3.809  1.00  0.00     0.210 HD
ENDBRANCH   6   7
ENDBRANCH   5   6
ENDBRANCH   1   5
TORSDOF 5
ENDMDL
