MODEL 1
REMARK VINA RESULT:    -5.640      0.000      0.000
REMARK INTER + INTRA:          -5.970
REMARK INTER:                  -5.970
REMARK INTRA:                   0.000
REMARK UNBOUND:                 0.000
REMARK SMILES O=c1ccc2cc(O)c(O)cc2o1
REMARK SMILES IDX 4 1 3 2 2 3 1 4 13 5 12 6 11 7 9 8 7 9 6 10 5 11 8 12 10 14
REMARK H PARENT 8 13 10 15
REMARK Flexibility Score: inf
ROOT
ATOM      1  C   UNL     1     136.746   3.771  95.604  1.00  0.00     0.019 A 
ATOM      2  C   UNL     1     137.166   2.474  95.311  1.00  0.00     0.094 A 
ATOM      3  C   UNL     1     136.378   1.679  94.471  1.00  0.00     0.336 A 
ATOM      4  O   UNL     1     136.740   0.506  94.195  1.00  0.00    -0.246 OA
ATOM      5  O   UNL     1     135.246   2.156  93.960  1.00  0.00    -0.423 OA
ATOM      6  C   UNL     1     134.809   3.388  94.214  1.00  0.00     0.142 A 
ATOM      7  C   UNL     1     133.611   3.835  93.649  1.00  0.00     0.098 A 
ATOM      8  C   UNL     1     133.146   5.133  93.913  1.00  0.00     0.161 A 
ATOM      9  C   UNL     1     133.884   5.986  94.746  1.00  0.00     0.158 A 
ATOM     10  C   UNL     1     135.087   5.542  95.316  1.00  0.00     0.062 A 
ATOM     11  C   UNL     1     135.552   4.247  95.053  1.00  0.00     0.022 A 
ENDROOT
BRANCH   9  12
ATOM     12  O   UNL     1     133.415   7.272  95.003  1.00  0.00    -0.504 OA
ATOM     13  H   UNL     1     132.736   7.720  94.398  1.00  0.00     0.293 HD
ENDBRANCH   9  12
BRANCH   8  14
ATOM     14  O   UNL     1     131.952   5.581  93.351  1.00  0.00    -0.504 OA
ATOM     15  H   UNL     1     131.131   4.988  93.307  1.00  0.00     0.293 HD
ENDBRANCH   8  14
TORSDOF 2
ENDMDL
MODEL 2
REMARK VINA RESULT:    -5.537      0.897      1.019
REMARK INTER + INTRA:          -5.861
REMARK INTER:                  -5.861
REMARK INTRA:                   0.000
REMARK UNBOUND:                 0.000
REMARK SMILES O=c1ccc2cc(O)c(O)cc2o1
REMARK SMILES IDX 4 1 3 2 2 3 1 4 13 5 12 6 11 7 9 8 7 9 6 10 5 11 8 12 10 14
REMARK H PARENT 8 13 10 15
REMARK Flexibility Score: inf
ROOT
ATOM      1  C   UNL     1     136.458   3.452  95.238  1.00  0.00     0.019 A 
ATOM      2  C   UNL     1     137.012   2.172  95.224  1.00  0.00     0.094 A 
ATOM      3  C   UNL     1     136.326   1.144  94.569  1.00  0.00     0.336 A 
ATOM      4  O   UNL     1     136.809  -0.018  94.545  1.00  0.00    -0.246 OA
ATOM      5  O   UNL     1     135.163   1.386  93.968  1.00  0.00    -0.423 OA
ATOM      6  C   UNL     1     134.600   2.592  93.958  1.00  0.00     0.142 A 
ATOM      7  C   UNL     1     133.377   2.786  93.310  1.00  0.00     0.098 A 
ATOM      8  C   UNL     1     132.779   4.056  93.296  1.00  0.00     0.161 A 
ATOM      9  C   UNL     1     133.409   5.135  93.933  1.00  0.00     0.158 A 
ATOM     10  C   UNL     1     134.638   4.945  94.584  1.00  0.00     0.062 A 
ATOM     11  C   UNL     1     135.235   3.678  94.598  1.00  0.00     0.022 A 
ENDROOT
BRANCH   9  12
ATOM     12  O   UNL     1     132.808   6.392  93.914  1.00  0.00    -0.504 OA
ATOM     13  H   UNL     1     133.276   7.197  93.511  1.00  0.00     0.293 HD
ENDBRANCH   9  12
BRANCH   8  14
ATOM     14  O   UNL     1     131.559   4.253  92.652  1.00  0.00    -0.504 OA
ATOM     15  H   UNL     1     131.446   4.959  91.933  1.00  0.00     0.293 HD
ENDBRANCH   8  14
TORSDOF 2
ENDMDL
MODEL 3
REMARK VINA RESULT:    -5.496      1.350      4.487
REMARK INTER + INTRA:          -5.817
REMARK INTER:                  -5.817
REMARK INTRA:                   0.000
REMARK UNBOUND:                 0.000
REMARK SMILES O=c1ccc2cc(O)c(O)cc2o1
REMARK SMILES IDX 4 1 3 2 2 3 1 4 13 5 12 6 11 7 9 8 7 9 6 10 5 11 8 12 10 14
REMARK H PARENT 8 13 10 15
REMARK Flexibility Score: inf
ROOT
ATOM      1  C   UNL     1     136.578   4.674  95.425  1.00  0.00     0.019 A 
ATOM      2  C   UNL     1     135.828   5.849  95.376  1.00  0.00     0.094 A 
ATOM      3  C   UNL     1     134.489   5.781  94.976  1.00  0.00     0.336 A 
ATOM      4  O   UNL     1     133.795   6.830  94.925  1.00  0.00    -0.246 OA
ATOM      5  O   UNL     1     133.941   4.613  94.649  1.00  0.00    -0.423 OA
ATOM      6  C   UNL     1     134.622   3.470  94.683  1.00  0.00     0.142 A 
ATOM      7  C   UNL     1     133.993   2.272  94.328  1.00  0.00     0.098 A 
ATOM      8  C   UNL     1     134.706   1.063  94.363  1.00  0.00     0.161 A 
ATOM      9  C   UNL     1     136.053   1.054  94.753  1.00  0.00     0.158 A 
ATOM     10  C   UNL     1     136.688   2.253  95.110  1.00  0.00     0.062 A 
ATOM     11  C   UNL     1     135.977   3.460  95.077  1.00  0.00     0.022 A 
ENDROOT
BRANCH   9  12
ATOM     12  O   UNL     1     136.753  -0.151  94.784  1.00  0.00    -0.504 OA
ATOM     13  H   UNL     1     136.968  -0.660  93.934  1.00  0.00     0.293 HD
ENDBRANCH   9  12
BRANCH   8  14
ATOM     14  O   UNL     1     134.082  -0.132  94.009  1.00  0.00    -0.504 OA
ATOM     15  H   UNL     1     134.204  -0.976  94.557  1.00  0.00     0.293 HD
ENDBRANCH   8  14
TORSDOF 2
ENDMDL
MODEL 4
REMARK VINA RESULT:    -5.275      2.439      4.586
REMARK INTER + INTRA:          -5.583
REMARK INTER:                  -5.583
REMARK INTRA:                   0.000
REMARK UNBOUND:                 0.000
REMARK SMILES O=c1ccc2cc(O)c(O)cc2o1
REMARK SMILES IDX 4 1 3 2 2 3 1 4 13 5 12 6 11 7 9 8 7 9 6 10 5 11 8 12 10 14
REMARK H PARENT 8 13 10 15
REMARK Flexibility Score: inf
ROOT
ATOM      1  C   UNL     1     135.961   2.793  95.890  1.00  0.00     0.019 A 
ATOM      2  C   UNL     1     136.016   4.104  95.417  1.00  0.00     0.094 A 
ATOM      3  C   UNL     1     135.239   4.457  94.307  1.00  0.00     0.336 A 
ATOM      4  O   UNL     1     135.275   5.635  93.866  1.00  0.00    -0.246 OA
ATOM      5  O   UNL     1     134.461   3.555  93.715  1.00  0.00    -0.423 OA
ATOM      6  C   UNL     1     134.380   2.294  94.135  1.00  0.00     0.142 A 
ATOM      7  C   UNL     1     133.544   1.390  93.472  1.00  0.00     0.098 A 
ATOM      8  C   UNL     1     133.454   0.060  93.910  1.00  0.00     0.161 A 
ATOM      9  C   UNL     1     134.204  -0.367  95.016  1.00  0.00     0.158 A 
ATOM     10  C   UNL     1     135.044   0.537  95.685  1.00  0.00     0.062 A 
ATOM     11  C   UNL     1     135.134   1.865  95.248  1.00  0.00     0.022 A 
ENDROOT
BRANCH   9  12
ATOM     12  O   UNL     1     134.109  -1.690  95.444  1.00  0.00    -0.504 OA
ATOM     13  H   UNL     1     133.860  -1.921  96.399  1.00  0.00     0.293 HD
ENDBRANCH   9  12
BRANCH   8  14
ATOM     14  O   UNL     1     132.623  -0.844  93.252  1.00  0.00    -0.504 OA
ATOM     15  H   UNL     1     131.767  -1.184  93.676  1.00  0.00     0.293 HD
ENDBRANCH   8  14
TORSDOF 2
ENDMDL
MODEL 5
REMARK VINA RESULT:    -5.272      1.379      2.446
REMARK INTER + INTRA:          -5.580
REMARK INTER:                  -5.580
REMARK INTRA:                   0.000
REMARK UNBOUND:                 0.000
REMARK SMILES O=c1ccc2cc(O)c(O)cc2o1
REMARK SMILES IDX 4 1 3 2 2 3 1 4 13 5 12 6 11 7 9 8 7 9 6 10 5 11 8 12 10 14
REMARK H PARENT 8 13 10 15
REMARK Flexibility Score: inf
ROOT
ATOM      1  C   UNL     1     134.213   2.222  93.908  1.00  0.00     0.019 A 
ATOM      2  C   UNL     1     135.515   1.819  94.203  1.00  0.00     0.094 A 
ATOM      3  C   UNL     1     136.331   2.666  94.961  1.00  0.00     0.336 A 
ATOM      4  O   UNL     1     137.509   2.320  95.238  1.00  0.00    -0.246 OA
ATOM      5  O   UNL     1     135.870   3.837  95.393  1.00  0.00    -0.423 OA
ATOM      6  C   UNL     1     134.634   4.259  95.133  1.00  0.00     0.142 A 
ATOM      7  C   UNL     1     134.205   5.500  95.613  1.00  0.00     0.098 A 
ATOM      8  C   UNL     1     132.903   5.949  95.343  1.00  0.00     0.161 A 
ATOM      9  C   UNL     1     132.028   5.154  94.589  1.00  0.00     0.158 A 
ATOM     10  C   UNL     1     132.455   3.908  94.105  1.00  0.00     0.062 A 
ATOM     11  C   UNL     1     133.754   3.457  94.375  1.00  0.00     0.022 A 
ENDROOT
BRANCH   9  12
ATOM     12  O   UNL     1     130.738   5.608  94.326  1.00  0.00    -0.504 OA
ATOM     13  H   UNL     1     130.554   6.578  94.093  1.00  0.00     0.293 HD
ENDBRANCH   9  12
BRANCH   8  14
ATOM     14  O   UNL     1     132.472   7.186  95.820  1.00  0.00    -0.504 OA
ATOM     15  H   UNL     1     132.759   7.534  96.728  1.00  0.00     0.293 HD
ENDBRANCH   8  14
TORSDOF 2
ENDMDL
MODEL 6
REMARK VINA RESULT:    -5.254      2.391      3.161
REMARK INTER + INTRA:          -5.562
REMARK INTER:                  -5.562
REMARK INTRA:                   0.000
REMARK UNBOUND:                 0.000
REMARK SMILES O=c1ccc2cc(O)c(O)cc2o1
REMARK SMILES IDX 4 1 3 2 2 3 1 4 13 5 12 6 11 7 9 8 7 9 6 10 5 11 8 12 10 14
REMARK H PARENT 8 13 10 15
REMARK Flexibility Score: inf
ROOT
ATOM      1  C   UNL     1     135.116   0.343  95.507  1.00  0.00     0.019 A 
ATOM      2  C   UNL     1     134.244  -0.534  94.862  1.00  0.00     0.094 A 
ATOM      3  C   UNL     1     133.419  -0.044  93.844  1.00  0.00     0.336 A 
ATOM      4  O   UNL     1     132.626  -0.819  93.250  1.00  0.00    -0.246 OA
ATOM      5  O   UNL     1     133.469   1.240  93.497  1.00  0.00    -0.423 OA
ATOM      6  C   UNL     1     134.286   2.110  94.087  1.00  0.00     0.142 A 
ATOM      7  C   UNL     1     134.293   3.448  93.680  1.00  0.00     0.098 A 
ATOM      8  C   UNL     1     135.153   4.369  94.298  1.00  0.00     0.161 A 
ATOM      9  C   UNL     1     136.008   3.949  95.327  1.00  0.00     0.158 A 
ATOM     10  C   UNL     1     136.004   2.607  95.739  1.00  0.00     0.062 A 
ATOM     11  C   UNL     1     135.147   1.687  95.122  1.00  0.00     0.022 A 
ENDROOT
BRANCH   9  12
ATOM     12  O   UNL     1     136.858   4.870  95.936  1.00  0.00    -0.504 OA
ATOM     13  H   UNL     1     137.562   4.580  96.606  1.00  0.00     0.293 HD
ENDBRANCH   9  12
BRANCH   8  14
ATOM     14  O   UNL     1     135.162   5.703  93.895  1.00  0.00    -0.504 OA
ATOM     15  H   UNL     1     134.732   6.429  94.457  1.00  0.00     0.293 HD
ENDBRANCH   8  14
TORSDOF 2
ENDMDL
MODEL 7
REMARK VINA RESULT:    -5.237      1.792      4.832
REMARK INTER + INTRA:          -5.543
REMARK INTER:                  -5.543
REMARK INTRA:                   0.000
REMARK UNBOUND:                 0.000
REMARK SMILES O=c1ccc2cc(O)c(O)cc2o1
REMARK SMILES IDX 4 1 3 2 2 3 1 4 13 5 12 6 11 7 9 8 7 9 6 10 5 11 8 12 10 14
REMARK H PARENT 8 13 10 15
REMARK Flexibility Score: inf
ROOT
ATOM      1  C   UNL     1     133.512   4.416  94.009  1.00  0.00     0.019 A 
ATOM      2  C   UNL     1     134.066   5.669  94.272  1.00  0.00     0.094 A 
ATOM      3  C   UNL     1     135.373   5.742  94.766  1.00  0.00     0.336 A 
ATOM      4  O   UNL     1     135.891   6.862  95.009  1.00  0.00    -0.246 OA
ATOM      5  O   UNL     1     136.075   4.632  94.980  1.00  0.00    -0.423 OA
ATOM      6  C   UNL     1     135.584   3.417  94.742  1.00  0.00     0.142 A 
ATOM      7  C   UNL     1     136.369   2.286  94.987  1.00  0.00     0.098 A 
ATOM      8  C   UNL     1     135.856   1.004  94.738  1.00  0.00     0.161 A 
ATOM      9  C   UNL     1     134.553   0.853  94.242  1.00  0.00     0.158 A 
ATOM     10  C   UNL     1     133.761   1.985  93.995  1.00  0.00     0.062 A 
ATOM     11  C   UNL     1     134.272   3.267  94.243  1.00  0.00     0.022 A 
ENDROOT
BRANCH   9  12
ATOM     12  O   UNL     1     134.052  -0.424  93.998  1.00  0.00    -0.504 OA
ATOM     13  H   UNL     1     134.534  -1.075  93.389  1.00  0.00     0.293 HD
ENDBRANCH   9  12
BRANCH   8  14
ATOM     14  O   UNL     1     136.636  -0.125  94.981  1.00  0.00    -0.504 OA
ATOM     15  H   UNL     1     137.646  -0.101  94.895  1.00  0.00     0.293 HD
ENDBRANCH   8  14
TORSDOF 2
ENDMDL
MODEL 8
REMARK VINA RESULT:    -5.216      2.497      4.051
REMARK INTER + INTRA:          -5.521
REMARK INTER:                  -5.521
REMARK INTRA:                   0.000
REMARK UNBOUND:                 0.000
REMARK SMILES O=c1ccc2cc(O)c(O)cc2o1
REMARK SMILES IDX 4 1 3 2 2 3 1 4 13 5 12 6 11 7 9 8 7 9 6 10 5 11 8 12 10 14
REMARK H PARENT 8 13 10 15
REMARK Flexibility Score: inf
ROOT
ATOM      1  C   UNL     1     136.504   1.635  94.968  1.00  0.00     0.019 A 
ATOM      2  C   UNL     1     137.020   2.858  95.397  1.00  0.00     0.094 A 
ATOM      3  C   UNL     1     136.184   3.979  95.412  1.00  0.00     0.336 A 
ATOM      4  O   UNL     1     136.631   5.091  95.795  1.00  0.00    -0.246 OA
ATOM      5  O   UNL     1     134.915   3.878  95.024  1.00  0.00    -0.423 OA
ATOM      6  C   UNL     1     134.383   2.731  94.608  1.00  0.00     0.142 A 
ATOM      7  C   UNL     1     133.043   2.686  94.211  1.00  0.00     0.098 A 
ATOM      8  C   UNL     1     132.476   1.479  93.773  1.00  0.00     0.161 A 
ATOM      9  C   UNL     1     133.255   0.314  93.730  1.00  0.00     0.158 A 
ATOM     10  C   UNL     1     134.600   0.354  94.127  1.00  0.00     0.062 A 
ATOM     11  C   UNL     1     135.167   1.558  94.566  1.00  0.00     0.022 A 
ENDROOT
BRANCH   9  12
ATOM     12  O   UNL     1     132.685  -0.880  93.293  1.00  0.00    -0.504 OA
ATOM     13  H   UNL     1     133.173  -1.498  92.655  1.00  0.00     0.293 HD
ENDBRANCH   9  12
BRANCH   8  14
ATOM     14  O   UNL     1     131.141   1.431  93.377  1.00  0.00    -0.504 OA
ATOM     15  H   UNL     1     130.579   2.272  93.304  1.00  0.00     0.293 HD
ENDBRANCH   8  14
TORSDOF 2
ENDMDL
MODEL 9
REMARK VINA RESULT:    -5.112      1.816      2.861
REMARK INTER + INTRA:          -5.411
REMARK INTER:                  -5.411
REMARK INTRA:                   0.000
REMARK UNBOUND:                 0.000
REMARK SMILES O=c1ccc2cc(O)c(O)cc2o1
REMARK SMILES IDX 4 1 3 2 2 3 1 4 13 5 12 6 11 7 9 8 7 9 6 10 5 11 8 12 10 14
REMARK H PARENT 8 13 10 15
REMARK Flexibility Score: inf
ROOT
ATOM      1  C   UNL     1     134.225   1.111  95.247  1.00  0.00     0.019 A 
ATOM      2  C   UNL     1     135.582   1.234  95.542  1.00  0.00     0.094 A 
ATOM      3  C   UNL     1     136.265   2.382  95.125  1.00  0.00     0.336 A 
ATOM      4  O   UNL     1     137.490   2.512  95.381  1.00  0.00    -0.246 OA
ATOM      5  O   UNL     1     135.627   3.340  94.458  1.00  0.00    -0.423 OA
ATOM      6  C   UNL     1     134.332   3.262  94.157  1.00  0.00     0.142 A 
ATOM      7  C   UNL     1     133.715   4.301  93.453  1.00  0.00     0.098 A 
ATOM      8  C   UNL     1     132.350   4.224  93.134  1.00  0.00     0.161 A 
ATOM      9  C   UNL     1     131.602   3.103  93.519  1.00  0.00     0.158 A 
ATOM     10  C   UNL     1     132.217   2.057  94.225  1.00  0.00     0.062 A 
ATOM     11  C   UNL     1     133.579   2.134  94.546  1.00  0.00     0.022 A 
ENDROOT
BRANCH   9  12
ATOM     12  O   UNL     1     130.248   3.034  93.197  1.00  0.00    -0.504 OA
ATOM     13  H   UNL     1     129.814   3.715  92.584  1.00  0.00     0.293 HD
ENDBRANCH   9  12
BRANCH   8  14
ATOM     14  O   UNL     1     131.732   5.257  92.433  1.00  0.00    -0.504 OA
ATOM     15  H   UNL     1     130.732   5.411  92.487  1.00  0.00     0.293 HD
ENDBRANCH   8  14
TORSDOF 2
ENDMDL
