MODEL 1
REMARK VINA RESULT:    -5.567      0.000      0.000
REMARK INTER + INTRA:          -5.567
REMARK INTER:                  -5.567
REMARK INTRA:                   0.000
REMARK UNBOUND:                 0.000
REMARK SMILES CC1=CC(=O)[C@H]2C[C@@H]1C2(C)C
REMARK SMILES IDX 1 1 2 2 3 3 4 4 5 5 6 6 7 7 8 8 9 9 10 10 11 11
REMARK H PARENT
REMARK Flexibility Score: inf
ROOT
ATOM      1  C   UNL     1     -13.927 -20.106  28.627  1.00  0.00     0.040 C 
ATOM      2  C   UNL     1     -12.795 -19.176  28.929  1.00  0.00    -0.066 C 
ATOM      3  C   UNL     1     -11.848 -19.489  29.856  1.00  0.00     0.047 C 
ATOM      4  C   UNL     1     -10.782 -18.461  30.089  1.00  0.00     0.159 C 
ATOM      5  O   UNL     1      -9.875 -18.616  30.947  1.00  0.00    -0.295 OA
ATOM      6  C   UNL     1     -10.877 -17.211  29.214  1.00  0.00     0.067 C 
ATOM      7  C   UNL     1     -11.143 -17.762  27.796  1.00  0.00     0.021 C 
ATOM      8  C   UNL     1     -12.634 -17.827  28.195  1.00  0.00     0.022 C 
ATOM      9  C   UNL     1     -12.348 -16.704  29.233  1.00  0.00    -0.019 C 
ATOM     10  C   UNL     1     -12.490 -15.286  28.621  1.00  0.00     0.012 C 
ATOM     11  C   UNL     1     -13.122 -16.733  30.581  1.00  0.00     0.012 C 
ENDROOT
TORSDOF 0
ENDMDL
MODEL 2
REMARK VINA RESULT:    -5.386      1.844      3.406
REMARK INTER + INTRA:          -5.386
REMARK INTER:                  -5.386
REMARK INTRA:                   0.000
REMARK UNBOUND:                 0.000
REMARK SMILES CC1=CC(=O)[C@H]2C[C@@H]1C2(C)C
REMARK SMILES IDX 1 1 2 2 3 3 4 4 5 5 6 6 7 7 8 8 9 9 10 10 11 11
REMARK H PARENT
REMARK Flexibility Score: inf
ROOT
ATOM      1  C   UNL     1     -11.384 -16.880  26.104  1.00  0.00     0.040 C 
ATOM      2  C   UNL     1     -11.812 -16.956  27.535  1.00  0.00    -0.066 C 
ATOM      3  C   UNL     1     -12.490 -15.934  28.128  1.00  0.00     0.047 C 
ATOM      4  C   UNL     1     -12.835 -16.119  29.575  1.00  0.00     0.159 C 
ATOM      5  O   UNL     1     -13.425 -15.231  30.244  1.00  0.00    -0.295 OA
ATOM      6  C   UNL     1     -12.419 -17.459  30.181  1.00  0.00     0.067 C 
ATOM      7  C   UNL     1     -12.856 -18.501  29.128  1.00  0.00     0.021 C 
ATOM      8  C   UNL     1     -11.524 -18.199  28.404  1.00  0.00     0.022 C 
ATOM      9  C   UNL     1     -10.945 -17.750  29.776  1.00  0.00    -0.019 C 
ATOM     10  C   UNL     1     -10.337 -18.931  30.575  1.00  0.00     0.012 C 
ATOM     11  C   UNL     1      -9.929 -16.573  29.796  1.00  0.00     0.012 C 
ENDROOT
TORSDOF 0
ENDMDL
MODEL 3
REMARK VINA RESULT:    -5.371      1.929      3.531
REMARK INTER + INTRA:          -5.371
REMARK INTER:                  -5.371
REMARK INTRA:                   0.000
REMARK UNBOUND:                 0.000
REMARK SMILES CC1=CC(=O)[C@H]2C[C@@H]1C2(C)C
REMARK SMILES IDX 1 1 2 2 3 3 4 4 5 5 6 6 7 7 8 8 9 9 10 10 11 11
REMARK H PARENT
REMARK Flexibility Score: inf
ROOT
ATOM      1  C   UNL     1     -13.605 -14.778  28.615  1.00  0.00     0.040 C 
ATOM      2  C   UNL     1     -12.531 -15.776  28.325  1.00  0.00    -0.066 C 
ATOM      3  C   UNL     1     -12.227 -16.141  27.049  1.00  0.00     0.047 C 
ATOM      4  C   UNL     1     -11.152 -17.174  26.891  1.00  0.00     0.159 C 
ATOM      5  O   UNL     1     -10.809 -17.621  25.766  1.00  0.00    -0.295 OA
ATOM      6  C   UNL     1     -10.504 -17.646  28.192  1.00  0.00     0.067 C 
ATOM      7  C   UNL     1     -10.235 -16.343  28.976  1.00  0.00     0.021 C 
ATOM      8  C   UNL     1     -11.702 -16.429  29.453  1.00  0.00     0.022 C 
ATOM      9  C   UNL     1     -11.628 -17.966  29.219  1.00  0.00    -0.019 C 
ATOM     10  C   UNL     1     -11.095 -18.726  30.460  1.00  0.00     0.012 C 
ATOM     11  C   UNL     1     -12.905 -18.695  28.712  1.00  0.00     0.012 C 
ENDROOT
TORSDOF 0
ENDMDL
MODEL 4
REMARK VINA RESULT:    -5.304      1.946      3.515
REMARK INTER + INTRA:          -5.304
REMARK INTER:                  -5.304
REMARK INTRA:                   0.000
REMARK UNBOUND:                 0.000
REMARK SMILES CC1=CC(=O)[C@H]2C[C@@H]1C2(C)C
REMARK SMILES IDX 1 1 2 2 3 3 4 4 5 5 6 6 7 7 8 8 9 9 10 10 11 11
REMARK H PARENT
REMARK Flexibility Score: inf
ROOT
ATOM      1  C   UNL     1     -13.611 -15.370  30.484  1.00  0.00     0.040 C 
ATOM      2  C   UNL     1     -12.556 -16.011  29.640  1.00  0.00    -0.066 C 
ATOM      3  C   UNL     1     -12.689 -16.105  28.288  1.00  0.00     0.047 C 
ATOM      4  C   UNL     1     -11.577 -16.796  27.558  1.00  0.00     0.159 C 
ATOM      5  O   UNL     1     -11.603 -16.981  26.314  1.00  0.00    -0.295 OA
ATOM      6  C   UNL     1     -10.413 -17.263  28.431  1.00  0.00     0.067 C 
ATOM      7  C   UNL     1     -10.121 -16.056  29.349  1.00  0.00     0.021 C 
ATOM      8  C   UNL     1     -11.258 -16.580  30.254  1.00  0.00     0.022 C 
ATOM      9  C   UNL     1     -10.990 -17.999  29.674  1.00  0.00    -0.019 C 
ATOM     10  C   UNL     1      -9.898 -18.763  30.467  1.00  0.00     0.012 C 
ATOM     11  C   UNL     1     -12.201 -18.953  29.472  1.00  0.00     0.012 C 
ENDROOT
TORSDOF 0
ENDMDL
MODEL 5
REMARK VINA RESULT:    -5.299      2.078      3.064
REMARK INTER + INTRA:          -5.299
REMARK INTER:                  -5.299
REMARK INTRA:                   0.000
REMARK UNBOUND:                 0.000
REMARK SMILES CC1=CC(=O)[C@H]2C[C@@H]1C2(C)C
REMARK SMILES IDX 1 1 2 2 3 3 4 4 5 5 6 6 7 7 8 8 9 9 10 10 11 11
REMARK H PARENT
REMARK Flexibility Score: inf
ROOT
ATOM      1  C   UNL     1     -12.703 -19.865  30.079  1.00  0.00     0.040 C 
ATOM      2  C   UNL     1     -12.571 -18.514  29.452  1.00  0.00    -0.066 C 
ATOM      3  C   UNL     1     -13.102 -18.246  28.226  1.00  0.00     0.047 C 
ATOM      4  C   UNL     1     -12.876 -16.863  27.693  1.00  0.00     0.159 C 
ATOM      5  O   UNL     1     -13.282 -16.506  26.557  1.00  0.00    -0.295 OA
ATOM      6  C   UNL     1     -12.116 -15.919  28.625  1.00  0.00     0.067 C 
ATOM      7  C   UNL     1     -12.780 -16.133  30.003  1.00  0.00     0.021 C 
ATOM      8  C   UNL     1     -11.846 -17.353  30.167  1.00  0.00     0.022 C 
ATOM      9  C   UNL     1     -10.865 -16.665  29.173  1.00  0.00    -0.019 C 
ATOM     10  C   UNL     1      -9.876 -15.710  29.889  1.00  0.00     0.012 C 
ATOM     11  C   UNL     1     -10.055 -17.564  28.197  1.00  0.00     0.012 C 
ENDROOT
TORSDOF 0
ENDMDL
MODEL 6
REMARK VINA RESULT:    -5.290      1.534      2.416
REMARK INTER + INTRA:          -5.290
REMARK INTER:                  -5.290
REMARK INTRA:                   0.000
REMARK UNBOUND:                 0.000
REMARK SMILES CC1=CC(=O)[C@H]2C[C@@H]1C2(C)C
REMARK SMILES IDX 1 1 2 2 3 3 4 4 5 5 6 6 7 7 8 8 9 9 10 10 11 11
REMARK H PARENT
REMARK Flexibility Score: inf
ROOT
ATOM      1  C   UNL     1     -13.259 -16.120  26.766  1.00  0.00     0.040 C 
ATOM      2  C   UNL     1     -12.538 -16.956  27.774  1.00  0.00    -0.066 C 
ATOM      3  C   UNL     1     -12.968 -18.208  28.096  1.00  0.00     0.047 C 
ATOM      4  C   UNL     1     -12.177 -18.933  29.142  1.00  0.00     0.159 C 
ATOM      5  O   UNL     1     -12.497 -20.078  29.554  1.00  0.00    -0.295 OA
ATOM      6  C   UNL     1     -10.957 -18.183  29.676  1.00  0.00     0.067 C 
ATOM      7  C   UNL     1     -10.267 -17.632  28.409  1.00  0.00     0.021 C 
ATOM      8  C   UNL     1     -11.263 -16.453  28.485  1.00  0.00     0.022 C 
ATOM      9  C   UNL     1     -11.380 -16.724  30.013  1.00  0.00    -0.019 C 
ATOM     10  C   UNL     1     -10.300 -15.970  30.830  1.00  0.00     0.012 C 
ATOM     11  C   UNL     1     -12.758 -16.494  30.697  1.00  0.00     0.012 C 
ENDROOT
TORSDOF 0
ENDMDL
MODEL 7
REMARK VINA RESULT:    -5.161      1.920      2.848
REMARK INTER + INTRA:          -5.161
REMARK INTER:                  -5.161
REMARK INTRA:                   0.000
REMARK UNBOUND:                 0.000
REMARK SMILES CC1=CC(=O)[C@H]2C[C@@H]1C2(C)C
REMARK SMILES IDX 1 1 2 2 3 3 4 4 5 5 6 6 7 7 8 8 9 9 10 10 11 11
REMARK H PARENT
REMARK Flexibility Score: inf
ROOT
ATOM      1  C   UNL     1     -11.013 -19.481  30.584  1.00  0.00     0.040 C 
ATOM      2  C   UNL     1     -11.423 -18.169  29.994  1.00  0.00    -0.066 C 
ATOM      3  C   UNL     1     -12.348 -17.376  30.602  1.00  0.00     0.047 C 
ATOM      4  C   UNL     1     -12.696 -16.101  29.896  1.00  0.00     0.159 C 
ATOM      5  O   UNL     1     -13.565 -15.303  30.336  1.00  0.00    -0.295 OA
ATOM      6  C   UNL     1     -11.925 -15.838  28.603  1.00  0.00     0.067 C 
ATOM      7  C   UNL     1     -10.459 -16.163  28.964  1.00  0.00     0.021 C 
ATOM      8  C   UNL     1     -10.808 -17.641  28.680  1.00  0.00     0.022 C 
ATOM      9  C   UNL     1     -11.942 -17.135  27.743  1.00  0.00    -0.019 C 
ATOM     10  C   UNL     1     -11.446 -16.890  26.295  1.00  0.00     0.012 C 
ATOM     11  C   UNL     1     -13.261 -17.957  27.674  1.00  0.00     0.012 C 
ENDROOT
TORSDOF 0
ENDMDL
MODEL 8
REMARK VINA RESULT:    -4.753      1.515      3.271
REMARK INTER + INTRA:          -4.753
REMARK INTER:                  -4.753
REMARK INTRA:                   0.000
REMARK UNBOUND:                 0.000
REMARK SMILES CC1=CC(=O)[C@H]2C[C@@H]1C2(C)C
REMARK SMILES IDX 1 1 2 2 3 3 4 4 5 5 6 6 7 7 8 8 9 9 10 10 11 11
REMARK H PARENT
REMARK Flexibility Score: inf
ROOT
ATOM      1  C   UNL     1      -9.875 -15.071  29.687  1.00  0.00     0.040 C 
ATOM      2  C   UNL     1     -10.861 -16.141  29.341  1.00  0.00    -0.066 C 
ATOM      3  C   UNL     1     -10.674 -17.432  29.732  1.00  0.00     0.047 C 
ATOM      4  C   UNL     1     -11.718 -18.416  29.297  1.00  0.00     0.159 C 
ATOM      5  O   UNL     1     -11.637 -19.643  29.561  1.00  0.00    -0.295 OA
ATOM      6  C   UNL     1     -12.885 -17.824  28.507  1.00  0.00     0.067 C 
ATOM      7  C   UNL     1     -13.277 -16.560  29.302  1.00  0.00     0.021 C 
ATOM      8  C   UNL     1     -12.145 -15.834  28.541  1.00  0.00     0.022 C 
ATOM      9  C   UNL     1     -12.312 -16.885  27.406  1.00  0.00    -0.019 C 
ATOM     10  C   UNL     1     -13.387 -16.468  26.369  1.00  0.00     0.012 C 
ATOM     11  C   UNL     1     -11.042 -17.342  26.633  1.00  0.00     0.012 C 
ENDROOT
TORSDOF 0
ENDMDL
MODEL 9
REMARK VINA RESULT:    -4.645      1.165      2.628
REMARK INTER + INTRA:          -4.645
REMARK INTER:                  -4.645
REMARK INTRA:                   0.000
REMARK UNBOUND:                 0.000
REMARK SMILES CC1=CC(=O)[C@H]2C[C@@H]1C2(C)C
REMARK SMILES IDX 1 1 2 2 3 3 4 4 5 5 6 6 7 7 8 8 9 9 10 10 11 11
REMARK H PARENT
REMARK Flexibility Score: inf
ROOT
ATOM      1  C   UNL     1     -13.481 -15.382  30.554  1.00  0.00     0.040 C 
ATOM      2  C   UNL     1     -12.812 -16.601  30.004  1.00  0.00    -0.066 C 
ATOM      3  C   UNL     1     -12.294 -17.557  30.824  1.00  0.00     0.047 C 
ATOM      4  C   UNL     1     -11.622 -18.715  30.151  1.00  0.00     0.159 C 
ATOM      5  O   UNL     1     -11.071 -19.642  30.799  1.00  0.00    -0.295 OA
ATOM      6  C   UNL     1     -11.652 -18.691  28.623  1.00  0.00     0.067 C 
ATOM      7  C   UNL     1     -13.111 -18.319  28.279  1.00  0.00     0.021 C 
ATOM      8  C   UNL     1     -12.692 -16.846  28.484  1.00  0.00     0.022 C 
ATOM      9  C   UNL     1     -11.235 -17.272  28.141  1.00  0.00    -0.019 C 
ATOM     10  C   UNL     1     -10.950 -17.226  26.618  1.00  0.00     0.012 C 
ATOM     11  C   UNL     1     -10.067 -16.556  28.878  1.00  0.00     0.012 C 
ENDROOT
TORSDOF 0
ENDMDL
