MODEL 1
REMARK VINA RESULT:    -6.655      0.000      0.000
REMARK INTER + INTRA:         -10.189
REMARK INTER:                  -9.379
REMARK INTRA:                  -0.810
REMARK UNBOUND:                -0.810
REMARK SMILES C=C(CC[C@@H](C(=O)[O-])[C@H]1[C@@H](O)C[C@@]2(C)C3=C(CC[C@@]12C)[C@@]1(C)CC[C@@H](O)C(C)(C)[C@H]1CC3)C(C)C
REMARK SMILES IDX 4 1 5 2 6 3 7 4 8 5 9 6 10 7 19 8 12 9 13 10 18 11 20 12
REMARK SMILES IDX 14 13 15 14 17 15 16 16 32 17 21 18 31 19 30 20 23 21 22 22
REMARK SMILES IDX 27 23 24 24 25 25 28 26 29 27 11 28 26 30 3 32 2 33 1 34
REMARK SMILES IDX 33 35 34 36 35 37
REMARK H PARENT 11 29 26 31
REMARK Flexibility Score: inf
ROOT
ATOM      1  C   UNL     1       3.906 -16.889 -37.067  1.00  0.00     0.014 C 
ENDROOT
BRANCH   1   2
ATOM      2  C   UNL     1       3.443 -18.248 -37.672  1.00  0.00     0.042 C 
BRANCH   2   3
ATOM      3  C   UNL     1       2.104 -18.077 -38.355  1.00  0.00     0.045 C 
ATOM      4  O   UNL     1       1.921 -17.130 -39.162  1.00  0.00    -0.550 OA
ATOM      5  O   UNL     1       1.045 -18.922 -38.053  1.00  0.00    -0.550 OA
ENDBRANCH   2   3
BRANCH   2   6
ATOM      6  C   UNL     1       4.449 -18.942 -38.673  1.00  0.00     0.033 C 
ATOM      7  C   UNL     1       5.308 -18.045 -39.592  1.00  0.00     0.119 C 
ATOM      8  C   UNL     1       5.351 -20.111 -38.157  1.00  0.00    -0.017 C 
ATOM      9  C   UNL     1       6.482 -18.907 -40.055  1.00  0.00     0.043 C 
ATOM     10  C   UNL     1       6.410 -20.290 -39.337  1.00  0.00    -0.003 C 
ATOM     11  C   UNL     1       6.036 -19.809 -36.784  1.00  0.00     0.012 C 
ATOM     12  C   UNL     1       4.478 -21.379 -37.909  1.00  0.00     0.013 C 
ATOM     13  C   UNL     1       5.901 -21.322 -40.391  1.00  0.00     0.017 C 
ATOM     14  C   UNL     1       7.842 -20.665 -38.848  1.00  0.00    -0.064 C 
ATOM     15  C   UNL     1       7.407 -19.179 -36.926  1.00  0.00     0.032 C 
ATOM     16  C   UNL     1       8.316 -20.131 -37.680  1.00  0.00    -0.064 C 
ATOM     17  C   UNL     1       8.803 -21.352 -39.825  1.00  0.00     0.032 C 
ATOM     18  C   UNL     1       9.784 -20.329 -37.263  1.00  0.00    -0.008 C 
ATOM     19  C   UNL     1      10.129 -21.893 -39.248  1.00  0.00     0.009 C 
ATOM     20  C   UNL     1      10.295 -21.740 -37.720  1.00  0.00     0.007 C 
ATOM     21  C   UNL     1      10.047 -20.208 -35.737  1.00  0.00     0.014 C 
ATOM     22  C   UNL     1      10.597 -19.204 -37.947  1.00  0.00     0.016 C 
ATOM     23  C   UNL     1       9.750 -22.974 -36.869  1.00  0.00    -0.006 C 
ATOM     24  C   UNL     1       9.343 -21.304 -34.942  1.00  0.00     0.033 C 
ATOM     25  C   UNL     1       9.882 -22.682 -35.337  1.00  0.00     0.120 C 
ATOM     26  C   UNL     1       8.283 -23.346 -37.208  1.00  0.00     0.014 C 
ATOM     27  C   UNL     1      10.618 -24.235 -37.154  1.00  0.00     0.014 C 
BRANCH   7  28
ATOM     28  O   UNL     1       5.805 -16.905 -38.945  1.00  0.00    -0.393 OA
ATOM     29  H   UNL     1       6.737 -16.760 -39.265  1.00  0.00     0.210 HD
ENDBRANCH   7  28
BRANCH  25  30
ATOM     30  O   UNL     1       9.218 -23.667 -34.588  1.00  0.00    -0.393 OA
ATOM     31  H   UNL     1       9.908 -24.262 -34.196  1.00  0.00     0.210 HD
ENDBRANCH  25  30
ENDBRANCH   2   6
ENDBRANCH   1   2
BRANCH   1  32
ATOM     32  C   UNL     1       3.869 -16.832 -35.527  1.00  0.00     0.031 C 
BRANCH  32  33
ATOM     33  C   UNL     1       5.124 -16.249 -34.899  1.00  0.00    -0.075 C 
ATOM     34  C   UNL     1       6.022 -15.635 -35.687  1.00  0.00     0.008 C 
BRANCH  33  35
ATOM     35  C   UNL     1       5.305 -16.193 -33.382  1.00  0.00     0.008 C 
ATOM     36  C   UNL     1       4.495 -15.043 -32.772  1.00  0.00     0.012 C 
ATOM     37  C   UNL     1       4.950 -17.523 -32.705  1.00  0.00     0.012 C 
ENDBRANCH  33  35
ENDBRANCH  32  33
ENDBRANCH   1  32
TORSDOF 8
ENDMDL
MODEL 2
REMARK VINA RESULT:    -6.401      9.424     12.678
REMARK INTER + INTRA:          -9.830
REMARK INTER:                  -8.558
REMARK INTRA:                  -1.273
REMARK UNBOUND:                -0.810
REMARK SMILES C=C(CC[C@@H](C(=O)[O-])[C@H]1[C@@H](O)C[C@@]2(C)C3=C(CC[C@@]12C)[C@@]1(C)CC[C@@H](O)C(C)(C)[C@H]1CC3)C(C)C
REMARK SMILES IDX 4 1 5 2 6 3 7 4 8 5 9 6 10 7 19 8 12 9 13 10 18 11 20 12
REMARK SMILES IDX 14 13 15 14 17 15 16 16 32 17 21 18 31 19 30 20 23 21 22 22
REMARK SMILES IDX 27 23 24 24 25 25 28 26 29 27 11 28 26 30 3 32 2 33 1 34
REMARK SMILES IDX 33 35 34 36 35 37
REMARK H PARENT 11 29 26 31
REMARK Flexibility Score: inf
ROOT
ATOM      1  C   UNL     1      13.468 -11.853 -43.659  1.00  0.00     0.014 C 
ENDROOT
BRANCH   1   2
ATOM      2  C   UNL     1      14.178 -12.740 -44.725  1.00  0.00     0.042 C 
BRANCH   2   3
ATOM      3  C   UNL     1      15.644 -12.884 -44.380  1.00  0.00     0.045 C 
ATOM      4  O   UNL     1      16.125 -12.273 -43.391  1.00  0.00    -0.550 OA
ATOM      5  O   UNL     1      16.487 -13.638 -45.184  1.00  0.00    -0.550 OA
ENDBRANCH   2   3
BRANCH   2   6
ATOM      6  C   UNL     1      13.559 -14.174 -44.961  1.00  0.00     0.033 C 
ATOM      7  C   UNL     1      13.131 -15.001 -43.729  1.00  0.00     0.119 C 
ATOM      8  C   UNL     1      12.473 -14.360 -46.071  1.00  0.00    -0.017 C 
ATOM      9  C   UNL     1      12.154 -16.059 -44.242  1.00  0.00     0.043 C 
ATOM     10  C   UNL     1      11.895 -15.815 -45.761  1.00  0.00    -0.003 C 
ATOM     11  C   UNL     1      11.361 -13.261 -46.045  1.00  0.00     0.012 C 
ATOM     12  C   UNL     1      13.133 -14.242 -47.479  1.00  0.00     0.013 C 
ATOM     13  C   UNL     1      12.690 -16.908 -46.539  1.00  0.00     0.017 C 
ATOM     14  C   UNL     1      10.365 -15.956 -46.026  1.00  0.00    -0.064 C 
ATOM     15  C   UNL     1      10.165 -13.639 -45.196  1.00  0.00     0.032 C 
ATOM     16  C   UNL     1       9.535 -14.900 -45.758  1.00  0.00    -0.064 C 
ATOM     17  C   UNL     1       9.779 -17.352 -46.269  1.00  0.00     0.032 C 
ATOM     18  C   UNL     1       8.006 -15.063 -45.830  1.00  0.00    -0.008 C 
ATOM     19  C   UNL     1       8.309 -17.429 -46.733  1.00  0.00     0.009 C 
ATOM     20  C   UNL     1       7.618 -16.068 -46.970  1.00  0.00     0.007 C 
ATOM     21  C   UNL     1       7.224 -13.744 -46.083  1.00  0.00     0.014 C 
ATOM     22  C   UNL     1       7.549 -15.596 -44.451  1.00  0.00     0.016 C 
ATOM     23  C   UNL     1       7.760 -15.505 -48.456  1.00  0.00    -0.006 C 
ATOM     24  C   UNL     1       7.542 -13.139 -47.447  1.00  0.00     0.033 C 
ATOM     25  C   UNL     1       7.108 -14.087 -48.568  1.00  0.00     0.120 C 
ATOM     26  C   UNL     1       9.230 -15.447 -48.946  1.00  0.00     0.014 C 
ATOM     27  C   UNL     1       6.986 -16.427 -49.444  1.00  0.00     0.014 C 
BRANCH   7  28
ATOM     28  O   UNL     1      12.497 -14.235 -42.741  1.00  0.00    -0.393 OA
ATOM     29  H   UNL     1      11.879 -13.603 -43.202  1.00  0.00     0.210 HD
ENDBRANCH   7  28
BRANCH  25  30
ATOM     30  O   UNL     1       7.410 -13.502 -49.808  1.00  0.00    -0.393 OA
ATOM     31  H   UNL     1       6.578 -13.499 -50.349  1.00  0.00     0.210 HD
ENDBRANCH  25  30
ENDBRANCH   2   6
ENDBRANCH   1   2
BRANCH   1  32
ATOM     32  C   UNL     1      12.838 -10.563 -44.220  1.00  0.00     0.031 C 
BRANCH  32  33
ATOM     33  C   UNL     1      11.376 -10.377 -43.850  1.00  0.00    -0.075 C 
ATOM     34  C   UNL     1      10.907 -10.958 -42.734  1.00  0.00     0.008 C 
BRANCH  33  35
ATOM     35  C   UNL     1      10.475  -9.410 -44.620  1.00  0.00     0.008 C 
ATOM     36  C   UNL     1       9.140 -10.070 -44.983  1.00  0.00     0.012 C 
ATOM     37  C   UNL     1      10.241  -8.101 -43.854  1.00  0.00     0.012 C 
ENDBRANCH  33  35
ENDBRANCH  32  33
ENDBRANCH   1  32
TORSDOF 8
ENDMDL
MODEL 3
REMARK VINA RESULT:    -6.188      2.924      4.833
REMARK INTER + INTRA:          -9.530
REMARK INTER:                  -7.985
REMARK INTRA:                  -1.545
REMARK UNBOUND:                -0.810
REMARK SMILES C=C(CC[C@@H](C(=O)[O-])[C@H]1[C@@H](O)C[C@@]2(C)C3=C(CC[C@@]12C)[C@@]1(C)CC[C@@H](O)C(C)(C)[C@H]1CC3)C(C)C
REMARK SMILES IDX 4 1 5 2 6 3 7 4 8 5 9 6 10 7 19 8 12 9 13 10 18 11 20 12
REMARK SMILES IDX 14 13 15 14 17 15 16 16 32 17 21 18 31 19 30 20 23 21 22 22
REMARK SMILES IDX 27 23 24 24 25 25 28 26 29 27 11 28 26 30 3 32 2 33 1 34
REMARK SMILES IDX 33 35 34 36 35 37
REMARK H PARENT 11 29 26 31
REMARK Flexibility Score: inf
ROOT
ATOM      1  C   UNL     1       7.846 -18.593 -37.383  1.00  0.00     0.014 C 
ENDROOT
BRANCH   1   2
ATOM      2  C   UNL     1       7.206 -18.569 -38.803  1.00  0.00     0.042 C 
BRANCH   2   3
ATOM      3  C   UNL     1       6.488 -17.255 -39.020  1.00  0.00     0.045 C 
ATOM      4  O   UNL     1       5.551 -17.176 -39.855  1.00  0.00    -0.550 OA
ATOM      5  O   UNL     1       6.894 -16.110 -38.349  1.00  0.00    -0.550 OA
ENDBRANCH   2   3
BRANCH   2   6
ATOM      6  C   UNL     1       8.186 -18.829 -40.014  1.00  0.00     0.033 C 
ATOM      7  C   UNL     1       9.181 -17.714 -40.406  1.00  0.00     0.119 C 
ATOM      8  C   UNL     1       8.933 -20.200 -40.107  1.00  0.00    -0.017 C 
ATOM      9  C   UNL     1      10.283 -18.392 -41.221  1.00  0.00     0.043 C 
ATOM     10  C   UNL     1      10.028 -19.932 -41.235  1.00  0.00    -0.003 C 
ATOM     11  C   UNL     1       9.571 -20.655 -38.754  1.00  0.00     0.012 C 
ATOM     12  C   UNL     1       7.920 -21.326 -40.482  1.00  0.00     0.013 C 
ATOM     13  C   UNL     1       9.473 -20.286 -42.649  1.00  0.00     0.017 C 
ATOM     14  C   UNL     1      11.386 -20.655 -40.981  1.00  0.00    -0.064 C 
ATOM     15  C   UNL     1      11.005 -20.197 -38.585  1.00  0.00     0.032 C 
ATOM     16  C   UNL     1      11.849 -20.786 -39.700  1.00  0.00    -0.064 C 
ATOM     17  C   UNL     1      12.321 -20.916 -42.168  1.00  0.00     0.032 C 
ATOM     18  C   UNL     1      13.265 -21.326 -39.427  1.00  0.00    -0.008 C 
ATOM     19  C   UNL     1      13.551 -21.814 -41.914  1.00  0.00     0.009 C 
ATOM     20  C   UNL     1      13.650 -22.411 -40.492  1.00  0.00     0.007 C 
ATOM     21  C   UNL     1      13.457 -21.962 -38.022  1.00  0.00     0.014 C 
ATOM     22  C   UNL     1      14.226 -20.116 -39.504  1.00  0.00     0.016 C 
ATOM     23  C   UNL     1      12.935 -23.826 -40.318  1.00  0.00    -0.006 C 
ATOM     24  C   UNL     1      12.601 -23.211 -37.833  1.00  0.00     0.033 C 
ATOM     25  C   UNL     1      13.014 -24.299 -38.829  1.00  0.00     0.120 C 
ATOM     26  C   UNL     1      11.457 -23.823 -40.790  1.00  0.00     0.014 C 
ATOM     27  C   UNL     1      13.681 -24.900 -41.163  1.00  0.00     0.014 C 
BRANCH   7  28
ATOM     28  O   UNL     1       9.758 -17.074 -39.300  1.00  0.00    -0.393 OA
ATOM     29  H   UNL     1      10.686 -16.813 -39.555  1.00  0.00     0.210 HD
ENDBRANCH   7  28
BRANCH  25  30
ATOM     30  O   UNL     1      12.212 -25.434 -38.628  1.00  0.00    -0.393 OA
ATOM     31  H   UNL     1      12.042 -25.513 -37.653  1.00  0.00     0.210 HD
ENDBRANCH  25  30
ENDBRANCH   2   6
ENDBRANCH   1   2
BRANCH   1  32
ATOM     32  C   UNL     1       7.023 -19.352 -36.324  1.00  0.00     0.031 C 
BRANCH  32  33
ATOM     33  C   UNL     1       7.546 -20.745 -36.016  1.00  0.00    -0.075 C 
ATOM     34  C   UNL     1       8.625 -20.876 -35.226  1.00  0.00     0.008 C 
BRANCH  33  35
ATOM     35  C   UNL     1       6.776 -21.998 -36.437  1.00  0.00     0.008 C 
ATOM     36  C   UNL     1       5.620 -21.644 -37.379  1.00  0.00     0.012 C 
ATOM     37  C   UNL     1       7.689 -23.053 -37.074  1.00  0.00     0.012 C 
ENDBRANCH  33  35
ENDBRANCH  32  33
ENDBRANCH   1  32
TORSDOF 8
ENDMDL
MODEL 4
REMARK VINA RESULT:    -6.104      3.259      6.186
REMARK INTER + INTRA:          -9.412
REMARK INTER:                  -9.126
REMARK INTRA:                  -0.286
REMARK UNBOUND:                -0.810
REMARK SMILES C=C(CC[C@@H](C(=O)[O-])[C@H]1[C@@H](O)C[C@@]2(C)C3=C(CC[C@@]12C)[C@@]1(C)CC[C@@H](O)C(C)(C)[C@H]1CC3)C(C)C
REMARK SMILES IDX 4 1 5 2 6 3 7 4 8 5 9 6 10 7 19 8 12 9 13 10 18 11 20 12
REMARK SMILES IDX 14 13 15 14 17 15 16 16 32 17 21 18 31 19 30 20 23 21 22 22
REMARK SMILES IDX 27 23 24 24 25 25 28 26 29 27 11 28 26 30 3 32 2 33 1 34
REMARK SMILES IDX 33 35 34 36 35 37
REMARK H PARENT 11 29 26 31
REMARK Flexibility Score: inf
ROOT
ATOM      1  C   UNL     1       6.495 -22.058 -37.510  1.00  0.00     0.014 C 
ENDROOT
BRANCH   1   2
ATOM      2  C   UNL     1       7.757 -22.082 -36.598  1.00  0.00     0.042 C 
BRANCH   2   3
ATOM      3  C   UNL     1       8.423 -23.438 -36.677  1.00  0.00     0.045 C 
ATOM      4  O   UNL     1       8.274 -24.158 -37.697  1.00  0.00    -0.550 OA
ATOM      5  O   UNL     1       9.154 -23.929 -35.604  1.00  0.00    -0.550 OA
ENDBRANCH   2   3
BRANCH   2   6
ATOM      6  C   UNL     1       8.835 -20.960 -36.870  1.00  0.00     0.033 C 
ATOM      7  C   UNL     1       9.717 -20.487 -35.692  1.00  0.00     0.119 C 
ATOM      8  C   UNL     1       9.741 -21.067 -38.141  1.00  0.00    -0.017 C 
ATOM      9  C   UNL     1      10.939 -19.813 -36.317  1.00  0.00     0.043 C 
ATOM     10  C   UNL     1      10.866 -19.969 -37.868  1.00  0.00    -0.003 C 
ATOM     11  C   UNL     1      10.341 -22.494 -38.359  1.00  0.00     0.012 C 
ATOM     12  C   UNL     1       8.891 -20.780 -39.417  1.00  0.00     0.013 C 
ATOM     13  C   UNL     1      10.445 -18.582 -38.444  1.00  0.00     0.017 C 
ATOM     14  C   UNL     1      12.280 -20.374 -38.387  1.00  0.00    -0.064 C 
ATOM     15  C   UNL     1      11.699 -22.677 -37.713  1.00  0.00     0.032 C 
ATOM     16  C   UNL     1      12.674 -21.683 -38.315  1.00  0.00    -0.064 C 
ATOM     17  C   UNL     1      13.312 -19.273 -38.661  1.00  0.00     0.032 C 
ATOM     18  C   UNL     1      14.123 -22.087 -38.643  1.00  0.00    -0.008 C 
ATOM     19  C   UNL     1      14.619 -19.692 -39.368  1.00  0.00     0.009 C 
ATOM     20  C   UNL     1      14.698 -21.178 -39.785  1.00  0.00     0.007 C 
ATOM     21  C   UNL     1      14.299 -23.565 -39.089  1.00  0.00     0.014 C 
ATOM     22  C   UNL     1      14.940 -21.913 -37.341  1.00  0.00     0.016 C 
ATOM     23  C   UNL     1      14.142 -21.484 -41.249  1.00  0.00    -0.006 C 
ATOM     24  C   UNL     1      13.584 -23.859 -40.405  1.00  0.00     0.033 C 
ATOM     25  C   UNL     1      14.182 -23.021 -41.538  1.00  0.00     0.120 C 
ATOM     26  C   UNL     1      12.707 -20.943 -41.480  1.00  0.00     0.014 C 
ATOM     27  C   UNL     1      15.060 -20.810 -42.311  1.00  0.00     0.014 C 
BRANCH   7  28
ATOM     28  O   UNL     1      10.145 -21.536 -34.867  1.00  0.00    -0.393 OA
ATOM     29  H   UNL     1       9.633 -21.475 -34.014  1.00  0.00     0.210 HD
ENDBRANCH   7  28
BRANCH  25  30
ATOM     30  O   UNL     1      13.507 -23.316 -42.733  1.00  0.00    -0.393 OA
ATOM     31  H   UNL     1      13.020 -22.497 -43.013  1.00  0.00     0.210 HD
ENDBRANCH  25  30
ENDBRANCH   2   6
ENDBRANCH   1   2
BRANCH   1  32
ATOM     32  C   UNL     1       5.459 -20.980 -37.138  1.00  0.00     0.031 C 
BRANCH  32  33
ATOM     33  C   UNL     1       5.606 -19.685 -37.919  1.00  0.00    -0.075 C 
ATOM     34  C   UNL     1       5.274 -19.667 -39.220  1.00  0.00     0.008 C 
BRANCH  33  35
ATOM     35  C   UNL     1       5.955 -18.368 -37.222  1.00  0.00     0.008 C 
ATOM     36  C   UNL     1       6.352 -18.606 -35.761  1.00  0.00     0.012 C 
ATOM     37  C   UNL     1       7.053 -17.594 -37.962  1.00  0.00     0.012 C 
ENDBRANCH  33  35
ENDBRANCH  32  33
ENDBRANCH   1  32
TORSDOF 8
ENDMDL
MODEL 5
REMARK VINA RESULT:    -6.055      4.015      9.062
REMARK INTER + INTRA:          -9.343
REMARK INTER:                  -9.062
REMARK INTRA:                  -0.281
REMARK UNBOUND:                -0.810
REMARK SMILES C=C(CC[C@@H](C(=O)[O-])[C@H]1[C@@H](O)C[C@@]2(C)C3=C(CC[C@@]12C)[C@@]1(C)CC[C@@H](O)C(C)(C)[C@H]1CC3)C(C)C
REMARK SMILES IDX 4 1 5 2 6 3 7 4 8 5 9 6 10 7 19 8 12 9 13 10 18 11 20 12
REMARK SMILES IDX 14 13 15 14 17 15 16 16 32 17 21 18 31 19 30 20 23 21 22 22
REMARK SMILES IDX 27 23 24 24 25 25 28 26 29 27 11 28 26 30 3 32 2 33 1 34
REMARK SMILES IDX 33 35 34 36 35 37
REMARK H PARENT 11 29 26 31
REMARK Flexibility Score: inf
ROOT
ATOM      1  C   UNL     1      14.214 -20.642 -39.501  1.00  0.00     0.014 C 
ENDROOT
BRANCH   1   2
ATOM      2  C   UNL     1      13.568 -21.757 -38.626  1.00  0.00     0.042 C 
BRANCH   2   3
ATOM      3  C   UNL     1      14.647 -22.546 -37.919  1.00  0.00     0.045 C 
ATOM      4  O   UNL     1      15.331 -22.010 -37.011  1.00  0.00    -0.550 OA
ATOM      5  O   UNL     1      14.937 -23.848 -38.305  1.00  0.00    -0.550 OA
ENDBRANCH   2   3
BRANCH   2   6
ATOM      6  C   UNL     1      12.498 -21.279 -37.567  1.00  0.00     0.033 C 
ATOM      7  C   UNL     1      12.528 -19.804 -37.108  1.00  0.00     0.119 C 
ATOM      8  C   UNL     1      11.003 -21.699 -37.753  1.00  0.00    -0.017 C 
ATOM      9  C   UNL     1      11.150 -19.513 -36.513  1.00  0.00     0.043 C 
ATOM     10  C   UNL     1      10.240 -20.766 -36.706  1.00  0.00    -0.003 C 
ATOM     11  C   UNL     1      10.479 -21.506 -39.213  1.00  0.00     0.012 C 
ATOM     12  C   UNL     1      10.844 -23.222 -37.457  1.00  0.00     0.013 C 
ATOM     13  C   UNL     1      10.128 -21.464 -35.315  1.00  0.00     0.017 C 
ATOM     14  C   UNL     1       8.840 -20.285 -37.194  1.00  0.00    -0.064 C 
ATOM     15  C   UNL     1       9.841 -20.151 -39.446  1.00  0.00     0.032 C 
ATOM     16  C   UNL     1       8.651 -19.995 -38.518  1.00  0.00    -0.064 C 
ATOM     17  C   UNL     1       7.805 -19.838 -36.154  1.00  0.00     0.032 C 
ATOM     18  C   UNL     1       7.343 -19.344 -39.002  1.00  0.00    -0.008 C 
ATOM     19  C   UNL     1       6.370 -19.569 -36.656  1.00  0.00     0.009 C 
ATOM     20  C   UNL     1       6.130 -19.860 -38.154  1.00  0.00     0.007 C 
ATOM     21  C   UNL     1       7.008 -19.595 -40.499  1.00  0.00     0.014 C 
ATOM     22  C   UNL     1       7.518 -17.816 -38.835  1.00  0.00     0.016 C 
ATOM     23  C   UNL     1       5.657 -21.351 -38.470  1.00  0.00    -0.006 C 
ATOM     24  C   UNL     1       6.752 -21.071 -40.792  1.00  0.00     0.033 C 
ATOM     25  C   UNL     1       5.530 -21.567 -40.015  1.00  0.00     0.120 C 
ATOM     26  C   UNL     1       6.596 -22.427 -37.865  1.00  0.00     0.014 C 
ATOM     27  C   UNL     1       4.241 -21.592 -37.871  1.00  0.00     0.014 C 
BRANCH   7  28
ATOM     28  O   UNL     1      12.772 -18.903 -38.154  1.00  0.00    -0.393 OA
ATOM     29  H   UNL     1      13.285 -18.136 -37.777  1.00  0.00     0.210 HD
ENDBRANCH   7  28
BRANCH  25  30
ATOM     30  O   UNL     1       5.319 -22.924 -40.307  1.00  0.00    -0.393 OA
ATOM     31  H   UNL     1       6.018 -23.204 -40.953  1.00  0.00     0.210 HD
ENDBRANCH  25  30
ENDBRANCH   2   6
ENDBRANCH   1   2
BRANCH   1  32
ATOM     32  C   UNL     1      14.657 -21.106 -40.902  1.00  0.00     0.031 C 
BRANCH  32  33
ATOM     33  C   UNL     1      16.130 -20.872 -41.195  1.00  0.00    -0.075 C 
ATOM     34  C   UNL     1      17.013 -20.934 -40.185  1.00  0.00     0.008 C 
BRANCH  33  35
ATOM     35  C   UNL     1      16.647 -20.741 -42.628  1.00  0.00     0.008 C 
ATOM     36  C   UNL     1      15.770 -19.786 -43.446  1.00  0.00     0.012 C 
ATOM     37  C   UNL     1      18.116 -20.301 -42.677  1.00  0.00     0.012 C 
ENDBRANCH  33  35
ENDBRANCH  32  33
ENDBRANCH   1  32
TORSDOF 8
ENDMDL
MODEL 6
REMARK VINA RESULT:    -6.038      3.314      8.710
REMARK INTER + INTRA:          -9.319
REMARK INTER:                  -8.173
REMARK INTRA:                  -1.146
REMARK UNBOUND:                -0.810
REMARK SMILES C=C(CC[C@@H](C(=O)[O-])[C@H]1[C@@H](O)C[C@@]2(C)C3=C(CC[C@@]12C)[C@@]1(C)CC[C@@H](O)C(C)(C)[C@H]1CC3)C(C)C
REMARK SMILES IDX 4 1 5 2 6 3 7 4 8 5 9 6 10 7 19 8 12 9 13 10 18 11 20 12
REMARK SMILES IDX 14 13 15 14 17 15 16 16 32 17 21 18 31 19 30 20 23 21 22 22
REMARK SMILES IDX 27 23 24 24 25 25 28 26 29 27 11 28 26 30 3 32 2 33 1 34
REMARK SMILES IDX 33 35 34 36 35 37
REMARK H PARENT 11 29 26 31
REMARK Flexibility Score: inf
ROOT
ATOM      1  C   UNL     1      13.450 -21.400 -40.003  1.00  0.00     0.014 C 
ENDROOT
BRANCH   1   2
ATOM      2  C   UNL     1      13.591 -21.909 -38.537  1.00  0.00     0.042 C 
BRANCH   2   3
ATOM      3  C   UNL     1      14.983 -21.615 -38.023  1.00  0.00     0.045 C 
ATOM      4  O   UNL     1      15.819 -21.029 -38.757  1.00  0.00    -0.550 OA
ATOM      5  O   UNL     1      15.373 -22.041 -36.761  1.00  0.00    -0.550 OA
ENDBRANCH   2   3
BRANCH   2   6
ATOM      6  C   UNL     1      12.531 -21.358 -37.504  1.00  0.00     0.033 C 
ATOM      7  C   UNL     1      12.595 -19.865 -37.111  1.00  0.00     0.119 C 
ATOM      8  C   UNL     1      11.026 -21.750 -37.676  1.00  0.00    -0.017 C 
ATOM      9  C   UNL     1      11.223 -19.516 -36.534  1.00  0.00     0.043 C 
ATOM     10  C   UNL     1      10.284 -20.754 -36.674  1.00  0.00    -0.003 C 
ATOM     11  C   UNL     1      10.511 -21.610 -39.145  1.00  0.00     0.012 C 
ATOM     12  C   UNL     1      10.830 -23.254 -37.314  1.00  0.00     0.013 C 
ATOM     13  C   UNL     1      10.151 -21.386 -35.254  1.00  0.00     0.017 C 
ATOM     14  C   UNL     1       8.896 -20.261 -37.188  1.00  0.00    -0.064 C 
ATOM     15  C   UNL     1       9.907 -20.252 -39.440  1.00  0.00     0.032 C 
ATOM     16  C   UNL     1       8.718 -20.027 -38.525  1.00  0.00    -0.064 C 
ATOM     17  C   UNL     1       7.871 -19.744 -36.173  1.00  0.00     0.032 C 
ATOM     18  C   UNL     1       7.427 -19.367 -39.042  1.00  0.00    -0.008 C 
ATOM     19  C   UNL     1       6.444 -19.464 -36.691  1.00  0.00     0.009 C 
ATOM     20  C   UNL     1       6.200 -19.815 -38.176  1.00  0.00     0.007 C 
ATOM     21  C   UNL     1       7.090 -19.677 -40.527  1.00  0.00     0.014 C 
ATOM     22  C   UNL     1       7.639 -17.837 -38.943  1.00  0.00     0.016 C 
ATOM     23  C   UNL     1       5.693 -21.307 -38.427  1.00  0.00    -0.006 C 
ATOM     24  C   UNL     1       6.800 -21.157 -40.755  1.00  0.00     0.033 C 
ATOM     25  C   UNL     1       5.564 -21.589 -39.961  1.00  0.00     0.120 C 
ATOM     26  C   UNL     1       6.604 -22.377 -37.772  1.00  0.00     0.014 C 
ATOM     27  C   UNL     1       4.269 -21.488 -37.823  1.00  0.00     0.014 C 
BRANCH   7  28
ATOM     28  O   UNL     1      12.864 -19.019 -38.195  1.00  0.00    -0.393 OA
ATOM     29  H   UNL     1      12.896 -18.085 -37.847  1.00  0.00     0.210 HD
ENDBRANCH   7  28
BRANCH  25  30
ATOM     30  O   UNL     1       5.321 -22.952 -40.193  1.00  0.00    -0.393 OA
ATOM     31  H   UNL     1       4.348 -23.108 -40.079  1.00  0.00     0.210 HD
ENDBRANCH  25  30
ENDBRANCH   2   6
ENDBRANCH   1   2
BRANCH   1  32
ATOM     32  C   UNL     1      13.851 -22.430 -41.077  1.00  0.00     0.031 C 
BRANCH  32  33
ATOM     33  C   UNL     1      13.041 -23.716 -41.033  1.00  0.00    -0.075 C 
ATOM     34  C   UNL     1      11.848 -23.757 -41.647  1.00  0.00     0.008 C 
BRANCH  33  35
ATOM     35  C   UNL     1      13.626 -25.007 -40.459  1.00  0.00     0.008 C 
ATOM     36  C   UNL     1      14.982 -24.750 -39.790  1.00  0.00     0.012 C 
ATOM     37  C   UNL     1      12.664 -25.697 -39.483  1.00  0.00     0.012 C 
ENDBRANCH  33  35
ENDBRANCH  32  33
ENDBRANCH   1  32
TORSDOF 8
ENDMDL
MODEL 7
REMARK VINA RESULT:    -6.020      3.176      7.855
REMARK INTER + INTRA:          -9.293
REMARK INTER:                  -7.788
REMARK INTRA:                  -1.505
REMARK UNBOUND:                -0.810
REMARK SMILES C=C(CC[C@@H](C(=O)[O-])[C@H]1[C@@H](O)C[C@@]2(C)C3=C(CC[C@@]12C)[C@@]1(C)CC[C@@H](O)C(C)(C)[C@H]1CC3)C(C)C
REMARK SMILES IDX 4 1 5 2 6 3 7 4 8 5 9 6 10 7 19 8 12 9 13 10 18 11 20 12
REMARK SMILES IDX 14 13 15 14 17 15 16 16 32 17 21 18 31 19 30 20 23 21 22 22
REMARK SMILES IDX 27 23 24 24 25 25 28 26 29 27 11 28 26 30 3 32 2 33 1 34
REMARK SMILES IDX 33 35 34 36 35 37
REMARK H PARENT 11 29 26 31
REMARK Flexibility Score: inf
ROOT
ATOM      1  C   UNL     1      11.612 -23.350 -37.681  1.00  0.00     0.014 C 
ENDROOT
BRANCH   1   2
ATOM      2  C   UNL     1      12.511 -22.096 -37.890  1.00  0.00     0.042 C 
BRANCH   2   3
ATOM      3  C   UNL     1      13.970 -22.492 -37.825  1.00  0.00     0.045 C 
ATOM      4  O   UNL     1      14.356 -23.572 -38.339  1.00  0.00    -0.550 OA
ATOM      5  O   UNL     1      14.885 -21.701 -37.144  1.00  0.00    -0.550 OA
ENDBRANCH   2   3
BRANCH   2   6
ATOM      6  C   UNL     1      12.259 -21.271 -39.214  1.00  0.00     0.033 C 
ATOM      7  C   UNL     1      11.914 -22.044 -40.507  1.00  0.00     0.119 C 
ATOM      8  C   UNL     1      11.353 -19.997 -39.155  1.00  0.00    -0.017 C 
ATOM      9  C   UNL     1      11.256 -21.034 -41.446  1.00  0.00     0.043 C 
ATOM     10  C   UNL     1      11.093 -19.675 -40.697  1.00  0.00    -0.003 C 
ATOM     11  C   UNL     1      10.024 -20.214 -38.361  1.00  0.00     0.012 C 
ATOM     12  C   UNL     1      12.100 -18.855 -38.401  1.00  0.00     0.013 C 
ATOM     13  C   UNL     1      12.186 -18.714 -41.258  1.00  0.00     0.017 C 
ATOM     14  C   UNL     1       9.667 -19.120 -40.993  1.00  0.00    -0.064 C 
ATOM     15  C   UNL     1       8.870 -20.659 -39.236  1.00  0.00     0.032 C 
ATOM     16  C   UNL     1       8.598 -19.593 -40.281  1.00  0.00    -0.064 C 
ATOM     17  C   UNL     1       9.439 -18.308 -42.274  1.00  0.00     0.032 C 
ATOM     18  C   UNL     1       7.160 -19.207 -40.670  1.00  0.00    -0.008 C 
ATOM     19  C   UNL     1       8.075 -17.602 -42.428  1.00  0.00     0.009 C 
ATOM     20  C   UNL     1       7.119 -17.740 -41.221  1.00  0.00     0.007 C 
ATOM     21  C   UNL     1       6.127 -19.301 -39.513  1.00  0.00     0.014 C 
ATOM     22  C   UNL     1       6.707 -20.213 -41.755  1.00  0.00     0.016 C 
ATOM     23  C   UNL     1       7.270 -16.591 -40.125  1.00  0.00    -0.006 C 
ATOM     24  C   UNL     1       6.427 -18.309 -38.392  1.00  0.00     0.033 C 
ATOM     25  C   UNL     1       6.327 -16.871 -38.908  1.00  0.00     0.120 C 
ATOM     26  C   UNL     1       8.729 -16.412 -39.629  1.00  0.00     0.014 C 
ATOM     27  C   UNL     1       6.823 -15.227 -40.726  1.00  0.00     0.014 C 
BRANCH   7  28
ATOM     28  O   UNL     1      11.032 -23.113 -40.294  1.00  0.00    -0.393 OA
ATOM     29  H   UNL     1      10.976 -23.264 -39.310  1.00  0.00     0.210 HD
ENDBRANCH   7  28
BRANCH  25  30
ATOM     30  O   UNL     1       6.605 -15.985 -37.855  1.00  0.00    -0.393 OA
ATOM     31  H   UNL     1       5.782 -15.903 -37.306  1.00  0.00     0.210 HD
ENDBRANCH  25  30
ENDBRANCH   2   6
ENDBRANCH   1   2
BRANCH   1  32
ATOM     32  C   UNL     1      10.744 -23.307 -36.408  1.00  0.00     0.031 C 
BRANCH  32  33
ATOM     33  C   UNL     1       9.249 -23.365 -36.677  1.00  0.00    -0.075 C 
ATOM     34  C   UNL     1       8.793 -24.160 -37.659  1.00  0.00     0.008 C 
BRANCH  33  35
ATOM     35  C   UNL     1       8.245 -22.677 -35.751  1.00  0.00     0.008 C 
ATOM     36  C   UNL     1       8.902 -21.523 -34.985  1.00  0.00     0.012 C 
ATOM     37  C   UNL     1       7.001 -22.187 -36.504  1.00  0.00     0.012 C 
ENDBRANCH  33  35
ENDBRANCH  32  33
ENDBRANCH   1  32
TORSDOF 8
ENDMDL
MODEL 8
REMARK VINA RESULT:    -5.973      2.575      7.817
REMARK INTER + INTRA:          -9.227
REMARK INTER:                  -7.724
REMARK INTRA:                  -1.503
REMARK UNBOUND:                -0.810
REMARK SMILES C=C(CC[C@@H](C(=O)[O-])[C@H]1[C@@H](O)C[C@@]2(C)C3=C(CC[C@@]12C)[C@@]1(C)CC[C@@H](O)C(C)(C)[C@H]1CC3)C(C)C
REMARK SMILES IDX 4 1 5 2 6 3 7 4 8 5 9 6 10 7 19 8 12 9 13 10 18 11 20 12
REMARK SMILES IDX 14 13 15 14 17 15 16 16 32 17 21 18 31 19 30 20 23 21 22 22
REMARK SMILES IDX 27 23 24 24 25 25 28 26 29 27 11 28 26 30 3 32 2 33 1 34
REMARK SMILES IDX 33 35 34 36 35 37
REMARK H PARENT 11 29 26 31
REMARK Flexibility Score: inf
ROOT
ATOM      1  C   UNL     1      12.597 -21.477 -37.467  1.00  0.00     0.014 C 
ENDROOT
BRANCH   1   2
ATOM      2  C   UNL     1      11.361 -22.297 -37.942  1.00  0.00     0.042 C 
BRANCH   2   3
ATOM      3  C   UNL     1      11.638 -23.776 -37.794  1.00  0.00     0.045 C 
ATOM      4  O   UNL     1      12.480 -24.341 -38.537  1.00  0.00    -0.550 OA
ATOM      5  O   UNL     1      10.923 -24.539 -36.880  1.00  0.00    -0.550 OA
ENDBRANCH   2   3
BRANCH   2   6
ATOM      6  C   UNL     1       9.987 -21.955 -37.241  1.00  0.00     0.033 C 
ATOM      7  C   UNL     1      10.015 -21.133 -35.933  1.00  0.00     0.119 C 
ATOM      8  C   UNL     1       8.796 -21.437 -38.113  1.00  0.00    -0.017 C 
ATOM      9  C   UNL     1       8.613 -20.547 -35.767  1.00  0.00     0.043 C 
ATOM     10  C   UNL     1       7.759 -20.911 -37.021  1.00  0.00    -0.003 C 
ATOM     11  C   UNL     1       9.207 -20.322 -39.130  1.00  0.00     0.012 C 
ATOM     12  C   UNL     1       8.239 -22.603 -38.986  1.00  0.00     0.013 C 
ATOM     13  C   UNL     1       6.780 -22.046 -36.588  1.00  0.00     0.017 C 
ATOM     14  C   UNL     1       6.968 -19.641 -37.461  1.00  0.00    -0.064 C 
ATOM     15  C   UNL     1       9.050 -18.921 -38.575  1.00  0.00     0.032 C 
ATOM     16  C   UNL     1       7.595 -18.687 -38.217  1.00  0.00    -0.064 C 
ATOM     17  C   UNL     1       5.629 -19.329 -36.784  1.00  0.00     0.032 C 
ATOM     18  C   UNL     1       6.907 -17.342 -38.513  1.00  0.00    -0.008 C 
ATOM     19  C   UNL     1       4.781 -18.189 -37.388  1.00  0.00     0.009 C 
ATOM     20  C   UNL     1       5.360 -17.542 -38.666  1.00  0.00     0.007 C 
ATOM     21  C   UNL     1       7.415 -16.621 -39.793  1.00  0.00     0.014 C 
ATOM     22  C   UNL     1       7.224 -16.408 -37.320  1.00  0.00     0.016 C 
ATOM     23  C   UNL     1       4.889 -18.230 -40.026  1.00  0.00    -0.006 C 
ATOM     24  C   UNL     1       7.111 -17.416 -41.060  1.00  0.00     0.033 C 
ATOM     25  C   UNL     1       5.598 -17.561 -41.250  1.00  0.00     0.120 C 
ATOM     26  C   UNL     1       5.135 -19.761 -40.049  1.00  0.00     0.014 C 
ATOM     27  C   UNL     1       3.361 -18.010 -40.226  1.00  0.00     0.014 C 
BRANCH   7  28
ATOM     28  O   UNL     1      10.948 -20.087 -35.957  1.00  0.00    -0.393 OA
ATOM     29  H   UNL     1      11.054 -19.800 -36.906  1.00  0.00     0.210 HD
ENDBRANCH   7  28
BRANCH  25  30
ATOM     30  O   UNL     1       5.352 -18.292 -42.423  1.00  0.00    -0.393 OA
ATOM     31  H   UNL     1       5.241 -17.642 -43.165  1.00  0.00     0.210 HD
ENDBRANCH  25  30
ENDBRANCH   2   6
ENDBRANCH   1   2
BRANCH   1  32
ATOM     32  C   UNL     1      13.495 -20.959 -38.608  1.00  0.00     0.031 C 
BRANCH  32  33
ATOM     33  C   UNL     1      12.931 -19.754 -39.342  1.00  0.00    -0.075 C 
ATOM     34  C   UNL     1      12.791 -18.594 -38.679  1.00  0.00     0.008 C 
BRANCH  33  35
ATOM     35  C   UNL     1      12.682 -19.783 -40.851  1.00  0.00     0.008 C 
ATOM     36  C   UNL     1      12.119 -21.139 -41.291  1.00  0.00     0.012 C 
ATOM     37  C   UNL     1      11.765 -18.642 -41.310  1.00  0.00     0.012 C 
ENDBRANCH  33  35
ENDBRANCH  32  33
ENDBRANCH   1  32
TORSDOF 8
ENDMDL
MODEL 9
REMARK VINA RESULT:    -5.877      2.267      7.649
REMARK INTER + INTRA:          -9.092
REMARK INTER:                  -7.625
REMARK INTRA:                  -1.468
REMARK UNBOUND:                -0.810
REMARK SMILES C=C(CC[C@@H](C(=O)[O-])[C@H]1[C@@H](O)C[C@@]2(C)C3=C(CC[C@@]12C)[C@@]1(C)CC[C@@H](O)C(C)(C)[C@H]1CC3)C(C)C
REMARK SMILES IDX 4 1 5 2 6 3 7 4 8 5 9 6 10 7 19 8 12 9 13 10 18 11 20 12
REMARK SMILES IDX 14 13 15 14 17 15 16 16 32 17 21 18 31 19 30 20 23 21 22 22
REMARK SMILES IDX 27 23 24 24 25 25 28 26 29 27 11 28 26 30 3 32 2 33 1 34
REMARK SMILES IDX 33 35 34 36 35 37
REMARK H PARENT 11 29 26 31
REMARK Flexibility Score: inf
ROOT
ATOM      1  C   UNL     1      11.132 -21.570 -36.892  1.00  0.00     0.014 C 
ENDROOT
BRANCH   1   2
ATOM      2  C   UNL     1      10.341 -22.660 -37.675  1.00  0.00     0.042 C 
BRANCH   2   3
ATOM      3  C   UNL     1      10.727 -24.034 -37.174  1.00  0.00     0.045 C 
ATOM      4  O   UNL     1      10.818 -24.255 -35.939  1.00  0.00    -0.550 OA
ATOM      5  O   UNL     1      11.044 -25.047 -38.068  1.00  0.00    -0.550 OA
ENDBRANCH   2   3
BRANCH   2   6
ATOM      6  C   UNL     1       8.767 -22.526 -37.656  1.00  0.00     0.033 C 
ATOM      7  C   UNL     1       8.034 -22.660 -36.302  1.00  0.00     0.119 C 
ATOM      8  C   UNL     1       8.092 -21.365 -38.460  1.00  0.00    -0.017 C 
ATOM      9  C   UNL     1       6.661 -22.014 -36.494  1.00  0.00     0.043 C 
ATOM     10  C   UNL     1       6.590 -21.387 -37.921  1.00  0.00    -0.003 C 
ATOM     11  C   UNL     1       8.781 -19.978 -38.247  1.00  0.00     0.012 C 
ATOM     12  C   UNL     1       8.206 -21.650 -39.989  1.00  0.00     0.013 C 
ATOM     13  C   UNL     1       5.700 -22.330 -38.787  1.00  0.00     0.017 C 
ATOM     14  C   UNL     1       5.942 -19.974 -37.803  1.00  0.00    -0.064 C 
ATOM     15  C   UNL     1       8.175 -19.177 -37.113  1.00  0.00     0.032 C 
ATOM     16  C   UNL     1       6.713 -18.909 -37.419  1.00  0.00    -0.064 C 
ATOM     17  C   UNL     1       4.414 -19.856 -37.802  1.00  0.00     0.032 C 
ATOM     18  C   UNL     1       6.072 -17.544 -37.114  1.00  0.00    -0.008 C 
ATOM     19  C   UNL     1       3.815 -18.437 -37.895  1.00  0.00     0.009 C 
ATOM     20  C   UNL     1       4.843 -17.295 -38.056  1.00  0.00     0.007 C 
ATOM     21  C   UNL     1       7.030 -16.329 -37.265  1.00  0.00     0.014 C 
ATOM     22  C   UNL     1       5.629 -17.581 -35.632  1.00  0.00     0.016 C 
ATOM     23  C   UNL     1       5.201 -16.936 -39.569  1.00  0.00    -0.006 C 
ATOM     24  C   UNL     1       7.501 -16.142 -38.704  1.00  0.00     0.033 C 
ATOM     25  C   UNL     1       6.313 -15.836 -39.621  1.00  0.00     0.120 C 
ATOM     26  C   UNL     1       5.644 -18.170 -40.398  1.00  0.00     0.014 C 
ATOM     27  C   UNL     1       3.951 -16.336 -40.277  1.00  0.00     0.014 C 
BRANCH   7  28
ATOM     28  O   UNL     1       8.698 -22.017 -35.248  1.00  0.00    -0.393 OA
ATOM     29  H   UNL     1       9.677 -22.088 -35.423  1.00  0.00     0.210 HD
ENDBRANCH   7  28
BRANCH  25  30
ATOM     30  O   UNL     1       6.778 -15.666 -40.934  1.00  0.00    -0.393 OA
ATOM     31  H   UNL     1       7.722 -15.969 -40.960  1.00  0.00     0.210 HD
ENDBRANCH  25  30
ENDBRANCH   2   6
ENDBRANCH   1   2
BRANCH   1  32
ATOM     32  C   UNL     1      12.507 -21.224 -37.495  1.00  0.00     0.031 C 
BRANCH  32  33
ATOM     33  C   UNL     1      12.448 -20.220 -38.635  1.00  0.00    -0.075 C 
ATOM     34  C   UNL     1      12.353 -18.911 -38.346  1.00  0.00     0.008 C 
BRANCH  33  35
ATOM     35  C   UNL     1      12.668 -20.647 -40.087  1.00  0.00     0.008 C 
ATOM     36  C   UNL     1      12.994 -22.142 -40.178  1.00  0.00     0.012 C 
ATOM     37  C   UNL     1      11.471 -20.298 -40.982  1.00  0.00     0.012 C 
ENDBRANCH  33  35
ENDBRANCH  32  33
ENDBRANCH   1  32
TORSDOF 8
ENDMDL
