MODEL 1
REMARK VINA RESULT:    -2.452      0.000      0.000
REMARK INTER + INTRA:          -2.452
REMARK INTER:                  -2.452
REMARK INTRA:                   0.000
REMARK UNBOUND:                 0.000
REMARK SMILES CC(=O)[O-]
REMARK SMILES IDX 1 1 2 2 3 3 4 4
REMARK H PARENT
REMARK Flexibility Score: inf
ROOT
ATOM      1  C   UNL     1      -5.406 -13.623  -4.594  1.00  0.00     0.063 C 
ATOM      2  C   UNL     1      -6.205 -12.370  -4.476  1.00  0.00     0.038 C 
ATOM      3  O   UNL     1      -6.924 -12.174  -3.461  1.00  0.00    -0.550 OA
ATOM      4  O   UNL     1      -6.116 -11.392  -5.458  1.00  0.00    -0.550 OA
ENDROOT
TORSDOF 0
ENDMDL
MODEL 2
REMARK VINA RESULT:    -2.421      0.078      1.621
REMARK INTER + INTRA:          -2.421
REMARK INTER:                  -2.421
REMARK INTRA:                   0.000
REMARK UNBOUND:                 0.000
REMARK SMILES CC(=O)[O-]
REMARK SMILES IDX 1 1 2 2 3 3 4 4
REMARK H PARENT
REMARK Flexibility Score: inf
ROOT
ATOM      1  C   UNL     1      -5.397 -13.624  -4.633  1.00  0.00     0.063 C 
ATOM      2  C   UNL     1      -6.172 -12.358  -4.500  1.00  0.00     0.038 C 
ATOM      3  O   UNL     1      -6.124 -11.490  -5.410  1.00  0.00    -0.550 OA
ATOM      4  O   UNL     1      -6.990 -12.156  -3.396  1.00  0.00    -0.550 OA
ENDROOT
TORSDOF 0
ENDMDL
MODEL 3
REMARK VINA RESULT:    -2.116     22.603     22.703
REMARK INTER + INTRA:          -2.116
REMARK INTER:                  -2.116
REMARK INTRA:                   0.000
REMARK UNBOUND:                 0.000
REMARK SMILES CC(=O)[O-]
REMARK SMILES IDX 1 1 2 2 3 3 4 4
REMARK H PARENT
REMARK Flexibility Score: inf
ROOT
ATOM      1  C   UNL     1       5.027   2.605   8.761  1.00  0.00     0.063 C 
ATOM      2  C   UNL     1       4.315   1.744   9.748  1.00  0.00     0.038 C 
ATOM      3  O   UNL     1       3.142   2.029  10.104  1.00  0.00    -0.550 OA
ATOM      4  O   UNL     1       4.925   0.596  10.237  1.00  0.00    -0.550 OA
ENDROOT
TORSDOF 0
ENDMDL
MODEL 4
REMARK VINA RESULT:    -2.094     17.806     18.348
REMARK INTER + INTRA:          -2.094
REMARK INTER:                  -2.094
REMARK INTRA:                   0.000
REMARK UNBOUND:                 0.000
REMARK SMILES CC(=O)[O-]
REMARK SMILES IDX 1 1 2 2 3 3 4 4
REMARK H PARENT
REMARK Flexibility Score: inf
ROOT
ATOM      1  C   UNL     1      -8.519   6.047  -6.810  1.00  0.00     0.063 C 
ATOM      2  C   UNL     1      -9.625   5.267  -7.435  1.00  0.00     0.038 C 
ATOM      3  O   UNL     1      -9.379   4.180  -8.020  1.00  0.00    -0.550 OA
ATOM      4  O   UNL     1     -10.937   5.711  -7.327  1.00  0.00    -0.550 OA
ENDROOT
TORSDOF 0
ENDMDL
MODEL 5
REMARK VINA RESULT:    -1.995     10.839     11.022
REMARK INTER + INTRA:          -1.995
REMARK INTER:                  -1.995
REMARK INTRA:                   0.000
REMARK UNBOUND:                 0.000
REMARK SMILES CC(=O)[O-]
REMARK SMILES IDX 1 1 2 2 3 3 4 4
REMARK H PARENT
REMARK Flexibility Score: inf
ROOT
ATOM      1  C   UNL     1     -12.798 -11.010   3.981  1.00  0.00     0.063 C 
ATOM      2  C   UNL     1     -11.538 -10.833   4.758  1.00  0.00     0.038 C 
ATOM      3  O   UNL     1     -10.957  -9.716   4.773  1.00  0.00    -0.550 OA
ATOM      4  O   UNL     1     -11.032 -11.883   5.512  1.00  0.00    -0.550 OA
ENDROOT
TORSDOF 0
ENDMDL
MODEL 6
REMARK VINA RESULT:    -1.988     14.752     15.131
REMARK INTER + INTRA:          -1.988
REMARK INTER:                  -1.988
REMARK INTRA:                   0.000
REMARK UNBOUND:                 0.000
REMARK SMILES CC(=O)[O-]
REMARK SMILES IDX 1 1 2 2 3 3 4 4
REMARK H PARENT
REMARK Flexibility Score: inf
ROOT
ATOM      1  C   UNL     1       3.244  -2.083  -4.986  1.00  0.00     0.063 C 
ATOM      2  C   UNL     1       3.544  -0.831  -4.236  1.00  0.00     0.038 C 
ATOM      3  O   UNL     1       2.697   0.100  -4.198  1.00  0.00    -0.550 OA
ATOM      4  O   UNL     1       4.735  -0.709  -3.532  1.00  0.00    -0.550 OA
ENDROOT
TORSDOF 0
ENDMDL
MODEL 7
REMARK VINA RESULT:    -1.984     14.552     14.982
REMARK INTER + INTRA:          -1.984
REMARK INTER:                  -1.984
REMARK INTRA:                   0.000
REMARK UNBOUND:                 0.000
REMARK SMILES CC(=O)[O-]
REMARK SMILES IDX 1 1 2 2 3 3 4 4
REMARK H PARENT
REMARK Flexibility Score: inf
ROOT
ATOM      1  C   UNL     1       2.857   0.130  -4.267  1.00  0.00     0.063 C 
ATOM      2  C   UNL     1       3.573  -1.175  -4.352  1.00  0.00     0.038 C 
ATOM      3  O   UNL     1       4.675  -1.330  -3.763  1.00  0.00    -0.550 OA
ATOM      4  O   UNL     1       3.002  -2.240  -5.036  1.00  0.00    -0.550 OA
ENDROOT
TORSDOF 0
ENDMDL
MODEL 8
REMARK VINA RESULT:    -1.982     11.298     12.029
REMARK INTER + INTRA:          -1.982
REMARK INTER:                  -1.982
REMARK INTRA:                   0.000
REMARK UNBOUND:                 0.000
REMARK SMILES CC(=O)[O-]
REMARK SMILES IDX 1 1 2 2 3 3 4 4
REMARK H PARENT
REMARK Flexibility Score: inf
ROOT
ATOM      1  C   UNL     1     -13.306  -9.786   5.326  1.00  0.00     0.063 C 
ATOM      2  C   UNL     1     -11.862 -10.090   5.538  1.00  0.00     0.038 C 
ATOM      3  O   UNL     1     -11.023  -9.829   4.636  1.00  0.00    -0.550 OA
ATOM      4  O   UNL     1     -11.431 -10.613   6.750  1.00  0.00    -0.550 OA
ENDROOT
TORSDOF 0
ENDMDL
MODEL 9
REMARK VINA RESULT:    -1.978     13.883     14.164
REMARK INTER + INTRA:          -1.978
REMARK INTER:                  -1.978
REMARK INTRA:                   0.000
REMARK UNBOUND:                 0.000
REMARK SMILES CC(=O)[O-]
REMARK SMILES IDX 1 1 2 2 3 3 4 4
REMARK H PARENT
REMARK Flexibility Score: inf
ROOT
ATOM      1  C   UNL     1       4.462  -2.818  -4.261  1.00  0.00     0.063 C 
ATOM      2  C   UNL     1       3.394  -1.996  -4.899  1.00  0.00     0.038 C 
ATOM      3  O   UNL     1       3.044  -0.903  -4.380  1.00  0.00    -0.550 OA
ATOM      4  O   UNL     1       2.820  -2.406  -6.094  1.00  0.00    -0.550 OA
ENDROOT
TORSDOF 0
ENDMDL
