MODEL 1
REMARK VINA RESULT:    -3.764      0.000      0.000
REMARK INTER + INTRA:          -4.871
REMARK INTER:                  -4.644
REMARK INTRA:                  -0.227
REMARK UNBOUND:                -0.227
REMARK SMILES CCCCCC(=O)[O-]
REMARK SMILES IDX 4 1 5 2 6 3 7 4 8 5 3 6 2 7 1 8
REMARK H PARENT
REMARK Flexibility Score: inf
ROOT
ATOM      1  C   UNL     1      15.400  29.501  61.630  1.00  0.00     0.006 C 
ENDROOT
BRANCH   1   2
ATOM      2  C   UNL     1      14.033  30.061  62.045  1.00  0.00     0.053 C 
BRANCH   2   3
ATOM      3  C   UNL     1      12.939  29.057  61.846  1.00  0.00     0.041 C 
ATOM      4  O   UNL     1      11.838  29.408  61.345  1.00  0.00    -0.550 OA
ATOM      5  O   UNL     1      13.124  27.738  62.245  1.00  0.00    -0.550 OA
ENDBRANCH   2   3
ENDBRANCH   1   2
BRANCH   1   6
ATOM      6  C   UNL     1      16.451  29.656  62.740  1.00  0.00     0.000 C 
BRANCH   6   7
ATOM      7  C   UNL     1      15.967  29.015  64.046  1.00  0.00    -0.003 C 
ATOM      8  C   UNL     1      16.241  27.514  64.057  1.00  0.00     0.004 C 
ENDBRANCH   6   7
ENDBRANCH   1   6
TORSDOF 4
ENDMDL
MODEL 2
REMARK VINA RESULT:    -3.734      3.151      5.536
REMARK INTER + INTRA:          -4.833
REMARK INTER:                  -4.699
REMARK INTRA:                  -0.134
REMARK UNBOUND:                -0.227
REMARK SMILES CCCCCC(=O)[O-]
REMARK SMILES IDX 4 1 5 2 6 3 7 4 8 5 3 6 2 7 1 8
REMARK H PARENT
REMARK Flexibility Score: inf
ROOT
ATOM      1  C   UNL     1      10.812  29.477  59.923  1.00  0.00     0.006 C 
ENDROOT
BRANCH   1   2
ATOM      2  C   UNL     1      11.801  28.388  60.360  1.00  0.00     0.053 C 
BRANCH   2   3
ATOM      3  C   UNL     1      12.512  28.760  61.625  1.00  0.00     0.041 C 
ATOM      4  O   UNL     1      12.470  29.944  62.053  1.00  0.00    -0.550 OA
ATOM      5  O   UNL     1      13.248  27.805  62.316  1.00  0.00    -0.550 OA
ENDBRANCH   2   3
ENDBRANCH   1   2
BRANCH   1   6
ATOM      6  C   UNL     1       9.351  29.019  60.049  1.00  0.00     0.000 C 
BRANCH   6   7
ATOM      7  C   UNL     1       8.773  29.403  61.416  1.00  0.00    -0.003 C 
ATOM      8  C   UNL     1       7.429  30.109  61.266  1.00  0.00     0.004 C 
ENDBRANCH   6   7
ENDBRANCH   1   6
TORSDOF 4
ENDMDL
MODEL 3
REMARK VINA RESULT:    -3.710      0.934      1.351
REMARK INTER + INTRA:          -4.804
REMARK INTER:                  -4.675
REMARK INTRA:                  -0.129
REMARK UNBOUND:                -0.227
REMARK SMILES CCCCCC(=O)[O-]
REMARK SMILES IDX 4 1 5 2 6 3 7 4 8 5 3 6 2 7 1 8
REMARK H PARENT
REMARK Flexibility Score: inf
ROOT
ATOM      1  C   UNL     1      14.793  29.490  61.884  1.00  0.00     0.006 C 
ENDROOT
BRANCH   1   2
ATOM      2  C   UNL     1      13.487  30.238  62.183  1.00  0.00     0.053 C 
BRANCH   2   3
ATOM      3  C   UNL     1      12.284  29.392  61.895  1.00  0.00     0.041 C 
ATOM      4  O   UNL     1      12.405  28.315  61.253  1.00  0.00    -0.550 OA
ATOM      5  O   UNL     1      11.025  29.810  62.307  1.00  0.00    -0.550 OA
ENDBRANCH   2   3
ENDBRANCH   1   2
BRANCH   1   6
ATOM      6  C   UNL     1      15.626  29.247  63.152  1.00  0.00     0.000 C 
BRANCH   6   7
ATOM      7  C   UNL     1      15.269  27.901  63.792  1.00  0.00    -0.003 C 
ATOM      8  C   UNL     1      16.524  27.122  64.173  1.00  0.00     0.004 C 
ENDBRANCH   6   7
ENDBRANCH   1   6
TORSDOF 4
ENDMDL
MODEL 4
REMARK VINA RESULT:    -3.692      3.206      5.687
REMARK INTER + INTRA:          -4.782
REMARK INTER:                  -4.644
REMARK INTRA:                  -0.137
REMARK UNBOUND:                -0.227
REMARK SMILES CCCCCC(=O)[O-]
REMARK SMILES IDX 4 1 5 2 6 3 7 4 8 5 3 6 2 7 1 8
REMARK H PARENT
REMARK Flexibility Score: inf
ROOT
ATOM      1  C   UNL     1      10.700  29.583  59.946  1.00  0.00     0.006 C 
ENDROOT
BRANCH   1   2
ATOM      2  C   UNL     1      11.782  28.544  60.266  1.00  0.00     0.053 C 
BRANCH   2   3
ATOM      3  C   UNL     1      12.435  28.811  61.587  1.00  0.00     0.041 C 
ATOM      4  O   UNL     1      13.107  27.911  62.157  1.00  0.00    -0.550 OA
ATOM      5  O   UNL     1      12.275  30.046  62.205  1.00  0.00    -0.550 OA
ENDBRANCH   2   3
ENDBRANCH   1   2
BRANCH   1   6
ATOM      6  C   UNL     1       9.282  29.016  60.115  1.00  0.00     0.000 C 
BRANCH   6   7
ATOM      7  C   UNL     1       8.681  29.436  61.462  1.00  0.00    -0.003 C 
ATOM      8  C   UNL     1       7.361  30.174  61.270  1.00  0.00     0.004 C 
ENDBRANCH   6   7
ENDBRANCH   1   6
TORSDOF 4
ENDMDL
MODEL 5
REMARK VINA RESULT:    -3.638      1.253      1.448
REMARK INTER + INTRA:          -4.716
REMARK INTER:                  -4.608
REMARK INTRA:                  -0.108
REMARK UNBOUND:                -0.227
REMARK SMILES CCCCCC(=O)[O-]
REMARK SMILES IDX 4 1 5 2 6 3 7 4 8 5 3 6 2 7 1 8
REMARK H PARENT
REMARK Flexibility Score: inf
ROOT
ATOM      1  C   UNL     1      14.473  29.660  61.626  1.00  0.00     0.006 C 
ENDROOT
BRANCH   1   2
ATOM      2  C   UNL     1      13.256  28.791  61.969  1.00  0.00     0.053 C 
BRANCH   2   3
ATOM      3  C   UNL     1      11.977  29.421  61.510  1.00  0.00     0.041 C 
ATOM      4  O   UNL     1      11.152  29.869  62.349  1.00  0.00    -0.550 OA
ATOM      5  O   UNL     1      11.681  29.485  60.153  1.00  0.00    -0.550 OA
ENDBRANCH   2   3
ENDBRANCH   1   2
BRANCH   1   6
ATOM      6  C   UNL     1      15.770  29.109  62.237  1.00  0.00     0.000 C 
BRANCH   6   7
ATOM      7  C   UNL     1      15.594  28.826  63.734  1.00  0.00    -0.003 C 
ATOM      8  C   UNL     1      16.226  27.493  64.121  1.00  0.00     0.004 C 
ENDBRANCH   6   7
ENDBRANCH   1   6
TORSDOF 4
ENDMDL
MODEL 6
REMARK VINA RESULT:    -3.599     13.917     14.599
REMARK INTER + INTRA:          -4.667
REMARK INTER:                  -4.576
REMARK INTRA:                  -0.091
REMARK UNBOUND:                -0.227
REMARK SMILES CCCCCC(=O)[O-]
REMARK SMILES IDX 4 1 5 2 6 3 7 4 8 5 3 6 2 7 1 8
REMARK H PARENT
REMARK Flexibility Score: inf
ROOT
ATOM      1  C   UNL     1       5.946  22.923  71.267  1.00  0.00     0.006 C 
ENDROOT
BRANCH   1   2
ATOM      2  C   UNL     1       5.868  22.423  72.716  1.00  0.00     0.053 C 
BRANCH   2   3
ATOM      3  C   UNL     1       4.856  21.329  72.871  1.00  0.00     0.041 C 
ATOM      4  O   UNL     1       3.646  21.609  73.081  1.00  0.00    -0.550 OA
ATOM      5  O   UNL     1       5.255  19.999  72.816  1.00  0.00    -0.550 OA
ENDBRANCH   2   3
ENDBRANCH   1   2
BRANCH   1   6
ATOM      6  C   UNL     1       7.100  23.915  71.058  1.00  0.00     0.000 C 
BRANCH   6   7
ATOM      7  C   UNL     1       8.062  23.896  72.251  1.00  0.00    -0.003 C 
ATOM      8  C   UNL     1       8.135  25.264  72.922  1.00  0.00     0.004 C 
ENDBRANCH   6   7
ENDBRANCH   1   6
TORSDOF 4
ENDMDL
MODEL 7
REMARK VINA RESULT:    -3.534      1.924      3.650
REMARK INTER + INTRA:          -4.588
REMARK INTER:                  -4.406
REMARK INTRA:                  -0.182
REMARK UNBOUND:                -0.227
REMARK SMILES CCCCCC(=O)[O-]
REMARK SMILES IDX 4 1 5 2 6 3 7 4 8 5 3 6 2 7 1 8
REMARK H PARENT
REMARK Flexibility Score: inf
ROOT
ATOM      1  C   UNL     1      15.318  29.268  62.183  1.00  0.00     0.006 C 
ENDROOT
BRANCH   1   2
ATOM      2  C   UNL     1      15.977  29.036  63.549  1.00  0.00     0.053 C 
BRANCH   2   3
ATOM      3  C   UNL     1      15.784  27.630  64.027  1.00  0.00     0.041 C 
ATOM      4  O   UNL     1      14.626  27.140  64.105  1.00  0.00    -0.550 OA
ATOM      5  O   UNL     1      16.881  26.871  64.418  1.00  0.00    -0.550 OA
ENDBRANCH   2   3
ENDBRANCH   1   2
BRANCH   1   6
ATOM      6  C   UNL     1      14.079  30.171  62.282  1.00  0.00     0.000 C 
BRANCH   6   7
ATOM      7  C   UNL     1      13.026  29.772  61.242  1.00  0.00    -0.003 C 
ATOM      8  C   UNL     1      12.585  28.324  61.433  1.00  0.00     0.004 C 
ENDBRANCH   6   7
ENDBRANCH   1   6
TORSDOF 4
ENDMDL
MODEL 8
REMARK VINA RESULT:    -3.523      2.747      5.164
REMARK INTER + INTRA:          -4.574
REMARK INTER:                  -4.477
REMARK INTRA:                  -0.097
REMARK UNBOUND:                -0.227
REMARK SMILES CCCCCC(=O)[O-]
REMARK SMILES IDX 4 1 5 2 6 3 7 4 8 5 3 6 2 7 1 8
REMARK H PARENT
REMARK Flexibility Score: inf
ROOT
ATOM      1  C   UNL     1      11.756  28.744  60.299  1.00  0.00     0.006 C 
ENDROOT
BRANCH   1   2
ATOM      2  C   UNL     1      12.220  29.332  61.638  1.00  0.00     0.053 C 
BRANCH   2   3
ATOM      3  C   UNL     1      13.561  28.800  62.043  1.00  0.00     0.041 C 
ATOM      4  O   UNL     1      13.651  27.704  62.657  1.00  0.00    -0.550 OA
ATOM      5  O   UNL     1      14.710  29.533  61.771  1.00  0.00    -0.550 OA
ENDBRANCH   2   3
ENDBRANCH   1   2
BRANCH   1   6
ATOM      6  C   UNL     1      10.795  29.683  59.555  1.00  0.00     0.000 C 
BRANCH   6   7
ATOM      7  C   UNL     1       9.413  29.038  59.394  1.00  0.00    -0.003 C 
ATOM      8  C   UNL     1       8.596  29.162  60.676  1.00  0.00     0.004 C 
ENDBRANCH   6   7
ENDBRANCH   1   6
TORSDOF 4
ENDMDL
MODEL 9
REMARK VINA RESULT:    -3.375      2.378      4.116
REMARK INTER + INTRA:          -4.391
REMARK INTER:                  -4.275
REMARK INTRA:                  -0.116
REMARK UNBOUND:                -0.227
REMARK SMILES CCCCCC(=O)[O-]
REMARK SMILES IDX 4 1 5 2 6 3 7 4 8 5 3 6 2 7 1 8
REMARK H PARENT
REMARK Flexibility Score: inf
ROOT
ATOM      1  C   UNL     1      14.522  29.588  61.757  1.00  0.00     0.006 C 
ENDROOT
BRANCH   1   2
ATOM      2  C   UNL     1      14.272  28.342  62.617  1.00  0.00     0.053 C 
BRANCH   2   3
ATOM      3  C   UNL     1      15.326  28.172  63.668  1.00  0.00     0.041 C 
ATOM      4  O   UNL     1      15.534  27.041  64.181  1.00  0.00    -0.550 OA
ATOM      5  O   UNL     1      16.056  29.271  64.104  1.00  0.00    -0.550 OA
ENDBRANCH   2   3
ENDBRANCH   1   2
BRANCH   1   6
ATOM      6  C   UNL     1      13.350  29.883  60.808  1.00  0.00     0.000 C 
BRANCH   6   7
ATOM      7  C   UNL     1      12.291  28.777  60.886  1.00  0.00    -0.003 C 
ATOM      8  C   UNL     1      10.884  29.353  60.764  1.00  0.00     0.004 C 
ENDBRANCH   6   7
ENDBRANCH   1   6
TORSDOF 4
ENDMDL
