MODEL 1
REMARK VINA RESULT:    -4.021      0.000      0.000
REMARK INTER + INTRA:         -12.678
REMARK INTER:                  -8.721
REMARK INTRA:                  -3.956
REMARK UNBOUND:                -3.956
REMARK SMILES CCCCCCCCCCCCCCCCCCCCCC(=O)[O-]
REMARK SMILES IDX 12 1 11 2 10 3 9 4 8 5 7 6 6 7 5 8 4 9 3 10 2 11 1 12 13 13
REMARK SMILES IDX 14 14 15 15 16 16 17 17 18 18 19 19 20 20 21 21 22 22 23 23
REMARK SMILES IDX 24 24
REMARK H PARENT
REMARK Flexibility Score: inf
ROOT
ATOM      1  C   UNL     1      -3.077  -6.799 -17.452  1.00  0.00     0.000 C 
ENDROOT
BRANCH   1   2
ATOM      2  C   UNL     1      -1.803  -7.435 -18.030  1.00  0.00     0.000 C 
BRANCH   2   3
ATOM      3  C   UNL     1      -0.924  -8.091 -16.951  1.00  0.00     0.000 C 
BRANCH   3   4
ATOM      4  C   UNL     1      -0.647  -7.161 -15.756  1.00  0.00    -0.000 C 
BRANCH   4   5
ATOM      5  C   UNL     1      -1.109  -7.701 -14.389  1.00  0.00    -0.000 C 
BRANCH   5   6
ATOM      6  C   UNL     1      -0.517  -9.082 -14.061  1.00  0.00    -0.000 C 
BRANCH   6   7
ATOM      7  C   UNL     1      -1.589 -10.092 -13.618  1.00  0.00    -0.000 C 
BRANCH   7   8
ATOM      8  C   UNL     1      -2.504 -10.531 -14.771  1.00  0.00    -0.000 C 
BRANCH   8   9
ATOM      9  C   UNL     1      -3.977 -10.276 -14.430  1.00  0.00    -0.000 C 
BRANCH   9  10
ATOM     10  C   UNL     1      -4.394  -8.849 -14.815  1.00  0.00    -0.000 C 
BRANCH  10  11
ATOM     11  C   UNL     1      -5.917  -8.683 -14.909  1.00  0.00    -0.003 C 
ATOM     12  C   UNL     1      -6.656 -10.021 -14.963  1.00  0.00     0.004 C 
ENDBRANCH  10  11
ENDBRANCH   9  10
ENDBRANCH   8   9
ENDBRANCH   7   8
ENDBRANCH   6   7
ENDBRANCH   5   6
ENDBRANCH   4   5
ENDBRANCH   3   4
ENDBRANCH   2   3
ENDBRANCH   1   2
BRANCH   1  13
ATOM     13  C   UNL     1      -4.357  -7.324 -18.125  1.00  0.00     0.000 C 
BRANCH  13  14
ATOM     14  C   UNL     1      -4.146  -8.662 -18.857  1.00  0.00     0.000 C 
BRANCH  14  15
ATOM     15  C   UNL     1      -5.107  -9.794 -18.445  1.00  0.00     0.000 C 
BRANCH  15  16
ATOM     16  C   UNL     1      -4.387 -11.130 -18.184  1.00  0.00     0.000 C 
BRANCH  16  17
ATOM     17  C   UNL     1      -2.862 -10.949 -18.025  1.00  0.00     0.000 C 
BRANCH  17  18
ATOM     18  C   UNL     1      -2.040 -11.685 -19.097  1.00  0.00     0.000 C 
BRANCH  18  19
ATOM     19  C   UNL     1      -1.004 -10.777 -19.780  1.00  0.00     0.000 C 
BRANCH  19  20
ATOM     20  C   UNL     1      -1.597  -9.978 -20.950  1.00  0.00     0.006 C 
BRANCH  20  21
ATOM     21  C   UNL     1      -0.743  -8.759 -21.323  1.00  0.00     0.053 C 
BRANCH  21  22
ATOM     22  C   UNL     1      -1.543  -7.788 -22.132  1.00  0.00     0.041 C 
ATOM     23  O   UNL     1      -1.342  -7.676 -23.369  1.00  0.00    -0.550 OA
ATOM     24  O   UNL     1      -2.480  -6.973 -21.511  1.00  0.00    -0.550 OA
ENDBRANCH  21  22
ENDBRANCH  20  21
ENDBRANCH  19  20
ENDBRANCH  18  19
ENDBRANCH  17  18
ENDBRANCH  16  17
ENDBRANCH  15  16
ENDBRANCH  14  15
ENDBRANCH  13  14
ENDBRANCH   1  13
TORSDOF 20
ENDMDL
MODEL 2
REMARK VINA RESULT:    -3.978      1.118      1.850
REMARK INTER + INTRA:         -12.586
REMARK INTER:                  -8.571
REMARK INTRA:                  -4.014
REMARK UNBOUND:                -3.956
REMARK SMILES CCCCCCCCCCCCCCCCCCCCCC(=O)[O-]
REMARK SMILES IDX 12 1 11 2 10 3 9 4 8 5 7 6 6 7 5 8 4 9 3 10 2 11 1 12 13 13
REMARK SMILES IDX 14 14 15 15 16 16 17 17 18 18 19 19 20 20 21 21 22 22 23 23
REMARK SMILES IDX 24 24
REMARK H PARENT
REMARK Flexibility Score: inf
ROOT
ATOM      1  C   UNL     1      -4.110  -7.628 -18.719  1.00  0.00     0.000 C 
ENDROOT
BRANCH   1   2
ATOM      2  C   UNL     1      -3.885  -6.731 -17.492  1.00  0.00     0.000 C 
BRANCH   2   3
ATOM      3  C   UNL     1      -2.394  -6.495 -17.193  1.00  0.00     0.000 C 
BRANCH   3   4
ATOM      4  C   UNL     1      -1.490  -7.619 -17.731  1.00  0.00    -0.000 C 
BRANCH   4   5
ATOM      5  C   UNL     1      -0.849  -8.512 -16.652  1.00  0.00    -0.000 C 
BRANCH   5   6
ATOM      6  C   UNL     1      -0.759  -7.822 -15.281  1.00  0.00    -0.000 C 
BRANCH   6   7
ATOM      7  C   UNL     1      -1.729  -8.428 -14.252  1.00  0.00    -0.000 C 
BRANCH   7   8
ATOM      8  C   UNL     1      -2.171  -9.853 -14.621  1.00  0.00    -0.000 C 
BRANCH   8   9
ATOM      9  C   UNL     1      -3.699  -9.972 -14.613  1.00  0.00    -0.000 C 
BRANCH   9  10
ATOM     10  C   UNL     1      -4.362  -8.593 -14.740  1.00  0.00    -0.000 C 
BRANCH  10  11
ATOM     11  C   UNL     1      -5.892  -8.659 -14.627  1.00  0.00    -0.003 C 
ATOM     12  C   UNL     1      -6.469  -9.965 -15.173  1.00  0.00     0.004 C 
ENDBRANCH  10  11
ENDBRANCH   9  10
ENDBRANCH   8   9
ENDBRANCH   7   8
ENDBRANCH   6   7
ENDBRANCH   5   6
ENDBRANCH   4   5
ENDBRANCH   3   4
ENDBRANCH   2   3
ENDBRANCH   1   2
BRANCH   1  13
ATOM     13  C   UNL     1      -4.782  -8.964 -18.358  1.00  0.00     0.000 C 
BRANCH  13  14
ATOM     14  C   UNL     1      -4.071 -10.182 -18.976  1.00  0.00     0.000 C 
BRANCH  14  15
ATOM     15  C   UNL     1      -3.798 -11.345 -18.004  1.00  0.00     0.000 C 
BRANCH  15  16
ATOM     16  C   UNL     1      -2.302 -11.684 -17.874  1.00  0.00     0.000 C 
BRANCH  16  17
ATOM     17  C   UNL     1      -1.620 -11.848 -19.250  1.00  0.00     0.000 C 
BRANCH  17  18
ATOM     18  C   UNL     1      -0.355 -10.988 -19.417  1.00  0.00     0.000 C 
BRANCH  18  19
ATOM     19  C   UNL     1      -0.542  -9.842 -20.425  1.00  0.00     0.000 C 
BRANCH  19  20
ATOM     20  C   UNL     1      -1.440 -10.236 -21.608  1.00  0.00     0.006 C 
BRANCH  20  21
ATOM     21  C   UNL     1      -2.177  -9.034 -22.213  1.00  0.00     0.053 C 
BRANCH  21  22
ATOM     22  C   UNL     1      -2.287  -9.182 -23.697  1.00  0.00     0.041 C 
ATOM     23  O   UNL     1      -1.552  -8.502 -24.459  1.00  0.00    -0.550 OA
ATOM     24  O   UNL     1      -3.236 -10.039 -24.241  1.00  0.00    -0.550 OA
ENDBRANCH  21  22
ENDBRANCH  20  21
ENDBRANCH  19  20
ENDBRANCH  18  19
ENDBRANCH  17  18
ENDBRANCH  16  17
ENDBRANCH  15  16
ENDBRANCH  14  15
ENDBRANCH  13  14
ENDBRANCH   1  13
TORSDOF 20
ENDMDL
MODEL 3
REMARK VINA RESULT:    -3.870      3.052      6.548
REMARK INTER + INTRA:         -12.351
REMARK INTER:                  -8.670
REMARK INTRA:                  -3.681
REMARK UNBOUND:                -3.956
REMARK SMILES CCCCCCCCCCCCCCCCCCCCCC(=O)[O-]
REMARK SMILES IDX 12 1 11 2 10 3 9 4 8 5 7 6 6 7 5 8 4 9 3 10 2 11 1 12 13 13
REMARK SMILES IDX 14 14 15 15 16 16 17 17 18 18 19 19 20 20 21 21 22 22 23 23
REMARK SMILES IDX 24 24
REMARK H PARENT
REMARK Flexibility Score: inf
ROOT
ATOM      1  C   UNL     1      -2.502  -6.487 -17.148  1.00  0.00     0.000 C 
ENDROOT
BRANCH   1   2
ATOM      2  C   UNL     1      -3.993  -6.829 -17.293  1.00  0.00     0.000 C 
BRANCH   2   3
ATOM      3  C   UNL     1      -4.319  -8.269 -16.861  1.00  0.00     0.000 C 
BRANCH   3   4
ATOM      4  C   UNL     1      -4.722  -9.172 -18.041  1.00  0.00    -0.000 C 
BRANCH   4   5
ATOM      5  C   UNL     1      -4.997 -10.643 -17.672  1.00  0.00    -0.000 C 
BRANCH   5   6
ATOM      6  C   UNL     1      -3.937 -11.607 -18.230  1.00  0.00    -0.000 C 
BRANCH   6   7
ATOM      7  C   UNL     1      -2.509 -11.049 -18.102  1.00  0.00    -0.000 C 
BRANCH   7   8
ATOM      8  C   UNL     1      -1.718 -11.139 -19.417  1.00  0.00    -0.000 C 
BRANCH   8   9
ATOM      9  C   UNL     1      -1.307  -9.745 -19.905  1.00  0.00    -0.000 C 
BRANCH   9  10
ATOM     10  C   UNL     1      -2.375  -9.149 -20.834  1.00  0.00    -0.000 C 
BRANCH  10  11
ATOM     11  C   UNL     1      -2.484  -7.622 -20.706  1.00  0.00    -0.003 C 
ATOM     12  C   UNL     1      -1.120  -6.937 -20.615  1.00  0.00     0.004 C 
ENDBRANCH  10  11
ENDBRANCH   9  10
ENDBRANCH   8   9
ENDBRANCH   7   8
ENDBRANCH   6   7
ENDBRANCH   5   6
ENDBRANCH   4   5
ENDBRANCH   3   4
ENDBRANCH   2   3
ENDBRANCH   1   2
BRANCH   1  13
ATOM     13  C   UNL     1      -1.652  -7.708 -16.756  1.00  0.00     0.000 C 
BRANCH  13  14
ATOM     14  C   UNL     1      -0.782  -7.461 -15.510  1.00  0.00     0.000 C 
BRANCH  14  15
ATOM     15  C   UNL     1      -1.378  -7.971 -14.184  1.00  0.00     0.000 C 
BRANCH  15  16
ATOM     16  C   UNL     1      -0.580  -9.138 -13.574  1.00  0.00     0.000 C 
BRANCH  16  17
ATOM     17  C   UNL     1      -1.411 -10.437 -13.499  1.00  0.00     0.000 C 
BRANCH  17  18
ATOM     18  C   UNL     1      -2.676 -10.409 -14.373  1.00  0.00     0.000 C 
BRANCH  18  19
ATOM     19  C   UNL     1      -3.308 -11.799 -14.553  1.00  0.00     0.000 C 
BRANCH  19  20
ATOM     20  C   UNL     1      -4.568 -11.992 -13.696  1.00  0.00     0.006 C 
BRANCH  20  21
ATOM     21  C   UNL     1      -5.841 -11.513 -14.404  1.00  0.00     0.053 C 
BRANCH  21  22
ATOM     22  C   UNL     1      -6.499 -10.425 -13.616  1.00  0.00     0.041 C 
ATOM     23  O   UNL     1      -6.457  -9.234 -14.021  1.00  0.00    -0.550 OA
ATOM     24  O   UNL     1      -7.120 -10.720 -12.409  1.00  0.00    -0.550 OA
ENDBRANCH  21  22
ENDBRANCH  20  21
ENDBRANCH  19  20
ENDBRANCH  18  19
ENDBRANCH  17  18
ENDBRANCH  16  17
ENDBRANCH  15  16
ENDBRANCH  14  15
ENDBRANCH  13  14
ENDBRANCH   1  13
TORSDOF 20
ENDMDL
MODEL 4
REMARK VINA RESULT:    -3.853      2.676      6.228
REMARK INTER + INTRA:         -12.314
REMARK INTER:                  -8.314
REMARK INTRA:                  -4.000
REMARK UNBOUND:                -3.956
REMARK SMILES CCCCCCCCCCCCCCCCCCCCCC(=O)[O-]
REMARK SMILES IDX 12 1 11 2 10 3 9 4 8 5 7 6 6 7 5 8 4 9 3 10 2 11 1 12 13 13
REMARK SMILES IDX 14 14 15 15 16 16 17 17 18 18 19 19 20 20 21 21 22 22 23 23
REMARK SMILES IDX 24 24
REMARK H PARENT
REMARK Flexibility Score: inf
ROOT
ATOM      1  C   UNL     1      -3.885  -6.808 -17.130  1.00  0.00     0.000 C 
ENDROOT
BRANCH   1   2
ATOM      2  C   UNL     1      -4.692  -7.899 -17.851  1.00  0.00     0.000 C 
BRANCH   2   3
ATOM      3  C   UNL     1      -3.841  -8.714 -18.840  1.00  0.00     0.000 C 
BRANCH   3   4
ATOM      4  C   UNL     1      -4.082 -10.230 -18.730  1.00  0.00    -0.000 C 
BRANCH   4   5
ATOM      5  C   UNL     1      -2.805 -11.090 -18.661  1.00  0.00    -0.000 C 
BRANCH   5   6
ATOM      6  C   UNL     1      -1.681 -10.426 -17.847  1.00  0.00    -0.000 C 
BRANCH   6   7
ATOM      7  C   UNL     1      -0.353 -10.361 -18.619  1.00  0.00    -0.000 C 
BRANCH   7   8
ATOM      8  C   UNL     1       0.021  -8.931 -19.037  1.00  0.00    -0.000 C 
BRANCH   8   9
ATOM      9  C   UNL     1      -0.332  -8.678 -20.507  1.00  0.00    -0.000 C 
BRANCH   9  10
ATOM     10  C   UNL     1      -0.793  -7.230 -20.723  1.00  0.00    -0.000 C 
BRANCH  10  11
ATOM     11  C   UNL     1      -2.050  -7.133 -21.601  1.00  0.00    -0.003 C 
ATOM     12  C   UNL     1      -2.382  -8.450 -22.303  1.00  0.00     0.004 C 
ENDBRANCH  10  11
ENDBRANCH   9  10
ENDBRANCH   8   9
ENDBRANCH   7   8
ENDBRANCH   6   7
ENDBRANCH   5   6
ENDBRANCH   4   5
ENDBRANCH   3   4
ENDBRANCH   2   3
ENDBRANCH   1   2
BRANCH   1  13
ATOM     13  C   UNL     1      -2.396  -6.820 -17.520  1.00  0.00     0.000 C 
BRANCH  13  14
ATOM     14  C   UNL     1      -1.465  -6.450 -16.351  1.00  0.00     0.000 C 
BRANCH  14  15
ATOM     15  C   UNL     1      -0.832  -7.645 -15.613  1.00  0.00     0.000 C 
BRANCH  15  16
ATOM     16  C   UNL     1      -1.294  -7.763 -14.150  1.00  0.00     0.000 C 
BRANCH  16  17
ATOM     17  C   UNL     1      -0.832  -9.084 -13.497  1.00  0.00     0.000 C 
BRANCH  17  18
ATOM     18  C   UNL     1      -1.138 -10.330 -14.346  1.00  0.00     0.000 C 
BRANCH  18  19
ATOM     19  C   UNL     1      -2.324 -11.144 -13.805  1.00  0.00     0.000 C 
BRANCH  19  20
ATOM     20  C   UNL     1      -3.541 -11.111 -14.742  1.00  0.00     0.006 C 
BRANCH  20  21
ATOM     21  C   UNL     1      -4.221  -9.736 -14.776  1.00  0.00     0.053 C 
BRANCH  21  22
ATOM     22  C   UNL     1      -5.708  -9.889 -14.813  1.00  0.00     0.041 C 
ATOM     23  O   UNL     1      -6.419  -9.410 -13.891  1.00  0.00    -0.550 OA
ATOM     24  O   UNL     1      -6.307 -10.603 -15.843  1.00  0.00    -0.550 OA
ENDBRANCH  21  22
ENDBRANCH  20  21
ENDBRANCH  19  20
ENDBRANCH  18  19
ENDBRANCH  17  18
ENDBRANCH  16  17
ENDBRANCH  15  16
ENDBRANCH  14  15
ENDBRANCH  13  14
ENDBRANCH   1  13
TORSDOF 20
ENDMDL
MODEL 5
REMARK VINA RESULT:    -3.850      2.915      6.444
REMARK INTER + INTRA:         -12.307
REMARK INTER:                  -9.118
REMARK INTRA:                  -3.189
REMARK UNBOUND:                -3.956
REMARK SMILES CCCCCCCCCCCCCCCCCCCCCC(=O)[O-]
REMARK SMILES IDX 12 1 11 2 10 3 9 4 8 5 7 6 6 7 5 8 4 9 3 10 2 11 1 12 13 13
REMARK SMILES IDX 14 14 15 15 16 16 17 17 18 18 19 19 20 20 21 21 22 22 23 23
REMARK SMILES IDX 24 24
REMARK H PARENT
REMARK Flexibility Score: inf
ROOT
ATOM      1  C   UNL     1      -5.288  -7.272 -16.230  1.00  0.00     0.000 C 
ENDROOT
BRANCH   1   2
ATOM      2  C   UNL     1      -4.023  -7.255 -17.104  1.00  0.00     0.000 C 
BRANCH   2   3
ATOM      3  C   UNL     1      -4.339  -7.142 -18.605  1.00  0.00     0.000 C 
BRANCH   3   4
ATOM      4  C   UNL     1      -3.148  -7.536 -19.499  1.00  0.00    -0.000 C 
BRANCH   4   5
ATOM      5  C   UNL     1      -1.816  -7.744 -18.754  1.00  0.00    -0.000 C 
BRANCH   5   6
ATOM      6  C   UNL     1      -0.945  -8.845 -19.384  1.00  0.00    -0.000 C 
BRANCH   6   7
ATOM      7  C   UNL     1      -1.726  -9.715 -20.383  1.00  0.00    -0.000 C 
BRANCH   7   8
ATOM      8  C   UNL     1      -1.253  -9.524 -21.832  1.00  0.00    -0.000 C 
BRANCH   8   9
ATOM      9  C   UNL     1      -2.407  -9.061 -22.729  1.00  0.00    -0.000 C 
BRANCH   9  10
ATOM     10  C   UNL     1      -2.004  -9.102 -24.210  1.00  0.00    -0.000 C 
BRANCH  10  11
ATOM     11  C   UNL     1      -3.049  -9.808 -25.088  1.00  0.00    -0.003 C 
ATOM     12  C   UNL     1      -2.500 -10.199 -26.460  1.00  0.00     0.004 C 
ENDBRANCH  10  11
ENDBRANCH   9  10
ENDBRANCH   8   9
ENDBRANCH   7   8
ENDBRANCH   6   7
ENDBRANCH   5   6
ENDBRANCH   4   5
ENDBRANCH   3   4
ENDBRANCH   2   3
ENDBRANCH   1   2
BRANCH   1  13
ATOM     13  C   UNL     1      -5.187  -8.271 -15.065  1.00  0.00     0.000 C 
BRANCH  13  14
ATOM     14  C   UNL     1      -6.320  -9.314 -15.067  1.00  0.00     0.000 C 
BRANCH  14  15
ATOM     15  C   UNL     1      -5.909 -10.730 -14.623  1.00  0.00     0.000 C 
BRANCH  15  16
ATOM     16  C   UNL     1      -5.631 -11.676 -15.806  1.00  0.00     0.000 C 
BRANCH  16  17
ATOM     17  C   UNL     1      -5.658 -10.937 -17.162  1.00  0.00     0.000 C 
BRANCH  17  18
ATOM     18  C   UNL     1      -4.278 -10.828 -17.832  1.00  0.00     0.000 C 
BRANCH  18  19
ATOM     19  C   UNL     1      -3.151 -11.430 -16.977  1.00  0.00     0.000 C 
BRANCH  19  20
ATOM     20  C   UNL     1      -2.260 -10.358 -16.331  1.00  0.00     0.006 C 
BRANCH  20  21
ATOM     21  C   UNL     1      -2.186 -10.495 -14.804  1.00  0.00     0.053 C 
BRANCH  21  22
ATOM     22  C   UNL     1      -1.533  -9.292 -14.203  1.00  0.00     0.041 C 
ATOM     23  O   UNL     1      -0.929  -9.381 -13.103  1.00  0.00    -0.550 OA
ATOM     24  O   UNL     1      -1.631  -8.059 -14.836  1.00  0.00    -0.550 OA
ENDBRANCH  21  22
ENDBRANCH  20  21
ENDBRANCH  19  20
ENDBRANCH  18  19
ENDBRANCH  17  18
ENDBRANCH  16  17
ENDBRANCH  15  16
ENDBRANCH  14  15
ENDBRANCH  13  14
ENDBRANCH   1  13
TORSDOF 20
ENDMDL
MODEL 6
REMARK VINA RESULT:    -3.802      3.175      6.966
REMARK INTER + INTRA:         -12.204
REMARK INTER:                  -8.824
REMARK INTRA:                  -3.380
REMARK UNBOUND:                -3.956
REMARK SMILES CCCCCCCCCCCCCCCCCCCCCC(=O)[O-]
REMARK SMILES IDX 12 1 11 2 10 3 9 4 8 5 7 6 6 7 5 8 4 9 3 10 2 11 1 12 13 13
REMARK SMILES IDX 14 14 15 15 16 16 17 17 18 18 19 19 20 20 21 21 22 22 23 23
REMARK SMILES IDX 24 24
REMARK H PARENT
REMARK Flexibility Score: inf
ROOT
ATOM      1  C   UNL     1      -4.435  -8.256 -17.942  1.00  0.00     0.000 C 
ENDROOT
BRANCH   1   2
ATOM      2  C   UNL     1      -4.785  -9.502 -18.770  1.00  0.00     0.000 C 
BRANCH   2   3
ATOM      3  C   UNL     1      -4.388 -10.814 -18.070  1.00  0.00     0.000 C 
BRANCH   3   4
ATOM      4  C   UNL     1      -3.091 -11.423 -18.630  1.00  0.00    -0.000 C 
BRANCH   4   5
ATOM      5  C   UNL     1      -1.815 -11.083 -17.836  1.00  0.00    -0.000 C 
BRANCH   5   6
ATOM      6  C   UNL     1      -0.696 -10.506 -18.721  1.00  0.00    -0.000 C 
BRANCH   6   7
ATOM      7  C   UNL     1      -1.042 -10.562 -20.218  1.00  0.00    -0.000 C 
BRANCH   7   8
ATOM      8  C   UNL     1      -1.160  -9.167 -20.852  1.00  0.00    -0.000 C 
BRANCH   8   9
ATOM      9  C   UNL     1      -2.354  -9.100 -21.812  1.00  0.00    -0.000 C 
BRANCH   9  10
ATOM     10  C   UNL     1      -1.903  -9.292 -23.267  1.00  0.00    -0.000 C 
BRANCH  10  11
ATOM     11  C   UNL     1      -2.892 -10.134 -24.086  1.00  0.00    -0.003 C 
ATOM     12  C   UNL     1      -2.923  -9.740 -25.563  1.00  0.00     0.004 C 
ENDBRANCH  10  11
ENDBRANCH   9  10
ENDBRANCH   8   9
ENDBRANCH   7   8
ENDBRANCH   6   7
ENDBRANCH   5   6
ENDBRANCH   4   5
ENDBRANCH   3   4
ENDBRANCH   2   3
ENDBRANCH   1   2
BRANCH   1  13
ATOM     13  C   UNL     1      -3.360  -7.384 -18.613  1.00  0.00     0.000 C 
BRANCH  13  14
ATOM     14  C   UNL     1      -2.430  -6.690 -17.601  1.00  0.00     0.000 C 
BRANCH  14  15
ATOM     15  C   UNL     1      -1.400  -7.610 -16.919  1.00  0.00     0.000 C 
BRANCH  15  16
ATOM     16  C   UNL     1      -0.967  -7.104 -15.531  1.00  0.00     0.000 C 
BRANCH  16  17
ATOM     17  C   UNL     1      -1.447  -8.033 -14.396  1.00  0.00     0.000 C 
BRANCH  17  18
ATOM     18  C   UNL     1      -2.842  -8.634 -14.641  1.00  0.00     0.000 C 
BRANCH  18  19
ATOM     19  C   UNL     1      -2.883 -10.156 -14.426  1.00  0.00     0.000 C 
BRANCH  19  20
ATOM     20  C   UNL     1      -4.313 -10.715 -14.427  1.00  0.00     0.006 C 
BRANCH  20  21
ATOM     21  C   UNL     1      -5.378  -9.611 -14.482  1.00  0.00     0.053 C 
BRANCH  21  22
ATOM     22  C   UNL     1      -6.679 -10.114 -13.944  1.00  0.00     0.041 C 
ATOM     23  O   UNL     1      -7.752  -9.887 -14.562  1.00  0.00    -0.550 OA
ATOM     24  O   UNL     1      -6.714 -10.794 -12.733  1.00  0.00    -0.550 OA
ENDBRANCH  21  22
ENDBRANCH  20  21
ENDBRANCH  19  20
ENDBRANCH  18  19
ENDBRANCH  17  18
ENDBRANCH  16  17
ENDBRANCH  15  16
ENDBRANCH  14  15
ENDBRANCH  13  14
ENDBRANCH   1  13
TORSDOF 20
ENDMDL
MODEL 7
REMARK VINA RESULT:    -3.647      2.843      7.039
REMARK INTER + INTRA:         -11.867
REMARK INTER:                  -8.915
REMARK INTRA:                  -2.952
REMARK UNBOUND:                -3.956
REMARK SMILES CCCCCCCCCCCCCCCCCCCCCC(=O)[O-]
REMARK SMILES IDX 12 1 11 2 10 3 9 4 8 5 7 6 6 7 5 8 4 9 3 10 2 11 1 12 13 13
REMARK SMILES IDX 14 14 15 15 16 16 17 17 18 18 19 19 20 20 21 21 22 22 23 23
REMARK SMILES IDX 24 24
REMARK H PARENT
REMARK Flexibility Score: inf
ROOT
ATOM      1  C   UNL     1      -2.708 -10.192 -18.680  1.00  0.00     0.000 C 
ENDROOT
BRANCH   1   2
ATOM      2  C   UNL     1      -3.793  -9.273 -19.262  1.00  0.00     0.000 C 
BRANCH   2   3
ATOM      3  C   UNL     1      -3.352  -7.801 -19.332  1.00  0.00     0.000 C 
BRANCH   3   4
ATOM      4  C   UNL     1      -1.824  -7.629 -19.248  1.00  0.00    -0.000 C 
BRANCH   4   5
ATOM      5  C   UNL     1      -1.118  -7.409 -20.599  1.00  0.00    -0.000 C 
BRANCH   5   6
ATOM      6  C   UNL     1      -2.093  -7.041 -21.730  1.00  0.00    -0.000 C 
BRANCH   6   7
ATOM      7  C   UNL     1      -1.944  -7.956 -22.957  1.00  0.00    -0.000 C 
BRANCH   7   8
ATOM      8  C   UNL     1      -2.093  -9.445 -22.608  1.00  0.00    -0.000 C 
BRANCH   8   9
ATOM      9  C   UNL     1      -2.069 -10.311 -23.873  1.00  0.00    -0.000 C 
BRANCH   9  10
ATOM     10  C   UNL     1      -3.132  -9.847 -24.879  1.00  0.00    -0.000 C 
BRANCH  10  11
ATOM     11  C   UNL     1      -2.725 -10.116 -26.336  1.00  0.00    -0.003 C 
ATOM     12  C   UNL     1      -1.653 -11.199 -26.460  1.00  0.00     0.004 C 
ENDBRANCH  10  11
ENDBRANCH   9  10
ENDBRANCH   8   9
ENDBRANCH   7   8
ENDBRANCH   6   7
ENDBRANCH   5   6
ENDBRANCH   4   5
ENDBRANCH   3   4
ENDBRANCH   2   3
ENDBRANCH   1   2
BRANCH   1  13
ATOM     13  C   UNL     1      -3.217 -11.622 -18.432  1.00  0.00     0.000 C 
BRANCH  13  14
ATOM     14  C   UNL     1      -3.664 -11.858 -16.977  1.00  0.00     0.000 C 
BRANCH  14  15
ATOM     15  C   UNL     1      -5.177 -12.074 -16.784  1.00  0.00     0.000 C 
BRANCH  15  16
ATOM     16  C   UNL     1      -5.946 -10.763 -16.536  1.00  0.00     0.000 C 
BRANCH  16  17
ATOM     17  C   UNL     1      -6.177 -10.497 -15.033  1.00  0.00     0.000 C 
BRANCH  17  18
ATOM     18  C   UNL     1      -5.763  -9.084 -14.588  1.00  0.00     0.000 C 
BRANCH  18  19
ATOM     19  C   UNL     1      -5.387  -8.173 -15.767  1.00  0.00     0.000 C 
BRANCH  19  20
ATOM     20  C   UNL     1      -3.881  -7.872 -15.825  1.00  0.00     0.006 C 
BRANCH  20  21
ATOM     21  C   UNL     1      -3.063  -8.783 -14.901  1.00  0.00     0.053 C 
BRANCH  21  22
ATOM     22  C   UNL     1      -1.646  -8.867 -15.373  1.00  0.00     0.041 C 
ATOM     23  O   UNL     1      -1.053  -9.977 -15.405  1.00  0.00    -0.550 OA
ATOM     24  O   UNL     1      -0.964  -7.712 -15.733  1.00  0.00    -0.550 OA
ENDBRANCH  21  22
ENDBRANCH  20  21
ENDBRANCH  19  20
ENDBRANCH  18  19
ENDBRANCH  17  18
ENDBRANCH  16  17
ENDBRANCH  15  16
ENDBRANCH  14  15
ENDBRANCH  13  14
ENDBRANCH   1  13
TORSDOF 20
ENDMDL
MODEL 8
REMARK VINA RESULT:    -3.640      3.576      7.064
REMARK INTER + INTRA:         -11.852
REMARK INTER:                  -8.692
REMARK INTRA:                  -3.160
REMARK UNBOUND:                -3.956
REMARK SMILES CCCCCCCCCCCCCCCCCCCCCC(=O)[O-]
REMARK SMILES IDX 12 1 11 2 10 3 9 4 8 5 7 6 6 7 5 8 4 9 3 10 2 11 1 12 13 13
REMARK SMILES IDX 14 14 15 15 16 16 17 17 18 18 19 19 20 20 21 21 22 22 23 23
REMARK SMILES IDX 24 24
REMARK H PARENT
REMARK Flexibility Score: inf
ROOT
ATOM      1  C   UNL     1      -4.262  -6.987 -16.907  1.00  0.00     0.000 C 
ENDROOT
BRANCH   1   2
ATOM      2  C   UNL     1      -4.656  -7.504 -18.299  1.00  0.00     0.000 C 
BRANCH   2   3
ATOM      3  C   UNL     1      -3.441  -7.923 -19.144  1.00  0.00     0.000 C 
BRANCH   3   4
ATOM      4  C   UNL     1      -2.103  -7.454 -18.544  1.00  0.00    -0.000 C 
BRANCH   4   5
ATOM      5  C   UNL     1      -0.914  -8.405 -18.778  1.00  0.00    -0.000 C 
BRANCH   5   6
ATOM      6  C   UNL     1      -1.323  -9.712 -19.479  1.00  0.00    -0.000 C 
BRANCH   6   7
ATOM      7  C   UNL     1      -0.377 -10.082 -20.634  1.00  0.00    -0.000 C 
BRANCH   7   8
ATOM      8  C   UNL     1      -1.056  -9.988 -22.009  1.00  0.00    -0.000 C 
BRANCH   8   9
ATOM      9  C   UNL     1      -1.191 -11.374 -22.650  1.00  0.00    -0.000 C 
BRANCH   9  10
ATOM     10  C   UNL     1      -1.679 -11.266 -24.102  1.00  0.00    -0.000 C 
BRANCH  10  11
ATOM     11  C   UNL     1      -2.764 -10.195 -24.283  1.00  0.00    -0.003 C 
ATOM     12  C   UNL     1      -2.971  -9.805 -25.747  1.00  0.00     0.004 C 
ENDBRANCH  10  11
ENDBRANCH   9  10
ENDBRANCH   8   9
ENDBRANCH   7   8
ENDBRANCH   6   7
ENDBRANCH   5   6
ENDBRANCH   4   5
ENDBRANCH   3   4
ENDBRANCH   2   3
ENDBRANCH   1   2
BRANCH   1  13
ATOM     13  C   UNL     1      -5.112  -7.606 -15.784  1.00  0.00     0.000 C 
BRANCH  13  14
ATOM     14  C   UNL     1      -4.300  -8.522 -14.850  1.00  0.00     0.000 C 
BRANCH  14  15
ATOM     15  C   UNL     1      -2.777  -8.507 -15.078  1.00  0.00     0.000 C 
BRANCH  15  16
ATOM     16  C   UNL     1      -2.242  -9.827 -15.664  1.00  0.00     0.000 C 
BRANCH  16  17
ATOM     17  C   UNL     1      -3.344 -10.902 -15.779  1.00  0.00     0.000 C 
BRANCH  17  18
ATOM     18  C   UNL     1      -3.920 -11.044 -17.199  1.00  0.00     0.000 C 
BRANCH  18  19
ATOM     19  C   UNL     1      -5.457 -11.018 -17.224  1.00  0.00     0.000 C 
BRANCH  19  20
ATOM     20  C   UNL     1      -6.080 -11.731 -16.014  1.00  0.00     0.006 C 
BRANCH  20  21
ATOM     21  C   UNL     1      -7.043 -10.828 -15.231  1.00  0.00     0.053 C 
BRANCH  21  22
ATOM     22  C   UNL     1      -7.205 -11.328 -13.831  1.00  0.00     0.041 C 
ATOM     23  O   UNL     1      -8.349 -11.390 -13.308  1.00  0.00    -0.550 OA
ATOM     24  O   UNL     1      -6.088 -11.682 -13.086  1.00  0.00    -0.550 OA
ENDBRANCH  21  22
ENDBRANCH  20  21
ENDBRANCH  19  20
ENDBRANCH  18  19
ENDBRANCH  17  18
ENDBRANCH  16  17
ENDBRANCH  15  16
ENDBRANCH  14  15
ENDBRANCH  13  14
ENDBRANCH   1  13
TORSDOF 20
ENDMDL
MODEL 9
REMARK VINA RESULT:    -3.626      2.885      6.982
REMARK INTER + INTRA:         -11.821
REMARK INTER:                  -8.443
REMARK INTRA:                  -3.379
REMARK UNBOUND:                -3.956
REMARK SMILES CCCCCCCCCCCCCCCCCCCCCC(=O)[O-]
REMARK SMILES IDX 12 1 11 2 10 3 9 4 8 5 7 6 6 7 5 8 4 9 3 10 2 11 1 12 13 13
REMARK SMILES IDX 14 14 15 15 16 16 17 17 18 18 19 19 20 20 21 21 22 22 23 23
REMARK SMILES IDX 24 24
REMARK H PARENT
REMARK Flexibility Score: inf
ROOT
ATOM      1  C   UNL     1      -4.326  -7.429 -18.518  1.00  0.00     0.000 C 
ENDROOT
BRANCH   1   2
ATOM      2  C   UNL     1      -3.986  -8.907 -18.770  1.00  0.00     0.000 C 
BRANCH   2   3
ATOM      3  C   UNL     1      -3.141  -9.115 -20.039  1.00  0.00     0.000 C 
BRANCH   3   4
ATOM      4  C   UNL     1      -1.647  -9.326 -19.736  1.00  0.00    -0.000 C 
BRANCH   4   5
ATOM      5  C   UNL     1      -0.707  -8.244 -20.303  1.00  0.00    -0.000 C 
BRANCH   5   6
ATOM      6  C   UNL     1      -1.467  -7.061 -20.927  1.00  0.00    -0.000 C 
BRANCH   6   7
ATOM      7  C   UNL     1      -1.107  -6.844 -22.406  1.00  0.00    -0.000 C 
BRANCH   7   8
ATOM      8  C   UNL     1      -0.939  -8.164 -23.175  1.00  0.00    -0.000 C 
BRANCH   8   9
ATOM      9  C   UNL     1      -2.295  -8.697 -23.653  1.00  0.00    -0.000 C 
BRANCH   9  10
ATOM     10  C   UNL     1      -2.265 -10.224 -23.806  1.00  0.00    -0.000 C 
BRANCH  10  11
ATOM     11  C   UNL     1      -0.886 -10.823 -23.491  1.00  0.00    -0.003 C 
ATOM     12  C   UNL     1      -0.923 -11.810 -22.324  1.00  0.00     0.004 C 
ENDBRANCH  10  11
ENDBRANCH   9  10
ENDBRANCH   8   9
ENDBRANCH   7   8
ENDBRANCH   6   7
ENDBRANCH   5   6
ENDBRANCH   4   5
ENDBRANCH   3   4
ENDBRANCH   2   3
ENDBRANCH   1   2
BRANCH   1  13
ATOM     13  C   UNL     1      -3.799  -6.924 -17.164  1.00  0.00     0.000 C 
BRANCH  13  14
ATOM     14  C   UNL     1      -2.316  -6.510 -17.213  1.00  0.00     0.000 C 
BRANCH  14  15
ATOM     15  C   UNL     1      -1.328  -7.540 -16.635  1.00  0.00     0.000 C 
BRANCH  15  16
ATOM     16  C   UNL     1      -1.041  -7.326 -15.138  1.00  0.00     0.000 C 
BRANCH  16  17
ATOM     17  C   UNL     1      -1.511  -8.520 -14.278  1.00  0.00     0.000 C 
BRANCH  17  18
ATOM     18  C   UNL     1      -2.020  -9.713 -15.107  1.00  0.00     0.000 C 
BRANCH  18  19
ATOM     19  C   UNL     1      -2.554 -10.860 -14.234  1.00  0.00     0.000 C 
BRANCH  19  20
ATOM     20  C   UNL     1      -4.086 -10.969 -14.273  1.00  0.00     0.006 C 
BRANCH  20  21
ATOM     21  C   UNL     1      -4.707 -10.130 -15.398  1.00  0.00     0.053 C 
BRANCH  21  22
ATOM     22  C   UNL     1      -5.880  -9.356 -14.885  1.00  0.00     0.041 C 
ATOM     23  O   UNL     1      -5.726  -8.184 -14.451  1.00  0.00    -0.550 OA
ATOM     24  O   UNL     1      -7.137  -9.945 -14.843  1.00  0.00    -0.550 OA
ENDBRANCH  21  22
ENDBRANCH  20  21
ENDBRANCH  19  20
ENDBRANCH  18  19
ENDBRANCH  17  18
ENDBRANCH  16  17
ENDBRANCH  15  16
ENDBRANCH  14  15
ENDBRANCH  13  14
ENDBRANCH   1  13
TORSDOF 20
ENDMDL
