MODEL 1
REMARK VINA RESULT:    -6.250      0.000      0.000
REMARK INTER + INTRA:          -6.828
REMARK INTER:                  -6.798
REMARK INTRA:                  -0.030
REMARK UNBOUND:                -0.030
REMARK SMILES O=C([O-])c1ccc(O)cc1
REMARK SMILES IDX 4 1 5 2 10 3 6 4 9 5 7 6 2 7 1 8 3 9 8 10
REMARK H PARENT 8 11
REMARK Flexibility Score: inf
ROOT
ATOM      1  C   UNL     1     -11.850   1.477  -9.478  1.00  0.00    -0.003 A 
ATOM      2  C   UNL     1     -13.228   1.673  -9.683  1.00  0.00     0.014 A 
ATOM      3  C   UNL     1     -11.108   2.481  -8.828  1.00  0.00     0.014 A 
ATOM      4  C   UNL     1     -13.849   2.847  -9.245  1.00  0.00     0.047 A 
ATOM      5  C   UNL     1     -11.733   3.653  -8.392  1.00  0.00     0.047 A 
ATOM      6  C   UNL     1     -13.106   3.839  -8.599  1.00  0.00     0.115 A 
ENDROOT
BRANCH   1   7
ATOM      7  C   UNL     1     -11.196   0.234  -9.942  1.00  0.00     0.071 C 
ATOM      8  O   UNL     1     -11.353  -0.170 -11.125  1.00  0.00    -0.545 OA
ATOM      9  O   UNL     1     -10.397  -0.506  -9.078  1.00  0.00    -0.545 OA
ENDBRANCH   1   7
BRANCH   6  10
ATOM     10  O   UNL     1     -13.738   5.003  -8.169  1.00  0.00    -0.508 OA
ATOM     11  H   UNL     1     -14.514   4.974  -7.518  1.00  0.00     0.293 HD
ENDBRANCH   6  10
TORSDOF 2
ENDMDL
MODEL 2
REMARK VINA RESULT:    -5.918      0.085      1.533
REMARK INTER + INTRA:          -6.468
REMARK INTER:                  -6.437
REMARK INTRA:                  -0.030
REMARK UNBOUND:                -0.030
REMARK SMILES O=C([O-])c1ccc(O)cc1
REMARK SMILES IDX 4 1 5 2 10 3 6 4 9 5 7 6 2 7 1 8 3 9 8 10
REMARK H PARENT 8 11
REMARK Flexibility Score: inf
ROOT
ATOM      1  C   UNL     1     -11.809   1.441  -9.487  1.00  0.00    -0.003 A 
ATOM      2  C   UNL     1     -11.045   2.458  -8.886  1.00  0.00     0.014 A 
ATOM      3  C   UNL     1     -13.197   1.625  -9.628  1.00  0.00     0.014 A 
ATOM      4  C   UNL     1     -11.657   3.632  -8.437  1.00  0.00     0.047 A 
ATOM      5  C   UNL     1     -13.806   2.800  -9.178  1.00  0.00     0.047 A 
ATOM      6  C   UNL     1     -13.037   3.807  -8.581  1.00  0.00     0.115 A 
ENDROOT
BRANCH   1   7
ATOM      7  C   UNL     1     -11.159   0.200  -9.962  1.00  0.00     0.071 C 
ATOM      8  O   UNL     1     -11.376  -0.232 -11.125  1.00  0.00    -0.545 OA
ATOM      9  O   UNL     1     -10.300  -0.508  -9.129  1.00  0.00    -0.545 OA
ENDBRANCH   1   7
BRANCH   6  10
ATOM     10  O   UNL     1     -13.632   4.983  -8.128  1.00  0.00    -0.508 OA
ATOM     11  H   UNL     1     -13.826   5.133  -7.145  1.00  0.00     0.293 HD
ENDBRANCH   6  10
TORSDOF 2
ENDMDL
MODEL 3
REMARK VINA RESULT:    -5.773      1.610      4.113
REMARK INTER + INTRA:          -6.310
REMARK INTER:                  -6.274
REMARK INTRA:                  -0.036
REMARK UNBOUND:                -0.030
REMARK SMILES O=C([O-])c1ccc(O)cc1
REMARK SMILES IDX 4 1 5 2 10 3 6 4 9 5 7 6 2 7 1 8 3 9 8 10
REMARK H PARENT 8 11
REMARK Flexibility Score: inf
ROOT
ATOM      1  C   UNL     1     -12.287   2.403  -9.199  1.00  0.00    -0.003 A 
ATOM      2  C   UNL     1     -11.357   1.386  -9.482  1.00  0.00     0.014 A 
ATOM      3  C   UNL     1     -13.632   2.221  -9.570  1.00  0.00     0.014 A 
ATOM      4  C   UNL     1     -11.767   0.212 -10.121  1.00  0.00     0.047 A 
ATOM      5  C   UNL     1     -14.037   1.046 -10.209  1.00  0.00     0.047 A 
ATOM      6  C   UNL     1     -13.105   0.037 -10.486  1.00  0.00     0.115 A 
ENDROOT
BRANCH   1   7
ATOM      7  C   UNL     1     -11.851   3.645  -8.522  1.00  0.00     0.071 C 
ATOM      8  O   UNL     1     -12.646   4.613  -8.388  1.00  0.00    -0.545 OA
ATOM      9  O   UNL     1     -10.558   3.761  -8.026  1.00  0.00    -0.545 OA
ENDBRANCH   1   7
BRANCH   6  10
ATOM     10  O   UNL     1     -13.497  -1.139 -11.123  1.00  0.00    -0.508 OA
ATOM     11  H   UNL     1     -13.819  -1.137 -12.084  1.00  0.00     0.293 HD
ENDBRANCH   6  10
TORSDOF 2
ENDMDL
MODEL 4
REMARK VINA RESULT:    -5.666      1.854      4.377
REMARK INTER + INTRA:          -6.193
REMARK INTER:                  -6.157
REMARK INTRA:                  -0.036
REMARK UNBOUND:                -0.030
REMARK SMILES O=C([O-])c1ccc(O)cc1
REMARK SMILES IDX 4 1 5 2 10 3 6 4 9 5 7 6 2 7 1 8 3 9 8 10
REMARK H PARENT 8 11
REMARK Flexibility Score: inf
ROOT
ATOM      1  C   UNL     1     -12.191   1.323  -9.628  1.00  0.00    -0.003 A 
ATOM      2  C   UNL     1     -13.395   0.792 -10.124  1.00  0.00     0.014 A 
ATOM      3  C   UNL     1     -11.035   0.518  -9.638  1.00  0.00     0.014 A 
ATOM      4  C   UNL     1     -13.441  -0.515 -10.619  1.00  0.00     0.047 A 
ATOM      5  C   UNL     1     -11.086  -0.787 -10.134  1.00  0.00     0.047 A 
ATOM      6  C   UNL     1     -12.290  -1.308 -10.627  1.00  0.00     0.115 A 
ENDROOT
BRANCH   1   7
ATOM      7  C   UNL     1     -12.144   2.706  -9.104  1.00  0.00     0.071 C 
ATOM      8  O   UNL     1     -11.073   3.178  -8.637  1.00  0.00    -0.545 OA
ATOM      9  O   UNL     1     -13.282   3.504  -9.119  1.00  0.00    -0.545 OA
ENDBRANCH   1   7
BRANCH   6  10
ATOM     10  O   UNL     1     -12.352  -2.608 -11.124  1.00  0.00    -0.508 OA
ATOM     11  H   UNL     1     -12.698  -3.374 -10.558  1.00  0.00     0.293 HD
ENDBRANCH   6  10
TORSDOF 2
ENDMDL
MODEL 5
REMARK VINA RESULT:    -5.345      1.517      1.886
REMARK INTER + INTRA:          -5.844
REMARK INTER:                  -5.812
REMARK INTRA:                  -0.031
REMARK UNBOUND:                -0.030
REMARK SMILES O=C([O-])c1ccc(O)cc1
REMARK SMILES IDX 4 1 5 2 10 3 6 4 9 5 7 6 2 7 1 8 3 9 8 10
REMARK H PARENT 8 11
REMARK Flexibility Score: inf
ROOT
ATOM      1  C   UNL     1     -11.752  -0.070 -10.038  1.00  0.00    -0.003 A 
ATOM      2  C   UNL     1     -13.108  -0.056 -10.412  1.00  0.00     0.014 A 
ATOM      3  C   UNL     1     -11.210   1.059  -9.396  1.00  0.00     0.014 A 
ATOM      4  C   UNL     1     -13.903   1.063 -10.148  1.00  0.00     0.047 A 
ATOM      5  C   UNL     1     -12.008   2.176  -9.135  1.00  0.00     0.047 A 
ATOM      6  C   UNL     1     -13.357   2.181  -9.510  1.00  0.00     0.115 A 
ENDROOT
BRANCH   1   7
ATOM      7  C   UNL     1     -10.912  -1.256 -10.318  1.00  0.00     0.071 C 
ATOM      8  O   UNL     1      -9.744  -1.122 -10.770  1.00  0.00    -0.545 OA
ATOM      9  O   UNL     1     -11.402  -2.537 -10.086  1.00  0.00    -0.545 OA
ENDBRANCH   1   7
BRANCH   6  10
ATOM     10  O   UNL     1     -14.162   3.289  -9.254  1.00  0.00    -0.508 OA
ATOM     11  H   UNL     1     -13.773   4.222  -9.189  1.00  0.00     0.293 HD
ENDBRANCH   6  10
TORSDOF 2
ENDMDL
MODEL 6
REMARK VINA RESULT:    -4.596     15.002     16.429
REMARK INTER + INTRA:          -5.030
REMARK INTER:                  -5.002
REMARK INTRA:                  -0.028
REMARK UNBOUND:                -0.030
REMARK SMILES O=C([O-])c1ccc(O)cc1
REMARK SMILES IDX 4 1 5 2 10 3 6 4 9 5 7 6 2 7 1 8 3 9 8 10
REMARK H PARENT 8 11
REMARK Flexibility Score: inf
ROOT
ATOM      1  C   UNL     1     -12.530   5.665   5.907  1.00  0.00    -0.003 A 
ATOM      2  C   UNL     1     -11.450   6.562   5.986  1.00  0.00     0.014 A 
ATOM      3  C   UNL     1     -12.639   4.642   6.868  1.00  0.00     0.014 A 
ATOM      4  C   UNL     1     -10.500   6.438   7.005  1.00  0.00     0.047 A 
ATOM      5  C   UNL     1     -11.688   4.522   7.885  1.00  0.00     0.047 A 
ATOM      6  C   UNL     1     -10.615   5.420   7.956  1.00  0.00     0.115 A 
ENDROOT
BRANCH   1   7
ATOM      7  C   UNL     1     -13.534   5.798   4.828  1.00  0.00     0.071 C 
ATOM      8  O   UNL     1     -14.711   6.163   5.090  1.00  0.00    -0.545 OA
ATOM      9  O   UNL     1     -13.192   5.521   3.510  1.00  0.00    -0.545 OA
ENDBRANCH   1   7
BRANCH   6  10
ATOM     10  O   UNL     1      -9.661   5.309   8.966  1.00  0.00    -0.508 OA
ATOM     11  H   UNL     1      -9.221   6.128   9.369  1.00  0.00     0.293 HD
ENDBRANCH   6  10
TORSDOF 2
ENDMDL
MODEL 7
REMARK VINA RESULT:    -4.490      2.403      2.899
REMARK INTER + INTRA:          -4.914
REMARK INTER:                  -4.887
REMARK INTRA:                  -0.027
REMARK UNBOUND:                -0.030
REMARK SMILES O=C([O-])c1ccc(O)cc1
REMARK SMILES IDX 4 1 5 2 10 3 6 4 9 5 7 6 2 7 1 8 3 9 8 10
REMARK H PARENT 8 11
REMARK Flexibility Score: inf
ROOT
ATOM      1  C   UNL     1     -13.246   2.186  -9.223  1.00  0.00    -0.003 A 
ATOM      2  C   UNL     1     -13.421   3.551  -8.934  1.00  0.00     0.014 A 
ATOM      3  C   UNL     1     -11.948   1.643  -9.196  1.00  0.00     0.014 A 
ATOM      4  C   UNL     1     -12.319   4.355  -8.625  1.00  0.00     0.047 A 
ATOM      5  C   UNL     1     -10.850   2.450  -8.886  1.00  0.00     0.047 A 
ATOM      6  C   UNL     1     -11.033   3.809  -8.599  1.00  0.00     0.115 A 
ENDROOT
BRANCH   1   7
ATOM      7  C   UNL     1     -14.414   1.337  -9.550  1.00  0.00     0.071 C 
ATOM      8  O   UNL     1     -14.778   1.183 -10.746  1.00  0.00    -0.545 OA
ATOM      9  O   UNL     1     -15.125   0.698  -8.541  1.00  0.00    -0.545 OA
ENDBRANCH   1   7
BRANCH   6  10
ATOM     10  O   UNL     1      -9.945   4.623  -8.289  1.00  0.00    -0.508 OA
ATOM     11  H   UNL     1      -9.861   5.559  -8.665  1.00  0.00     0.293 HD
ENDBRANCH   6  10
TORSDOF 2
ENDMDL
MODEL 8
REMARK VINA RESULT:    -4.141     15.990     16.667
REMARK INTER + INTRA:          -4.535
REMARK INTER:                  -4.501
REMARK INTRA:                  -0.034
REMARK UNBOUND:                -0.030
REMARK SMILES O=C([O-])c1ccc(O)cc1
REMARK SMILES IDX 4 1 5 2 10 3 6 4 9 5 7 6 2 7 1 8 3 9 8 10
REMARK H PARENT 8 11
REMARK Flexibility Score: inf
ROOT
ATOM      1  C   UNL     1     -12.170   6.775   6.119  1.00  0.00    -0.003 A 
ATOM      2  C   UNL     1     -10.796   6.668   6.399  1.00  0.00     0.014 A 
ATOM      3  C   UNL     1     -12.985   5.637   6.260  1.00  0.00     0.014 A 
ATOM      4  C   UNL     1     -10.250   5.448   6.810  1.00  0.00     0.047 A 
ATOM      5  C   UNL     1     -12.436   4.419   6.671  1.00  0.00     0.047 A 
ATOM      6  C   UNL     1     -11.066   4.322   6.948  1.00  0.00     0.115 A 
ENDROOT
BRANCH   1   7
ATOM      7  C   UNL     1     -12.746   8.067   5.685  1.00  0.00     0.071 C 
ATOM      8  O   UNL     1     -13.756   8.098   4.932  1.00  0.00    -0.545 OA
ATOM      9  O   UNL     1     -12.178   9.267   6.100  1.00  0.00    -0.545 OA
ENDBRANCH   1   7
BRANCH   6  10
ATOM     10  O   UNL     1     -10.508   3.113   7.358  1.00  0.00    -0.508 OA
ATOM     11  H   UNL     1     -11.075   2.283   7.481  1.00  0.00     0.293 HD
ENDBRANCH   6  10
TORSDOF 2
ENDMDL
MODEL 9
REMARK VINA RESULT:    -3.384      3.604      5.490
REMARK INTER + INTRA:          -3.711
REMARK INTER:                  -3.675
REMARK INTRA:                  -0.036
REMARK UNBOUND:                -0.030
REMARK SMILES O=C([O-])c1ccc(O)cc1
REMARK SMILES IDX 4 1 5 2 10 3 6 4 9 5 7 6 2 7 1 8 3 9 8 10
REMARK H PARENT 8 11
REMARK Flexibility Score: inf
ROOT
ATOM      1  C   UNL     1     -12.602  -1.341 -10.543  1.00  0.00    -0.003 A 
ATOM      2  C   UNL     1     -11.556  -0.410 -10.409  1.00  0.00     0.014 A 
ATOM      3  C   UNL     1     -12.327  -2.708 -10.350  1.00  0.00     0.014 A 
ATOM      4  C   UNL     1     -10.264  -0.839 -10.088  1.00  0.00     0.047 A 
ATOM      5  C   UNL     1     -11.035  -3.132 -10.030  1.00  0.00     0.047 A 
ATOM      6  C   UNL     1      -9.999  -2.198  -9.897  1.00  0.00     0.115 A 
ENDROOT
BRANCH   1   7
ATOM      7  C   UNL     1     -13.968  -0.885 -10.883  1.00  0.00     0.071 C 
ATOM      8  O   UNL     1     -14.880  -1.720 -11.125  1.00  0.00    -0.545 OA
ATOM      9  O   UNL     1     -14.264   0.472 -10.941  1.00  0.00    -0.545 OA
ENDBRANCH   1   7
BRANCH   6  10
ATOM     10  O   UNL     1      -8.707  -2.610  -9.578  1.00  0.00    -0.508 OA
ATOM     11  H   UNL     1      -8.077  -2.015  -9.052  1.00  0.00     0.293 HD
ENDBRANCH   6  10
TORSDOF 2
ENDMDL
