MODEL 1
REMARK VINA RESULT:    -4.227      0.000      0.000
REMARK INTER + INTRA:          -6.686
REMARK INTER:                  -6.203
REMARK INTRA:                  -0.483
REMARK UNBOUND:                -0.483
REMARK SMILES O=C([O-])CCCCCCCC(=O)[O-]
REMARK SMILES IDX 7 1 6 2 5 3 4 4 2 5 1 6 3 7 8 8 9 9 10 10 11 11 12 12 13 13
REMARK H PARENT
REMARK Flexibility Score: inf
ROOT
ATOM      1  C   UNL     1     192.770   3.441  99.443  1.00  0.00     0.000 C 
ENDROOT
BRANCH   1   2
ATOM      2  C   UNL     1     192.181   2.061  99.778  1.00  0.00     0.000 C 
BRANCH   2   3
ATOM      3  C   UNL     1     192.958   1.336 100.888  1.00  0.00     0.006 C 
BRANCH   3   4
ATOM      4  C   UNL     1     193.541   2.338 101.890  1.00  0.00     0.053 C 
BRANCH   4   5
ATOM      5  C   UNL     1     192.995   2.087 103.260  1.00  0.00     0.041 C 
ATOM      6  O   UNL     1     191.879   1.521 103.405  1.00  0.00    -0.550 OA
ATOM      7  O   UNL     1     193.743   2.432 104.381  1.00  0.00    -0.550 OA
ENDBRANCH   4   5
ENDBRANCH   3   4
ENDBRANCH   2   3
ENDBRANCH   1   2
BRANCH   1   8
ATOM      8  C   UNL     1     191.812   4.303  98.602  1.00  0.00     0.000 C 
BRANCH   8   9
ATOM      9  C   UNL     1     190.678   3.480  97.961  1.00  0.00     0.006 C 
BRANCH   9  10
ATOM     10  C   UNL     1     190.450   3.768  96.469  1.00  0.00     0.053 C 
BRANCH  10  11
ATOM     11  C   UNL     1     191.640   3.401  95.636  1.00  0.00     0.041 C 
ATOM     12  O   UNL     1     192.171   4.255  94.879  1.00  0.00    -0.550 OA
ATOM     13  O   UNL     1     192.142   2.106  95.673  1.00  0.00    -0.550 OA
ENDBRANCH  10  11
ENDBRANCH   9  10
ENDBRANCH   8   9
ENDBRANCH   1   8
TORSDOF 8
ENDMDL
MODEL 2
REMARK VINA RESULT:    -4.217      0.862      6.529
REMARK INTER + INTRA:          -6.672
REMARK INTER:                  -6.183
REMARK INTRA:                  -0.489
REMARK UNBOUND:                -0.483
REMARK SMILES O=C([O-])CCCCCCCC(=O)[O-]
REMARK SMILES IDX 7 1 6 2 5 3 4 4 2 5 1 6 3 7 8 8 9 9 10 10 11 11 12 12 13 13
REMARK H PARENT
REMARK Flexibility Score: inf
ROOT
ATOM      1  C   UNL     1     192.749   3.440  99.410  1.00  0.00     0.000 C 
ENDROOT
BRANCH   1   2
ATOM      2  C   UNL     1     191.882   4.389  98.568  1.00  0.00     0.000 C 
BRANCH   2   3
ATOM      3  C   UNL     1     190.733   3.664  97.849  1.00  0.00     0.006 C 
BRANCH   3   4
ATOM      4  C   UNL     1     190.478   4.278  96.469  1.00  0.00     0.053 C 
BRANCH   4   5
ATOM      5  C   UNL     1     191.512   3.817  95.491  1.00  0.00     0.041 C 
ATOM      6  O   UNL     1     191.992   4.622  94.649  1.00  0.00    -0.550 OA
ATOM      7  O   UNL     1     191.981   2.510  95.540  1.00  0.00    -0.550 OA
ENDBRANCH   4   5
ENDBRANCH   3   4
ENDBRANCH   2   3
ENDBRANCH   1   2
BRANCH   1   8
ATOM      8  C   UNL     1     192.315   1.970  99.278  1.00  0.00     0.000 C 
BRANCH   8   9
ATOM      9  C   UNL     1     192.003   1.317 100.638  1.00  0.00     0.006 C 
BRANCH   9  10
ATOM     10  C   UNL     1     193.239   0.793 101.388  1.00  0.00     0.053 C 
BRANCH  10  11
ATOM     11  C   UNL     1     193.491   1.550 102.656  1.00  0.00     0.041 C 
ATOM     12  O   UNL     1     193.881   2.745 102.613  1.00  0.00    -0.550 OA
ATOM     13  O   UNL     1     193.325   0.923 103.885  1.00  0.00    -0.550 OA
ENDBRANCH  10  11
ENDBRANCH   9  10
ENDBRANCH   8   9
ENDBRANCH   1   8
TORSDOF 8
ENDMDL
MODEL 3
REMARK VINA RESULT:    -4.167      1.562      6.718
REMARK INTER + INTRA:          -6.598
REMARK INTER:                  -6.247
REMARK INTRA:                  -0.352
REMARK UNBOUND:                -0.483
REMARK SMILES O=C([O-])CCCCCCCC(=O)[O-]
REMARK SMILES IDX 7 1 6 2 5 3 4 4 2 5 1 6 3 7 8 8 9 9 10 10 11 11 12 12 13 13
REMARK H PARENT
REMARK Flexibility Score: inf
ROOT
ATOM      1  C   UNL     1     192.903   3.413  99.567  1.00  0.00     0.000 C 
ENDROOT
BRANCH   1   2
ATOM      2  C   UNL     1     192.044   4.234  98.592  1.00  0.00     0.000 C 
BRANCH   2   3
ATOM      3  C   UNL     1     191.205   3.353  97.653  1.00  0.00     0.006 C 
BRANCH   3   4
ATOM      4  C   UNL     1     189.716   3.694  97.769  1.00  0.00     0.053 C 
BRANCH   4   5
ATOM      5  C   UNL     1     189.039   3.545  96.443  1.00  0.00     0.041 C 
ATOM      6  O   UNL     1     187.782   3.503  96.374  1.00  0.00    -0.550 OA
ATOM      7  O   UNL     1     189.794   3.502  95.277  1.00  0.00    -0.550 OA
ENDBRANCH   4   5
ENDBRANCH   3   4
ENDBRANCH   2   3
ENDBRANCH   1   2
BRANCH   1   8
ATOM      8  C   UNL     1     192.365   1.986  99.770  1.00  0.00     0.000 C 
BRANCH   8   9
ATOM      9  C   UNL     1     192.969   1.292 101.006  1.00  0.00     0.006 C 
BRANCH   9  10
ATOM     10  C   UNL     1     193.598   2.252 102.028  1.00  0.00     0.053 C 
BRANCH  10  11
ATOM     11  C   UNL     1     193.077   2.021 103.413  1.00  0.00     0.041 C 
ATOM     12  O   UNL     1     193.857   2.068 104.399  1.00  0.00    -0.550 OA
ATOM     13  O   UNL     1     191.734   1.722 103.610  1.00  0.00    -0.550 OA
ENDBRANCH  10  11
ENDBRANCH   9  10
ENDBRANCH   8   9
ENDBRANCH   1   8
TORSDOF 8
ENDMDL
MODEL 4
REMARK VINA RESULT:    -4.159      1.966      6.500
REMARK INTER + INTRA:          -6.587
REMARK INTER:                  -6.071
REMARK INTRA:                  -0.517
REMARK UNBOUND:                -0.483
REMARK SMILES O=C([O-])CCCCCCCC(=O)[O-]
REMARK SMILES IDX 7 1 6 2 5 3 4 4 2 5 1 6 3 7 8 8 9 9 10 10 11 11 12 12 13 13
REMARK H PARENT
REMARK Flexibility Score: inf
ROOT
ATOM      1  C   UNL     1     189.682   3.522  97.437  1.00  0.00     0.000 C 
ENDROOT
BRANCH   1   2
ATOM      2  C   UNL     1     189.405   4.001  96.004  1.00  0.00     0.000 C 
BRANCH   2   3
ATOM      3  C   UNL     1     190.661   4.541  95.303  1.00  0.00     0.006 C 
BRANCH   3   4
ATOM      4  C   UNL     1     190.841   3.893  93.927  1.00  0.00     0.053 C 
BRANCH   4   5
ATOM      5  C   UNL     1     191.564   2.589  94.053  1.00  0.00     0.041 C 
ATOM      6  O   UNL     1     192.292   2.361  95.055  1.00  0.00    -0.550 OA
ATOM      7  O   UNL     1     191.396   1.604  93.086  1.00  0.00    -0.550 OA
ENDBRANCH   4   5
ENDBRANCH   3   4
ENDBRANCH   2   3
ENDBRANCH   1   2
BRANCH   1   8
ATOM      8  C   UNL     1     190.541   4.518  98.237  1.00  0.00     0.000 C 
BRANCH   8   9
ATOM      9  C   UNL     1     191.946   3.972  98.554  1.00  0.00     0.006 C 
BRANCH   9  10
ATOM     10  C   UNL     1     192.022   2.440  98.662  1.00  0.00     0.053 C 
BRANCH  10  11
ATOM     11  C   UNL     1     192.378   1.990 100.045  1.00  0.00     0.041 C 
ATOM     12  O   UNL     1     193.231   2.625 100.718  1.00  0.00    -0.550 OA
ATOM     13  O   UNL     1     191.791   0.849 100.578  1.00  0.00    -0.550 OA
ENDBRANCH  10  11
ENDBRANCH   9  10
ENDBRANCH   8   9
ENDBRANCH   1   8
TORSDOF 8
ENDMDL
MODEL 5
REMARK VINA RESULT:    -4.113      2.330      6.246
REMARK INTER + INTRA:          -6.520
REMARK INTER:                  -6.045
REMARK INTRA:                  -0.475
REMARK UNBOUND:                -0.483
REMARK SMILES O=C([O-])CCCCCCCC(=O)[O-]
REMARK SMILES IDX 7 1 6 2 5 3 4 4 2 5 1 6 3 7 8 8 9 9 10 10 11 11 12 12 13 13
REMARK H PARENT
REMARK Flexibility Score: inf
ROOT
ATOM      1  C   UNL     1     192.430   4.371  98.626  1.00  0.00     0.000 C 
ENDROOT
BRANCH   1   2
ATOM      2  C   UNL     1     191.305   3.819  97.737  1.00  0.00     0.000 C 
BRANCH   2   3
ATOM      3  C   UNL     1     190.028   4.673  97.795  1.00  0.00     0.006 C 
BRANCH   3   4
ATOM      4  C   UNL     1     188.830   3.835  98.254  1.00  0.00     0.053 C 
BRANCH   4   5
ATOM      5  C   UNL     1     188.036   3.368  97.075  1.00  0.00     0.041 C 
ATOM      6  O   UNL     1     187.026   2.634  97.242  1.00  0.00    -0.550 OA
ATOM      7  O   UNL     1     188.380   3.784  95.795  1.00  0.00    -0.550 OA
ENDBRANCH   4   5
ENDBRANCH   3   4
ENDBRANCH   2   3
ENDBRANCH   1   2
BRANCH   1   8
ATOM      8  C   UNL     1     192.827   3.398  99.750  1.00  0.00     0.000 C 
BRANCH   8   9
ATOM      9  C   UNL     1     192.350   1.957  99.484  1.00  0.00     0.006 C 
BRANCH   9  10
ATOM     10  C   UNL     1     191.921   1.189 100.745  1.00  0.00     0.053 C 
BRANCH  10  11
ATOM     11  C   UNL     1     193.042   1.049 101.728  1.00  0.00     0.041 C 
ATOM     12  O   UNL     1     193.952   0.202 101.534  1.00  0.00    -0.550 OA
ATOM     13  O   UNL     1     193.062   1.832 102.875  1.00  0.00    -0.550 OA
ENDBRANCH  10  11
ENDBRANCH   9  10
ENDBRANCH   8   9
ENDBRANCH   1   8
TORSDOF 8
ENDMDL
MODEL 6
REMARK VINA RESULT:    -4.108      1.226      6.738
REMARK INTER + INTRA:          -6.512
REMARK INTER:                  -6.120
REMARK INTRA:                  -0.392
REMARK UNBOUND:                -0.483
REMARK SMILES O=C([O-])CCCCCCCC(=O)[O-]
REMARK SMILES IDX 7 1 6 2 5 3 4 4 2 5 1 6 3 7 8 8 9 9 10 10 11 11 12 12 13 13
REMARK H PARENT
REMARK Flexibility Score: inf
ROOT
ATOM      1  C   UNL     1     192.343   1.976  99.663  1.00  0.00     0.000 C 
ENDROOT
BRANCH   1   2
ATOM      2  C   UNL     1     192.808   3.437  99.554  1.00  0.00     0.000 C 
BRANCH   2   3
ATOM      3  C   UNL     1     192.019   4.235  98.504  1.00  0.00     0.006 C 
BRANCH   3   4
ATOM      4  C   UNL     1     190.635   3.619  98.275  1.00  0.00     0.053 C 
BRANCH   4   5
ATOM      5  C   UNL     1     190.410   3.362  96.818  1.00  0.00     0.041 C 
ATOM      6  O   UNL     1     191.383   3.097  96.063  1.00  0.00    -0.550 OA
ATOM      7  O   UNL     1     189.119   3.367  96.302  1.00  0.00    -0.550 OA
ENDBRANCH   4   5
ENDBRANCH   3   4
ENDBRANCH   2   3
ENDBRANCH   1   2
BRANCH   1   8
ATOM      8  C   UNL     1     192.824   1.299 100.958  1.00  0.00     0.000 C 
BRANCH   8   9
ATOM      9  C   UNL     1     193.462   2.293 101.947  1.00  0.00     0.006 C 
BRANCH   9  10
ATOM     10  C   UNL     1     193.583   1.766 103.387  1.00  0.00     0.053 C 
BRANCH  10  11
ATOM     11  C   UNL     1     192.251   1.405 103.968  1.00  0.00     0.041 C 
ATOM     12  O   UNL     1     191.879   0.204 104.000  1.00  0.00    -0.550 OA
ATOM     13  O   UNL     1     191.408   2.401 104.446  1.00  0.00    -0.550 OA
ENDBRANCH  10  11
ENDBRANCH   9  10
ENDBRANCH   8   9
ENDBRANCH   1   8
TORSDOF 8
ENDMDL
MODEL 7
REMARK VINA RESULT:    -4.097      1.902      2.223
REMARK INTER + INTRA:          -6.497
REMARK INTER:                  -6.121
REMARK INTRA:                  -0.376
REMARK UNBOUND:                -0.483
REMARK SMILES O=C([O-])CCCCCCCC(=O)[O-]
REMARK SMILES IDX 7 1 6 2 5 3 4 4 2 5 1 6 3 7 8 8 9 9 10 10 11 11 12 12 13 13
REMARK H PARENT
REMARK Flexibility Score: inf
ROOT
ATOM      1  C   UNL     1     192.798   3.357  99.720  1.00  0.00     0.000 C 
ENDROOT
BRANCH   1   2
ATOM      2  C   UNL     1     192.393   1.879  99.600  1.00  0.00     0.000 C 
BRANCH   2   3
ATOM      3  C   UNL     1     192.823   1.044 100.816  1.00  0.00     0.006 C 
BRANCH   3   4
ATOM      4  C   UNL     1     191.672   0.901 101.816  1.00  0.00     0.053 C 
BRANCH   4   5
ATOM      5  C   UNL     1     192.135   1.232 103.199  1.00  0.00     0.041 C 
ATOM      6  O   UNL     1     192.721   2.322 103.428  1.00  0.00    -0.550 OA
ATOM      7  O   UNL     1     191.874   0.357 104.248  1.00  0.00    -0.550 OA
ENDBRANCH   4   5
ENDBRANCH   3   4
ENDBRANCH   2   3
ENDBRANCH   1   2
BRANCH   1   8
ATOM      8  C   UNL     1     192.150   4.237  98.637  1.00  0.00     0.000 C 
BRANCH   8   9
ATOM      9  C   UNL     1     191.142   3.462  97.766  1.00  0.00     0.006 C 
BRANCH   9  10
ATOM     10  C   UNL     1     189.669   3.808  98.041  1.00  0.00     0.053 C 
BRANCH  10  11
ATOM     11  C   UNL     1     188.779   3.431  96.897  1.00  0.00     0.041 C 
ATOM     12  O   UNL     1     189.173   3.584  95.711  1.00  0.00    -0.550 OA
ATOM     13  O   UNL     1     187.502   2.941  97.141  1.00  0.00    -0.550 OA
ENDBRANCH  10  11
ENDBRANCH   9  10
ENDBRANCH   8   9
ENDBRANCH   1   8
TORSDOF 8
ENDMDL
MODEL 8
REMARK VINA RESULT:    -4.029      1.897      2.494
REMARK INTER + INTRA:          -6.396
REMARK INTER:                  -6.148
REMARK INTRA:                  -0.248
REMARK UNBOUND:                -0.483
REMARK SMILES O=C([O-])CCCCCCCC(=O)[O-]
REMARK SMILES IDX 7 1 6 2 5 3 4 4 2 5 1 6 3 7 8 8 9 9 10 10 11 11 12 12 13 13
REMARK H PARENT
REMARK Flexibility Score: inf
ROOT
ATOM      1  C   UNL     1     192.289   1.379 100.489  1.00  0.00     0.000 C 
ENDROOT
BRANCH   1   2
ATOM      2  C   UNL     1     193.334   1.133 101.588  1.00  0.00     0.000 C 
BRANCH   2   3
ATOM      3  C   UNL     1     193.618   2.387 102.430  1.00  0.00     0.006 C 
BRANCH   3   4
ATOM      4  C   UNL     1     192.747   2.408 103.690  1.00  0.00     0.053 C 
BRANCH   4   5
ATOM      5  C   UNL     1     193.584   2.183 104.910  1.00  0.00     0.041 C 
ATOM      6  O   UNL     1     193.186   1.406 105.818  1.00  0.00    -0.550 OA
ATOM      7  O   UNL     1     194.829   2.792 105.022  1.00  0.00    -0.550 OA
ENDBRANCH   4   5
ENDBRANCH   3   4
ENDBRANCH   2   3
ENDBRANCH   1   2
BRANCH   1   8
ATOM      8  C   UNL     1     192.640   2.586  99.601  1.00  0.00     0.000 C 
BRANCH   8   9
ATOM      9  C   UNL     1     191.619   2.807  98.468  1.00  0.00     0.006 C 
BRANCH   9  10
ATOM     10  C   UNL     1     191.195   4.272  98.273  1.00  0.00     0.053 C 
BRANCH  10  11
ATOM     11  C   UNL     1     189.843   4.388  97.639  1.00  0.00     0.041 C 
ATOM     12  O   UNL     1     189.721   4.908  96.499  1.00  0.00    -0.550 OA
ATOM     13  O   UNL     1     188.715   3.950  98.321  1.00  0.00    -0.550 OA
ENDBRANCH  10  11
ENDBRANCH   9  10
ENDBRANCH   8   9
ENDBRANCH   1   8
TORSDOF 8
ENDMDL
MODEL 9
REMARK VINA RESULT:    -3.891      4.910      6.440
REMARK INTER + INTRA:          -6.194
REMARK INTER:                  -5.518
REMARK INTRA:                  -0.676
REMARK UNBOUND:                -0.483
REMARK SMILES O=C([O-])CCCCCCCC(=O)[O-]
REMARK SMILES IDX 7 1 6 2 5 3 4 4 2 5 1 6 3 7 8 8 9 9 10 10 11 11 12 12 13 13
REMARK H PARENT
REMARK Flexibility Score: inf
ROOT
ATOM      1  C   UNL     1     190.156   4.686  97.879  1.00  0.00     0.000 C 
ENDROOT
BRANCH   1   2
ATOM      2  C   UNL     1     191.449   3.855  97.864  1.00  0.00     0.000 C 
BRANCH   2   3
ATOM      3  C   UNL     1     191.624   3.050  96.566  1.00  0.00     0.006 C 
BRANCH   3   4
ATOM      4  C   UNL     1     191.725   3.983  95.355  1.00  0.00     0.053 C 
BRANCH   4   5
ATOM      5  C   UNL     1     191.060   3.368  94.164  1.00  0.00     0.041 C 
ATOM      6  O   UNL     1     190.207   4.021  93.507  1.00  0.00    -0.550 OA
ATOM      7  O   UNL     1     191.419   2.091  93.748  1.00  0.00    -0.550 OA
ENDBRANCH   4   5
ENDBRANCH   3   4
ENDBRANCH   2   3
ENDBRANCH   1   2
BRANCH   1   8
ATOM      8  C   UNL     1     188.900   3.818  98.070  1.00  0.00     0.000 C 
BRANCH   8   9
ATOM      9  C   UNL     1     188.020   3.760  96.806  1.00  0.00     0.006 C 
BRANCH   9  10
ATOM     10  C   UNL     1     187.954   5.078  96.017  1.00  0.00     0.053 C 
BRANCH  10  11
ATOM     11  C   UNL     1     186.907   5.041  94.946  1.00  0.00     0.041 C 
ATOM     12  O   UNL     1     186.354   3.953  94.638  1.00  0.00    -0.550 OA
ATOM     13  O   UNL     1     186.567   6.204  94.266  1.00  0.00    -0.550 OA
ENDBRANCH  10  11
ENDBRANCH   9  10
ENDBRANCH   8   9
ENDBRANCH   1   8
TORSDOF 8
ENDMDL
