MODEL 1
REMARK VINA RESULT:     3.652      0.000      0.000
REMARK INTER + INTRA:           4.781
REMARK INTER:                   4.292
REMARK INTRA:                   0.488
REMARK UNBOUND:                 0.488
REMARK SMILES O=c1c(O)c(-c2ccc(O)cc2)oc2cc(O)cc(O)c12
REMARK SMILES IDX 5 1 3 2 2 3 1 4 21 5 19 6 18 7 16 8 15 9 14 10 13 11 6 12
REMARK SMILES IDX 7 13 8 14 9 15 12 16 11 17 10 18 4 20 20 22 17 24
REMARK H PARENT 10 19 4 21 20 23 17 25
REMARK Flexibility Score: inf
ROOT
ATOM      1  C   UNL     1      -1.573  31.689   8.822  1.00  0.00     0.180 A 
ATOM      2  C   UNL     1      -0.290  31.844   8.271  1.00  0.00     0.208 A 
ATOM      3  C   UNL     1      -0.124  31.714   6.882  1.00  0.00     0.238 A 
ATOM      4  O   UNL     1       1.012  31.927   6.387  1.00  0.00    -0.285 OA
ATOM      5  C   UNL     1      -1.233  31.376   6.069  1.00  0.00     0.111 A 
ATOM      6  C   UNL     1      -1.174  31.173   4.657  1.00  0.00     0.134 A 
ATOM      7  C   UNL     1      -2.356  30.945   3.941  1.00  0.00     0.093 A 
ATOM      8  C   UNL     1      -3.587  30.850   4.595  1.00  0.00     0.123 A 
ATOM      9  C   UNL     1      -3.647  30.990   5.978  1.00  0.00     0.094 A 
ATOM     10  C   UNL     1      -2.492  31.256   6.716  1.00  0.00     0.146 A 
ATOM     11  O   UNL     1      -2.600  31.405   8.031  1.00  0.00    -0.452 OA
ENDROOT
BRANCH   1  12
ATOM     12  C   UNL     1      -1.829  31.827  10.275  1.00  0.00     0.021 A 
ATOM     13  C   UNL     1      -0.757  31.724  11.177  1.00  0.00     0.016 A 
ATOM     14  C   UNL     1      -0.978  31.829  12.554  1.00  0.00     0.047 A 
ATOM     15  C   UNL     1      -2.273  32.022  13.046  1.00  0.00     0.115 A 
ATOM     16  C   UNL     1      -3.131  32.002  10.777  1.00  0.00     0.016 A 
ATOM     17  C   UNL     1      -3.350  32.106  12.154  1.00  0.00     0.047 A 
BRANCH  15  18
ATOM     18  O   UNL     1      -2.478  32.125  14.419  1.00  0.00    -0.508 OA
ATOM     19  H   UNL     1      -1.795  31.782  15.084  1.00  0.00     0.293 HD
ENDBRANCH  15  18
ENDBRANCH   1  12
BRANCH   2  20
ATOM     20  O   UNL     1       0.807  32.102   9.099  1.00  0.00    -0.502 OA
ATOM     21  H   UNL     1       1.755  31.867   8.835  1.00  0.00     0.293 HD
ENDBRANCH   2  20
BRANCH   6  22
ATOM     22  O   UNL     1       0.012  31.160   3.917  1.00  0.00    -0.507 OA
ATOM     23  H   UNL     1       0.284  31.862   3.246  1.00  0.00     0.293 HD
ENDBRANCH   6  22
BRANCH   8  24
ATOM     24  O   UNL     1      -4.755  30.605   3.876  1.00  0.00    -0.508 OA
ATOM     25  H   UNL     1      -5.103  31.264   3.189  1.00  0.00     0.293 HD
ENDBRANCH   8  24
TORSDOF 5
ENDMDL
MODEL 2
REMARK VINA RESULT:     4.704     23.810     26.169
REMARK INTER + INTRA:           6.017
REMARK INTER:                   5.709
REMARK INTRA:                   0.308
REMARK UNBOUND:                 0.488
REMARK SMILES O=c1c(O)c(-c2ccc(O)cc2)oc2cc(O)cc(O)c12
REMARK SMILES IDX 5 1 3 2 2 3 1 4 21 5 19 6 18 7 16 8 15 9 14 10 13 11 6 12
REMARK SMILES IDX 7 13 8 14 9 15 12 16 11 17 10 18 4 20 20 22 17 24
REMARK H PARENT 10 19 4 21 20 23 17 25
REMARK Flexibility Score: inf
ROOT
ATOM      1  C   UNL     1      11.343  14.034  20.026  1.00  0.00     0.180 A 
ATOM      2  C   UNL     1      11.781  15.367  19.952  1.00  0.00     0.208 A 
ATOM      3  C   UNL     1      12.851  15.779  20.763  1.00  0.00     0.238 A 
ATOM      4  O   UNL     1      13.287  16.952  20.638  1.00  0.00    -0.285 OA
ATOM      5  C   UNL     1      13.433  14.868  21.678  1.00  0.00     0.111 A 
ATOM      6  C   UNL     1      14.492  15.188  22.581  1.00  0.00     0.134 A 
ATOM      7  C   UNL     1      15.060  14.176  23.366  1.00  0.00     0.093 A 
ATOM      8  C   UNL     1      14.565  12.871  23.327  1.00  0.00     0.123 A 
ATOM      9  C   UNL     1      13.496  12.561  22.491  1.00  0.00     0.094 A 
ATOM     10  C   UNL     1      12.933  13.538  21.668  1.00  0.00     0.146 A 
ATOM     11  O   UNL     1      11.930  13.194  20.870  1.00  0.00    -0.452 OA
ENDROOT
BRANCH   1  12
ATOM     12  C   UNL     1      10.231  13.522  19.191  1.00  0.00     0.021 A 
ATOM     13  C   UNL     1       9.493  12.410  19.632  1.00  0.00     0.016 A 
ATOM     14  C   UNL     1       8.454  11.896  18.850  1.00  0.00     0.047 A 
ATOM     15  C   UNL     1       8.150  12.475  17.614  1.00  0.00     0.115 A 
ATOM     16  C   UNL     1       9.933  14.088  17.938  1.00  0.00     0.016 A 
ATOM     17  C   UNL     1       8.894  13.571  17.159  1.00  0.00     0.047 A 
BRANCH  15  18
ATOM     18  O   UNL     1       7.112  11.953  16.847  1.00  0.00    -0.508 OA
ATOM     19  H   UNL     1       6.188  11.807  17.236  1.00  0.00     0.293 HD
ENDBRANCH  15  18
ENDBRANCH   1  12
BRANCH   2  20
ATOM     20  O   UNL     1      11.144  16.272  19.098  1.00  0.00    -0.502 OA
ATOM     21  H   UNL     1      10.499  16.976  19.435  1.00  0.00     0.293 HD
ENDBRANCH   2  20
BRANCH   6  22
ATOM     22  O   UNL     1      15.003  16.476  22.763  1.00  0.00    -0.507 OA
ATOM     23  H   UNL     1      15.146  16.921  23.657  1.00  0.00     0.293 HD
ENDBRANCH   6  22
BRANCH   8  24
ATOM     24  O   UNL     1      15.125  11.875  24.125  1.00  0.00    -0.508 OA
ATOM     25  H   UNL     1      14.954  10.893  23.945  1.00  0.00     0.293 HD
ENDBRANCH   8  24
TORSDOF 5
ENDMDL
