MODEL 1
REMARK VINA RESULT:    -3.159      0.000      0.000
REMARK INTER + INTRA:          -4.029
REMARK INTER:                  -3.806
REMARK INTRA:                  -0.224
REMARK UNBOUND:                -0.224
REMARK SMILES OCC(O)CO
REMARK SMILES IDX 3 1 5 2 6 3 2 5 1 6 4 8
REMARK H PARENT 6 4 1 7 4 9
REMARK Flexibility Score: inf
ROOT
ATOM      1  C   UNL     1      28.223  19.045 143.226  1.00  0.00     0.165 C 
ENDROOT
BRANCH   1   2
ATOM      2  C   UNL     1      29.658  19.583 143.308  1.00  0.00     0.190 C 
BRANCH   2   3
ATOM      3  O   UNL     1      30.054  19.779 144.640  1.00  0.00    -0.394 OA
ATOM      4  H   UNL     1      29.234  19.709 145.195  1.00  0.00     0.210 HD
ENDBRANCH   2   3
ENDBRANCH   1   2
BRANCH   1   5
ATOM      5  C   UNL     1      28.200  17.509 143.291  1.00  0.00     0.190 C 
BRANCH   5   6
ATOM      6  O   UNL     1      29.411  17.021 143.802  1.00  0.00    -0.394 OA
ATOM      7  H   UNL     1      29.196  16.206 144.325  1.00  0.00     0.210 HD
ENDBRANCH   5   6
ENDBRANCH   1   5
BRANCH   1   8
ATOM      8  O   UNL     1      27.464  19.587 144.276  1.00  0.00    -0.388 OA
ATOM      9  H   UNL     1      27.795  19.178 145.117  1.00  0.00     0.211 HD
ENDBRANCH   1   8
TORSDOF 5
ENDMDL
MODEL 2
REMARK VINA RESULT:    -3.048      6.771      7.538
REMARK INTER + INTRA:          -3.895
REMARK INTER:                  -3.672
REMARK INTRA:                  -0.223
REMARK UNBOUND:                -0.224
REMARK SMILES OCC(O)CO
REMARK SMILES IDX 3 1 5 2 6 3 2 5 1 6 4 8
REMARK H PARENT 6 4 1 7 4 9
REMARK Flexibility Score: inf
ROOT
ATOM      1  C   UNL     1      24.230  19.091 139.307  1.00  0.00     0.165 C 
ENDROOT
BRANCH   1   2
ATOM      2  C   UNL     1      22.809  19.667 139.265  1.00  0.00     0.190 C 
BRANCH   2   3
ATOM      3  O   UNL     1      22.379  19.865 137.944  1.00  0.00    -0.394 OA
ATOM      4  H   UNL     1      23.195  19.982 137.391  1.00  0.00     0.210 HD
ENDBRANCH   2   3
ENDBRANCH   1   2
BRANCH   1   5
ATOM      5  C   UNL     1      24.217  17.562 139.138  1.00  0.00     0.190 C 
BRANCH   5   6
ATOM      6  O   UNL     1      22.952  17.128 138.715  1.00  0.00    -0.394 OA
ATOM      7  H   UNL     1      22.306  17.391 139.422  1.00  0.00     0.210 HD
ENDBRANCH   5   6
ENDBRANCH   1   5
BRANCH   1   8
ATOM      8  O   UNL     1      25.003  19.684 138.294  1.00  0.00    -0.388 OA
ATOM      9  H   UNL     1      24.381  20.199 137.717  1.00  0.00     0.211 HD
ENDBRANCH   1   8
TORSDOF 5
ENDMDL
MODEL 3
REMARK VINA RESULT:    -3.048      1.210      2.969
REMARK INTER + INTRA:          -3.895
REMARK INTER:                  -3.678
REMARK INTRA:                  -0.217
REMARK UNBOUND:                -0.224
REMARK SMILES OCC(O)CO
REMARK SMILES IDX 3 1 5 2 6 3 2 5 1 6 4 8
REMARK H PARENT 6 4 1 7 4 9
REMARK Flexibility Score: inf
ROOT
ATOM      1  C   UNL     1      29.596  18.698 142.324  1.00  0.00     0.165 C 
ENDROOT
BRANCH   1   2
ATOM      2  C   UNL     1      28.720  17.764 143.169  1.00  0.00     0.190 C 
BRANCH   2   3
ATOM      3  O   UNL     1      29.497  16.812 143.847  1.00  0.00    -0.394 OA
ATOM      4  H   UNL     1      29.456  15.976 143.313  1.00  0.00     0.210 HD
ENDBRANCH   2   3
ENDBRANCH   1   2
BRANCH   1   5
ATOM      5  C   UNL     1      29.956  19.976 143.099  1.00  0.00     0.190 C 
BRANCH   5   6
ATOM      6  O   UNL     1      29.905  19.743 144.480  1.00  0.00    -0.394 OA
ATOM      7  H   UNL     1      29.065  20.157 144.811  1.00  0.00     0.210 HD
ENDBRANCH   5   6
ENDBRANCH   1   5
BRANCH   1   8
ATOM      8  O   UNL     1      30.763  18.018 141.939  1.00  0.00    -0.388 OA
ATOM      9  H   UNL     1      31.273  17.822 142.768  1.00  0.00     0.211 HD
ENDBRANCH   1   8
TORSDOF 5
ENDMDL
MODEL 4
REMARK VINA RESULT:    -2.972      1.310      1.883
REMARK INTER + INTRA:          -3.804
REMARK INTER:                  -3.607
REMARK INTRA:                  -0.196
REMARK UNBOUND:                -0.224
REMARK SMILES OCC(O)CO
REMARK SMILES IDX 3 1 5 2 6 3 2 5 1 6 4 8
REMARK H PARENT 6 4 1 7 4 9
REMARK Flexibility Score: inf
ROOT
ATOM      1  C   UNL     1      29.401  19.491 143.296  1.00  0.00     0.165 C 
ENDROOT
BRANCH   1   2
ATOM      2  C   UNL     1      30.514  19.560 142.242  1.00  0.00     0.190 C 
BRANCH   2   3
ATOM      3  O   UNL     1      30.909  18.277 141.833  1.00  0.00    -0.394 OA
ATOM      4  H   UNL     1      31.084  17.755 142.658  1.00  0.00     0.210 HD
ENDBRANCH   2   3
ENDBRANCH   1   2
BRANCH   1   5
ATOM      5  C   UNL     1      28.669  18.140 143.244  1.00  0.00     0.190 C 
BRANCH   5   6
ATOM      6  O   UNL     1      29.439  17.142 143.858  1.00  0.00    -0.394 OA
ATOM      7  H   UNL     1      30.387  17.428 143.793  1.00  0.00     0.210 HD
ENDBRANCH   5   6
ENDBRANCH   1   5
BRANCH   1   8
ATOM      8  O   UNL     1      29.955  19.695 144.571  1.00  0.00    -0.388 OA
ATOM      9  H   UNL     1      29.267  20.158 145.116  1.00  0.00     0.211 HD
ENDBRANCH   1   8
TORSDOF 5
ENDMDL
MODEL 5
REMARK VINA RESULT:    -2.953      6.784      7.559
REMARK INTER + INTRA:          -3.781
REMARK INTER:                  -3.571
REMARK INTRA:                  -0.210
REMARK UNBOUND:                -0.224
REMARK SMILES OCC(O)CO
REMARK SMILES IDX 3 1 5 2 6 3 2 5 1 6 4 8
REMARK H PARENT 6 4 1 7 4 9
REMARK Flexibility Score: inf
ROOT
ATOM      1  C   UNL     1      23.401  18.375 139.513  1.00  0.00     0.165 C 
ENDROOT
BRANCH   1   2
ATOM      2  C   UNL     1      24.897  18.563 139.231  1.00  0.00     0.190 C 
BRANCH   2   3
ATOM      3  O   UNL     1      25.121  19.657 138.381  1.00  0.00    -0.394 OA
ATOM      4  H   UNL     1      24.422  19.621 137.677  1.00  0.00     0.210 HD
ENDBRANCH   2   3
ENDBRANCH   1   2
BRANCH   1   5
ATOM      5  C   UNL     1      22.620  19.677 139.271  1.00  0.00     0.190 C 
BRANCH   5   6
ATOM      6  O   UNL     1      22.363  19.848 137.903  1.00  0.00    -0.394 OA
ATOM      7  H   UNL     1      21.540  19.332 137.698  1.00  0.00     0.210 HD
ENDBRANCH   5   6
ENDBRANCH   1   5
BRANCH   1   8
ATOM      8  O   UNL     1      22.899  17.349 138.694  1.00  0.00    -0.388 OA
ATOM      9  H   UNL     1      23.511  16.574 138.790  1.00  0.00     0.211 HD
ENDBRANCH   1   8
TORSDOF 5
ENDMDL
MODEL 6
REMARK VINA RESULT:    -2.892      7.633      7.806
REMARK INTER + INTRA:          -3.707
REMARK INTER:                  -3.692
REMARK INTRA:                  -0.015
REMARK UNBOUND:                -0.224
REMARK SMILES OCC(O)CO
REMARK SMILES IDX 3 1 5 2 6 3 2 5 1 6 4 8
REMARK H PARENT 6 4 1 7 4 9
REMARK Flexibility Score: inf
ROOT
ATOM      1  C   UNL     1      23.225  18.118 139.678  1.00  0.00     0.165 C 
ENDROOT
BRANCH   1   2
ATOM      2  C   UNL     1      23.594  19.413 138.943  1.00  0.00     0.190 C 
BRANCH   2   3
ATOM      3  O   UNL     1      22.450  20.161 138.624  1.00  0.00    -0.394 OA
ATOM      4  H   UNL     1      22.158  19.868 137.722  1.00  0.00     0.210 HD
ENDBRANCH   2   3
ENDBRANCH   1   2
BRANCH   1   5
ATOM      5  C   UNL     1      22.069  18.348 140.665  1.00  0.00     0.190 C 
BRANCH   5   6
ATOM      6  O   UNL     1      21.324  17.171 140.830  1.00  0.00    -0.394 OA
ATOM      7  H   UNL     1      21.916  16.417 140.571  1.00  0.00     0.210 HD
ENDBRANCH   5   6
ENDBRANCH   1   5
BRANCH   1   8
ATOM      8  O   UNL     1      22.874  17.134 138.739  1.00  0.00    -0.388 OA
ATOM      9  H   UNL     1      23.395  16.319 138.962  1.00  0.00     0.211 HD
ENDBRANCH   1   8
TORSDOF 5
ENDMDL
MODEL 7
REMARK VINA RESULT:    -2.881      1.473      2.153
REMARK INTER + INTRA:          -3.694
REMARK INTER:                  -3.682
REMARK INTRA:                  -0.012
REMARK UNBOUND:                -0.224
REMARK SMILES OCC(O)CO
REMARK SMILES IDX 3 1 5 2 6 3 2 5 1 6 4 8
REMARK H PARENT 6 4 1 7 4 9
REMARK Flexibility Score: inf
ROOT
ATOM      1  C   UNL     1      29.116  18.017 142.893  1.00  0.00     0.165 C 
ENDROOT
BRANCH   1   2
ATOM      2  C   UNL     1      28.790  19.288 143.688  1.00  0.00     0.190 C 
BRANCH   2   3
ATOM      3  O   UNL     1      29.884  19.694 144.469  1.00  0.00    -0.394 OA
ATOM      4  H   UNL     1      29.760  19.290 145.366  1.00  0.00     0.210 HD
ENDBRANCH   2   3
ENDBRANCH   1   2
BRANCH   1   5
ATOM      5  C   UNL     1      30.238  18.270 141.872  1.00  0.00     0.190 C 
BRANCH   5   6
ATOM      6  O   UNL     1      31.018  17.117 141.707  1.00  0.00    -0.394 OA
ATOM      7  H   UNL     1      31.967  17.396 141.794  1.00  0.00     0.210 HD
ENDBRANCH   5   6
ENDBRANCH   1   5
BRANCH   1   8
ATOM      8  O   UNL     1      29.490  16.996 143.783  1.00  0.00    -0.388 OA
ATOM      9  H   UNL     1      30.481  16.961 143.787  1.00  0.00     0.211 HD
ENDBRANCH   1   8
TORSDOF 5
ENDMDL
MODEL 8
REMARK VINA RESULT:    -2.852      7.598      8.035
REMARK INTER + INTRA:          -3.659
REMARK INTER:                  -3.466
REMARK INTRA:                  -0.192
REMARK UNBOUND:                -0.224
REMARK SMILES OCC(O)CO
REMARK SMILES IDX 3 1 5 2 6 3 2 5 1 6 4 8
REMARK H PARENT 6 4 1 7 4 9
REMARK Flexibility Score: inf
ROOT
ATOM      1  C   UNL     1      22.343  18.524 140.641  1.00  0.00     0.165 C 
ENDROOT
BRANCH   1   2
ATOM      2  C   UNL     1      23.385  17.993 139.648  1.00  0.00     0.190 C 
BRANCH   2   3
ATOM      3  O   UNL     1      22.799  17.134 138.705  1.00  0.00    -0.394 OA
ATOM      4  H   UNL     1      22.918  17.560 137.817  1.00  0.00     0.210 HD
ENDBRANCH   2   3
ENDBRANCH   1   2
BRANCH   1   5
ATOM      5  C   UNL     1      21.760  19.867 140.171  1.00  0.00     0.190 C 
BRANCH   5   6
ATOM      6  O   UNL     1      22.279  20.214 138.915  1.00  0.00    -0.394 OA
ATOM      7  H   UNL     1      23.211  19.873 138.885  1.00  0.00     0.210 HD
ENDBRANCH   5   6
ENDBRANCH   1   5
BRANCH   1   8
ATOM      8  O   UNL     1      21.317  17.575 140.790  1.00  0.00    -0.388 OA
ATOM      9  H   UNL     1      21.651  16.723 140.408  1.00  0.00     0.211 HD
ENDBRANCH   1   8
TORSDOF 5
ENDMDL
MODEL 9
REMARK VINA RESULT:    -2.792      9.979     10.836
REMARK INTER + INTRA:          -3.587
REMARK INTER:                  -3.383
REMARK INTRA:                  -0.204
REMARK UNBOUND:                -0.224
REMARK SMILES OCC(O)CO
REMARK SMILES IDX 3 1 5 2 6 3 2 5 1 6 4 8
REMARK H PARENT 6 4 1 7 4 9
REMARK Flexibility Score: inf
ROOT
ATOM      1  C   UNL     1      33.487  25.170 135.655  1.00  0.00     0.165 C 
ENDROOT
BRANCH   1   2
ATOM      2  C   UNL     1      33.479  23.969 134.700  1.00  0.00     0.190 C 
BRANCH   2   3
ATOM      3  O   UNL     1      33.833  22.786 135.367  1.00  0.00    -0.394 OA
ATOM      4  H   UNL     1      34.367  22.246 134.728  1.00  0.00     0.210 HD
ENDBRANCH   2   3
ENDBRANCH   1   2
BRANCH   1   5
ATOM      5  C   UNL     1      32.257  25.157 136.578  1.00  0.00     0.190 C 
BRANCH   5   6
ATOM      6  O   UNL     1      32.482  24.322 137.682  1.00  0.00    -0.394 OA
ATOM      7  H   UNL     1      33.415  24.484 137.980  1.00  0.00     0.210 HD
ENDBRANCH   5   6
ENDBRANCH   1   5
BRANCH   1   8
ATOM      8  O   UNL     1      34.667  25.149 136.418  1.00  0.00    -0.388 OA
ATOM      9  H   UNL     1      35.107  24.276 136.249  1.00  0.00     0.211 HD
ENDBRANCH   1   8
TORSDOF 5
ENDMDL
