MODEL 1
REMARK VINA RESULT:    -5.223      0.000      0.000
REMARK INTER + INTRA:          -5.915
REMARK INTER:                  -5.681
REMARK INTRA:                  -0.233
REMARK UNBOUND:                -0.233
REMARK SMILES O=C([O-])c1ccccc1O
REMARK SMILES IDX 4 1 9 2 5 3 8 4 6 5 7 6 2 7 1 8 3 9 10 10
REMARK H PARENT 10 11
REMARK Flexibility Score: inf
ROOT
ATOM      1  C   UNL     1     -13.307 -64.980 -24.212  1.00  0.00     0.039 A 
ATOM      2  C   UNL     1     -13.978 -66.227 -24.132  1.00  0.00     0.124 A 
ATOM      3  C   UNL     1     -12.430 -64.612 -23.173  1.00  0.00     0.014 A 
ATOM      4  C   UNL     1     -13.711 -67.091 -23.063  1.00  0.00     0.047 A 
ATOM      5  C   UNL     1     -12.192 -65.476 -22.103  1.00  0.00     0.001 A 
ATOM      6  C   UNL     1     -12.823 -66.718 -22.052  1.00  0.00     0.004 A 
ENDROOT
BRANCH   1   7
ATOM      7  C   UNL     1     -13.462 -64.066 -25.364  1.00  0.00     0.075 C 
ATOM      8  O   UNL     1     -14.550 -64.030 -26.001  1.00  0.00    -0.545 OA
ATOM      9  O   UNL     1     -12.444 -63.190 -25.720  1.00  0.00    -0.545 OA
ENDBRANCH   1   7
BRANCH   2  10
ATOM     10  O   UNL     1     -14.934 -66.625 -25.068  1.00  0.00    -0.507 OA
ATOM     11  H   UNL     1     -14.771 -67.344 -25.760  1.00  0.00     0.293 HD
ENDBRANCH   2  10
TORSDOF 2
ENDMDL
MODEL 2
REMARK VINA RESULT:    -5.046      9.237     10.142
REMARK INTER + INTRA:          -5.722
REMARK INTER:                  -5.471
REMARK INTRA:                  -0.250
REMARK UNBOUND:                -0.233
REMARK SMILES O=C([O-])c1ccccc1O
REMARK SMILES IDX 4 1 9 2 5 3 8 4 6 5 7 6 2 7 1 8 3 9 10 10
REMARK H PARENT 10 11
REMARK Flexibility Score: inf
ROOT
ATOM      1  C   UNL     1      -8.468 -65.562 -32.533  1.00  0.00     0.039 A 
ATOM      2  C   UNL     1      -9.520 -65.158 -33.394  1.00  0.00     0.124 A 
ATOM      3  C   UNL     1      -8.709 -66.591 -31.601  1.00  0.00     0.014 A 
ATOM      4  C   UNL     1     -10.750 -65.827 -33.347  1.00  0.00     0.047 A 
ATOM      5  C   UNL     1      -9.948 -67.232 -31.553  1.00  0.00     0.001 A 
ATOM      6  C   UNL     1     -10.964 -66.858 -32.431  1.00  0.00     0.004 A 
ENDROOT
BRANCH   1   7
ATOM      7  C   UNL     1      -7.115 -64.971 -32.602  1.00  0.00     0.075 C 
ATOM      8  O   UNL     1      -6.469 -64.743 -31.544  1.00  0.00    -0.545 OA
ATOM      9  O   UNL     1      -6.509 -64.719 -33.827  1.00  0.00    -0.545 OA
ENDBRANCH   1   7
BRANCH   2  10
ATOM     10  O   UNL     1      -9.397 -64.085 -34.278  1.00  0.00    -0.507 OA
ATOM     11  H   UNL     1     -10.186 -63.647 -34.735  1.00  0.00     0.293 HD
ENDBRANCH   2  10
TORSDOF 2
ENDMDL
MODEL 3
REMARK VINA RESULT:    -5.009      1.877      3.381
REMARK INTER + INTRA:          -5.682
REMARK INTER:                  -5.473
REMARK INTRA:                  -0.209
REMARK UNBOUND:                -0.233
REMARK SMILES O=C([O-])c1ccccc1O
REMARK SMILES IDX 4 1 9 2 5 3 8 4 6 5 7 6 2 7 1 8 3 9 10 10
REMARK H PARENT 10 11
REMARK Flexibility Score: inf
ROOT
ATOM      1  C   UNL     1     -13.213 -65.393 -23.741  1.00  0.00     0.039 A 
ATOM      2  C   UNL     1     -14.134 -65.671 -24.784  1.00  0.00     0.124 A 
ATOM      3  C   UNL     1     -12.513 -64.171 -23.760  1.00  0.00     0.014 A 
ATOM      4  C   UNL     1     -14.376 -64.707 -25.771  1.00  0.00     0.047 A 
ATOM      5  C   UNL     1     -12.750 -63.230 -24.763  1.00  0.00     0.001 A 
ATOM      6  C   UNL     1     -13.687 -63.493 -25.762  1.00  0.00     0.004 A 
ENDROOT
BRANCH   1   7
ATOM      7  C   UNL     1     -12.988 -66.322 -22.613  1.00  0.00     0.075 C 
ATOM      8  O   UNL     1     -13.770 -67.293 -22.426  1.00  0.00    -0.545 OA
ATOM      9  O   UNL     1     -11.881 -66.180 -21.785  1.00  0.00    -0.545 OA
ENDBRANCH   1   7
BRANCH   2  10
ATOM     10  O   UNL     1     -14.796 -66.895 -24.895  1.00  0.00    -0.507 OA
ATOM     11  H   UNL     1     -15.187 -67.240 -25.761  1.00  0.00     0.293 HD
ENDBRANCH   2  10
TORSDOF 2
ENDMDL
MODEL 4
REMARK VINA RESULT:    -5.002      8.691      9.542
REMARK INTER + INTRA:          -5.674
REMARK INTER:                  -5.425
REMARK INTRA:                  -0.249
REMARK UNBOUND:                -0.233
REMARK SMILES O=C([O-])c1ccccc1O
REMARK SMILES IDX 4 1 9 2 5 3 8 4 6 5 7 6 2 7 1 8 3 9 10 10
REMARK H PARENT 10 11
REMARK Flexibility Score: inf
ROOT
ATOM      1  C   UNL     1      -8.730 -66.345 -31.789  1.00  0.00     0.039 A 
ATOM      2  C   UNL     1      -9.891 -67.151 -31.670  1.00  0.00     0.124 A 
ATOM      3  C   UNL     1      -8.696 -65.343 -32.779  1.00  0.00     0.014 A 
ATOM      4  C   UNL     1     -10.998 -66.896 -32.489  1.00  0.00     0.047 A 
ATOM      5  C   UNL     1      -9.800 -65.117 -33.601  1.00  0.00     0.001 A 
ATOM      6  C   UNL     1     -10.954 -65.885 -33.451  1.00  0.00     0.004 A 
ENDROOT
BRANCH   1   7
ATOM      7  C   UNL     1      -7.566 -66.491 -30.889  1.00  0.00     0.075 C 
ATOM      8  O   UNL     1      -6.414 -66.170 -31.286  1.00  0.00    -0.545 OA
ATOM      9  O   UNL     1      -7.731 -66.917 -29.576  1.00  0.00    -0.545 OA
ENDBRANCH   1   7
BRANCH   2  10
ATOM     10  O   UNL     1      -9.971 -68.226 -30.784  1.00  0.00    -0.507 OA
ATOM     11  H   UNL     1     -10.489 -69.072 -30.980  1.00  0.00     0.293 HD
ENDBRANCH   2  10
TORSDOF 2
ENDMDL
MODEL 5
REMARK VINA RESULT:    -4.952      1.540      1.884
REMARK INTER + INTRA:          -5.619
REMARK INTER:                  -5.393
REMARK INTRA:                  -0.226
REMARK UNBOUND:                -0.233
REMARK SMILES O=C([O-])c1ccccc1O
REMARK SMILES IDX 4 1 9 2 5 3 8 4 6 5 7 6 2 7 1 8 3 9 10 10
REMARK H PARENT 10 11
REMARK Flexibility Score: inf
ROOT
ATOM      1  C   UNL     1     -13.280 -65.377 -24.410  1.00  0.00     0.039 A 
ATOM      2  C   UNL     1     -13.522 -65.655 -23.041  1.00  0.00     0.124 A 
ATOM      3  C   UNL     1     -11.978 -65.554 -24.921  1.00  0.00     0.014 A 
ATOM      4  C   UNL     1     -12.487 -66.156 -22.241  1.00  0.00     0.047 A 
ATOM      5  C   UNL     1     -10.953 -66.034 -24.104  1.00  0.00     0.001 A 
ATOM      6  C   UNL     1     -11.209 -66.345 -22.769  1.00  0.00     0.004 A 
ENDROOT
BRANCH   1   7
ATOM      7  C   UNL     1     -14.350 -64.945 -25.334  1.00  0.00     0.075 C 
ATOM      8  O   UNL     1     -15.388 -65.646 -25.473  1.00  0.00    -0.545 OA
ATOM      9  O   UNL     1     -14.261 -63.734 -26.010  1.00  0.00    -0.545 OA
ENDBRANCH   1   7
BRANCH   2  10
ATOM     10  O   UNL     1     -14.755 -65.415 -22.433  1.00  0.00    -0.507 OA
ATOM     11  H   UNL     1     -15.204 -66.070 -21.806  1.00  0.00     0.293 HD
ENDBRANCH   2  10
TORSDOF 2
ENDMDL
MODEL 6
REMARK VINA RESULT:    -4.936      8.707      9.511
REMARK INTER + INTRA:          -5.602
REMARK INTER:                  -5.455
REMARK INTRA:                  -0.147
REMARK UNBOUND:                -0.233
REMARK SMILES O=C([O-])c1ccccc1O
REMARK SMILES IDX 4 1 9 2 5 3 8 4 6 5 7 6 2 7 1 8 3 9 10 10
REMARK H PARENT 10 11
REMARK Flexibility Score: inf
ROOT
ATOM      1  C   UNL     1     -10.278 -66.237 -32.732  1.00  0.00     0.039 A 
ATOM      2  C   UNL     1      -9.638 -66.967 -31.698  1.00  0.00     0.124 A 
ATOM      3  C   UNL     1      -9.575 -65.189 -33.360  1.00  0.00     0.014 A 
ATOM      4  C   UNL     1      -8.309 -66.678 -31.365  1.00  0.00     0.047 A 
ATOM      5  C   UNL     1      -8.257 -64.901 -33.001  1.00  0.00     0.001 A 
ATOM      6  C   UNL     1      -7.621 -65.650 -32.012  1.00  0.00     0.004 A 
ENDROOT
BRANCH   1   7
ATOM      7  C   UNL     1     -11.642 -66.557 -33.204  1.00  0.00     0.075 C 
ATOM      8  O   UNL     1     -12.643 -66.243 -32.507  1.00  0.00    -0.545 OA
ATOM      9  O   UNL     1     -11.845 -67.145 -34.447  1.00  0.00    -0.545 OA
ENDBRANCH   1   7
BRANCH   2  10
ATOM     10  O   UNL     1     -10.294 -67.953 -30.959  1.00  0.00    -0.507 OA
ATOM     11  H   UNL     1     -11.297 -67.982 -30.837  1.00  0.00     0.293 HD
ENDBRANCH   2  10
TORSDOF 2
ENDMDL
MODEL 7
REMARK VINA RESULT:    -4.840      8.486      9.560
REMARK INTER + INTRA:          -5.497
REMARK INTER:                  -5.317
REMARK INTRA:                  -0.180
REMARK UNBOUND:                -0.233
REMARK SMILES O=C([O-])c1ccccc1O
REMARK SMILES IDX 4 1 9 2 5 3 8 4 6 5 7 6 2 7 1 8 3 9 10 10
REMARK H PARENT 10 11
REMARK Flexibility Score: inf
ROOT
ATOM      1  C   UNL     1     -10.150 -66.364 -32.503  1.00  0.00     0.039 A 
ATOM      2  C   UNL     1      -9.224 -65.407 -32.991  1.00  0.00     0.124 A 
ATOM      3  C   UNL     1      -9.740 -67.251 -31.488  1.00  0.00     0.014 A 
ATOM      4  C   UNL     1      -7.950 -65.320 -32.417  1.00  0.00     0.047 A 
ATOM      5  C   UNL     1      -8.459 -67.165 -30.942  1.00  0.00     0.001 A 
ATOM      6  C   UNL     1      -7.568 -66.194 -31.398  1.00  0.00     0.004 A 
ENDROOT
BRANCH   1   7
ATOM      7  C   UNL     1     -11.544 -66.442 -32.992  1.00  0.00     0.075 C 
ATOM      8  O   UNL     1     -11.783 -66.852 -34.160  1.00  0.00    -0.545 OA
ATOM      9  O   UNL     1     -12.609 -66.131 -32.156  1.00  0.00    -0.545 OA
ENDBRANCH   1   7
BRANCH   2  10
ATOM     10  O   UNL     1      -9.516 -64.557 -34.059  1.00  0.00    -0.507 OA
ATOM     11  H   UNL     1      -9.038 -63.681 -34.220  1.00  0.00     0.293 HD
ENDBRANCH   2  10
TORSDOF 2
ENDMDL
MODEL 8
REMARK VINA RESULT:    -4.800      8.831      9.801
REMARK INTER + INTRA:          -5.454
REMARK INTER:                  -5.201
REMARK INTRA:                  -0.252
REMARK UNBOUND:                -0.233
REMARK SMILES O=C([O-])c1ccccc1O
REMARK SMILES IDX 4 1 9 2 5 3 8 4 6 5 7 6 2 7 1 8 3 9 10 10
REMARK H PARENT 10 11
REMARK Flexibility Score: inf
ROOT
ATOM      1  C   UNL     1      -8.469 -65.732 -32.404  1.00  0.00     0.039 A 
ATOM      2  C   UNL     1      -8.659 -66.786 -31.475  1.00  0.00     0.124 A 
ATOM      3  C   UNL     1      -9.555 -65.328 -33.207  1.00  0.00     0.014 A 
ATOM      4  C   UNL     1      -9.928 -67.360 -31.327  1.00  0.00     0.047 A 
ATOM      5  C   UNL     1     -10.808 -65.927 -33.062  1.00  0.00     0.001 A 
ATOM      6  C   UNL     1     -10.997 -66.934 -32.117  1.00  0.00     0.004 A 
ENDROOT
BRANCH   1   7
ATOM      7  C   UNL     1      -7.185 -65.012 -32.537  1.00  0.00     0.075 C 
ATOM      8  O   UNL     1      -6.786 -64.633 -33.671  1.00  0.00    -0.545 OA
ATOM      9  O   UNL     1      -6.433 -64.683 -31.415  1.00  0.00    -0.545 OA
ENDBRANCH   1   7
BRANCH   2  10
ATOM     10  O   UNL     1      -7.615 -67.311 -30.712  1.00  0.00    -0.507 OA
ATOM     11  H   UNL     1      -7.160 -68.190 -30.921  1.00  0.00     0.293 HD
ENDBRANCH   2  10
TORSDOF 2
ENDMDL
MODEL 9
REMARK VINA RESULT:    -4.709     12.751     13.995
REMARK INTER + INTRA:          -5.355
REMARK INTER:                  -5.123
REMARK INTRA:                  -0.232
REMARK UNBOUND:                -0.233
REMARK SMILES O=C([O-])c1ccccc1O
REMARK SMILES IDX 4 1 9 2 5 3 8 4 6 5 7 6 2 7 1 8 3 9 10 10
REMARK H PARENT 10 11
REMARK Flexibility Score: inf
ROOT
ATOM      1  C   UNL     1     -14.472 -67.229 -37.790  1.00  0.00     0.039 A 
ATOM      2  C   UNL     1     -15.686 -66.500 -37.871  1.00  0.00     0.124 A 
ATOM      3  C   UNL     1     -14.000 -67.625 -36.523  1.00  0.00     0.014 A 
ATOM      4  C   UNL     1     -16.420 -66.243 -36.707  1.00  0.00     0.047 A 
ATOM      5  C   UNL     1     -14.733 -67.341 -35.370  1.00  0.00     0.001 A 
ATOM      6  C   UNL     1     -15.946 -66.660 -35.462  1.00  0.00     0.004 A 
ENDROOT
BRANCH   1   7
ATOM      7  C   UNL     1     -13.702 -67.625 -38.988  1.00  0.00     0.075 C 
ATOM      8  O   UNL     1     -12.503 -67.999 -38.875  1.00  0.00    -0.545 OA
ATOM      9  O   UNL     1     -14.301 -67.656 -40.242  1.00  0.00    -0.545 OA
ENDBRANCH   1   7
BRANCH   2  10
ATOM     10  O   UNL     1     -16.174 -65.987 -39.074  1.00  0.00    -0.507 OA
ATOM     11  H   UNL     1     -16.035 -66.437 -39.969  1.00  0.00     0.293 HD
ENDBRANCH   2  10
TORSDOF 2
ENDMDL
