MODEL 1
REMARK VINA RESULT:    10.253      0.000      0.000
REMARK INTER + INTRA:          15.725
REMARK INTER:                  15.049
REMARK INTRA:                   0.676
REMARK UNBOUND:                 0.676
REMARK SMILES O=c1c(O[C@H]2O[C@@H](CO)[C@@H](O)[C@H](O)[C@@H]2O)c(-c2ccc(O)c(O)c2)oc2cc(O)cc(O)c12
REMARK SMILES IDX 4 1 3 2 16 3 25 4 2 5 26 6 1 7 33 8 27 9 31 10 28 11 30 12
REMARK SMILES IDX 17 13 18 14 19 15 20 16 24 17 22 18 21 19 23 21 32 23 29 25
REMARK SMILES IDX 5 27 14 28 6 29 12 30 7 31 10 32 15 33 13 35 8 37 9 38 11 40
REMARK H PARENT 21 20 23 22 32 24 29 26 15 34 13 36 9 39 11 41
REMARK Flexibility Score: inf
ROOT
ATOM      1  O   UNL     1      12.241 -11.182  29.320  1.00  0.00    -0.454 OA
ENDROOT
BRANCH   1   2
ATOM      2  C   UNL     1      12.703 -10.592  28.125  1.00  0.00     0.214 A 
ATOM      3  C   UNL     1      13.495 -11.366  27.253  1.00  0.00     0.180 A 
ATOM      4  O   UNL     1      14.006 -10.825  26.152  1.00  0.00    -0.452 OA
ATOM      5  C   UNL     1      12.432  -9.253  27.767  1.00  0.00     0.239 A 
ATOM      6  C   UNL     1      13.794  -9.567  25.793  1.00  0.00     0.146 A 
ATOM      7  O   UNL     1      11.689  -8.541  28.495  1.00  0.00    -0.285 OA
ATOM      8  C   UNL     1      12.990  -8.718  26.586  1.00  0.00     0.111 A 
ATOM      9  C   UNL     1      14.376  -9.090  24.616  1.00  0.00     0.094 A 
ATOM     10  C   UNL     1      12.784  -7.380  26.168  1.00  0.00     0.134 A 
ATOM     11  C   UNL     1      14.171  -7.771  24.210  1.00  0.00     0.123 A 
ATOM     12  C   UNL     1      13.378  -6.920  24.984  1.00  0.00     0.093 A 
BRANCH   3  13
ATOM     13  C   UNL     1      13.820 -12.779  27.541  1.00  0.00     0.025 A 
ATOM     14  C   UNL     1      14.195 -13.633  26.492  1.00  0.00     0.016 A 
ATOM     15  C   UNL     1      14.486 -14.975  26.747  1.00  0.00     0.051 A 
ATOM     16  C   UNL     1      14.391 -15.486  28.049  1.00  0.00     0.157 A 
ATOM     17  C   UNL     1      13.706 -13.299  28.841  1.00  0.00     0.062 A 
ATOM     18  C   UNL     1      13.994 -14.643  29.100  1.00  0.00     0.158 A 
BRANCH  16  19
ATOM     19  O   UNL     1      14.680 -16.825  28.300  1.00  0.00    -0.504 OA
ATOM     20  H   UNL     1      15.602 -17.207  28.131  1.00  0.00     0.293 HD
ENDBRANCH  16  19
BRANCH  18  21
ATOM     21  O   UNL     1      13.872 -15.122  30.405  1.00  0.00    -0.504 OA
ATOM     22  H   UNL     1      14.466 -14.797  31.155  1.00  0.00     0.293 HD
ENDBRANCH  18  21
ENDBRANCH   3  13
BRANCH  10  23
ATOM     23  O   UNL     1      12.000  -6.505  26.920  1.00  0.00    -0.507 OA
ATOM     24  H   UNL     1      11.129  -6.127  26.565  1.00  0.00     0.293 HD
ENDBRANCH  10  23
BRANCH  11  25
ATOM     25  O   UNL     1      14.762  -7.313  23.036  1.00  0.00    -0.508 OA
ATOM     26  H   UNL     1      15.172  -6.389  22.974  1.00  0.00     0.293 HD
ENDBRANCH  11  25
ENDBRANCH   1   2
BRANCH   1  27
ATOM     27  C   UNL     1      11.223 -12.183  29.423  1.00  0.00     0.339 C 
ATOM     28  C   UNL     1      10.240 -12.068  28.238  1.00  0.00     0.214 C 
ATOM     29  O   UNL     1      10.568 -12.148  30.687  1.00  0.00    -0.332 OA
ATOM     30  C   UNL     1       9.332 -10.835  28.395  1.00  0.00     0.180 C 
ATOM     31  C   UNL     1       9.751 -11.002  30.902  1.00  0.00     0.179 C 
ATOM     32  C   UNL     1       8.686 -10.805  29.793  1.00  0.00     0.177 C 
BRANCH  28  33
ATOM     33  O   UNL     1       9.493 -13.252  28.085  1.00  0.00    -0.384 OA
ATOM     34  H   UNL     1       9.729 -13.866  28.828  1.00  0.00     0.211 HD
ENDBRANCH  28  33
BRANCH  30  35
ATOM     35  O   UNL     1       8.362 -10.791  27.377  1.00  0.00    -0.387 OA
ATOM     36  H   UNL     1       8.795 -11.063  26.527  1.00  0.00     0.211 HD
ENDBRANCH  30  35
BRANCH  31  37
ATOM     37  C   UNL     1      10.583  -9.740  31.219  1.00  0.00     0.191 C 
BRANCH  37  38
ATOM     38  O   UNL     1      11.753 -10.093  31.913  1.00  0.00    -0.394 OA
ATOM     39  H   UNL     1      11.953  -9.357  32.551  1.00  0.00     0.210 HD
ENDBRANCH  37  38
ENDBRANCH  31  37
BRANCH  32  40
ATOM     40  O   UNL     1       8.003  -9.592  29.984  1.00  0.00    -0.387 OA
ATOM     41  H   UNL     1       7.898  -9.467  30.963  1.00  0.00     0.211 HD
ENDBRANCH  32  40
ENDBRANCH   1  27
TORSDOF 12
ENDMDL
MODEL 2
REMARK VINA RESULT:    10.543      1.507      5.773
REMARK INTER + INTRA:          16.150
REMARK INTER:                  15.855
REMARK INTRA:                   0.295
REMARK UNBOUND:                 0.676
REMARK SMILES O=c1c(O[C@H]2O[C@@H](CO)[C@@H](O)[C@H](O)[C@@H]2O)c(-c2ccc(O)c(O)c2)oc2cc(O)cc(O)c12
REMARK SMILES IDX 4 1 3 2 16 3 25 4 2 5 26 6 1 7 33 8 27 9 31 10 28 11 30 12
REMARK SMILES IDX 17 13 18 14 19 15 20 16 24 17 22 18 21 19 23 21 32 23 29 25
REMARK SMILES IDX 5 27 14 28 6 29 12 30 7 31 10 32 15 33 13 35 8 37 9 38 11 40
REMARK H PARENT 21 20 23 22 32 24 29 26 15 34 13 36 9 39 11 41
REMARK Flexibility Score: inf
ROOT
ATOM      1  O   UNL     1      12.509 -11.577  30.102  1.00  0.00    -0.454 OA
ENDROOT
BRANCH   1   2
ATOM      2  C   UNL     1      13.054 -12.489  29.175  1.00  0.00     0.214 A 
ATOM      3  C   UNL     1      13.319 -12.042  27.865  1.00  0.00     0.180 A 
ATOM      4  O   UNL     1      13.769 -12.889  26.945  1.00  0.00    -0.452 OA
ATOM      5  C   UNL     1      13.327 -13.839  29.486  1.00  0.00     0.239 A 
ATOM      6  C   UNL     1      14.016 -14.168  27.191  1.00  0.00     0.146 A 
ATOM      7  O   UNL     1      13.150 -14.268  30.658  1.00  0.00    -0.285 OA
ATOM      8  C   UNL     1      13.809 -14.706  28.481  1.00  0.00     0.111 A 
ATOM      9  C   UNL     1      14.487 -14.979  26.156  1.00  0.00     0.094 A 
ATOM     10  C   UNL     1      14.088 -16.076  28.706  1.00  0.00     0.134 A 
ATOM     11  C   UNL     1      14.757 -16.329  26.383  1.00  0.00     0.123 A 
ATOM     12  C   UNL     1      14.559 -16.874  27.654  1.00  0.00     0.093 A 
BRANCH   3  13
ATOM     13  C   UNL     1      13.074 -10.643  27.454  1.00  0.00     0.025 A 
ATOM     14  C   UNL     1      11.999  -9.935  28.011  1.00  0.00     0.016 A 
ATOM     15  C   UNL     1      11.744  -8.619  27.618  1.00  0.00     0.051 A 
ATOM     16  C   UNL     1      12.549  -7.999  26.653  1.00  0.00     0.157 A 
ATOM     17  C   UNL     1      13.868 -10.027  26.472  1.00  0.00     0.062 A 
ATOM     18  C   UNL     1      13.614  -8.710  26.074  1.00  0.00     0.158 A 
BRANCH  16  19
ATOM     19  O   UNL     1      12.292  -6.687  26.262  1.00  0.00    -0.504 OA
ATOM     20  H   UNL     1      11.348  -6.357  26.105  1.00  0.00     0.293 HD
ENDBRANCH  16  19
BRANCH  18  21
ATOM     21  O   UNL     1      14.424  -8.130  25.098  1.00  0.00    -0.504 OA
ATOM     22  H   UNL     1      14.707  -8.630  24.266  1.00  0.00     0.293 HD
ENDBRANCH  18  21
ENDBRANCH   3  13
BRANCH  10  23
ATOM     23  O   UNL     1      13.897 -16.651  29.962  1.00  0.00    -0.507 OA
ATOM     24  H   UNL     1      14.244 -16.215  30.809  1.00  0.00     0.293 HD
ENDBRANCH  10  23
BRANCH  11  25
ATOM     25  O   UNL     1      15.223 -17.121  25.338  1.00  0.00    -0.508 OA
ATOM     26  H   UNL     1      15.715 -17.989  25.509  1.00  0.00     0.293 HD
ENDBRANCH  11  25
ENDBRANCH   1   2
BRANCH   1  27
ATOM     27  C   UNL     1      11.458 -11.855  31.034  1.00  0.00     0.339 C 
ATOM     28  C   UNL     1      10.100 -11.915  30.303  1.00  0.00     0.214 C 
ATOM     29  O   UNL     1      11.458 -10.940  32.125  1.00  0.00    -0.332 OA
ATOM     30  C   UNL     1       9.637 -10.507  29.888  1.00  0.00     0.180 C 
ATOM     31  C   UNL     1      11.082  -9.609  31.784  1.00  0.00     0.179 C 
ATOM     32  C   UNL     1       9.703  -9.535  31.081  1.00  0.00     0.177 C 
BRANCH  28  33
ATOM     33  O   UNL     1       9.133 -12.573  31.089  1.00  0.00    -0.384 OA
ATOM     34  H   UNL     1       9.213 -12.242  32.021  1.00  0.00     0.211 HD
ENDBRANCH  28  33
BRANCH  30  35
ATOM     35  O   UNL     1       8.348 -10.546  29.324  1.00  0.00    -0.387 OA
ATOM     36  H   UNL     1       8.008  -9.616  29.270  1.00  0.00     0.211 HD
ENDBRANCH  30  35
BRANCH  31  37
ATOM     37  C   UNL     1      12.212  -8.850  31.055  1.00  0.00     0.191 C 
BRANCH  37  38
ATOM     38  O   UNL     1      12.893  -8.014  31.956  1.00  0.00    -0.394 OA
ATOM     39  H   UNL     1      12.329  -7.934  32.772  1.00  0.00     0.210 HD
ENDBRANCH  37  38
ENDBRANCH  31  37
BRANCH  32  40
ATOM     40  O   UNL     1       9.447  -8.222  30.649  1.00  0.00    -0.387 OA
ATOM     41  H   UNL     1       8.814  -8.284  29.886  1.00  0.00     0.211 HD
ENDBRANCH  32  40
ENDBRANCH   1  27
TORSDOF 12
ENDMDL
MODEL 3
REMARK VINA RESULT:    12.227      6.077     10.272
REMARK INTER + INTRA:          18.621
REMARK INTER:                  19.557
REMARK INTRA:                  -0.936
REMARK UNBOUND:                 0.676
REMARK SMILES O=c1c(O[C@H]2O[C@@H](CO)[C@@H](O)[C@H](O)[C@@H]2O)c(-c2ccc(O)c(O)c2)oc2cc(O)cc(O)c12
REMARK SMILES IDX 4 1 3 2 16 3 25 4 2 5 26 6 1 7 33 8 27 9 31 10 28 11 30 12
REMARK SMILES IDX 17 13 18 14 19 15 20 16 24 17 22 18 21 19 23 21 32 23 29 25
REMARK SMILES IDX 5 27 14 28 6 29 12 30 7 31 10 32 15 33 13 35 8 37 9 38 11 40
REMARK H PARENT 21 20 23 22 32 24 29 26 15 34 13 36 9 39 11 41
REMARK Flexibility Score: inf
ROOT
ATOM      1  O   UNL     1      14.636  -2.205  27.329  1.00  0.00    -0.454 OA
ENDROOT
BRANCH   1   2
ATOM      2  C   UNL     1      14.696  -3.543  26.890  1.00  0.00     0.214 A 
ATOM      3  C   UNL     1      15.945  -4.072  26.507  1.00  0.00     0.180 A 
ATOM      4  O   UNL     1      16.031  -5.307  26.023  1.00  0.00    -0.452 OA
ATOM      5  C   UNL     1      13.561  -4.378  26.791  1.00  0.00     0.239 A 
ATOM      6  C   UNL     1      14.987  -6.113  25.893  1.00  0.00     0.146 A 
ATOM      7  O   UNL     1      12.433  -3.960  27.169  1.00  0.00    -0.285 OA
ATOM      8  C   UNL     1      13.696  -5.686  26.277  1.00  0.00     0.111 A 
ATOM      9  C   UNL     1      15.179  -7.395  25.373  1.00  0.00     0.094 A 
ATOM     10  C   UNL     1      12.604  -6.576  26.127  1.00  0.00     0.134 A 
ATOM     11  C   UNL     1      14.100  -8.267  25.226  1.00  0.00     0.123 A 
ATOM     12  C   UNL     1      12.819  -7.858  25.602  1.00  0.00     0.093 A 
BRANCH   3  13
ATOM     13  C   UNL     1      17.188  -3.275  26.587  1.00  0.00     0.025 A 
ATOM     14  C   UNL     1      17.339  -2.143  25.772  1.00  0.00     0.016 A 
ATOM     15  C   UNL     1      18.516  -1.391  25.824  1.00  0.00     0.051 A 
ATOM     16  C   UNL     1      19.561  -1.769  26.678  1.00  0.00     0.157 A 
ATOM     17  C   UNL     1      18.245  -3.663  27.427  1.00  0.00     0.062 A 
ATOM     18  C   UNL     1      19.425  -2.915  27.480  1.00  0.00     0.158 A 
BRANCH  16  19
ATOM     19  O   UNL     1      20.733  -1.018  26.726  1.00  0.00    -0.504 OA
ATOM     20  H   UNL     1      21.504  -1.200  26.095  1.00  0.00     0.293 HD
ENDBRANCH  16  19
BRANCH  18  21
ATOM     21  O   UNL     1      20.453  -3.329  28.328  1.00  0.00    -0.504 OA
ATOM     22  H   UNL     1      21.359  -2.880  28.333  1.00  0.00     0.293 HD
ENDBRANCH  18  21
ENDBRANCH   3  13
BRANCH  10  23
ATOM     23  O   UNL     1      11.313  -6.197  26.489  1.00  0.00    -0.507 OA
ATOM     24  H   UNL     1      10.703  -5.695  25.853  1.00  0.00     0.293 HD
ENDBRANCH  10  23
BRANCH  11  25
ATOM     25  O   UNL     1      14.312  -9.539  24.702  1.00  0.00    -0.508 OA
ATOM     26  H   UNL     1      14.617  -9.675  23.746  1.00  0.00     0.293 HD
ENDBRANCH  11  25
ENDBRANCH   1   2
BRANCH   1  27
ATOM     27  C   UNL     1      13.648  -1.241  26.951  1.00  0.00     0.339 C 
ATOM     28  C   UNL     1      14.280  -0.149  26.063  1.00  0.00     0.214 C 
ATOM     29  O   UNL     1      12.965  -0.706  28.081  1.00  0.00    -0.332 OA
ATOM     30  C   UNL     1      15.171   0.790  26.896  1.00  0.00     0.180 C 
ATOM     31  C   UNL     1      13.761   0.132  28.913  1.00  0.00     0.179 C 
ATOM     32  C   UNL     1      14.416   1.303  28.136  1.00  0.00     0.177 C 
BRANCH  28  33
ATOM     33  O   UNL     1      13.291   0.562  25.355  1.00  0.00    -0.384 OA
ATOM     34  H   UNL     1      13.165   0.124  24.473  1.00  0.00     0.211 HD
ENDBRANCH  28  33
BRANCH  30  35
ATOM     35  O   UNL     1      15.658   1.852  26.111  1.00  0.00    -0.387 OA
ATOM     36  H   UNL     1      14.897   2.451  25.898  1.00  0.00     0.211 HD
ENDBRANCH  30  35
BRANCH  31  37
ATOM     37  C   UNL     1      14.737  -0.674  29.796  1.00  0.00     0.191 C 
BRANCH  37  38
ATOM     38  O   UNL     1      14.248  -1.976  29.994  1.00  0.00    -0.394 OA
ATOM     39  H   UNL     1      14.465  -2.503  29.178  1.00  0.00     0.210 HD
ENDBRANCH  37  38
ENDBRANCH  31  37
BRANCH  32  40
ATOM     40  O   UNL     1      15.292   2.013  28.975  1.00  0.00    -0.387 OA
ATOM     41  H   UNL     1      15.185   1.642  29.890  1.00  0.00     0.211 HD
ENDBRANCH  32  40
ENDBRANCH   1  27
TORSDOF 12
ENDMDL
MODEL 4
REMARK VINA RESULT:    12.352      6.314     10.794
REMARK INTER + INTRA:          18.805
REMARK INTER:                  16.740
REMARK INTRA:                   2.065
REMARK UNBOUND:                 0.676
REMARK SMILES O=c1c(O[C@H]2O[C@@H](CO)[C@@H](O)[C@H](O)[C@@H]2O)c(-c2ccc(O)c(O)c2)oc2cc(O)cc(O)c12
REMARK SMILES IDX 4 1 3 2 16 3 25 4 2 5 26 6 1 7 33 8 27 9 31 10 28 11 30 12
REMARK SMILES IDX 17 13 18 14 19 15 20 16 24 17 22 18 21 19 23 21 32 23 29 25
REMARK SMILES IDX 5 27 14 28 6 29 12 30 7 31 10 32 15 33 13 35 8 37 9 38 11 40
REMARK H PARENT 21 20 23 22 32 24 29 26 15 34 13 36 9 39 11 41
REMARK Flexibility Score: inf
ROOT
ATOM      1  O   UNL     1      14.731  -1.746  27.242  1.00  0.00    -0.454 OA
ENDROOT
BRANCH   1   2
ATOM      2  C   UNL     1      14.693  -3.114  26.904  1.00  0.00     0.214 A 
ATOM      3  C   UNL     1      15.900  -3.759  26.564  1.00  0.00     0.180 A 
ATOM      4  O   UNL     1      15.895  -5.028  26.174  1.00  0.00    -0.452 OA
ATOM      5  C   UNL     1      13.500  -3.870  26.863  1.00  0.00     0.239 A 
ATOM      6  C   UNL     1      14.795  -5.765  26.101  1.00  0.00     0.146 A 
ATOM      7  O   UNL     1      12.407  -3.345  27.206  1.00  0.00    -0.285 OA
ATOM      8  C   UNL     1      13.540  -5.219  26.448  1.00  0.00     0.111 A 
ATOM      9  C   UNL     1      14.894  -7.093  25.678  1.00  0.00     0.094 A 
ATOM     10  C   UNL     1      12.386  -6.037  26.361  1.00  0.00     0.134 A 
ATOM     11  C   UNL     1      13.755  -7.893  25.592  1.00  0.00     0.123 A 
ATOM     12  C   UNL     1      12.507  -7.366  25.933  1.00  0.00     0.093 A 
BRANCH   3  13
ATOM     13  C   UNL     1      17.197  -3.049  26.589  1.00  0.00     0.025 A 
ATOM     14  C   UNL     1      17.482  -2.090  25.605  1.00  0.00     0.016 A 
ATOM     15  C   UNL     1      18.711  -1.426  25.604  1.00  0.00     0.051 A 
ATOM     16  C   UNL     1      19.676  -1.722  26.577  1.00  0.00     0.157 A 
ATOM     17  C   UNL     1      18.174  -3.358  27.550  1.00  0.00     0.062 A 
ATOM     18  C   UNL     1      19.406  -2.697  27.552  1.00  0.00     0.158 A 
BRANCH  16  19
ATOM     19  O   UNL     1      20.901  -1.058  26.574  1.00  0.00    -0.504 OA
ATOM     20  H   UNL     1      21.026  -0.182  26.082  1.00  0.00     0.293 HD
ENDBRANCH  16  19
BRANCH  18  21
ATOM     21  O   UNL     1      20.351  -3.027  28.523  1.00  0.00    -0.504 OA
ATOM     22  H   UNL     1      21.125  -2.418  28.750  1.00  0.00     0.293 HD
ENDBRANCH  18  21
ENDBRANCH   3  13
BRANCH  10  23
ATOM     23  O   UNL     1      11.126  -5.540  26.690  1.00  0.00    -0.507 OA
ATOM     24  H   UNL     1      10.308  -5.737  26.125  1.00  0.00     0.293 HD
ENDBRANCH  10  23
BRANCH  11  25
ATOM     25  O   UNL     1      13.873  -9.213  25.166  1.00  0.00    -0.508 OA
ATOM     26  H   UNL     1      13.167  -9.648  24.585  1.00  0.00     0.293 HD
ENDBRANCH  11  25
ENDBRANCH   1   2
BRANCH   1  27
ATOM     27  C   UNL     1      15.752  -0.816  26.865  1.00  0.00     0.339 C 
ATOM     28  C   UNL     1      15.880   0.296  27.928  1.00  0.00     0.214 C 
ATOM     29  O   UNL     1      15.545  -0.302  25.552  1.00  0.00    -0.332 OA
ATOM     30  C   UNL     1      14.686   1.264  27.858  1.00  0.00     0.180 C 
ATOM     31  C   UNL     1      14.422   0.564  25.423  1.00  0.00     0.179 C 
ATOM     32  C   UNL     1      14.463   1.754  26.415  1.00  0.00     0.177 C 
BRANCH  28  33
ATOM     33  O   UNL     1      17.110   0.972  27.805  1.00  0.00    -0.384 OA
ATOM     34  H   UNL     1      17.748   0.373  27.337  1.00  0.00     0.211 HD
ENDBRANCH  28  33
BRANCH  30  35
ATOM     35  O   UNL     1      14.857   2.340  28.749  1.00  0.00    -0.387 OA
ATOM     36  H   UNL     1      14.796   3.182  28.228  1.00  0.00     0.211 HD
ENDBRANCH  30  35
BRANCH  31  37
ATOM     37  C   UNL     1      13.086  -0.209  25.407  1.00  0.00     0.191 C 
BRANCH  37  38
ATOM     38  O   UNL     1      13.218  -1.389  24.657  1.00  0.00    -0.394 OA
ATOM     39  H   UNL     1      12.364  -1.893  24.742  1.00  0.00     0.210 HD
ENDBRANCH  37  38
ENDBRANCH  31  37
BRANCH  32  40
ATOM     40  O   UNL     1      13.271   2.494  26.335  1.00  0.00    -0.387 OA
ATOM     41  H   UNL     1      12.850   2.277  25.463  1.00  0.00     0.211 HD
ENDBRANCH  32  40
ENDBRANCH   1  27
TORSDOF 12
ENDMDL
MODEL 5
REMARK VINA RESULT:    12.759      1.429      2.732
REMARK INTER + INTRA:          19.402
REMARK INTER:                  20.509
REMARK INTRA:                  -1.107
REMARK UNBOUND:                 0.676
REMARK SMILES O=c1c(O[C@H]2O[C@@H](CO)[C@@H](O)[C@H](O)[C@@H]2O)c(-c2ccc(O)c(O)c2)oc2cc(O)cc(O)c12
REMARK SMILES IDX 4 1 3 2 16 3 25 4 2 5 26 6 1 7 33 8 27 9 31 10 28 11 30 12
REMARK SMILES IDX 17 13 18 14 19 15 20 16 24 17 22 18 21 19 23 21 32 23 29 25
REMARK SMILES IDX 5 27 14 28 6 29 12 30 7 31 10 32 15 33 13 35 8 37 9 38 11 40
REMARK H PARENT 21 20 23 22 32 24 29 26 15 34 13 36 9 39 11 41
REMARK Flexibility Score: inf
ROOT
ATOM      1  O   UNL     1      10.796 -10.472  28.635  1.00  0.00    -0.454 OA
ENDROOT
BRANCH   1   2
ATOM      2  C   UNL     1      11.722  -9.870  27.759  1.00  0.00     0.214 A 
ATOM      3  C   UNL     1      12.811 -10.636  27.296  1.00  0.00     0.180 A 
ATOM      4  O   UNL     1      13.740 -10.084  26.525  1.00  0.00    -0.452 OA
ATOM      5  C   UNL     1      11.628  -8.525  27.338  1.00  0.00     0.239 A 
ATOM      6  C   UNL     1      13.701  -8.820  26.128  1.00  0.00     0.146 A 
ATOM      7  O   UNL     1      10.645  -7.818  27.690  1.00  0.00    -0.285 OA
ATOM      8  C   UNL     1      12.635  -7.977  26.514  1.00  0.00     0.111 A 
ATOM      9  C   UNL     1      14.728  -8.331  25.317  1.00  0.00     0.094 A 
ATOM     10  C   UNL     1      12.625  -6.633  26.067  1.00  0.00     0.134 A 
ATOM     11  C   UNL     1      14.714  -7.006  24.881  1.00  0.00     0.123 A 
ATOM     12  C   UNL     1      13.666  -6.161  25.255  1.00  0.00     0.093 A 
BRANCH   3  13
ATOM     13  C   UNL     1      12.983 -12.055  27.676  1.00  0.00     0.025 A 
ATOM     14  C   UNL     1      12.385 -13.058  26.898  1.00  0.00     0.016 A 
ATOM     15  C   UNL     1      12.523 -14.402  27.256  1.00  0.00     0.051 A 
ATOM     16  C   UNL     1      13.246 -14.759  28.403  1.00  0.00     0.157 A 
ATOM     17  C   UNL     1      13.689 -12.414  28.836  1.00  0.00     0.062 A 
ATOM     18  C   UNL     1      13.827 -13.758  29.199  1.00  0.00     0.158 A 
BRANCH  16  19
ATOM     19  O   UNL     1      13.381 -16.099  28.757  1.00  0.00    -0.504 OA
ATOM     20  H   UNL     1      12.741 -16.541  29.406  1.00  0.00     0.293 HD
ENDBRANCH  16  19
BRANCH  18  21
ATOM     21  O   UNL     1      14.538 -14.077  30.356  1.00  0.00    -0.504 OA
ATOM     22  H   UNL     1      15.063 -13.384  30.873  1.00  0.00     0.293 HD
ENDBRANCH  18  21
ENDBRANCH   3  13
BRANCH  10  23
ATOM     23  O   UNL     1      11.596  -5.764  26.425  1.00  0.00    -0.507 OA
ATOM     24  H   UNL     1      11.709  -4.757  26.392  1.00  0.00     0.293 HD
ENDBRANCH  10  23
BRANCH  11  25
ATOM     25  O   UNL     1      15.749  -6.536  24.077  1.00  0.00    -0.508 OA
ATOM     26  H   UNL     1      15.626  -5.736  23.468  1.00  0.00     0.293 HD
ENDBRANCH  11  25
ENDBRANCH   1   2
BRANCH   1  27
ATOM     27  C   UNL     1      10.437  -9.994  29.935  1.00  0.00     0.339 C 
ATOM     28  C   UNL     1      11.704  -9.626  30.737  1.00  0.00     0.214 C 
ATOM     29  O   UNL     1       9.594 -10.911  30.626  1.00  0.00    -0.332 OA
ATOM     30  C   UNL     1      12.457 -10.891  31.185  1.00  0.00     0.180 C 
ATOM     31  C   UNL     1      10.232 -12.121  31.022  1.00  0.00     0.179 C 
ATOM     32  C   UNL     1      11.501 -11.880  31.879  1.00  0.00     0.177 C 
BRANCH  28  33
ATOM     33  O   UNL     1      11.387  -8.792  31.826  1.00  0.00    -0.384 OA
ATOM     34  H   UNL     1      12.234  -8.431  32.198  1.00  0.00     0.211 HD
ENDBRANCH  28  33
BRANCH  30  35
ATOM     35  O   UNL     1      13.548 -10.562  32.010  1.00  0.00    -0.387 OA
ATOM     36  H   UNL     1      13.512 -11.142  32.814  1.00  0.00     0.211 HD
ENDBRANCH  30  35
BRANCH  31  37
ATOM     37  C   UNL     1      10.435 -13.091  29.839  1.00  0.00     0.191 C 
BRANCH  37  38
ATOM     38  O   UNL     1       9.472 -12.850  28.845  1.00  0.00    -0.394 OA
ATOM     39  H   UNL     1       9.205 -11.894  28.914  1.00  0.00     0.210 HD
ENDBRANCH  37  38
ENDBRANCH  31  37
BRANCH  32  40
ATOM     40  O   UNL     1      12.160 -13.096  32.125  1.00  0.00    -0.387 OA
ATOM     41  H   UNL     1      12.430 -13.466  31.244  1.00  0.00     0.211 HD
ENDBRANCH  32  40
ENDBRANCH   1  27
TORSDOF 12
ENDMDL
