MODEL 1
REMARK VINA RESULT:    -0.644      0.000      0.000
REMARK INTER + INTRA:          -1.202
REMARK INTER:                  -1.209
REMARK INTRA:                   0.007
REMARK UNBOUND:                 0.007
REMARK SMILES CCCCCCCCC=CCCCCCCCC(=O)[O-]
REMARK SMILES IDX 10 1 9 2 11 3 12 4 13 5 14 6 15 7 16 8 17 9 18 10 19 11
REMARK SMILES IDX 20 12 8 13 7 14 6 15 5 16 4 17 3 18 2 19 1 20
REMARK H PARENT
REMARK Flexibility Score: inf
ROOT
ATOM      1  C   UNL     1      -5.864  15.673 -13.668  1.00  0.00    -0.031 C 
ATOM      2  C   UNL     1      -5.867  16.992 -13.943  1.00  0.00    -0.031 C 
ENDROOT
BRANCH   1   3
ATOM      3  C   UNL     1      -4.950  14.654 -14.309  1.00  0.00     0.027 C 
BRANCH   3   4
ATOM      4  C   UNL     1      -5.752  13.535 -14.983  1.00  0.00     0.004 C 
BRANCH   4   5
ATOM      5  C   UNL     1      -5.496  12.166 -14.329  1.00  0.00     0.000 C 
BRANCH   5   6
ATOM      6  C   UNL     1      -6.201  12.021 -12.971  1.00  0.00     0.000 C 
BRANCH   6   7
ATOM      7  C   UNL     1      -7.665  12.494 -13.015  1.00  0.00     0.000 C 
BRANCH   7   8
ATOM      8  C   UNL     1      -7.844  13.913 -12.454  1.00  0.00     0.006 C 
BRANCH   8   9
ATOM      9  C   UNL     1      -8.686  14.808 -13.373  1.00  0.00     0.053 C 
BRANCH   9  10
ATOM     10  C   UNL     1      -9.146  16.027 -12.637  1.00  0.00     0.041 C 
ATOM     11  O   UNL     1     -10.242  16.572 -12.937  1.00  0.00    -0.550 OA
ATOM     12  O   UNL     1      -8.345  16.588 -11.649  1.00  0.00    -0.550 OA
ENDBRANCH   9  10
ENDBRANCH   8   9
ENDBRANCH   7   8
ENDBRANCH   6   7
ENDBRANCH   5   6
ENDBRANCH   4   5
ENDBRANCH   3   4
ENDBRANCH   1   3
BRANCH   2  13
ATOM     13  C   UNL     1      -4.987  17.659 -14.969  1.00  0.00     0.027 C 
BRANCH  13  14
ATOM     14  C   UNL     1      -4.878  19.169 -14.705  1.00  0.00     0.004 C 
BRANCH  14  15
ATOM     15  C   UNL     1      -5.149  19.538 -13.236  1.00  0.00     0.000 C 
BRANCH  15  16
ATOM     16  C   UNL     1      -5.608  20.989 -13.004  1.00  0.00     0.000 C 
BRANCH  16  17
ATOM     17  C   UNL     1      -7.111  21.099 -12.697  1.00  0.00    -0.000 C 
BRANCH  17  18
ATOM     18  C   UNL     1      -7.860  19.779 -12.941  1.00  0.00    -0.000 C 
BRANCH  18  19
ATOM     19  C   UNL     1      -8.246  19.582 -14.415  1.00  0.00    -0.003 C 
ATOM     20  C   UNL     1      -8.428  20.924 -15.119  1.00  0.00     0.004 C 
ENDBRANCH  18  19
ENDBRANCH  17  18
ENDBRANCH  16  17
ENDBRANCH  15  16
ENDBRANCH  14  15
ENDBRANCH  13  14
ENDBRANCH   2  13
TORSDOF 15
ENDMDL
MODEL 2
REMARK VINA RESULT:    -0.388      1.888      3.246
REMARK INTER + INTRA:          -0.722
REMARK INTER:                  -2.722
REMARK INTRA:                   2.000
REMARK UNBOUND:                 0.007
REMARK SMILES CCCCCCCCC=CCCCCCCCC(=O)[O-]
REMARK SMILES IDX 10 1 9 2 11 3 12 4 13 5 14 6 15 7 16 8 17 9 18 10 19 11
REMARK SMILES IDX 20 12 8 13 7 14 6 15 5 16 4 17 3 18 2 19 1 20
REMARK H PARENT
REMARK Flexibility Score: inf
ROOT
ATOM      1  C   UNL     1      -8.813  16.490 -11.692  1.00  0.00    -0.031 C 
ATOM      2  C   UNL     1      -8.555  17.559 -12.470  1.00  0.00    -0.031 C 
ENDROOT
BRANCH   1   3
ATOM      3  C   UNL     1      -8.658  15.048 -12.116  1.00  0.00     0.027 C 
BRANCH   3   4
ATOM      4  C   UNL     1      -7.356  14.445 -11.574  1.00  0.00     0.004 C 
BRANCH   4   5
ATOM      5  C   UNL     1      -6.402  14.022 -12.703  1.00  0.00     0.000 C 
BRANCH   5   6
ATOM      6  C   UNL     1      -5.986  12.546 -12.600  1.00  0.00     0.000 C 
BRANCH   6   7
ATOM      7  C   UNL     1      -5.142  12.087 -13.802  1.00  0.00     0.000 C 
BRANCH   7   8
ATOM      8  C   UNL     1      -5.570  12.762 -15.115  1.00  0.00     0.006 C 
BRANCH   8   9
ATOM      9  C   UNL     1      -6.656  13.825 -14.903  1.00  0.00     0.053 C 
BRANCH   9  10
ATOM     10  C   UNL     1      -8.015  13.204 -14.970  1.00  0.00     0.041 C 
ATOM     11  O   UNL     1      -8.136  11.959 -15.124  1.00  0.00    -0.550 OA
ATOM     12  O   UNL     1      -9.151  14.003 -14.908  1.00  0.00    -0.550 OA
ENDBRANCH   9  10
ENDBRANCH   8   9
ENDBRANCH   7   8
ENDBRANCH   6   7
ENDBRANCH   5   6
ENDBRANCH   4   5
ENDBRANCH   3   4
ENDBRANCH   1   3
BRANCH   2  13
ATOM     13  C   UNL     1      -8.112  17.488 -13.909  1.00  0.00     0.027 C 
BRANCH  13  14
ATOM     14  C   UNL     1      -6.581  17.411 -14.012  1.00  0.00     0.004 C 
BRANCH  14  15
ATOM     15  C   UNL     1      -6.012  18.308 -15.125  1.00  0.00     0.000 C 
BRANCH  15  16
ATOM     16  C   UNL     1      -5.137  19.476 -14.636  1.00  0.00     0.000 C 
BRANCH  16  17
ATOM     17  C   UNL     1      -5.729  20.853 -14.982  1.00  0.00    -0.000 C 
BRANCH  17  18
ATOM     18  C   UNL     1      -7.256  20.896 -14.818  1.00  0.00    -0.000 C 
BRANCH  18  19
ATOM     19  C   UNL     1      -7.689  21.047 -13.351  1.00  0.00    -0.003 C 
ATOM     20  C   UNL     1      -6.487  20.977 -12.414  1.00  0.00     0.004 C 
ENDBRANCH  18  19
ENDBRANCH  17  18
ENDBRANCH  16  17
ENDBRANCH  15  16
ENDBRANCH  14  15
ENDBRANCH  13  14
ENDBRANCH   2  13
TORSDOF 15
ENDMDL
MODEL 3
REMARK VINA RESULT:     0.277      1.789      3.601
REMARK INTER + INTRA:           0.526
REMARK INTER:                  -1.026
REMARK INTRA:                   1.553
REMARK UNBOUND:                 0.007
REMARK SMILES CCCCCCCCC=CCCCCCCCC(=O)[O-]
REMARK SMILES IDX 10 1 9 2 11 3 12 4 13 5 14 6 15 7 16 8 17 9 18 10 19 11
REMARK SMILES IDX 20 12 8 13 7 14 6 15 5 16 4 17 3 18 2 19 1 20
REMARK H PARENT
REMARK Flexibility Score: inf
ROOT
ATOM      1  C   UNL     1      -8.858  15.447 -11.744  1.00  0.00    -0.031 C 
ATOM      2  C   UNL     1      -9.253  16.642 -12.224  1.00  0.00    -0.031 C 
ENDROOT
BRANCH   1   3
ATOM      3  C   UNL     1      -7.477  15.137 -11.212  1.00  0.00     0.027 C 
BRANCH   3   4
ATOM      4  C   UNL     1      -6.542  14.669 -12.333  1.00  0.00     0.004 C 
BRANCH   4   5
ATOM      5  C   UNL     1      -6.472  15.682 -13.488  1.00  0.00     0.000 C 
BRANCH   5   6
ATOM      6  C   UNL     1      -5.782  15.107 -14.735  1.00  0.00     0.000 C 
BRANCH   6   7
ATOM      7  C   UNL     1      -4.876  13.907 -14.406  1.00  0.00     0.000 C 
BRANCH   7   8
ATOM      8  C   UNL     1      -5.672  12.610 -14.189  1.00  0.00     0.006 C 
BRANCH   8   9
ATOM      9  C   UNL     1      -6.883  12.499 -15.124  1.00  0.00     0.053 C 
BRANCH   9  10
ATOM     10  C   UNL     1      -8.153  12.703 -14.361  1.00  0.00     0.041 C 
ATOM     11  O   UNL     1      -8.201  12.440 -13.130  1.00  0.00    -0.550 OA
ATOM     12  O   UNL     1      -9.297  13.143 -15.016  1.00  0.00    -0.550 OA
ENDBRANCH   9  10
ENDBRANCH   8   9
ENDBRANCH   7   8
ENDBRANCH   6   7
ENDBRANCH   5   6
ENDBRANCH   4   5
ENDBRANCH   3   4
ENDBRANCH   1   3
BRANCH   2  13
ATOM     13  C   UNL     1      -8.367  17.855 -12.348  1.00  0.00     0.027 C 
BRANCH  13  14
ATOM     14  C   UNL     1      -7.973  18.104 -13.812  1.00  0.00     0.004 C 
BRANCH  14  15
ATOM     15  C   UNL     1      -8.515  19.436 -14.358  1.00  0.00     0.000 C 
BRANCH  15  16
ATOM     16  C   UNL     1      -8.204  20.669 -13.490  1.00  0.00     0.000 C 
BRANCH  16  17
ATOM     17  C   UNL     1      -6.702  20.991 -13.425  1.00  0.00    -0.000 C 
BRANCH  17  18
ATOM     18  C   UNL     1      -6.065  21.118 -14.818  1.00  0.00    -0.000 C 
BRANCH  18  19
ATOM     19  C   UNL     1      -4.875  20.165 -15.013  1.00  0.00    -0.003 C 
ATOM     20  C   UNL     1      -5.103  18.845 -14.282  1.00  0.00     0.004 C 
ENDBRANCH  18  19
ENDBRANCH  17  18
ENDBRANCH  16  17
ENDBRANCH  15  16
ENDBRANCH  14  15
ENDBRANCH  13  14
ENDBRANCH   2  13
TORSDOF 15
ENDMDL
MODEL 4
REMARK VINA RESULT:     0.536      1.706      5.829
REMARK INTER + INTRA:           1.012
REMARK INTER:                   0.019
REMARK INTRA:                   0.994
REMARK UNBOUND:                 0.007
REMARK SMILES CCCCCCCCC=CCCCCCCCC(=O)[O-]
REMARK SMILES IDX 10 1 9 2 11 3 12 4 13 5 14 6 15 7 16 8 17 9 18 10 19 11
REMARK SMILES IDX 20 12 8 13 7 14 6 15 5 16 4 17 3 18 2 19 1 20
REMARK H PARENT
REMARK Flexibility Score: inf
ROOT
ATOM      1  C   UNL     1      -8.608  14.819 -14.439  1.00  0.00    -0.031 C 
ATOM      2  C   UNL     1      -8.641  13.472 -14.454  1.00  0.00    -0.031 C 
ENDROOT
BRANCH   1   3
ATOM      3  C   UNL     1      -7.564  15.671 -15.125  1.00  0.00     0.027 C 
BRANCH   3   4
ATOM      4  C   UNL     1      -7.121  16.834 -14.231  1.00  0.00     0.004 C 
BRANCH   4   5
ATOM      5  C   UNL     1      -5.635  16.733 -13.846  1.00  0.00     0.000 C 
BRANCH   5   6
ATOM      6  C   UNL     1      -4.918  18.091 -13.901  1.00  0.00     0.000 C 
BRANCH   6   7
ATOM      7  C   UNL     1      -5.334  18.927 -15.125  1.00  0.00     0.000 C 
BRANCH   7   8
ATOM      8  C   UNL     1      -5.903  20.301 -14.735  1.00  0.00     0.006 C 
BRANCH   8   9
ATOM      9  C   UNL     1      -7.414  20.259 -14.470  1.00  0.00     0.053 C 
BRANCH   9  10
ATOM     10  C   UNL     1      -7.683  20.085 -13.009  1.00  0.00     0.041 C 
ATOM     11  O   UNL     1      -7.038  20.758 -12.161  1.00  0.00    -0.550 OA
ATOM     12  O   UNL     1      -8.617  19.149 -12.579  1.00  0.00    -0.550 OA
ENDBRANCH   9  10
ENDBRANCH   8   9
ENDBRANCH   7   8
ENDBRANCH   6   7
ENDBRANCH   5   6
ENDBRANCH   4   5
ENDBRANCH   3   4
ENDBRANCH   1   3
BRANCH   2  13
ATOM     13  C   UNL     1      -7.614  12.594 -15.122  1.00  0.00     0.027 C 
BRANCH  13  14
ATOM     14  C   UNL     1      -6.193  13.129 -14.889  1.00  0.00     0.004 C 
BRANCH  14  15
ATOM     15  C   UNL     1      -5.332  12.182 -14.035  1.00  0.00     0.000 C 
BRANCH  15  16
ATOM     16  C   UNL     1      -5.821  11.983 -12.590  1.00  0.00     0.000 C 
BRANCH  16  17
ATOM     17  C   UNL     1      -7.079  12.806 -12.266  1.00  0.00    -0.000 C 
BRANCH  17  18
ATOM     18  C   UNL     1      -6.747  14.170 -11.642  1.00  0.00    -0.000 C 
BRANCH  18  19
ATOM     19  C   UNL     1      -7.993  14.896 -11.109  1.00  0.00    -0.003 C 
ATOM     20  C   UNL     1      -7.803  16.410 -11.144  1.00  0.00     0.004 C 
ENDBRANCH  18  19
ENDBRANCH  17  18
ENDBRANCH  16  17
ENDBRANCH  15  16
ENDBRANCH  14  15
ENDBRANCH  13  14
ENDBRANCH   2  13
TORSDOF 15
ENDMDL
