MODEL 1
REMARK VINA RESULT:    -4.011      0.000      0.000
REMARK INTER + INTRA:          -5.224
REMARK INTER:                  -4.949
REMARK INTRA:                  -0.275
REMARK UNBOUND:                -0.275
REMARK SMILES C=CC[C@H](C)C(=O)CC
REMARK SMILES IDX 4 1 5 2 6 3 7 4 8 5 9 6 3 7 2 8 1 9
REMARK H PARENT
REMARK Flexibility Score: inf
ROOT
ATOM      1  C   UNL     1     -23.846 -55.372  24.673  1.00  0.00     0.057 C 
ATOM      2  C   UNL     1     -22.878 -56.557  24.808  1.00  0.00     0.016 C 
ENDROOT
BRANCH   1   3
ATOM      3  C   UNL     1     -23.108 -54.168  24.107  1.00  0.00     0.135 C 
ATOM      4  O   UNL     1     -23.357 -53.065  24.572  1.00  0.00    -0.299 OA
BRANCH   3   5
ATOM      5  C   UNL     1     -22.080 -54.237  22.994  1.00  0.00     0.072 C 
ATOM      6  C   UNL     1     -20.767 -53.501  23.255  1.00  0.00     0.012 C 
ENDBRANCH   3   5
ENDBRANCH   1   3
BRANCH   1   7
ATOM      7  C   UNL     1     -24.482 -55.003  26.028  1.00  0.00     0.038 C 
BRANCH   7   8
ATOM      8  C   UNL     1     -25.987 -54.987  25.949  1.00  0.00    -0.034 C 
ATOM      9  C   UNL     1     -26.638 -55.310  24.828  1.00  0.00     0.004 C 
ENDBRANCH   7   8
ENDBRANCH   1   7
TORSDOF 4
ENDMDL
MODEL 2
REMARK VINA RESULT:    -3.991      2.312      4.386
REMARK INTER + INTRA:          -5.199
REMARK INTER:                  -4.968
REMARK INTRA:                  -0.231
REMARK UNBOUND:                -0.275
REMARK SMILES C=CC[C@H](C)C(=O)CC
REMARK SMILES IDX 4 1 5 2 6 3 7 4 8 5 9 6 3 7 2 8 1 9
REMARK H PARENT
REMARK Flexibility Score: inf
ROOT
ATOM      1  C   UNL     1     -24.883 -54.754  24.945  1.00  0.00     0.057 C 
ATOM      2  C   UNL     1     -24.677 -53.370  24.314  1.00  0.00     0.016 C 
ENDROOT
BRANCH   1   3
ATOM      3  C   UNL     1     -26.271 -54.834  25.565  1.00  0.00     0.135 C 
ATOM      4  O   UNL     1     -26.361 -55.150  26.742  1.00  0.00    -0.299 OA
BRANCH   3   5
ATOM      5  C   UNL     1     -27.560 -54.554  24.820  1.00  0.00     0.072 C 
ATOM      6  C   UNL     1     -28.523 -53.581  25.499  1.00  0.00     0.012 C 
ENDBRANCH   3   5
ENDBRANCH   1   3
BRANCH   1   7
ATOM      7  C   UNL     1     -23.816 -55.053  26.018  1.00  0.00     0.038 C 
BRANCH   7   8
ATOM      8  C   UNL     1     -22.696 -55.897  25.468  1.00  0.00    -0.034 C 
ATOM      9  C   UNL     1     -22.901 -56.800  24.504  1.00  0.00     0.004 C 
ENDBRANCH   7   8
ENDBRANCH   1   7
TORSDOF 4
ENDMDL
MODEL 3
REMARK VINA RESULT:    -3.867      1.218      4.035
REMARK INTER + INTRA:          -5.045
REMARK INTER:                  -4.807
REMARK INTRA:                  -0.238
REMARK UNBOUND:                -0.275
REMARK SMILES C=CC[C@H](C)C(=O)CC
REMARK SMILES IDX 4 1 5 2 6 3 7 4 8 5 9 6 3 7 2 8 1 9
REMARK H PARENT
REMARK Flexibility Score: inf
ROOT
ATOM      1  C   UNL     1     -23.341 -54.977  25.206  1.00  0.00     0.057 C 
ATOM      2  C   UNL     1     -22.899 -56.397  24.825  1.00  0.00     0.016 C 
ENDROOT
BRANCH   1   3
ATOM      3  C   UNL     1     -24.762 -55.010  25.749  1.00  0.00     0.135 C 
ATOM      4  O   UNL     1     -24.945 -54.682  26.912  1.00  0.00    -0.299 OA
BRANCH   3   5
ATOM      5  C   UNL     1     -25.978 -55.429  24.946  1.00  0.00     0.072 C 
ATOM      6  C   UNL     1     -26.963 -54.313  24.600  1.00  0.00     0.012 C 
ENDBRANCH   3   5
ENDBRANCH   1   3
BRANCH   1   7
ATOM      7  C   UNL     1     -23.266 -54.017  24.001  1.00  0.00     0.038 C 
BRANCH   7   8
ATOM      8  C   UNL     1     -22.126 -54.369  23.081  1.00  0.00    -0.034 C 
ATOM      9  C   UNL     1     -20.990 -53.667  23.063  1.00  0.00     0.004 C 
ENDBRANCH   7   8
ENDBRANCH   1   7
TORSDOF 4
ENDMDL
MODEL 4
REMARK VINA RESULT:    -3.862      3.000      4.208
REMARK INTER + INTRA:          -5.040
REMARK INTER:                  -4.539
REMARK INTRA:                  -0.500
REMARK UNBOUND:                -0.275
REMARK SMILES C=CC[C@H](C)C(=O)CC
REMARK SMILES IDX 4 1 5 2 6 3 7 4 8 5 9 6 3 7 2 8 1 9
REMARK H PARENT
REMARK Flexibility Score: inf
ROOT
ATOM      1  C   UNL     1     -26.542 -53.880  24.548  1.00  0.00     0.057 C 
ATOM      2  C   UNL     1     -27.027 -55.337  24.557  1.00  0.00     0.016 C 
ENDROOT
BRANCH   1   3
ATOM      3  C   UNL     1     -25.493 -53.682  25.632  1.00  0.00     0.135 C 
ATOM      4  O   UNL     1     -24.783 -52.689  25.576  1.00  0.00    -0.299 OA
BRANCH   3   5
ATOM      5  C   UNL     1     -25.258 -54.639  26.785  1.00  0.00     0.072 C 
ATOM      6  C   UNL     1     -26.069 -54.366  28.051  1.00  0.00     0.012 C 
ENDBRANCH   3   5
ENDBRANCH   1   3
BRANCH   1   7
ATOM      7  C   UNL     1     -27.707 -52.893  24.764  1.00  0.00     0.038 C 
BRANCH   7   8
ATOM      8  C   UNL     1     -28.793 -53.494  25.616  1.00  0.00    -0.034 C 
ATOM      9  C   UNL     1     -29.299 -52.850  26.673  1.00  0.00     0.004 C 
ENDBRANCH   7   8
ENDBRANCH   1   7
TORSDOF 4
ENDMDL
MODEL 5
REMARK VINA RESULT:    -3.855      2.186      4.338
REMARK INTER + INTRA:          -5.031
REMARK INTER:                  -4.612
REMARK INTRA:                  -0.419
REMARK UNBOUND:                -0.275
REMARK SMILES C=CC[C@H](C)C(=O)CC
REMARK SMILES IDX 4 1 5 2 6 3 7 4 8 5 9 6 3 7 2 8 1 9
REMARK H PARENT
REMARK Flexibility Score: inf
ROOT
ATOM      1  C   UNL     1     -20.578 -53.554  24.029  1.00  0.00     0.057 C 
ATOM      2  C   UNL     1     -20.084 -52.370  23.186  1.00  0.00     0.016 C 
ENDROOT
BRANCH   1   3
ATOM      3  C   UNL     1     -21.839 -54.137  23.408  1.00  0.00     0.135 C 
ATOM      4  O   UNL     1     -21.909 -54.198  22.189  1.00  0.00    -0.299 OA
BRANCH   3   5
ATOM      5  C   UNL     1     -23.028 -54.645  24.198  1.00  0.00     0.072 C 
ATOM      6  C   UNL     1     -23.048 -56.147  24.479  1.00  0.00     0.012 C 
ENDBRANCH   3   5
ENDBRANCH   1   3
BRANCH   1   7
ATOM      7  C   UNL     1     -20.861 -53.134  25.486  1.00  0.00     0.038 C 
BRANCH   7   8
ATOM      8  C   UNL     1     -20.038 -53.932  26.464  1.00  0.00    -0.034 C 
ATOM      9  C   UNL     1     -20.065 -55.267  26.485  1.00  0.00     0.004 C 
ENDBRANCH   7   8
ENDBRANCH   1   7
TORSDOF 4
ENDMDL
MODEL 6
REMARK VINA RESULT:    -3.849      3.574      4.947
REMARK INTER + INTRA:          -5.023
REMARK INTER:                  -4.550
REMARK INTRA:                  -0.473
REMARK UNBOUND:                -0.275
REMARK SMILES C=CC[C@H](C)C(=O)CC
REMARK SMILES IDX 4 1 5 2 6 3 7 4 8 5 9 6 3 7 2 8 1 9
REMARK H PARENT
REMARK Flexibility Score: inf
ROOT
ATOM      1  C   UNL     1     -27.960 -52.362  25.706  1.00  0.00     0.057 C 
ATOM      2  C   UNL     1     -29.222 -53.124  26.135  1.00  0.00     0.016 C 
ENDROOT
BRANCH   1   3
ATOM      3  C   UNL     1     -27.319 -53.059  24.515  1.00  0.00     0.135 C 
ATOM      4  O   UNL     1     -27.682 -52.739  23.393  1.00  0.00    -0.299 OA
BRANCH   3   5
ATOM      5  C   UNL     1     -26.257 -54.136  24.621  1.00  0.00     0.072 C 
ATOM      6  C   UNL     1     -26.770 -55.573  24.677  1.00  0.00     0.012 C 
ENDBRANCH   3   5
ENDBRANCH   1   3
BRANCH   1   7
ATOM      7  C   UNL     1     -26.941 -52.258  26.859  1.00  0.00     0.038 C 
BRANCH   7   8
ATOM      8  C   UNL     1     -27.313 -53.154  28.011  1.00  0.00    -0.034 C 
ATOM      9  C   UNL     1     -26.539 -54.174  28.390  1.00  0.00     0.004 C 
ENDBRANCH   7   8
ENDBRANCH   1   7
TORSDOF 4
ENDMDL
MODEL 7
REMARK VINA RESULT:    -3.842      3.069      4.759
REMARK INTER + INTRA:          -5.015
REMARK INTER:                  -4.516
REMARK INTRA:                  -0.499
REMARK UNBOUND:                -0.275
REMARK SMILES C=CC[C@H](C)C(=O)CC
REMARK SMILES IDX 4 1 5 2 6 3 7 4 8 5 9 6 3 7 2 8 1 9
REMARK H PARENT
REMARK Flexibility Score: inf
ROOT
ATOM      1  C   UNL     1     -26.094 -54.190  24.773  1.00  0.00     0.057 C 
ATOM      2  C   UNL     1     -25.017 -53.112  24.953  1.00  0.00     0.016 C 
ENDROOT
BRANCH   1   3
ATOM      3  C   UNL     1     -27.442 -53.532  24.518  1.00  0.00     0.135 C 
ATOM      4  O   UNL     1     -27.606 -52.939  23.462  1.00  0.00    -0.299 OA
BRANCH   3   5
ATOM      5  C   UNL     1     -28.605 -53.554  25.490  1.00  0.00     0.072 C 
ATOM      6  C   UNL     1     -28.684 -52.375  26.459  1.00  0.00     0.012 C 
ENDBRANCH   3   5
ENDBRANCH   1   3
BRANCH   1   7
ATOM      7  C   UNL     1     -26.188 -55.110  26.008  1.00  0.00     0.038 C 
BRANCH   7   8
ATOM      8  C   UNL     1     -25.476 -54.518  27.196  1.00  0.00    -0.034 C 
ATOM      9  C   UNL     1     -26.092 -54.331  28.367  1.00  0.00     0.004 C 
ENDBRANCH   7   8
ENDBRANCH   1   7
TORSDOF 4
ENDMDL
MODEL 8
REMARK VINA RESULT:    -3.806      9.550     11.015
REMARK INTER + INTRA:          -4.970
REMARK INTER:                  -4.670
REMARK INTRA:                  -0.300
REMARK UNBOUND:                -0.275
REMARK SMILES C=CC[C@H](C)C(=O)CC
REMARK SMILES IDX 4 1 5 2 6 3 7 4 8 5 9 6 3 7 2 8 1 9
REMARK H PARENT
REMARK Flexibility Score: inf
ROOT
ATOM      1  C   UNL     1     -29.231 -57.181  16.016  1.00  0.00     0.057 C 
ATOM      2  C   UNL     1     -27.779 -57.598  15.740  1.00  0.00     0.016 C 
ENDROOT
BRANCH   1   3
ATOM      3  C   UNL     1     -29.540 -57.351  17.496  1.00  0.00     0.135 C 
ATOM      4  O   UNL     1     -28.616 -57.276  18.293  1.00  0.00    -0.299 OA
BRANCH   3   5
ATOM      5  C   UNL     1     -30.923 -57.612  18.060  1.00  0.00     0.072 C 
ATOM      6  C   UNL     1     -31.125 -57.241  19.528  1.00  0.00     0.012 C 
ENDBRANCH   3   5
ENDBRANCH   1   3
BRANCH   1   7
ATOM      7  C   UNL     1     -30.228 -58.007  15.178  1.00  0.00     0.038 C 
BRANCH   7   8
ATOM      8  C   UNL     1     -29.693 -59.383  14.875  1.00  0.00    -0.034 C 
ATOM      9  C   UNL     1     -30.356 -60.490  15.222  1.00  0.00     0.004 C 
ENDBRANCH   7   8
ENDBRANCH   1   7
TORSDOF 4
ENDMDL
MODEL 9
REMARK VINA RESULT:    -3.775      2.744      4.338
REMARK INTER + INTRA:          -4.932
REMARK INTER:                  -4.653
REMARK INTRA:                  -0.279
REMARK UNBOUND:                -0.275
REMARK SMILES C=CC[C@H](C)C(=O)CC
REMARK SMILES IDX 4 1 5 2 6 3 7 4 8 5 9 6 3 7 2 8 1 9
REMARK H PARENT
REMARK Flexibility Score: inf
ROOT
ATOM      1  C   UNL     1     -27.221 -53.470  24.969  1.00  0.00     0.057 C 
ATOM      2  C   UNL     1     -27.272 -53.057  23.492  1.00  0.00     0.016 C 
ENDROOT
BRANCH   1   3
ATOM      3  C   UNL     1     -26.464 -54.783  25.109  1.00  0.00     0.135 C 
ATOM      4  O   UNL     1     -26.866 -55.752  24.482  1.00  0.00    -0.299 OA
BRANCH   3   5
ATOM      5  C   UNL     1     -25.240 -54.979  25.981  1.00  0.00     0.072 C 
ATOM      6  C   UNL     1     -23.947 -55.325  25.244  1.00  0.00     0.012 C 
ENDBRANCH   3   5
ENDBRANCH   1   3
BRANCH   1   7
ATOM      7  C   UNL     1     -28.635 -53.618  25.567  1.00  0.00     0.038 C 
BRANCH   7   8
ATOM      8  C   UNL     1     -28.796 -52.801  26.822  1.00  0.00    -0.034 C 
ATOM      9  C   UNL     1     -27.929 -51.841  27.155  1.00  0.00     0.004 C 
ENDBRANCH   7   8
ENDBRANCH   1   7
TORSDOF 4
ENDMDL
