MODEL 1
REMARK VINA RESULT:    -4.697      0.000      0.000
REMARK INTER + INTRA:          -5.913
REMARK INTER:                  -5.658
REMARK INTRA:                  -0.255
REMARK UNBOUND:                -0.255
REMARK SMILES [NH3+][C@@H](Cc1cnc[nH]1)C(=O)[O-]
REMARK SMILES IDX 3 1 2 2 1 3 9 7 10 8 11 9 4 10 5 11 8 12 6 13 7 14
REMARK H PARENT 1 4 1 5 1 6 8 15
REMARK Flexibility Score: inf
ROOT
ATOM      1  C   UNL     1     -15.951 -27.891 -13.284  1.00  0.00     0.127 C 
ENDROOT
BRANCH   1   2
ATOM      2  C   UNL     1     -14.588 -27.172 -13.306  1.00  0.00     0.233 C 
BRANCH   2   3
ATOM      3  N   UNL     1     -14.622 -25.980 -12.451  1.00  0.00    -0.350 N 
ATOM      4  H   UNL     1     -14.272 -26.220 -11.495  1.00  0.00     0.345 HD
ATOM      5  H   UNL     1     -15.596 -25.606 -12.374  1.00  0.00     0.345 HD
ATOM      6  H   UNL     1     -13.999 -25.238 -12.849  1.00  0.00     0.345 HD
ENDBRANCH   2   3
BRANCH   2   7
ATOM      7  C   UNL     1     -14.196 -26.794 -14.712  1.00  0.00     0.099 C 
ATOM      8  O   UNL     1     -13.852 -27.678 -15.539  1.00  0.00    -0.544 OA
ATOM      9  O   UNL     1     -14.194 -25.458 -15.095  1.00  0.00    -0.544 OA
ENDBRANCH   2   7
ENDBRANCH   1   2
BRANCH   1  10
ATOM     10  C   UNL     1     -15.790 -29.382 -13.329  1.00  0.00     0.041 A 
ATOM     11  C   UNL     1     -16.755 -30.321 -13.044  1.00  0.00     0.134 A 
ATOM     12  N   UNL     1     -14.680 -30.016 -13.738  1.00  0.00    -0.348 N 
ATOM     13  N   UNL     1     -16.250 -31.552 -13.261  1.00  0.00    -0.245 NA
ATOM     14  C   UNL     1     -14.986 -31.326 -13.681  1.00  0.00     0.196 A 
ATOM     15  H   UNL     1     -13.778 -29.591 -14.045  1.00  0.00     0.167 HD
ENDBRANCH   1  10
TORSDOF 4
ENDMDL
MODEL 2
REMARK VINA RESULT:    -4.665      1.803      2.079
REMARK INTER + INTRA:          -5.875
REMARK INTER:                  -5.708
REMARK INTRA:                  -0.167
REMARK UNBOUND:                -0.255
REMARK SMILES [NH3+][C@@H](Cc1cnc[nH]1)C(=O)[O-]
REMARK SMILES IDX 3 1 2 2 1 3 9 7 10 8 11 9 4 10 5 11 8 12 6 13 7 14
REMARK H PARENT 1 4 1 5 1 6 8 15
REMARK Flexibility Score: inf
ROOT
ATOM      1  C   UNL     1     -13.780 -28.817 -13.577  1.00  0.00     0.127 C 
ENDROOT
BRANCH   1   2
ATOM      2  C   UNL     1     -14.511 -27.727 -14.385  1.00  0.00     0.233 C 
BRANCH   2   3
ATOM      3  N   UNL     1     -13.675 -27.267 -15.501  1.00  0.00    -0.350 N 
ATOM      4  H   UNL     1     -14.210 -26.586 -16.086  1.00  0.00     0.345 HD
ATOM      5  H   UNL     1     -13.379 -28.073 -16.098  1.00  0.00     0.345 HD
ATOM      6  H   UNL     1     -12.824 -26.782 -15.131  1.00  0.00     0.345 HD
ENDBRANCH   2   3
BRANCH   2   7
ATOM      7  C   UNL     1     -14.893 -26.564 -13.506  1.00  0.00     0.099 C 
ATOM      8  O   UNL     1     -15.287 -25.481 -14.014  1.00  0.00    -0.544 OA
ATOM      9  O   UNL     1     -14.792 -26.676 -12.125  1.00  0.00    -0.544 OA
ENDBRANCH   2   7
ENDBRANCH   1   2
BRANCH   1  10
ATOM     10  C   UNL     1     -14.502 -30.131 -13.642  1.00  0.00     0.041 A 
ATOM     11  C   UNL     1     -15.614 -30.493 -12.915  1.00  0.00     0.134 A 
ATOM     12  N   UNL     1     -14.202 -31.124 -14.493  1.00  0.00    -0.348 N 
ATOM     13  N   UNL     1     -16.010 -31.723 -13.300  1.00  0.00    -0.245 NA
ATOM     14  C   UNL     1     -15.126 -32.074 -14.259  1.00  0.00     0.196 A 
ATOM     15  H   UNL     1     -13.429 -31.153 -15.193  1.00  0.00     0.167 HD
ENDBRANCH   1  10
TORSDOF 4
ENDMDL
MODEL 3
REMARK VINA RESULT:    -4.551      1.863      2.325
REMARK INTER + INTRA:          -5.737
REMARK INTER:                  -5.578
REMARK INTRA:                  -0.159
REMARK UNBOUND:                -0.255
REMARK SMILES [NH3+][C@@H](Cc1cnc[nH]1)C(=O)[O-]
REMARK SMILES IDX 3 1 2 2 1 3 9 7 10 8 11 9 4 10 5 11 8 12 6 13 7 14
REMARK H PARENT 1 4 1 5 1 6 8 15
REMARK Flexibility Score: inf
ROOT
ATOM      1  C   UNL     1     -13.750 -28.844 -13.543  1.00  0.00     0.127 C 
ENDROOT
BRANCH   1   2
ATOM      2  C   UNL     1     -14.542 -27.787 -14.338  1.00  0.00     0.233 C 
BRANCH   2   3
ATOM      3  N   UNL     1     -13.774 -27.341 -15.507  1.00  0.00    -0.350 N 
ATOM      4  H   UNL     1     -12.751 -27.409 -15.304  1.00  0.00     0.345 HD
ATOM      5  H   UNL     1     -14.010 -26.352 -15.750  1.00  0.00     0.345 HD
ATOM      6  H   UNL     1     -13.985 -27.957 -16.327  1.00  0.00     0.345 HD
ENDBRANCH   2   3
BRANCH   2   7
ATOM      7  C   UNL     1     -14.899 -26.608 -13.469  1.00  0.00     0.099 C 
ATOM      8  O   UNL     1     -15.294 -25.529 -13.985  1.00  0.00    -0.544 OA
ATOM      9  O   UNL     1     -14.773 -26.702 -12.088  1.00  0.00    -0.544 OA
ENDBRANCH   2   7
ENDBRANCH   1   2
BRANCH   1  10
ATOM     10  C   UNL     1     -14.421 -30.185 -13.588  1.00  0.00     0.041 A 
ATOM     11  C   UNL     1     -13.799 -31.413 -13.588  1.00  0.00     0.134 A 
ATOM     12  N   UNL     1     -15.749 -30.375 -13.554  1.00  0.00    -0.348 N 
ATOM     13  N   UNL     1     -14.738 -32.382 -13.567  1.00  0.00    -0.245 NA
ATOM     14  C   UNL     1     -15.910 -31.711 -13.549  1.00  0.00     0.196 A 
ATOM     15  H   UNL     1     -16.497 -29.647 -13.527  1.00  0.00     0.167 HD
ENDBRANCH   1  10
TORSDOF 4
ENDMDL
MODEL 4
REMARK VINA RESULT:    -4.401      3.855      5.346
REMARK INTER + INTRA:          -5.556
REMARK INTER:                  -5.408
REMARK INTRA:                  -0.148
REMARK UNBOUND:                -0.255
REMARK SMILES [NH3+][C@@H](Cc1cnc[nH]1)C(=O)[O-]
REMARK SMILES IDX 3 1 2 2 1 3 9 7 10 8 11 9 4 10 5 11 8 12 6 13 7 14
REMARK H PARENT 1 4 1 5 1 6 8 15
REMARK Flexibility Score: inf
ROOT
ATOM      1  C   UNL     1     -16.209 -31.453 -13.081  1.00  0.00     0.127 C 
ENDROOT
BRANCH   1   2
ATOM      2  C   UNL     1     -15.079 -32.314 -13.679  1.00  0.00     0.233 C 
BRANCH   2   3
ATOM      3  N   UNL     1     -14.912 -32.022 -15.108  1.00  0.00    -0.350 N 
ATOM      4  H   UNL     1     -14.158 -31.309 -15.238  1.00  0.00     0.345 HD
ATOM      5  H   UNL     1     -15.802 -31.656 -15.517  1.00  0.00     0.345 HD
ATOM      6  H   UNL     1     -14.630 -32.891 -15.618  1.00  0.00     0.345 HD
ENDBRANCH   2   3
BRANCH   2   7
ATOM      7  C   UNL     1     -15.349 -33.783 -13.476  1.00  0.00     0.099 C 
ATOM      8  O   UNL     1     -16.501 -34.254 -13.670  1.00  0.00    -0.544 OA
ATOM      9  O   UNL     1     -14.328 -34.624 -13.050  1.00  0.00    -0.544 OA
ENDBRANCH   2   7
ENDBRANCH   1   2
BRANCH   1  10
ATOM     10  C   UNL     1     -15.831 -30.002 -13.032  1.00  0.00     0.041 A 
ATOM     11  C   UNL     1     -14.667 -29.474 -12.519  1.00  0.00     0.134 A 
ATOM     12  N   UNL     1     -16.557 -29.007 -13.563  1.00  0.00    -0.348 N 
ATOM     13  N   UNL     1     -14.664 -28.140 -12.716  1.00  0.00    -0.245 NA
ATOM     14  C   UNL     1     -15.830 -27.894 -13.353  1.00  0.00     0.196 A 
ATOM     15  H   UNL     1     -17.480 -29.078 -14.046  1.00  0.00     0.167 HD
ENDBRANCH   1  10
TORSDOF 4
ENDMDL
MODEL 5
REMARK VINA RESULT:    -4.396      2.771      3.586
REMARK INTER + INTRA:          -5.551
REMARK INTER:                  -5.349
REMARK INTRA:                  -0.202
REMARK UNBOUND:                -0.255
REMARK SMILES [NH3+][C@@H](Cc1cnc[nH]1)C(=O)[O-]
REMARK SMILES IDX 3 1 2 2 1 3 9 7 10 8 11 9 4 10 5 11 8 12 6 13 7 14
REMARK H PARENT 1 4 1 5 1 6 8 15
REMARK Flexibility Score: inf
ROOT
ATOM      1  C   UNL     1     -12.969 -27.492 -13.365  1.00  0.00     0.127 C 
ENDROOT
BRANCH   1   2
ATOM      2  C   UNL     1     -14.168 -27.998 -14.192  1.00  0.00     0.233 C 
BRANCH   2   3
ATOM      3  N   UNL     1     -13.934 -27.778 -15.624  1.00  0.00    -0.350 N 
ATOM      4  H   UNL     1     -12.923 -27.568 -15.789  1.00  0.00     0.345 HD
ATOM      5  H   UNL     1     -14.511 -26.979 -15.975  1.00  0.00     0.345 HD
ATOM      6  H   UNL     1     -14.179 -28.642 -16.161  1.00  0.00     0.345 HD
ENDBRANCH   2   3
BRANCH   2   7
ATOM      7  C   UNL     1     -15.446 -27.323 -13.763  1.00  0.00     0.099 C 
ATOM      8  O   UNL     1     -16.455 -28.007 -13.447  1.00  0.00    -0.544 OA
ATOM      9  O   UNL     1     -15.521 -25.935 -13.735  1.00  0.00    -0.544 OA
ENDBRANCH   2   7
ENDBRANCH   1   2
BRANCH   1  10
ATOM     10  C   UNL     1     -12.952 -28.095 -11.991  1.00  0.00     0.041 A 
ATOM     11  C   UNL     1     -12.965 -29.436 -11.683  1.00  0.00     0.134 A 
ATOM     12  N   UNL     1     -12.841 -27.393 -10.853  1.00  0.00    -0.348 N 
ATOM     13  N   UNL     1     -12.875 -29.582 -10.346  1.00  0.00    -0.245 NA
ATOM     14  C   UNL     1     -12.802 -28.318  -9.876  1.00  0.00     0.196 A 
ATOM     15  H   UNL     1     -12.784 -26.357 -10.744  1.00  0.00     0.167 HD
ENDBRANCH   1  10
TORSDOF 4
ENDMDL
MODEL 6
REMARK VINA RESULT:    -4.305      3.098      4.885
REMARK INTER + INTRA:          -5.441
REMARK INTER:                  -5.130
REMARK INTRA:                  -0.311
REMARK UNBOUND:                -0.255
REMARK SMILES [NH3+][C@@H](Cc1cnc[nH]1)C(=O)[O-]
REMARK SMILES IDX 3 1 2 2 1 3 9 7 10 8 11 9 4 10 5 11 8 12 6 13 7 14
REMARK H PARENT 1 4 1 5 1 6 8 15
REMARK Flexibility Score: inf
ROOT
ATOM      1  C   UNL     1     -15.875 -30.392 -13.106  1.00  0.00     0.127 C 
ENDROOT
BRANCH   1   2
ATOM      2  C   UNL     1     -14.783 -31.345 -13.633  1.00  0.00     0.233 C 
BRANCH   2   3
ATOM      3  N   UNL     1     -15.281 -32.111 -14.782  1.00  0.00    -0.350 N 
ATOM      4  H   UNL     1     -14.490 -32.329 -15.431  1.00  0.00     0.345 HD
ATOM      5  H   UNL     1     -16.009 -31.568 -15.301  1.00  0.00     0.345 HD
ATOM      6  H   UNL     1     -15.693 -33.015 -14.455  1.00  0.00     0.345 HD
ENDBRANCH   2   3
BRANCH   2   7
ATOM      7  C   UNL     1     -14.310 -32.280 -12.549  1.00  0.00     0.099 C 
ATOM      8  O   UNL     1     -13.877 -31.827 -11.458  1.00  0.00    -0.544 OA
ATOM      9  O   UNL     1     -14.331 -33.654 -12.761  1.00  0.00    -0.544 OA
ENDBRANCH   2   7
ENDBRANCH   1   2
BRANCH   1  10
ATOM     10  C   UNL     1     -15.344 -29.003 -12.903  1.00  0.00     0.041 A 
ATOM     11  C   UNL     1     -15.965 -27.828 -13.259  1.00  0.00     0.134 A 
ATOM     12  N   UNL     1     -14.202 -28.711 -12.262  1.00  0.00    -0.348 N 
ATOM     13  N   UNL     1     -15.207 -26.789 -12.853  1.00  0.00    -0.245 NA
ATOM     14  C   UNL     1     -14.143 -27.366 -12.252  1.00  0.00     0.196 A 
ATOM     15  H   UNL     1     -13.513 -29.377 -11.849  1.00  0.00     0.167 HD
ENDBRANCH   1  10
TORSDOF 4
ENDMDL
MODEL 7
REMARK VINA RESULT:    -4.273      2.774      4.505
REMARK INTER + INTRA:          -5.402
REMARK INTER:                  -5.211
REMARK INTRA:                  -0.191
REMARK UNBOUND:                -0.255
REMARK SMILES [NH3+][C@@H](Cc1cnc[nH]1)C(=O)[O-]
REMARK SMILES IDX 3 1 2 2 1 3 9 7 10 8 11 9 4 10 5 11 8 12 6 13 7 14
REMARK H PARENT 1 4 1 5 1 6 8 15
REMARK Flexibility Score: inf
ROOT
ATOM      1  C   UNL     1     -13.798 -30.474 -13.511  1.00  0.00     0.127 C 
ENDROOT
BRANCH   1   2
ATOM      2  C   UNL     1     -14.847 -30.956 -12.489  1.00  0.00     0.233 C 
BRANCH   2   3
ATOM      3  N   UNL     1     -14.350 -32.127 -11.756  1.00  0.00    -0.350 N 
ATOM      4  H   UNL     1     -14.891 -32.245 -10.870  1.00  0.00     0.345 HD
ATOM      5  H   UNL     1     -13.336 -32.016 -11.525  1.00  0.00     0.345 HD
ATOM      6  H   UNL     1     -14.479 -32.989 -12.335  1.00  0.00     0.345 HD
ENDBRANCH   2   3
BRANCH   2   7
ATOM      7  C   UNL     1     -16.154 -31.280 -13.165  1.00  0.00     0.099 C 
ATOM      8  O   UNL     1     -16.307 -32.373 -13.771  1.00  0.00    -0.544 OA
ATOM      9  O   UNL     1     -17.195 -30.359 -13.139  1.00  0.00    -0.544 OA
ENDBRANCH   2   7
ENDBRANCH   1   2
BRANCH   1  10
ATOM     10  C   UNL     1     -14.029 -29.045 -13.908  1.00  0.00     0.041 A 
ATOM     11  C   UNL     1     -14.402 -28.013 -13.078  1.00  0.00     0.134 A 
ATOM     12  N   UNL     1     -13.824 -28.554 -15.140  1.00  0.00    -0.348 N 
ATOM     13  N   UNL     1     -14.445 -26.869 -13.789  1.00  0.00    -0.245 NA
ATOM     14  C   UNL     1     -14.088 -27.238 -15.038  1.00  0.00     0.196 A 
ATOM     15  H   UNL     1     -13.515 -29.073 -15.991  1.00  0.00     0.167 HD
ENDBRANCH   1  10
TORSDOF 4
ENDMDL
MODEL 8
REMARK VINA RESULT:    -4.267      2.405      2.692
REMARK INTER + INTRA:          -5.395
REMARK INTER:                  -5.108
REMARK INTRA:                  -0.287
REMARK UNBOUND:                -0.255
REMARK SMILES [NH3+][C@@H](Cc1cnc[nH]1)C(=O)[O-]
REMARK SMILES IDX 3 1 2 2 1 3 9 7 10 8 11 9 4 10 5 11 8 12 6 13 7 14
REMARK H PARENT 1 4 1 5 1 6 8 15
REMARK Flexibility Score: inf
ROOT
ATOM      1  C   UNL     1     -13.159 -28.047 -12.923  1.00  0.00     0.127 C 
ENDROOT
BRANCH   1   2
ATOM      2  C   UNL     1     -14.043 -27.779 -14.157  1.00  0.00     0.233 C 
BRANCH   2   3
ATOM      3  N   UNL     1     -13.256 -27.152 -15.226  1.00  0.00    -0.350 N 
ATOM      4  H   UNL     1     -13.854 -27.020 -16.074  1.00  0.00     0.345 HD
ATOM      5  H   UNL     1     -12.433 -27.747 -15.478  1.00  0.00     0.345 HD
ATOM      6  H   UNL     1     -12.919 -26.211 -14.915  1.00  0.00     0.345 HD
ENDBRANCH   2   3
BRANCH   2   7
ATOM      7  C   UNL     1     -15.223 -26.912 -13.801  1.00  0.00     0.099 C 
ATOM      8  O   UNL     1     -16.252 -27.416 -13.277  1.00  0.00    -0.544 OA
ATOM      9  O   UNL     1     -15.189 -25.549 -14.072  1.00  0.00    -0.544 OA
ENDBRANCH   2   7
ENDBRANCH   1   2
BRANCH   1  10
ATOM     10  C   UNL     1     -13.458 -29.383 -12.308  1.00  0.00     0.041 A 
ATOM     11  C   UNL     1     -12.753 -29.998 -11.300  1.00  0.00     0.134 A 
ATOM     12  N   UNL     1     -14.524 -30.139 -12.611  1.00  0.00    -0.348 N 
ATOM     13  N   UNL     1     -13.368 -31.153 -10.973  1.00  0.00    -0.245 NA
ATOM     14  C   UNL     1     -14.440 -31.204 -11.794  1.00  0.00     0.196 A 
ATOM     15  H   UNL     1     -15.267 -29.942 -13.319  1.00  0.00     0.167 HD
ENDBRANCH   1  10
TORSDOF 4
ENDMDL
MODEL 9
REMARK VINA RESULT:    -4.188      2.737      3.835
REMARK INTER + INTRA:          -5.300
REMARK INTER:                  -5.136
REMARK INTRA:                  -0.164
REMARK UNBOUND:                -0.255
REMARK SMILES [NH3+][C@@H](Cc1cnc[nH]1)C(=O)[O-]
REMARK SMILES IDX 3 1 2 2 1 3 9 7 10 8 11 9 4 10 5 11 8 12 6 13 7 14
REMARK H PARENT 1 4 1 5 1 6 8 15
REMARK Flexibility Score: inf
ROOT
ATOM      1  C   UNL     1     -14.868 -31.621 -12.122  1.00  0.00     0.127 C 
ENDROOT
BRANCH   1   2
ATOM      2  C   UNL     1     -14.769 -30.321 -12.945  1.00  0.00     0.233 C 
BRANCH   2   3
ATOM      3  N   UNL     1     -13.805 -29.399 -12.333  1.00  0.00    -0.350 N 
ATOM      4  H   UNL     1     -14.238 -28.453 -12.229  1.00  0.00     0.345 HD
ATOM      5  H   UNL     1     -12.945 -29.317 -12.923  1.00  0.00     0.345 HD
ATOM      6  H   UNL     1     -13.539 -29.742 -11.381  1.00  0.00     0.345 HD
ENDBRANCH   2   3
BRANCH   2   7
ATOM      7  C   UNL     1     -16.116 -29.657 -13.075  1.00  0.00     0.099 C 
ATOM      8  O   UNL     1     -17.169 -30.347 -13.103  1.00  0.00    -0.544 OA
ATOM      9  O   UNL     1     -16.199 -28.274 -13.186  1.00  0.00    -0.544 OA
ENDBRANCH   2   7
ENDBRANCH   1   2
BRANCH   1  10
ATOM     10  C   UNL     1     -14.783 -32.837 -12.998  1.00  0.00     0.041 A 
ATOM     11  C   UNL     1     -14.580 -32.854 -14.359  1.00  0.00     0.134 A 
ATOM     12  N   UNL     1     -14.817 -34.101 -12.552  1.00  0.00    -0.348 N 
ATOM     13  N   UNL     1     -14.497 -34.134 -14.776  1.00  0.00    -0.245 NA
ATOM     14  C   UNL     1     -14.648 -34.863 -13.648  1.00  0.00     0.196 A 
ATOM     15  H   UNL     1     -14.937 -34.428 -11.567  1.00  0.00     0.167 HD
ENDBRANCH   1  10
TORSDOF 4
ENDMDL
