MODEL 1
REMARK VINA RESULT:    -5.831      0.000      0.000
REMARK INTER + INTRA:         -17.630
REMARK INTER:                 -13.331
REMARK INTRA:                  -4.299
REMARK UNBOUND:                -4.299
REMARK SMILES CCCCCCCCCCCCCCCCCCCCCCCC(=O)[O-]
REMARK SMILES IDX 13 1 14 2 15 3 16 4 17 5 18 6 19 7 20 8 21 9 22 10 23 11
REMARK SMILES IDX 24 12 25 13 26 14 12 15 11 16 10 17 9 18 8 19 7 20 6 21 5 22
REMARK SMILES IDX 4 23 3 24 2 25 1 26
REMARK H PARENT
REMARK Flexibility Score: inf
ROOT
ATOM      1  C   UNL     1     218.396  -8.028  29.179  1.00  0.00     0.000 C 
ENDROOT
BRANCH   1   2
ATOM      2  C   UNL     1     219.164  -8.599  30.383  1.00  0.00     0.000 C 
BRANCH   2   3
ATOM      3  C   UNL     1     219.377 -10.118  30.281  1.00  0.00     0.000 C 
BRANCH   3   4
ATOM      4  C   UNL     1     220.668 -10.582  30.974  1.00  0.00     0.000 C 
BRANCH   4   5
ATOM      5  C   UNL     1     221.906 -10.103  30.202  1.00  0.00     0.000 C 
BRANCH   5   6
ATOM      6  C   UNL     1     222.144 -10.893  28.903  1.00  0.00     0.000 C 
BRANCH   6   7
ATOM      7  C   UNL     1     221.675 -10.187  27.614  1.00  0.00     0.000 C 
BRANCH   7   8
ATOM      8  C   UNL     1     222.464  -8.919  27.241  1.00  0.00     0.000 C 
BRANCH   8   9
ATOM      9  C   UNL     1     221.836  -7.637  27.809  1.00  0.00     0.000 C 
BRANCH   9  10
ATOM     10  C   UNL     1     222.836  -6.875  28.683  1.00  0.00     0.006 C 
BRANCH  10  11
ATOM     11  C   UNL     1     224.223  -7.523  28.625  1.00  0.00     0.053 C 
BRANCH  11  12
ATOM     12  C   UNL     1     225.291  -6.476  28.616  1.00  0.00     0.041 C 
ATOM     13  O   UNL     1     224.983  -5.255  28.614  1.00  0.00    -0.550 OA
ATOM     14  O   UNL     1     226.628  -6.848  28.561  1.00  0.00    -0.550 OA
ENDBRANCH  11  12
ENDBRANCH  10  11
ENDBRANCH   9  10
ENDBRANCH   8   9
ENDBRANCH   7   8
ENDBRANCH   6   7
ENDBRANCH   5   6
ENDBRANCH   4   5
ENDBRANCH   3   4
ENDBRANCH   2   3
ENDBRANCH   1   2
BRANCH   1  15
ATOM     15  C   UNL     1     217.851  -9.125  28.252  1.00  0.00     0.000 C 
BRANCH  15  16
ATOM     16  C   UNL     1     217.857  -8.703  26.772  1.00  0.00     0.000 C 
BRANCH  16  17
ATOM     17  C   UNL     1     218.266  -7.234  26.581  1.00  0.00     0.000 C 
BRANCH  17  18
ATOM     18  C   UNL     1     218.553  -6.890  25.109  1.00  0.00    -0.000 C 
BRANCH  18  19
ATOM     19  C   UNL     1     220.015  -6.473  24.866  1.00  0.00    -0.000 C 
BRANCH  19  20
ATOM     20  C   UNL     1     220.644  -7.033  23.577  1.00  0.00    -0.000 C 
BRANCH  20  21
ATOM     21  C   UNL     1     221.689  -8.126  23.845  1.00  0.00    -0.000 C 
BRANCH  21  22
ATOM     22  C   UNL     1     221.206  -9.488  23.325  1.00  0.00    -0.000 C 
BRANCH  22  23
ATOM     23  C   UNL     1     220.253 -10.190  24.306  1.00  0.00    -0.000 C 
BRANCH  23  24
ATOM     24  C   UNL     1     219.162 -11.006  23.589  1.00  0.00    -0.000 C 
BRANCH  24  25
ATOM     25  C   UNL     1     217.821 -10.261  23.522  1.00  0.00    -0.003 C 
ATOM     26  C   UNL     1     217.781  -9.215  22.408  1.00  0.00     0.004 C 
ENDBRANCH  24  25
ENDBRANCH  23  24
ENDBRANCH  22  23
ENDBRANCH  21  22
ENDBRANCH  20  21
ENDBRANCH  19  20
ENDBRANCH  18  19
ENDBRANCH  17  18
ENDBRANCH  16  17
ENDBRANCH  15  16
ENDBRANCH   1  15
TORSDOF 22
ENDMDL
MODEL 2
REMARK VINA RESULT:    -5.831      3.072      6.653
REMARK INTER + INTRA:         -17.629
REMARK INTER:                 -13.840
REMARK INTRA:                  -3.789
REMARK UNBOUND:                -4.299
REMARK SMILES CCCCCCCCCCCCCCCCCCCCCCCC(=O)[O-]
REMARK SMILES IDX 13 1 14 2 15 3 16 4 17 5 18 6 19 7 20 8 21 9 22 10 23 11
REMARK SMILES IDX 24 12 25 13 26 14 12 15 11 16 10 17 9 18 8 19 7 20 6 21 5 22
REMARK SMILES IDX 4 23 3 24 2 25 1 26
REMARK H PARENT
REMARK Flexibility Score: inf
ROOT
ATOM      1  C   UNL     1     217.712  -8.901  27.771  1.00  0.00     0.000 C 
ENDROOT
BRANCH   1   2
ATOM      2  C   UNL     1     218.335  -8.694  26.380  1.00  0.00     0.000 C 
BRANCH   2   3
ATOM      3  C   UNL     1     217.477  -7.793  25.476  1.00  0.00     0.000 C 
BRANCH   3   4
ATOM      4  C   UNL     1     218.325  -6.877  24.580  1.00  0.00     0.000 C 
BRANCH   4   5
ATOM      5  C   UNL     1     219.764  -6.774  25.106  1.00  0.00     0.000 C 
BRANCH   5   6
ATOM      6  C   UNL     1     220.813  -6.774  23.980  1.00  0.00     0.000 C 
BRANCH   6   7
ATOM      7  C   UNL     1     221.787  -7.969  23.995  1.00  0.00     0.000 C 
BRANCH   7   8
ATOM      8  C   UNL     1     221.885  -8.748  22.670  1.00  0.00     0.000 C 
BRANCH   8   9
ATOM      9  C   UNL     1     221.011  -8.145  21.560  1.00  0.00     0.000 C 
BRANCH   9  10
ATOM     10  C   UNL     1     220.028  -9.184  21.010  1.00  0.00     0.006 C 
BRANCH  10  11
ATOM     11  C   UNL     1     218.608  -8.922  21.521  1.00  0.00     0.053 C 
BRANCH  11  12
ATOM     12  C   UNL     1     218.219  -9.948  22.538  1.00  0.00     0.041 C 
ATOM     13  O   UNL     1     217.003 -10.167  22.784  1.00  0.00    -0.550 OA
ATOM     14  O   UNL     1     219.198 -10.628  23.250  1.00  0.00    -0.550 OA
ENDBRANCH  11  12
ENDBRANCH  10  11
ENDBRANCH   9  10
ENDBRANCH   8   9
ENDBRANCH   7   8
ENDBRANCH   6   7
ENDBRANCH   5   6
ENDBRANCH   4   5
ENDBRANCH   3   4
ENDBRANCH   2   3
ENDBRANCH   1   2
BRANCH   1  15
ATOM     15  C   UNL     1     218.540  -8.252  28.891  1.00  0.00     0.000 C 
BRANCH  15  16
ATOM     16  C   UNL     1     218.487  -9.054  30.203  1.00  0.00     0.000 C 
BRANCH  16  17
ATOM     17  C   UNL     1     219.452 -10.250  30.201  1.00  0.00     0.000 C 
BRANCH  17  18
ATOM     18  C   UNL     1     220.498 -10.165  31.326  1.00  0.00    -0.000 C 
BRANCH  18  19
ATOM     19  C   UNL     1     221.862  -9.644  30.838  1.00  0.00    -0.000 C 
BRANCH  19  20
ATOM     20  C   UNL     1     222.018  -8.113  30.855  1.00  0.00    -0.000 C 
BRANCH  20  21
ATOM     21  C   UNL     1     223.373  -7.640  30.309  1.00  0.00    -0.000 C 
BRANCH  21  22
ATOM     22  C   UNL     1     223.212  -6.975  28.934  1.00  0.00    -0.000 C 
BRANCH  22  23
ATOM     23  C   UNL     1     222.091  -7.612  28.099  1.00  0.00    -0.000 C 
BRANCH  23  24
ATOM     24  C   UNL     1     222.595  -8.771  27.219  1.00  0.00    -0.000 C 
BRANCH  24  25
ATOM     25  C   UNL     1     221.603  -9.942  27.165  1.00  0.00    -0.003 C 
ATOM     26  C   UNL     1     222.031 -11.033  26.184  1.00  0.00     0.004 C 
ENDBRANCH  24  25
ENDBRANCH  23  24
ENDBRANCH  22  23
ENDBRANCH  21  22
ENDBRANCH  20  21
ENDBRANCH  19  20
ENDBRANCH  18  19
ENDBRANCH  17  18
ENDBRANCH  16  17
ENDBRANCH  15  16
ENDBRANCH   1  15
TORSDOF 22
ENDMDL
MODEL 3
REMARK VINA RESULT:    -5.704      1.926      2.682
REMARK INTER + INTRA:         -17.340
REMARK INTER:                 -13.226
REMARK INTRA:                  -4.114
REMARK UNBOUND:                -4.299
REMARK SMILES CCCCCCCCCCCCCCCCCCCCCCCC(=O)[O-]
REMARK SMILES IDX 13 1 14 2 15 3 16 4 17 5 18 6 19 7 20 8 21 9 22 10 23 11
REMARK SMILES IDX 24 12 25 13 26 14 12 15 11 16 10 17 9 18 8 19 7 20 6 21 5 22
REMARK SMILES IDX 4 23 3 24 2 25 1 26
REMARK H PARENT
REMARK Flexibility Score: inf
ROOT
ATOM      1  C   UNL     1     217.515  -9.343  28.507  1.00  0.00     0.000 C 
ENDROOT
BRANCH   1   2
ATOM      2  C   UNL     1     218.412  -8.260  29.132  1.00  0.00     0.000 C 
BRANCH   2   3
ATOM      3  C   UNL     1     218.634  -8.474  30.638  1.00  0.00     0.000 C 
BRANCH   3   4
ATOM      4  C   UNL     1     218.994  -9.928  30.982  1.00  0.00     0.000 C 
BRANCH   4   5
ATOM      5  C   UNL     1     220.382 -10.292  30.437  1.00  0.00     0.000 C 
BRANCH   5   6
ATOM      6  C   UNL     1     221.528  -9.773  31.324  1.00  0.00     0.000 C 
BRANCH   6   7
ATOM      7  C   UNL     1     221.855  -8.275  31.159  1.00  0.00     0.000 C 
BRANCH   7   8
ATOM      8  C   UNL     1     222.719  -7.928  29.933  1.00  0.00     0.000 C 
BRANCH   8   9
ATOM      9  C   UNL     1     221.886  -7.453  28.732  1.00  0.00     0.000 C 
BRANCH   9  10
ATOM     10  C   UNL     1     222.312  -8.174  27.449  1.00  0.00     0.006 C 
BRANCH  10  11
ATOM     11  C   UNL     1     221.460  -9.425  27.213  1.00  0.00     0.053 C 
BRANCH  11  12
ATOM     12  C   UNL     1     222.308 -10.656  27.278  1.00  0.00     0.041 C 
ATOM     13  O   UNL     1     222.205 -11.544  26.391  1.00  0.00    -0.550 OA
ATOM     14  O   UNL     1     223.175 -10.847  28.346  1.00  0.00    -0.550 OA
ENDBRANCH  11  12
ENDBRANCH  10  11
ENDBRANCH   9  10
ENDBRANCH   8   9
ENDBRANCH   7   8
ENDBRANCH   6   7
ENDBRANCH   5   6
ENDBRANCH   4   5
ENDBRANCH   3   4
ENDBRANCH   2   3
ENDBRANCH   1   2
BRANCH   1  15
ATOM     15  C   UNL     1     217.174  -9.051  27.038  1.00  0.00     0.000 C 
BRANCH  15  16
ATOM     16  C   UNL     1     218.052  -7.937  26.439  1.00  0.00     0.000 C 
BRANCH  16  17
ATOM     17  C   UNL     1     217.505  -7.412  25.102  1.00  0.00     0.000 C 
BRANCH  17  18
ATOM     18  C   UNL     1     218.567  -6.648  24.292  1.00  0.00    -0.000 C 
BRANCH  18  19
ATOM     19  C   UNL     1     219.946  -6.633  24.976  1.00  0.00    -0.000 C 
BRANCH  19  20
ATOM     20  C   UNL     1     221.097  -7.208  24.131  1.00  0.00    -0.000 C 
BRANCH  20  21
ATOM     21  C   UNL     1     220.684  -7.517  22.684  1.00  0.00    -0.000 C 
BRANCH  21  22
ATOM     22  C   UNL     1     220.767  -9.024  22.397  1.00  0.00    -0.000 C 
BRANCH  22  23
ATOM     23  C   UNL     1     220.840  -9.865  23.681  1.00  0.00    -0.000 C 
BRANCH  23  24
ATOM     24  C   UNL     1     219.464 -10.404  24.113  1.00  0.00    -0.000 C 
BRANCH  24  25
ATOM     25  C   UNL     1     218.618 -10.878  22.922  1.00  0.00    -0.003 C 
ATOM     26  C   UNL     1     217.323 -10.083  22.764  1.00  0.00     0.004 C 
ENDBRANCH  24  25
ENDBRANCH  23  24
ENDBRANCH  22  23
ENDBRANCH  21  22
ENDBRANCH  20  21
ENDBRANCH  19  20
ENDBRANCH  18  19
ENDBRANCH  17  18
ENDBRANCH  16  17
ENDBRANCH  15  16
ENDBRANCH   1  15
TORSDOF 22
ENDMDL
MODEL 4
REMARK VINA RESULT:    -5.678      2.228      6.440
REMARK INTER + INTRA:         -17.279
REMARK INTER:                 -12.952
REMARK INTRA:                  -4.327
REMARK UNBOUND:                -4.299
REMARK SMILES CCCCCCCCCCCCCCCCCCCCCCCC(=O)[O-]
REMARK SMILES IDX 13 1 14 2 15 3 16 4 17 5 18 6 19 7 20 8 21 9 22 10 23 11
REMARK SMILES IDX 24 12 25 13 26 14 12 15 11 16 10 17 9 18 8 19 7 20 6 21 5 22
REMARK SMILES IDX 4 23 3 24 2 25 1 26
REMARK H PARENT
REMARK Flexibility Score: inf
ROOT
ATOM      1  C   UNL     1     218.056  -8.823  27.977  1.00  0.00     0.000 C 
ENDROOT
BRANCH   1   2
ATOM      2  C   UNL     1     217.682  -8.408  26.543  1.00  0.00     0.000 C 
BRANCH   2   3
ATOM      3  C   UNL     1     218.297  -7.059  26.138  1.00  0.00     0.000 C 
BRANCH   3   4
ATOM      4  C   UNL     1     218.315  -6.850  24.616  1.00  0.00     0.000 C 
BRANCH   4   5
ATOM      5  C   UNL     1     217.413  -7.873  23.912  1.00  0.00     0.000 C 
BRANCH   5   6
ATOM      6  C   UNL     1     217.939  -8.280  22.524  1.00  0.00     0.000 C 
BRANCH   6   7
ATOM      7  C   UNL     1     218.133  -9.796  22.317  1.00  0.00     0.000 C 
BRANCH   7   8
ATOM      8  C   UNL     1     218.309 -10.613  23.611  1.00  0.00     0.000 C 
BRANCH   8   9
ATOM      9  C   UNL     1     219.775 -10.975  23.891  1.00  0.00     0.000 C 
BRANCH   9  10
ATOM     10  C   UNL     1     220.479  -9.856  24.666  1.00  0.00     0.006 C 
BRANCH  10  11
ATOM     11  C   UNL     1     221.814  -9.489  24.010  1.00  0.00     0.053 C 
BRANCH  11  12
ATOM     12  C   UNL     1     221.630  -8.366  23.039  1.00  0.00     0.041 C 
ATOM     13  O   UNL     1     221.801  -8.560  21.807  1.00  0.00    -0.550 OA
ATOM     14  O   UNL     1     221.317  -7.093  23.498  1.00  0.00    -0.550 OA
ENDBRANCH  11  12
ENDBRANCH  10  11
ENDBRANCH   9  10
ENDBRANCH   8   9
ENDBRANCH   7   8
ENDBRANCH   6   7
ENDBRANCH   5   6
ENDBRANCH   4   5
ENDBRANCH   3   4
ENDBRANCH   2   3
ENDBRANCH   1   2
BRANCH   1  15
ATOM     15  C   UNL     1     218.722  -7.684  28.764  1.00  0.00     0.000 C 
BRANCH  15  16
ATOM     16  C   UNL     1     219.154  -8.118  30.177  1.00  0.00     0.000 C 
BRANCH  16  17
ATOM     17  C   UNL     1     218.724  -9.556  30.507  1.00  0.00     0.000 C 
BRANCH  17  18
ATOM     18  C   UNL     1     219.870 -10.391  31.104  1.00  0.00    -0.000 C 
BRANCH  18  19
ATOM     19  C   UNL     1     221.261  -9.904  30.657  1.00  0.00    -0.000 C 
BRANCH  19  20
ATOM     20  C   UNL     1     221.919 -10.747  29.550  1.00  0.00    -0.000 C 
BRANCH  20  21
ATOM     21  C   UNL     1     221.606 -10.234  28.137  1.00  0.00    -0.000 C 
BRANCH  21  22
ATOM     22  C   UNL     1     222.676  -9.239  27.662  1.00  0.00    -0.000 C 
BRANCH  22  23
ATOM     23  C   UNL     1     222.207  -7.779  27.758  1.00  0.00    -0.000 C 
BRANCH  23  24
ATOM     24  C   UNL     1     223.060  -6.947  28.733  1.00  0.00    -0.000 C 
BRANCH  24  25
ATOM     25  C   UNL     1     224.181  -7.771  29.384  1.00  0.00    -0.003 C 
ATOM     26  C   UNL     1     224.188  -7.657  30.908  1.00  0.00     0.004 C 
ENDBRANCH  24  25
ENDBRANCH  23  24
ENDBRANCH  22  23
ENDBRANCH  21  22
ENDBRANCH  20  21
ENDBRANCH  19  20
ENDBRANCH  18  19
ENDBRANCH  17  18
ENDBRANCH  16  17
ENDBRANCH  15  16
ENDBRANCH   1  15
TORSDOF 22
ENDMDL
MODEL 5
REMARK VINA RESULT:    -5.676      2.616      5.753
REMARK INTER + INTRA:         -17.275
REMARK INTER:                 -13.537
REMARK INTRA:                  -3.738
REMARK UNBOUND:                -4.299
REMARK SMILES CCCCCCCCCCCCCCCCCCCCCCCC(=O)[O-]
REMARK SMILES IDX 13 1 14 2 15 3 16 4 17 5 18 6 19 7 20 8 21 9 22 10 23 11
REMARK SMILES IDX 24 12 25 13 26 14 12 15 11 16 10 17 9 18 8 19 7 20 6 21 5 22
REMARK SMILES IDX 4 23 3 24 2 25 1 26
REMARK H PARENT
REMARK Flexibility Score: inf
ROOT
ATOM      1  C   UNL     1     219.788  -8.603  20.989  1.00  0.00     0.000 C 
ENDROOT
BRANCH   1   2
ATOM      2  C   UNL     1     221.158  -8.730  21.678  1.00  0.00     0.000 C 
BRANCH   2   3
ATOM      3  C   UNL     1     221.310  -7.773  22.871  1.00  0.00     0.000 C 
BRANCH   3   4
ATOM      4  C   UNL     1     221.736  -8.496  24.158  1.00  0.00     0.000 C 
BRANCH   4   5
ATOM      5  C   UNL     1     220.970  -9.816  24.324  1.00  0.00     0.000 C 
BRANCH   5   6
ATOM      6  C   UNL     1     221.318 -10.549  25.632  1.00  0.00     0.000 C 
BRANCH   6   7
ATOM      7  C   UNL     1     222.199  -9.750  26.614  1.00  0.00     0.000 C 
BRANCH   7   8
ATOM      8  C   UNL     1     222.574 -10.494  27.908  1.00  0.00     0.000 C 
BRANCH   8   9
ATOM      9  C   UNL     1     223.444  -9.650  28.851  1.00  0.00     0.000 C 
BRANCH   9  10
ATOM     10  C   UNL     1     223.892 -10.468  30.066  1.00  0.00     0.006 C 
BRANCH  10  11
ATOM     11  C   UNL     1     223.172 -10.006  31.336  1.00  0.00     0.053 C 
BRANCH  11  12
ATOM     12  C   UNL     1     222.244 -11.071  31.830  1.00  0.00     0.041 C 
ATOM     13  O   UNL     1     221.597 -10.902  32.898  1.00  0.00    -0.550 OA
ATOM     14  O   UNL     1     222.130 -12.270  31.139  1.00  0.00    -0.550 OA
ENDBRANCH  11  12
ENDBRANCH  10  11
ENDBRANCH   9  10
ENDBRANCH   8   9
ENDBRANCH   7   8
ENDBRANCH   6   7
ENDBRANCH   5   6
ENDBRANCH   4   5
ENDBRANCH   3   4
ENDBRANCH   2   3
ENDBRANCH   1   2
BRANCH   1  15
ATOM     15  C   UNL     1     218.820  -9.727  21.389  1.00  0.00     0.000 C 
BRANCH  15  16
ATOM     16  C   UNL     1     217.855  -9.303  22.510  1.00  0.00     0.000 C 
BRANCH  16  17
ATOM     17  C   UNL     1     217.679  -7.779  22.589  1.00  0.00     0.000 C 
BRANCH  17  18
ATOM     18  C   UNL     1     217.241  -7.309  23.987  1.00  0.00    -0.000 C 
BRANCH  18  19
ATOM     19  C   UNL     1     218.422  -6.853  24.863  1.00  0.00    -0.000 C 
BRANCH  19  20
ATOM     20  C   UNL     1     218.563  -7.599  26.203  1.00  0.00    -0.000 C 
BRANCH  20  21
ATOM     21  C   UNL     1     217.826  -8.946  26.221  1.00  0.00    -0.000 C 
BRANCH  21  22
ATOM     22  C   UNL     1     217.162  -9.191  27.585  1.00  0.00    -0.000 C 
BRANCH  22  23
ATOM     23  C   UNL     1     217.944  -8.554  28.744  1.00  0.00    -0.000 C 
BRANCH  23  24
ATOM     24  C   UNL     1     219.016  -9.496  29.323  1.00  0.00    -0.000 C 
BRANCH  24  25
ATOM     25  C   UNL     1     219.675  -8.930  30.589  1.00  0.00    -0.003 C 
ATOM     26  C   UNL     1     220.552  -7.711  30.303  1.00  0.00     0.004 C 
ENDBRANCH  24  25
ENDBRANCH  23  24
ENDBRANCH  22  23
ENDBRANCH  21  22
ENDBRANCH  20  21
ENDBRANCH  19  20
ENDBRANCH  18  19
ENDBRANCH  17  18
ENDBRANCH  16  17
ENDBRANCH  15  16
ENDBRANCH   1  15
TORSDOF 22
ENDMDL
MODEL 6
REMARK VINA RESULT:    -5.634      2.227      3.262
REMARK INTER + INTRA:         -17.178
REMARK INTER:                 -13.145
REMARK INTRA:                  -4.033
REMARK UNBOUND:                -4.299
REMARK SMILES CCCCCCCCCCCCCCCCCCCCCCCC(=O)[O-]
REMARK SMILES IDX 13 1 14 2 15 3 16 4 17 5 18 6 19 7 20 8 21 9 22 10 23 11
REMARK SMILES IDX 24 12 25 13 26 14 12 15 11 16 10 17 9 18 8 19 7 20 6 21 5 22
REMARK SMILES IDX 4 23 3 24 2 25 1 26
REMARK H PARENT
REMARK Flexibility Score: inf
ROOT
ATOM      1  C   UNL     1     217.581  -8.946  27.343  1.00  0.00     0.000 C 
ENDROOT
BRANCH   1   2
ATOM      2  C   UNL     1     218.047  -8.268  28.643  1.00  0.00     0.000 C 
BRANCH   2   3
ATOM      3  C   UNL     1     219.218  -9.010  29.309  1.00  0.00     0.000 C 
BRANCH   3   4
ATOM      4  C   UNL     1     220.279  -9.469  28.297  1.00  0.00     0.000 C 
BRANCH   4   5
ATOM      5  C   UNL     1     221.260  -8.332  27.978  1.00  0.00     0.000 C 
BRANCH   5   6
ATOM      6  C   UNL     1     222.732  -8.742  28.170  1.00  0.00     0.000 C 
BRANCH   6   7
ATOM      7  C   UNL     1     222.963 -10.245  28.429  1.00  0.00     0.000 C 
BRANCH   7   8
ATOM      8  C   UNL     1     223.257 -10.615  29.894  1.00  0.00     0.000 C 
BRANCH   8   9
ATOM      9  C   UNL     1     222.100 -11.376  30.560  1.00  0.00     0.000 C 
BRANCH   9  10
ATOM     10  C   UNL     1     221.747 -10.761  31.918  1.00  0.00     0.006 C 
BRANCH  10  11
ATOM     11  C   UNL     1     222.260  -9.321  32.019  1.00  0.00     0.053 C 
BRANCH  11  12
ATOM     12  C   UNL     1     222.925  -9.094  33.340  1.00  0.00     0.041 C 
ATOM     13  O   UNL     1     222.721  -9.886  34.297  1.00  0.00    -0.550 OA
ATOM     14  O   UNL     1     223.733  -7.979  33.529  1.00  0.00    -0.550 OA
ENDBRANCH  11  12
ENDBRANCH  10  11
ENDBRANCH   9  10
ENDBRANCH   8   9
ENDBRANCH   7   8
ENDBRANCH   6   7
ENDBRANCH   5   6
ENDBRANCH   4   5
ENDBRANCH   3   4
ENDBRANCH   2   3
ENDBRANCH   1   2
BRANCH   1  15
ATOM     15  C   UNL     1     217.471  -7.959  26.170  1.00  0.00     0.000 C 
BRANCH  15  16
ATOM     16  C   UNL     1     218.569  -6.881  26.202  1.00  0.00     0.000 C 
BRANCH  16  17
ATOM     17  C   UNL     1     219.058  -6.498  24.797  1.00  0.00     0.000 C 
BRANCH  17  18
ATOM     18  C   UNL     1     220.550  -6.809  24.588  1.00  0.00    -0.000 C 
BRANCH  18  19
ATOM     19  C   UNL     1     220.874  -7.259  23.152  1.00  0.00    -0.000 C 
BRANCH  19  20
ATOM     20  C   UNL     1     221.486  -8.666  23.033  1.00  0.00    -0.000 C 
BRANCH  20  21
ATOM     21  C   UNL     1     221.688  -9.350  24.393  1.00  0.00    -0.000 C 
BRANCH  21  22
ATOM     22  C   UNL     1     220.810 -10.604  24.515  1.00  0.00    -0.000 C 
BRANCH  22  23
ATOM     23  C   UNL     1     219.310 -10.284  24.426  1.00  0.00    -0.000 C 
BRANCH  23  24
ATOM     24  C   UNL     1     218.602 -11.074  23.309  1.00  0.00    -0.000 C 
BRANCH  24  25
ATOM     25  C   UNL     1     218.203 -10.184  22.123  1.00  0.00    -0.003 C 
ATOM     26  C   UNL     1     217.529  -8.884  22.560  1.00  0.00     0.004 C 
ENDBRANCH  24  25
ENDBRANCH  23  24
ENDBRANCH  22  23
ENDBRANCH  21  22
ENDBRANCH  20  21
ENDBRANCH  19  20
ENDBRANCH  18  19
ENDBRANCH  17  18
ENDBRANCH  16  17
ENDBRANCH  15  16
ENDBRANCH   1  15
TORSDOF 22
ENDMDL
MODEL 7
REMARK VINA RESULT:    -5.600      3.193      6.699
REMARK INTER + INTRA:         -17.103
REMARK INTER:                 -13.108
REMARK INTRA:                  -3.995
REMARK UNBOUND:                -4.299
REMARK SMILES CCCCCCCCCCCCCCCCCCCCCCCC(=O)[O-]
REMARK SMILES IDX 13 1 14 2 15 3 16 4 17 5 18 6 19 7 20 8 21 9 22 10 23 11
REMARK SMILES IDX 24 12 25 13 26 14 12 15 11 16 10 17 9 18 8 19 7 20 6 21 5 22
REMARK SMILES IDX 4 23 3 24 2 25 1 26
REMARK H PARENT
REMARK Flexibility Score: inf
ROOT
ATOM      1  C   UNL     1     218.245  -9.513  28.772  1.00  0.00     0.000 C 
ENDROOT
BRANCH   1   2
ATOM      2  C   UNL     1     217.106  -8.862  27.967  1.00  0.00     0.000 C 
BRANCH   2   3
ATOM      3  C   UNL     1     217.511  -8.549  26.518  1.00  0.00     0.000 C 
BRANCH   3   4
ATOM      4  C   UNL     1     218.189  -7.178  26.376  1.00  0.00     0.000 C 
BRANCH   4   5
ATOM      5  C   UNL     1     218.441  -6.841  24.899  1.00  0.00     0.000 C 
BRANCH   5   6
ATOM      6  C   UNL     1     219.883  -6.373  24.631  1.00  0.00     0.000 C 
BRANCH   6   7
ATOM      7  C   UNL     1     220.624  -7.146  23.521  1.00  0.00     0.000 C 
BRANCH   7   8
ATOM      8  C   UNL     1     221.608  -8.220  24.020  1.00  0.00     0.000 C 
BRANCH   8   9
ATOM      9  C   UNL     1     221.213  -9.639  23.582  1.00  0.00     0.000 C 
BRANCH   9  10
ATOM     10  C   UNL     1     219.927 -10.092  24.281  1.00  0.00     0.006 C 
BRANCH  10  11
ATOM     11  C   UNL     1     218.990 -10.805  23.301  1.00  0.00     0.053 C 
BRANCH  11  12
ATOM     12  C   UNL     1     218.302  -9.813  22.417  1.00  0.00     0.041 C 
ATOM     13  O   UNL     1     217.186  -9.335  22.751  1.00  0.00    -0.550 OA
ATOM     14  O   UNL     1     218.869  -9.454  21.201  1.00  0.00    -0.550 OA
ENDBRANCH  11  12
ENDBRANCH  10  11
ENDBRANCH   9  10
ENDBRANCH   8   9
ENDBRANCH   7   8
ENDBRANCH   6   7
ENDBRANCH   5   6
ENDBRANCH   4   5
ENDBRANCH   3   4
ENDBRANCH   2   3
ENDBRANCH   1   2
BRANCH   1  15
ATOM     15  C   UNL     1     218.555  -8.757  30.073  1.00  0.00     0.000 C 
BRANCH  15  16
ATOM     16  C   UNL     1     219.353  -7.464  29.828  1.00  0.00     0.000 C 
BRANCH  16  17
ATOM     17  C   UNL     1     220.863  -7.720  29.703  1.00  0.00     0.000 C 
BRANCH  17  18
ATOM     18  C   UNL     1     221.359  -7.621  28.250  1.00  0.00    -0.000 C 
BRANCH  18  19
ATOM     19  C   UNL     1     221.370  -8.980  27.528  1.00  0.00    -0.000 C 
BRANCH  19  20
ATOM     20  C   UNL     1     222.768  -9.580  27.293  1.00  0.00    -0.000 C 
BRANCH  20  21
ATOM     21  C   UNL     1     223.348 -10.260  28.543  1.00  0.00    -0.000 C 
BRANCH  21  22
ATOM     22  C   UNL     1     224.438  -9.389  29.187  1.00  0.00    -0.000 C 
BRANCH  22  23
ATOM     23  C   UNL     1     224.386  -9.422  30.723  1.00  0.00    -0.000 C 
BRANCH  23  24
ATOM     24  C   UNL     1     223.482 -10.546  31.260  1.00  0.00    -0.000 C 
BRANCH  24  25
ATOM     25  C   UNL     1     222.379 -10.018  32.191  1.00  0.00    -0.003 C 
ATOM     26  C   UNL     1     221.043 -10.732  31.986  1.00  0.00     0.004 C 
ENDBRANCH  24  25
ENDBRANCH  23  24
ENDBRANCH  22  23
ENDBRANCH  21  22
ENDBRANCH  20  21
ENDBRANCH  19  20
ENDBRANCH  18  19
ENDBRANCH  17  18
ENDBRANCH  16  17
ENDBRANCH  15  16
ENDBRANCH   1  15
TORSDOF 22
ENDMDL
MODEL 8
REMARK VINA RESULT:    -5.539      2.488      5.779
REMARK INTER + INTRA:         -16.963
REMARK INTER:                 -13.312
REMARK INTRA:                  -3.651
REMARK UNBOUND:                -4.299
REMARK SMILES CCCCCCCCCCCCCCCCCCCCCCCC(=O)[O-]
REMARK SMILES IDX 13 1 14 2 15 3 16 4 17 5 18 6 19 7 20 8 21 9 22 10 23 11
REMARK SMILES IDX 24 12 25 13 26 14 12 15 11 16 10 17 9 18 8 19 7 20 6 21 5 22
REMARK SMILES IDX 4 23 3 24 2 25 1 26
REMARK H PARENT
REMARK Flexibility Score: inf
ROOT
ATOM      1  C   UNL     1     221.743  -8.544  22.020  1.00  0.00     0.000 C 
ENDROOT
BRANCH   1   2
ATOM      2  C   UNL     1     221.262  -7.605  23.140  1.00  0.00     0.000 C 
BRANCH   2   3
ATOM      3  C   UNL     1     221.631  -8.120  24.541  1.00  0.00     0.000 C 
BRANCH   3   4
ATOM      4  C   UNL     1     221.685  -9.654  24.612  1.00  0.00     0.000 C 
BRANCH   4   5
ATOM      5  C   UNL     1     221.547 -10.141  26.061  1.00  0.00     0.000 C 
BRANCH   5   6
ATOM      6  C   UNL     1     221.417  -8.986  27.070  1.00  0.00     0.000 C 
BRANCH   6   7
ATOM      7  C   UNL     1     221.946  -9.294  28.486  1.00  0.00     0.000 C 
BRANCH   7   8
ATOM      8  C   UNL     1     222.389 -10.751  28.714  1.00  0.00     0.000 C 
BRANCH   8   9
ATOM      9  C   UNL     1     221.999 -11.282  30.101  1.00  0.00     0.000 C 
BRANCH   9  10
ATOM     10  C   UNL     1     222.365 -10.276  31.198  1.00  0.00     0.006 C 
BRANCH  10  11
ATOM     11  C   UNL     1     222.398 -10.950  32.573  1.00  0.00     0.053 C 
BRANCH  11  12
ATOM     12  C   UNL     1     223.496 -11.964  32.634  1.00  0.00     0.041 C 
ATOM     13  O   UNL     1     223.226 -13.180  32.821  1.00  0.00    -0.550 OA
ATOM     14  O   UNL     1     224.821 -11.562  32.534  1.00  0.00    -0.550 OA
ENDBRANCH  11  12
ENDBRANCH  10  11
ENDBRANCH   9  10
ENDBRANCH   8   9
ENDBRANCH   7   8
ENDBRANCH   6   7
ENDBRANCH   5   6
ENDBRANCH   4   5
ENDBRANCH   3   4
ENDBRANCH   2   3
ENDBRANCH   1   2
BRANCH   1  15
ATOM     15  C   UNL     1     220.714  -8.685  20.888  1.00  0.00     0.000 C 
BRANCH  15  16
ATOM     16  C   UNL     1     219.267  -8.509  21.380  1.00  0.00     0.000 C 
BRANCH  16  17
ATOM     17  C   UNL     1     218.572  -9.851  21.656  1.00  0.00     0.000 C 
BRANCH  17  18
ATOM     18  C   UNL     1     217.527  -9.753  22.781  1.00  0.00    -0.000 C 
BRANCH  18  19
ATOM     19  C   UNL     1     218.134  -9.317  24.127  1.00  0.00    -0.000 C 
BRANCH  19  20
ATOM     20  C   UNL     1     217.841  -7.861  24.532  1.00  0.00    -0.000 C 
BRANCH  20  21
ATOM     21  C   UNL     1     217.907  -7.635  26.049  1.00  0.00    -0.000 C 
BRANCH  21  22
ATOM     22  C   UNL     1     217.813  -8.967  26.809  1.00  0.00    -0.000 C 
BRANCH  22  23
ATOM     23  C   UNL     1     217.584  -8.770  28.316  1.00  0.00    -0.000 C 
BRANCH  23  24
ATOM     24  C   UNL     1     218.495  -7.684  28.916  1.00  0.00    -0.000 C 
BRANCH  24  25
ATOM     25  C   UNL     1     219.145  -8.126  30.235  1.00  0.00    -0.003 C 
ATOM     26  C   UNL     1     218.767  -9.552  30.632  1.00  0.00     0.004 C 
ENDBRANCH  24  25
ENDBRANCH  23  24
ENDBRANCH  22  23
ENDBRANCH  21  22
ENDBRANCH  20  21
ENDBRANCH  19  20
ENDBRANCH  18  19
ENDBRANCH  17  18
ENDBRANCH  16  17
ENDBRANCH  15  16
ENDBRANCH   1  15
TORSDOF 22
ENDMDL
MODEL 9
REMARK VINA RESULT:    -5.515      1.246      4.841
REMARK INTER + INTRA:         -16.906
REMARK INTER:                 -13.172
REMARK INTRA:                  -3.734
REMARK UNBOUND:                -4.299
REMARK SMILES CCCCCCCCCCCCCCCCCCCCCCCC(=O)[O-]
REMARK SMILES IDX 13 1 14 2 15 3 16 4 17 5 18 6 19 7 20 8 21 9 22 10 23 11
REMARK SMILES IDX 24 12 25 13 26 14 12 15 11 16 10 17 9 18 8 19 7 20 6 21 5 22
REMARK SMILES IDX 4 23 3 24 2 25 1 26
REMARK H PARENT
REMARK Flexibility Score: inf
ROOT
ATOM      1  C   UNL     1     221.466  -8.722  22.365  1.00  0.00     0.000 C 
ENDROOT
BRANCH   1   2
ATOM      2  C   UNL     1     221.200  -7.464  23.210  1.00  0.00     0.000 C 
BRANCH   2   3
ATOM      3  C   UNL     1     221.388  -7.713  24.715  1.00  0.00     0.000 C 
BRANCH   3   4
ATOM      4  C   UNL     1     221.722  -9.179  25.034  1.00  0.00     0.000 C 
BRANCH   4   5
ATOM      5  C   UNL     1     221.442  -9.495  26.511  1.00  0.00     0.000 C 
BRANCH   5   6
ATOM      6  C   UNL     1     222.502 -10.422  27.134  1.00  0.00     0.000 C 
BRANCH   6   7
ATOM      7  C   UNL     1     222.146 -10.974  28.529  1.00  0.00     0.000 C 
BRANCH   7   8
ATOM      8  C   UNL     1     222.884 -10.304  29.703  1.00  0.00     0.000 C 
BRANCH   8   9
ATOM      9  C   UNL     1     223.946  -9.295  29.241  1.00  0.00     0.000 C 
BRANCH   9  10
ATOM     10  C   UNL     1     223.713  -7.922  29.880  1.00  0.00     0.006 C 
BRANCH  10  11
ATOM     11  C   UNL     1     223.715  -6.815  28.821  1.00  0.00     0.053 C 
BRANCH  11  12
ATOM     12  C   UNL     1     224.981  -6.022  28.893  1.00  0.00     0.041 C 
ATOM     13  O   UNL     1     225.998  -6.391  28.248  1.00  0.00    -0.550 OA
ATOM     14  O   UNL     1     225.055  -4.902  29.711  1.00  0.00    -0.550 OA
ENDBRANCH  11  12
ENDBRANCH  10  11
ENDBRANCH   9  10
ENDBRANCH   8   9
ENDBRANCH   7   8
ENDBRANCH   6   7
ENDBRANCH   5   6
ENDBRANCH   4   5
ENDBRANCH   3   4
ENDBRANCH   2   3
ENDBRANCH   1   2
BRANCH   1  15
ATOM     15  C   UNL     1     220.721  -8.699  21.021  1.00  0.00     0.000 C 
BRANCH  15  16
ATOM     16  C   UNL     1     219.192  -8.720  21.195  1.00  0.00     0.000 C 
BRANCH  16  17
ATOM     17  C   UNL     1     218.718  -9.871  22.095  1.00  0.00     0.000 C 
BRANCH  17  18
ATOM     18  C   UNL     1     217.569  -9.452  23.029  1.00  0.00    -0.000 C 
BRANCH  18  19
ATOM     19  C   UNL     1     217.453  -7.926  23.190  1.00  0.00    -0.000 C 
BRANCH  19  20
ATOM     20  C   UNL     1     217.625  -7.408  24.630  1.00  0.00    -0.000 C 
BRANCH  20  21
ATOM     21  C   UNL     1     218.007  -8.514  25.624  1.00  0.00    -0.000 C 
BRANCH  21  22
ATOM     22  C   UNL     1     217.645  -8.112  27.062  1.00  0.00    -0.000 C 
BRANCH  22  23
ATOM     23  C   UNL     1     218.733  -7.253  27.725  1.00  0.00    -0.000 C 
BRANCH  23  24
ATOM     24  C   UNL     1     219.268  -7.879  29.026  1.00  0.00    -0.000 C 
BRANCH  24  25
ATOM     25  C   UNL     1     218.795  -9.327  29.220  1.00  0.00    -0.003 C 
ATOM     26  C   UNL     1     219.181  -9.898  30.584  1.00  0.00     0.004 C 
ENDBRANCH  24  25
ENDBRANCH  23  24
ENDBRANCH  22  23
ENDBRANCH  21  22
ENDBRANCH  20  21
ENDBRANCH  19  20
ENDBRANCH  18  19
ENDBRANCH  17  18
ENDBRANCH  16  17
ENDBRANCH  15  16
ENDBRANCH   1  15
TORSDOF 22
ENDMDL
