MODEL 1
REMARK VINA RESULT:    -4.866      0.000      0.000
REMARK INTER + INTRA:          -5.942
REMARK INTER:                  -5.862
REMARK INTRA:                  -0.079
REMARK UNBOUND:                -0.079
REMARK SMILES NC(=O)C[C@H]([NH3+])C(=O)[O-]
REMARK SMILES IDX 4 1 5 2 6 3 7 7 8 8 9 9 2 10 3 11 1 12
REMARK H PARENT 6 4 6 5 6 6 1 13 1 14
REMARK Flexibility Score: inf
ROOT
ATOM      1  C   UNL     1      -2.250   1.526   8.914  1.00  0.00     0.171 C 
ENDROOT
BRANCH   1   2
ATOM      2  C   UNL     1      -1.325   2.739   8.688  1.00  0.00     0.237 C 
BRANCH   2   3
ATOM      3  N   UNL     1      -0.003   2.492   9.277  1.00  0.00    -0.350 N 
ATOM      4  H   UNL     1       0.241   1.479   9.188  1.00  0.00     0.345 HD
ATOM      5  H   UNL     1       0.722   3.048   8.766  1.00  0.00     0.345 HD
ATOM      6  H   UNL     1       0.008   2.761  10.288  1.00  0.00     0.345 HD
ENDBRANCH   2   3
BRANCH   2   7
ATOM      7  C   UNL     1      -1.925   3.991   9.273  1.00  0.00     0.100 C 
ATOM      8  O   UNL     1      -1.446   5.119   8.982  1.00  0.00    -0.544 OA
ATOM      9  O   UNL     1      -3.021   3.912  10.125  1.00  0.00    -0.544 OA
ENDBRANCH   2   7
ENDBRANCH   1   2
BRANCH   1  10
ATOM     10  C   UNL     1      -2.256   0.605   7.728  1.00  0.00     0.223 C 
ATOM     11  O   UNL     1      -2.626   1.037   6.603  1.00  0.00    -0.275 OA
ATOM     12  N   UNL     1      -1.884  -0.765   7.872  1.00  0.00    -0.369 N 
ATOM     13  H   UNL     1      -1.904  -1.405   7.048  1.00  0.00     0.159 HD
ATOM     14  H   UNL     1      -1.593  -1.144   8.801  1.00  0.00     0.159 HD
ENDBRANCH   1  10
TORSDOF 4
ENDMDL
MODEL 2
REMARK VINA RESULT:    -4.377      1.478      4.092
REMARK INTER + INTRA:          -5.352
REMARK INTER:                  -5.245
REMARK INTRA:                  -0.107
REMARK UNBOUND:                -0.079
REMARK SMILES NC(=O)C[C@H]([NH3+])C(=O)[O-]
REMARK SMILES IDX 4 1 5 2 6 3 7 7 8 8 9 9 2 10 3 11 1 12
REMARK H PARENT 6 4 6 5 6 6 1 13 1 14
REMARK Flexibility Score: inf
ROOT
ATOM      1  C   UNL     1      -1.221   2.699   8.735  1.00  0.00     0.171 C 
ENDROOT
BRANCH   1   2
ATOM      2  C   UNL     1      -2.280   1.618   9.028  1.00  0.00     0.237 C 
BRANCH   2   3
ATOM      3  N   UNL     1      -1.834   0.749  10.125  1.00  0.00    -0.350 N 
ATOM      4  H   UNL     1      -2.563   0.723  10.875  1.00  0.00     0.345 HD
ATOM      5  H   UNL     1      -1.696  -0.226   9.771  1.00  0.00     0.345 HD
ATOM      6  H   UNL     1      -0.936   1.098  10.532  1.00  0.00     0.345 HD
ENDBRANCH   2   3
BRANCH   2   7
ATOM      7  C   UNL     1      -2.563   0.793   7.799  1.00  0.00     0.100 C 
ATOM      8  O   UNL     1      -2.902  -0.414   7.911  1.00  0.00    -0.544 OA
ATOM      9  O   UNL     1      -2.468   1.363   6.535  1.00  0.00    -0.544 OA
ENDBRANCH   2   7
ENDBRANCH   1   2
BRANCH   1  10
ATOM     10  C   UNL     1      -1.657   4.049   9.229  1.00  0.00     0.223 C 
ATOM     11  O   UNL     1      -2.783   4.180   9.779  1.00  0.00    -0.275 OA
ATOM     12  N   UNL     1      -0.823   5.192   9.046  1.00  0.00    -0.369 N 
ATOM     13  H   UNL     1      -1.136   6.131   9.378  1.00  0.00     0.159 HD
ATOM     14  H   UNL     1       0.105   5.106   8.575  1.00  0.00     0.159 HD
ENDBRANCH   1  10
TORSDOF 4
ENDMDL
MODEL 3
REMARK VINA RESULT:    -4.261     14.756     16.144
REMARK INTER + INTRA:          -5.212
REMARK INTER:                  -5.097
REMARK INTRA:                  -0.115
REMARK UNBOUND:                -0.079
REMARK SMILES NC(=O)C[C@H]([NH3+])C(=O)[O-]
REMARK SMILES IDX 4 1 5 2 6 3 7 7 8 8 9 9 2 10 3 11 1 12
REMARK H PARENT 6 4 6 5 6 6 1 13 1 14
REMARK Flexibility Score: inf
ROOT
ATOM      1  C   UNL     1       7.419  -8.137  -0.853  1.00  0.00     0.171 C 
ENDROOT
BRANCH   1   2
ATOM      2  C   UNL     1       7.491  -6.597  -0.840  1.00  0.00     0.237 C 
BRANCH   2   3
ATOM      3  N   UNL     1       8.826  -6.149  -0.424  1.00  0.00    -0.350 N 
ATOM      4  H   UNL     1       9.487  -6.204  -1.232  1.00  0.00     0.345 HD
ATOM      5  H   UNL     1       8.783  -5.154  -0.105  1.00  0.00     0.345 HD
ATOM      6  H   UNL     1       9.190  -6.745   0.357  1.00  0.00     0.345 HD
ENDBRANCH   2   3
BRANCH   2   7
ATOM      7  C   UNL     1       6.444  -6.016   0.074  1.00  0.00     0.100 C 
ATOM      8  O   UNL     1       5.461  -6.715   0.435  1.00  0.00    -0.544 OA
ATOM      9  O   UNL     1       6.563  -4.711   0.538  1.00  0.00    -0.544 OA
ENDBRANCH   2   7
ENDBRANCH   1   2
BRANCH   1  10
ATOM     10  C   UNL     1       6.804  -8.651  -2.122  1.00  0.00     0.223 C 
ATOM     11  O   UNL     1       5.550  -8.699  -2.235  1.00  0.00    -0.275 OA
ATOM     12  N   UNL     1       7.627  -9.125  -3.188  1.00  0.00    -0.369 N 
ATOM     13  H   UNL     1       7.196  -9.496  -4.062  1.00  0.00     0.159 HD
ATOM     14  H   UNL     1       8.669  -9.111  -3.104  1.00  0.00     0.159 HD
ENDBRANCH   1  10
TORSDOF 4
ENDMDL
MODEL 4
REMARK VINA RESULT:    -4.221     11.004     11.594
REMARK INTER + INTRA:          -5.164
REMARK INTER:                  -4.800
REMARK INTRA:                  -0.364
REMARK UNBOUND:                -0.079
REMARK SMILES NC(=O)C[C@H]([NH3+])C(=O)[O-]
REMARK SMILES IDX 4 1 5 2 6 3 7 7 8 8 9 9 2 10 3 11 1 12
REMARK H PARENT 6 4 6 5 6 6 1 13 1 14
REMARK Flexibility Score: inf
ROOT
ATOM      1  C   UNL     1       8.078   3.773   1.871  1.00  0.00     0.171 C 
ENDROOT
BRANCH   1   2
ATOM      2  C   UNL     1       6.848   4.627   2.237  1.00  0.00     0.237 C 
BRANCH   2   3
ATOM      3  N   UNL     1       5.970   3.893   3.157  1.00  0.00    -0.350 N 
ATOM      4  H   UNL     1       5.114   4.459   3.357  1.00  0.00     0.345 HD
ATOM      5  H   UNL     1       5.670   2.992   2.719  1.00  0.00     0.345 HD
ATOM      6  H   UNL     1       6.464   3.690   4.057  1.00  0.00     0.345 HD
ENDBRANCH   2   3
BRANCH   2   7
ATOM      7  C   UNL     1       6.082   5.027   1.002  1.00  0.00     0.100 C 
ATOM      8  O   UNL     1       4.868   4.715   0.882  1.00  0.00    -0.544 OA
ATOM      9  O   UNL     1       6.705   5.755  -0.005  1.00  0.00    -0.544 OA
ENDBRANCH   2   7
ENDBRANCH   1   2
BRANCH   1  10
ATOM     10  C   UNL     1       7.682   2.394   1.426  1.00  0.00     0.223 C 
ATOM     11  O   UNL     1       7.402   1.516   2.286  1.00  0.00    -0.275 OA
ATOM     12  N   UNL     1       7.658   2.058   0.040  1.00  0.00    -0.369 N 
ATOM     13  H   UNL     1       7.397   1.094  -0.265  1.00  0.00     0.159 HD
ATOM     14  H   UNL     1       7.906   2.768  -0.686  1.00  0.00     0.159 HD
ENDBRANCH   1  10
TORSDOF 4
ENDMDL
MODEL 5
REMARK VINA RESULT:    -4.149     10.424     11.216
REMARK INTER + INTRA:          -5.077
REMARK INTER:                  -4.653
REMARK INTRA:                  -0.424
REMARK UNBOUND:                -0.079
REMARK SMILES NC(=O)C[C@H]([NH3+])C(=O)[O-]
REMARK SMILES IDX 4 1 5 2 6 3 7 7 8 8 9 9 2 10 3 11 1 12
REMARK H PARENT 6 4 6 5 6 6 1 13 1 14
REMARK Flexibility Score: inf
ROOT
ATOM      1  C   UNL     1       7.265   4.767   2.019  1.00  0.00     0.171 C 
ENDROOT
BRANCH   1   2
ATOM      2  C   UNL     1       7.820   3.348   1.781  1.00  0.00     0.237 C 
BRANCH   2   3
ATOM      3  N   UNL     1       7.287   2.792   0.531  1.00  0.00    -0.350 N 
ATOM      4  H   UNL     1       7.244   3.540  -0.199  1.00  0.00     0.345 HD
ATOM      5  H   UNL     1       7.918   2.033   0.184  1.00  0.00     0.345 HD
ATOM      6  H   UNL     1       6.327   2.402   0.678  1.00  0.00     0.345 HD
ENDBRANCH   2   3
BRANCH   2   7
ATOM      7  C   UNL     1       7.484   2.438   2.935  1.00  0.00     0.100 C 
ATOM      8  O   UNL     1       7.099   1.259   2.719  1.00  0.00    -0.544 OA
ATOM      9  O   UNL     1       7.610   2.889   4.244  1.00  0.00    -0.544 OA
ENDBRANCH   2   7
ENDBRANCH   1   2
BRANCH   1  10
ATOM     10  C   UNL     1       5.773   4.757   2.189  1.00  0.00     0.223 C 
ATOM     11  O   UNL     1       5.031   4.594   1.183  1.00  0.00    -0.275 OA
ATOM     12  N   UNL     1       5.188   4.971   3.472  1.00  0.00    -0.369 N 
ATOM     13  H   UNL     1       4.150   4.979   3.583  1.00  0.00     0.159 HD
ATOM     14  H   UNL     1       5.787   5.127   4.313  1.00  0.00     0.159 HD
ENDBRANCH   1  10
TORSDOF 4
ENDMDL
MODEL 6
REMARK VINA RESULT:    -4.140     11.027     11.590
REMARK INTER + INTRA:          -5.066
REMARK INTER:                  -4.600
REMARK INTRA:                  -0.466
REMARK UNBOUND:                -0.079
REMARK SMILES NC(=O)C[C@H]([NH3+])C(=O)[O-]
REMARK SMILES IDX 4 1 5 2 6 3 7 7 8 8 9 9 2 10 3 11 1 12
REMARK H PARENT 6 4 6 5 6 6 1 13 1 14
REMARK Flexibility Score: inf
ROOT
ATOM      1  C   UNL     1       2.743   9.960   0.315  1.00  0.00     0.171 C 
ENDROOT
BRANCH   1   2
ATOM      2  C   UNL     1       3.122   8.522  -0.091  1.00  0.00     0.237 C 
BRANCH   2   3
ATOM      3  N   UNL     1       1.921   7.756  -0.447  1.00  0.00    -0.350 N 
ATOM      4  H   UNL     1       1.603   7.194   0.375  1.00  0.00     0.345 HD
ATOM      5  H   UNL     1       1.150   8.411  -0.713  1.00  0.00     0.345 HD
ATOM      6  H   UNL     1       2.117   7.112  -1.248  1.00  0.00     0.345 HD
ENDBRANCH   2   3
BRANCH   2   7
ATOM      7  C   UNL     1       3.867   7.827   1.019  1.00  0.00     0.100 C 
ATOM      8  O   UNL     1       4.232   6.629   0.884  1.00  0.00    -0.544 OA
ATOM      9  O   UNL     1       4.168   8.506   2.194  1.00  0.00    -0.544 OA
ENDBRANCH   2   7
ENDBRANCH   1   2
BRANCH   1  10
ATOM     10  C   UNL     1       1.439  10.000   1.058  1.00  0.00     0.223 C 
ATOM     11  O   UNL     1       0.360  10.131   0.420  1.00  0.00    -0.275 OA
ATOM     12  N   UNL     1       1.414   9.932   2.483  1.00  0.00    -0.369 N 
ATOM     13  H   UNL     1       0.507   9.975   2.997  1.00  0.00     0.159 HD
ATOM     14  H   UNL     1       2.300   9.843   3.029  1.00  0.00     0.159 HD
ENDBRANCH   1  10
TORSDOF 4
ENDMDL
MODEL 7
REMARK VINA RESULT:    -4.102     12.540     14.182
REMARK INTER + INTRA:          -5.021
REMARK INTER:                  -4.588
REMARK INTRA:                  -0.433
REMARK UNBOUND:                -0.079
REMARK SMILES NC(=O)C[C@H]([NH3+])C(=O)[O-]
REMARK SMILES IDX 4 1 5 2 6 3 7 7 8 8 9 9 2 10 3 11 1 12
REMARK H PARENT 6 4 6 5 6 6 1 13 1 14
REMARK Flexibility Score: inf
ROOT
ATOM      1  C   UNL     1       7.665  -5.254   1.493  1.00  0.00     0.171 C 
ENDROOT
BRANCH   1   2
ATOM      2  C   UNL     1       7.153  -6.320   0.504  1.00  0.00     0.237 C 
BRANCH   2   3
ATOM      3  N   UNL     1       6.481  -5.681  -0.635  1.00  0.00    -0.350 N 
ATOM      4  H   UNL     1       6.244  -6.401  -1.356  1.00  0.00     0.345 HD
ATOM      5  H   UNL     1       5.591  -5.234  -0.316  1.00  0.00     0.345 HD
ATOM      6  H   UNL     1       7.096  -4.953  -1.067  1.00  0.00     0.345 HD
ENDBRANCH   2   3
BRANCH   2   7
ATOM      7  C   UNL     1       6.213  -7.280   1.185  1.00  0.00     0.100 C 
ATOM      8  O   UNL     1       5.324  -7.874   0.520  1.00  0.00    -0.544 OA
ATOM      9  O   UNL     1       6.331  -7.530   2.547  1.00  0.00    -0.544 OA
ENDBRANCH   2   7
ENDBRANCH   1   2
BRANCH   1  10
ATOM     10  C   UNL     1       6.584  -4.280   1.865  1.00  0.00     0.223 C 
ATOM     11  O   UNL     1       6.308  -3.326   1.090  1.00  0.00    -0.275 OA
ATOM     12  N   UNL     1       5.894  -4.401   3.108  1.00  0.00    -0.369 N 
ATOM     13  H   UNL     1       5.154  -3.714   3.370  1.00  0.00     0.159 HD
ATOM     14  H   UNL     1       6.123  -5.175   3.772  1.00  0.00     0.159 HD
ENDBRANCH   1  10
TORSDOF 4
ENDMDL
MODEL 8
REMARK VINA RESULT:    -4.072     12.587     13.573
REMARK INTER + INTRA:          -4.985
REMARK INTER:                  -4.607
REMARK INTRA:                  -0.378
REMARK UNBOUND:                -0.079
REMARK SMILES NC(=O)C[C@H]([NH3+])C(=O)[O-]
REMARK SMILES IDX 4 1 5 2 6 3 7 7 8 8 9 9 2 10 3 11 1 12
REMARK H PARENT 6 4 6 5 6 6 1 13 1 14
REMARK Flexibility Score: inf
ROOT
ATOM      1  C   UNL     1       7.626  -5.852   1.189  1.00  0.00     0.171 C 
ENDROOT
BRANCH   1   2
ATOM      2  C   UNL     1       7.215  -4.785   2.223  1.00  0.00     0.237 C 
BRANCH   2   3
ATOM      3  N   UNL     1       5.936  -5.143   2.849  1.00  0.00    -0.350 N 
ATOM      4  H   UNL     1       5.223  -4.406   2.644  1.00  0.00     0.345 HD
ATOM      5  H   UNL     1       5.591  -6.049   2.456  1.00  0.00     0.345 HD
ATOM      6  H   UNL     1       6.045  -5.236   3.885  1.00  0.00     0.345 HD
ENDBRANCH   2   3
BRANCH   2   7
ATOM      7  C   UNL     1       7.113  -3.425   1.581  1.00  0.00     0.100 C 
ATOM      8  O   UNL     1       6.036  -3.061   1.038  1.00  0.00    -0.544 OA
ATOM      9  O   UNL     1       8.199  -2.558   1.598  1.00  0.00    -0.544 OA
ENDBRANCH   2   7
ENDBRANCH   1   2
BRANCH   1  10
ATOM     10  C   UNL     1       6.475  -6.239   0.305  1.00  0.00     0.223 C 
ATOM     11  O   UNL     1       5.652  -7.110   0.695  1.00  0.00    -0.275 OA
ATOM     12  N   UNL     1       6.329  -5.658  -0.990  1.00  0.00    -0.369 N 
ATOM     13  H   UNL     1       5.536  -5.940  -1.608  1.00  0.00     0.159 HD
ATOM     14  H   UNL     1       7.013  -4.949  -1.338  1.00  0.00     0.159 HD
ENDBRANCH   1  10
TORSDOF 4
ENDMDL
MODEL 9
REMARK VINA RESULT:    -3.967     11.136     11.705
REMARK INTER + INTRA:          -4.858
REMARK INTER:                  -4.445
REMARK INTRA:                  -0.412
REMARK UNBOUND:                -0.079
REMARK SMILES NC(=O)C[C@H]([NH3+])C(=O)[O-]
REMARK SMILES IDX 4 1 5 2 6 3 7 7 8 8 9 9 2 10 3 11 1 12
REMARK H PARENT 6 4 6 5 6 6 1 13 1 14
REMARK Flexibility Score: inf
ROOT
ATOM      1  C   UNL     1       3.663   8.912  -0.188  1.00  0.00     0.171 C 
ENDROOT
BRANCH   1   2
ATOM      2  C   UNL     1       4.325   7.547  -0.467  1.00  0.00     0.237 C 
BRANCH   2   3
ATOM      3  N   UNL     1       3.370   6.637  -1.111  1.00  0.00    -0.350 N 
ATOM      4  H   UNL     1       2.398   7.005  -0.999  1.00  0.00     0.345 HD
ATOM      5  H   UNL     1       3.578   6.571  -2.134  1.00  0.00     0.345 HD
ATOM      6  H   UNL     1       3.425   5.682  -0.687  1.00  0.00     0.345 HD
ENDBRANCH   2   3
BRANCH   2   7
ATOM      7  C   UNL     1       4.847   6.932   0.806  1.00  0.00     0.100 C 
ATOM      8  O   UNL     1       4.929   5.680   0.916  1.00  0.00    -0.544 OA
ATOM      9  O   UNL     1       5.255   7.740   1.860  1.00  0.00    -0.544 OA
ENDBRANCH   2   7
ENDBRANCH   1   2
BRANCH   1  10
ATOM     10  C   UNL     1       2.402   8.762   0.614  1.00  0.00     0.223 C 
ATOM     11  O   UNL     1       1.362   8.309   0.065  1.00  0.00    -0.275 OA
ATOM     12  N   UNL     1       2.360   9.166   1.982  1.00  0.00    -0.369 N 
ATOM     13  H   UNL     1       1.478   9.074   2.532  1.00  0.00     0.159 HD
ATOM     14  H   UNL     1       3.208   9.561   2.448  1.00  0.00     0.159 HD
ENDBRANCH   1  10
TORSDOF 4
ENDMDL
