MODEL 1
REMARK VINA RESULT:    -5.429      0.000      0.000
REMARK INTER + INTRA:          -8.472
REMARK INTER:                  -7.333
REMARK INTRA:                  -1.139
REMARK UNBOUND:                -1.139
REMARK SMILES CC(=O)CCC=C(C)CCC=C(C)C
REMARK SMILES IDX 7 1 6 2 8 3 9 4 10 5 11 6 13 7 12 8 14 9 5 10 4 11 2 12 3 13
REMARK SMILES IDX 1 14
REMARK H PARENT
REMARK Flexibility Score: inf
ROOT
ATOM      1  C   UNL     1     -13.053 -16.796  27.758  1.00  0.00    -0.077 C 
ATOM      2  C   UNL     1     -13.696 -17.800  28.395  1.00  0.00    -0.028 C 
ATOM      3  C   UNL     1     -11.656 -16.966  27.207  1.00  0.00     0.039 C 
ENDROOT
BRANCH   1   4
ATOM      4  C   UNL     1     -13.758 -15.468  27.580  1.00  0.00     0.034 C 
BRANCH   4   5
ATOM      5  C   UNL     1     -13.243 -14.436  28.588  1.00  0.00     0.032 C 
BRANCH   5   6
ATOM      6  C   UNL     1     -14.182 -14.302  29.763  1.00  0.00    -0.028 C 
ATOM      7  C   UNL     1     -14.942 -14.661  32.074  1.00  0.00     0.039 C 
ATOM      8  C   UNL     1     -13.938 -14.857  30.969  1.00  0.00    -0.080 C 
ATOM      9  C   UNL     1     -12.687 -15.665  31.228  1.00  0.00     0.039 C 
ENDBRANCH   5   6
ENDBRANCH   4   5
ENDBRANCH   1   4
BRANCH   2  10
ATOM     10  C   UNL     1     -13.099 -19.159  28.676  1.00  0.00     0.035 C 
BRANCH  10  11
ATOM     11  C   UNL     1     -13.465 -19.663  30.079  1.00  0.00     0.079 C 
BRANCH  11  12
ATOM     12  C   UNL     1     -12.306 -19.537  31.033  1.00  0.00     0.130 C 
ATOM     13  O   UNL     1     -12.389 -20.023  32.151  1.00  0.00    -0.300 OA
ATOM     14  C   UNL     1     -11.034 -18.861  30.619  1.00  0.00     0.087 C 
ENDBRANCH  11  12
ENDBRANCH  10  11
ENDBRANCH   2  10
TORSDOF 6
ENDMDL
MODEL 2
REMARK VINA RESULT:    -5.394      1.010      1.493
REMARK INTER + INTRA:          -8.425
REMARK INTER:                  -7.800
REMARK INTRA:                  -0.625
REMARK UNBOUND:                -1.139
REMARK SMILES CC(=O)CCC=C(C)CCC=C(C)C
REMARK SMILES IDX 7 1 6 2 8 3 9 4 10 5 11 6 13 7 12 8 14 9 5 10 4 11 2 12 3 13
REMARK SMILES IDX 1 14
REMARK H PARENT
REMARK Flexibility Score: inf
ROOT
ATOM      1  C   UNL     1     -12.736 -17.083  27.691  1.00  0.00    -0.077 C 
ATOM      2  C   UNL     1     -13.526 -17.950  28.364  1.00  0.00    -0.028 C 
ATOM      3  C   UNL     1     -11.338 -17.454  27.251  1.00  0.00     0.039 C 
ENDROOT
BRANCH   1   4
ATOM      4  C   UNL     1     -13.272 -15.708  27.357  1.00  0.00     0.034 C 
BRANCH   4   5
ATOM      5  C   UNL     1     -13.207 -14.784  28.578  1.00  0.00     0.032 C 
BRANCH   5   6
ATOM      6  C   UNL     1     -14.243 -13.689  28.492  1.00  0.00    -0.028 C 
ATOM      7  C   UNL     1     -15.993 -12.190  29.350  1.00  0.00     0.039 C 
ATOM      8  C   UNL     1     -14.988 -13.294  29.547  1.00  0.00    -0.080 C 
ATOM      9  C   UNL     1     -14.833 -13.933  30.906  1.00  0.00     0.039 C 
ENDBRANCH   5   6
ENDBRANCH   4   5
ENDBRANCH   1   4
BRANCH   2  10
ATOM     10  C   UNL     1     -13.107 -19.335  28.796  1.00  0.00     0.035 C 
BRANCH  10  11
ATOM     11  C   UNL     1     -13.543 -19.640  30.235  1.00  0.00     0.079 C 
BRANCH  11  12
ATOM     12  C   UNL     1     -12.370 -19.649  31.180  1.00  0.00     0.130 C 
ATOM     13  O   UNL     1     -12.433 -20.294  32.216  1.00  0.00    -0.300 OA
ATOM     14  C   UNL     1     -11.107 -18.910  30.851  1.00  0.00     0.087 C 
ENDBRANCH  11  12
ENDBRANCH  10  11
ENDBRANCH   2  10
TORSDOF 6
ENDMDL
MODEL 3
REMARK VINA RESULT:    -5.145      1.524      2.759
REMARK INTER + INTRA:          -8.089
REMARK INTER:                  -7.605
REMARK INTRA:                  -0.484
REMARK UNBOUND:                -1.139
REMARK SMILES CC(=O)CCC=C(C)CCC=C(C)C
REMARK SMILES IDX 7 1 6 2 8 3 9 4 10 5 11 6 13 7 12 8 14 9 5 10 4 11 2 12 3 13
REMARK SMILES IDX 1 14
REMARK H PARENT
REMARK Flexibility Score: inf
ROOT
ATOM      1  C   UNL     1     -11.012 -16.075  30.096  1.00  0.00    -0.077 C 
ATOM      2  C   UNL     1     -11.178 -17.410  29.955  1.00  0.00    -0.028 C 
ATOM      3  C   UNL     1     -10.265 -15.483  31.270  1.00  0.00     0.039 C 
ENDROOT
BRANCH   1   4
ATOM      4  C   UNL     1     -11.578 -15.149  29.041  1.00  0.00     0.034 C 
BRANCH   4   5
ATOM      5  C   UNL     1     -13.060 -15.446  28.791  1.00  0.00     0.032 C 
BRANCH   5   6
ATOM      6  C   UNL     1     -13.827 -14.183  28.481  1.00  0.00    -0.028 C 
ATOM      7  C   UNL     1     -15.300 -12.279  28.980  1.00  0.00     0.039 C 
ATOM      8  C   UNL     1     -14.576 -13.532  29.396  1.00  0.00    -0.080 C 
ATOM      9  C   UNL     1     -14.698 -14.032  30.817  1.00  0.00     0.039 C 
ENDBRANCH   5   6
ENDBRANCH   4   5
ENDBRANCH   1   4
BRANCH   2  10
ATOM     10  C   UNL     1     -10.701 -18.443  30.949  1.00  0.00     0.035 C 
BRANCH  10  11
ATOM     11  C   UNL     1     -11.687 -19.612  31.072  1.00  0.00     0.079 C 
BRANCH  11  12
ATOM     12  C   UNL     1     -13.086 -19.201  30.695  1.00  0.00     0.130 C 
ATOM     13  O   UNL     1     -13.739 -18.505  31.458  1.00  0.00    -0.300 OA
ATOM     14  C   UNL     1     -13.678 -19.598  29.376  1.00  0.00     0.087 C 
ENDBRANCH  11  12
ENDBRANCH  10  11
ENDBRANCH   2  10
TORSDOF 6
ENDMDL
MODEL 4
REMARK VINA RESULT:    -4.928      2.142      4.621
REMARK INTER + INTRA:          -7.795
REMARK INTER:                  -7.210
REMARK INTRA:                  -0.585
REMARK UNBOUND:                -1.139
REMARK SMILES CC(=O)CCC=C(C)CCC=C(C)C
REMARK SMILES IDX 7 1 6 2 8 3 9 4 10 5 11 6 13 7 12 8 14 9 5 10 4 11 2 12 3 13
REMARK SMILES IDX 1 14
REMARK H PARENT
REMARK Flexibility Score: inf
ROOT
ATOM      1  C   UNL     1     -11.832 -15.660  28.912  1.00  0.00    -0.077 C 
ATOM      2  C   UNL     1     -13.138 -15.469  29.206  1.00  0.00    -0.028 C 
ATOM      3  C   UNL     1     -10.729 -15.128  29.798  1.00  0.00     0.039 C 
ENDROOT
BRANCH   1   4
ATOM      4  C   UNL     1     -11.466 -16.441  27.669  1.00  0.00     0.034 C 
BRANCH   4   5
ATOM      5  C   UNL     1     -12.096 -17.837  27.694  1.00  0.00     0.032 C 
BRANCH   5   6
ATOM      6  C   UNL     1     -12.032 -18.442  29.076  1.00  0.00    -0.028 C 
ATOM      7  C   UNL     1     -12.787 -19.864  30.935  1.00  0.00     0.039 C 
ATOM      8  C   UNL     1     -12.946 -19.321  29.540  1.00  0.00    -0.080 C 
ATOM      9  C   UNL     1     -14.115 -19.766  28.691  1.00  0.00     0.039 C 
ENDBRANCH   5   6
ENDBRANCH   4   5
ENDBRANCH   1   4
BRANCH   2  10
ATOM     10  C   UNL     1     -13.644 -14.677  30.389  1.00  0.00     0.035 C 
BRANCH  10  11
ATOM     11  C   UNL     1     -13.977 -15.584  31.581  1.00  0.00     0.079 C 
BRANCH  11  12
ATOM     12  C   UNL     1     -14.709 -14.833  32.663  1.00  0.00     0.130 C 
ATOM     13  O   UNL     1     -15.921 -14.697  32.590  1.00  0.00    -0.300 OA
ATOM     14  C   UNL     1     -13.979 -14.284  33.852  1.00  0.00     0.087 C 
ENDBRANCH  11  12
ENDBRANCH  10  11
ENDBRANCH   2  10
TORSDOF 6
ENDMDL
MODEL 5
REMARK VINA RESULT:    -4.851      2.855      4.793
REMARK INTER + INTRA:          -7.691
REMARK INTER:                  -7.236
REMARK INTRA:                  -0.456
REMARK UNBOUND:                -1.139
REMARK SMILES CC(=O)CCC=C(C)CCC=C(C)C
REMARK SMILES IDX 7 1 6 2 8 3 9 4 10 5 11 6 13 7 12 8 14 9 5 10 4 11 2 12 3 13
REMARK SMILES IDX 1 14
REMARK H PARENT
REMARK Flexibility Score: inf
ROOT
ATOM      1  C   UNL     1     -14.256 -14.794  31.264  1.00  0.00    -0.077 C 
ATOM      2  C   UNL     1     -13.237 -15.511  30.739  1.00  0.00    -0.028 C 
ATOM      3  C   UNL     1     -14.917 -13.670  30.500  1.00  0.00     0.039 C 
ENDROOT
BRANCH   1   4
ATOM      4  C   UNL     1     -14.757 -15.136  32.650  1.00  0.00     0.034 C 
BRANCH   4   5
ATOM      5  C   UNL     1     -14.284 -14.099  33.675  1.00  0.00     0.032 C 
BRANCH   5   6
ATOM      6  C   UNL     1     -13.165 -14.644  34.529  1.00  0.00    -0.028 C 
ATOM      7  C   UNL     1     -11.558 -14.629  36.390  1.00  0.00     0.039 C 
ATOM      8  C   UNL     1     -12.676 -13.994  35.607  1.00  0.00    -0.080 C 
ATOM      9  C   UNL     1     -13.226 -12.654  36.036  1.00  0.00     0.039 C 
ENDBRANCH   5   6
ENDBRANCH   4   5
ENDBRANCH   1   4
BRANCH   2  10
ATOM     10  C   UNL     1     -12.613 -15.253  29.388  1.00  0.00     0.035 C 
BRANCH  10  11
ATOM     11  C   UNL     1     -12.861 -16.413  28.414  1.00  0.00     0.079 C 
BRANCH  11  12
ATOM     12  C   UNL     1     -11.588 -16.856  27.742  1.00  0.00     0.130 C 
ATOM     13  O   UNL     1     -10.607 -17.120  28.420  1.00  0.00    -0.300 OA
ATOM     14  C   UNL     1     -11.518 -17.019  26.253  1.00  0.00     0.087 C 
ENDBRANCH  11  12
ENDBRANCH  10  11
ENDBRANCH   2  10
TORSDOF 6
ENDMDL
MODEL 6
REMARK VINA RESULT:    -4.827      2.450      5.001
REMARK INTER + INTRA:          -7.659
REMARK INTER:                  -6.890
REMARK INTRA:                  -0.769
REMARK UNBOUND:                -1.139
REMARK SMILES CC(=O)CCC=C(C)CCC=C(C)C
REMARK SMILES IDX 7 1 6 2 8 3 9 4 10 5 11 6 13 7 12 8 14 9 5 10 4 11 2 12 3 13
REMARK SMILES IDX 1 14
REMARK H PARENT
REMARK Flexibility Score: inf
ROOT
ATOM      1  C   UNL     1     -11.491 -16.425  28.260  1.00  0.00    -0.077 C 
ATOM      2  C   UNL     1     -12.333 -15.541  28.842  1.00  0.00    -0.028 C 
ATOM      3  C   UNL     1     -11.735 -16.962  26.868  1.00  0.00     0.039 C 
ENDROOT
BRANCH   1   4
ATOM      4  C   UNL     1     -10.262 -16.878  29.019  1.00  0.00     0.034 C 
BRANCH   4   5
ATOM      5  C   UNL     1     -10.581 -17.083  30.504  1.00  0.00     0.032 C 
BRANCH   5   6
ATOM      6  C   UNL     1     -10.971 -18.513  30.788  1.00  0.00    -0.028 C 
ATOM      7  C   UNL     1     -12.521 -20.351  31.304  1.00  0.00     0.039 C 
ATOM      8  C   UNL     1     -12.242 -18.897  31.032  1.00  0.00    -0.080 C 
ATOM      9  C   UNL     1     -13.379 -17.902  31.038  1.00  0.00     0.039 C 
ENDBRANCH   5   6
ENDBRANCH   4   5
ENDBRANCH   1   4
BRANCH   2  10
ATOM     10  C   UNL     1     -13.612 -15.036  28.218  1.00  0.00     0.035 C 
BRANCH  10  11
ATOM     11  C   UNL     1     -13.891 -13.575  28.592  1.00  0.00     0.079 C 
BRANCH  11  12
ATOM     12  C   UNL     1     -14.956 -13.467  29.653  1.00  0.00     0.130 C 
ATOM     13  O   UNL     1     -14.744 -13.915  30.769  1.00  0.00    -0.300 OA
ATOM     14  C   UNL     1     -16.258 -12.779  29.372  1.00  0.00     0.087 C 
ENDBRANCH  11  12
ENDBRANCH  10  11
ENDBRANCH   2  10
TORSDOF 6
ENDMDL
MODEL 7
REMARK VINA RESULT:    -4.791      1.427      2.070
REMARK INTER + INTRA:          -7.611
REMARK INTER:                  -6.621
REMARK INTRA:                  -0.990
REMARK UNBOUND:                -1.139
REMARK SMILES CC(=O)CCC=C(C)CCC=C(C)C
REMARK SMILES IDX 7 1 6 2 8 3 9 4 10 5 11 6 13 7 12 8 14 9 5 10 4 11 2 12 3 13
REMARK SMILES IDX 1 14
REMARK H PARENT
REMARK Flexibility Score: inf
ROOT
ATOM      1  C   UNL     1     -12.332 -15.620  28.657  1.00  0.00    -0.077 C 
ATOM      2  C   UNL     1     -11.327 -16.069  29.443  1.00  0.00    -0.028 C 
ATOM      3  C   UNL     1     -12.875 -16.441  27.509  1.00  0.00     0.039 C 
ENDROOT
BRANCH   1   4
ATOM      4  C   UNL     1     -12.939 -14.264  28.945  1.00  0.00     0.034 C 
BRANCH   4   5
ATOM      5  C   UNL     1     -14.380 -14.406  29.448  1.00  0.00     0.032 C 
BRANCH   5   6
ATOM      6  C   UNL     1     -14.493 -14.012  30.902  1.00  0.00    -0.028 C 
ATOM      7  C   UNL     1     -14.483 -14.392  33.331  1.00  0.00     0.039 C 
ATOM      8  C   UNL     1     -14.351 -14.891  31.917  1.00  0.00    -0.080 C 
ATOM      9  C   UNL     1     -14.064 -16.352  31.661  1.00  0.00     0.039 C 
ENDBRANCH   5   6
ENDBRANCH   4   5
ENDBRANCH   1   4
BRANCH   2  10
ATOM     10  C   UNL     1     -10.605 -17.381  29.246  1.00  0.00     0.035 C 
BRANCH  10  11
ATOM     11  C   UNL     1     -10.750 -18.300  30.466  1.00  0.00     0.079 C 
BRANCH  11  12
ATOM     12  C   UNL     1     -11.964 -19.186  30.353  1.00  0.00     0.130 C 
ATOM     13  O   UNL     1     -12.425 -19.442  29.251  1.00  0.00    -0.300 OA
ATOM     14  C   UNL     1     -12.593 -19.792  31.572  1.00  0.00     0.087 C 
ENDBRANCH  11  12
ENDBRANCH  10  11
ENDBRANCH   2  10
TORSDOF 6
ENDMDL
MODEL 8
REMARK VINA RESULT:    -4.772      1.906      4.779
REMARK INTER + INTRA:          -7.585
REMARK INTER:                  -6.990
REMARK INTRA:                  -0.595
REMARK UNBOUND:                -1.139
REMARK SMILES CC(=O)CCC=C(C)CCC=C(C)C
REMARK SMILES IDX 7 1 6 2 8 3 9 4 10 5 11 6 13 7 12 8 14 9 5 10 4 11 2 12 3 13
REMARK SMILES IDX 1 14
REMARK H PARENT
REMARK Flexibility Score: inf
ROOT
ATOM      1  C   UNL     1     -12.073 -15.652  30.266  1.00  0.00    -0.077 C 
ATOM      2  C   UNL     1     -12.255 -15.063  29.063  1.00  0.00    -0.028 C 
ATOM      3  C   UNL     1     -13.202 -15.801  31.260  1.00  0.00     0.039 C 
ENDROOT
BRANCH   1   4
ATOM      4  C   UNL     1     -10.703 -16.189  30.621  1.00  0.00     0.034 C 
BRANCH   4   5
ATOM      5  C   UNL     1     -10.761 -17.696  30.892  1.00  0.00     0.032 C 
BRANCH   5   6
ATOM      6  C   UNL     1     -11.548 -18.416  29.823  1.00  0.00    -0.028 C 
ATOM      7  C   UNL     1     -13.253 -19.961  28.957  1.00  0.00     0.039 C 
ATOM      8  C   UNL     1     -12.531 -19.299  30.100  1.00  0.00    -0.080 C 
ATOM      9  C   UNL     1     -12.914 -19.633  31.523  1.00  0.00     0.039 C 
ENDBRANCH   5   6
ENDBRANCH   4   5
ENDBRANCH   1   4
BRANCH   2  10
ATOM     10  C   UNL     1     -13.553 -14.449  28.595  1.00  0.00     0.035 C 
BRANCH  10  11
ATOM     11  C   UNL     1     -13.990 -15.006  27.234  1.00  0.00     0.079 C 
BRANCH  11  12
ATOM     12  C   UNL     1     -13.507 -16.418  27.031  1.00  0.00     0.130 C 
ATOM     13  O   UNL     1     -14.172 -17.351  27.455  1.00  0.00    -0.300 OA
ATOM     14  C   UNL     1     -12.241 -16.701  26.279  1.00  0.00     0.087 C 
ENDBRANCH  11  12
ENDBRANCH  10  11
ENDBRANCH   2  10
TORSDOF 6
ENDMDL
MODEL 9
REMARK VINA RESULT:    -4.597      2.814      4.367
REMARK INTER + INTRA:          -7.348
REMARK INTER:                  -6.790
REMARK INTRA:                  -0.558
REMARK UNBOUND:                -1.139
REMARK SMILES CC(=O)CCC=C(C)CCC=C(C)C
REMARK SMILES IDX 7 1 6 2 8 3 9 4 10 5 11 6 13 7 12 8 14 9 5 10 4 11 2 12 3 13
REMARK SMILES IDX 1 14
REMARK H PARENT
REMARK Flexibility Score: inf
ROOT
ATOM      1  C   UNL     1     -14.354 -14.614  31.499  1.00  0.00    -0.077 C 
ATOM      2  C   UNL     1     -13.520 -15.643  31.225  1.00  0.00    -0.028 C 
ATOM      3  C   UNL     1     -14.869 -13.693  30.417  1.00  0.00     0.039 C 
ENDROOT
BRANCH   1   4
ATOM      4  C   UNL     1     -14.796 -14.389  32.929  1.00  0.00     0.034 C 
BRANCH   4   5
ATOM      5  C   UNL     1     -13.657 -14.693  33.908  1.00  0.00     0.032 C 
BRANCH   5   6
ATOM      6  C   UNL     1     -13.579 -13.652  34.999  1.00  0.00    -0.028 C 
ATOM      7  C   UNL     1     -12.517 -12.408  36.835  1.00  0.00     0.039 C 
ATOM      8  C   UNL     1     -12.488 -13.477  35.775  1.00  0.00    -0.080 C 
ATOM      9  C   UNL     1     -11.251 -14.327  35.600  1.00  0.00     0.039 C 
ENDBRANCH   5   6
ENDBRANCH   4   5
ENDBRANCH   1   4
BRANCH   2  10
ATOM     10  C   UNL     1     -12.970 -15.958  29.854  1.00  0.00     0.035 C 
BRANCH  10  11
ATOM     11  C   UNL     1     -13.173 -17.434  29.484  1.00  0.00     0.079 C 
BRANCH  11  12
ATOM     12  C   UNL     1     -12.445 -18.349  30.434  1.00  0.00     0.130 C 
ATOM     13  O   UNL     1     -11.230 -18.275  30.533  1.00  0.00    -0.300 OA
ATOM     14  C   UNL     1     -13.194 -19.323  31.293  1.00  0.00     0.087 C 
ENDBRANCH  11  12
ENDBRANCH  10  11
ENDBRANCH   2  10
TORSDOF 6
ENDMDL
