MODEL 1
REMARK VINA RESULT:    -3.826      0.000      0.000
REMARK INTER + INTRA:          -4.284
REMARK INTER:                  -4.273
REMARK INTRA:                  -0.010
REMARK UNBOUND:                -0.010
REMARK SMILES CCCC(=O)[O-]
REMARK SMILES IDX 3 1 4 2 5 3 6 4 2 5 1 6
REMARK H PARENT
REMARK Flexibility Score: inf
ROOT
ATOM      1  C   UNL     1      22.962 -11.421  20.077  1.00  0.00     0.052 C 
ENDROOT
BRANCH   1   2
ATOM      2  C   UNL     1      22.664 -12.634  19.255  1.00  0.00     0.041 C 
ATOM      3  O   UNL     1      22.537 -12.539  18.007  1.00  0.00    -0.550 OA
ATOM      4  O   UNL     1      22.478 -13.864  19.874  1.00  0.00    -0.550 OA
ENDBRANCH   1   2
BRANCH   1   5
ATOM      5  C   UNL     1      22.615 -11.670  21.547  1.00  0.00     0.003 C 
ATOM      6  C   UNL     1      23.124 -10.536  22.432  1.00  0.00     0.004 C 
ENDBRANCH   1   5
TORSDOF 2
ENDMDL
MODEL 2
REMARK VINA RESULT:    -3.709      2.519      3.612
REMARK INTER + INTRA:          -4.153
REMARK INTER:                  -4.117
REMARK INTRA:                  -0.036
REMARK UNBOUND:                -0.010
REMARK SMILES CCCC(=O)[O-]
REMARK SMILES IDX 3 1 4 2 5 3 6 4 2 5 1 6
REMARK H PARENT
REMARK Flexibility Score: inf
ROOT
ATOM      1  C   UNL     1      22.726 -12.075  20.911  1.00  0.00     0.052 C 
ENDROOT
BRANCH   1   2
ATOM      2  C   UNL     1      23.245 -10.759  21.398  1.00  0.00     0.041 C 
ATOM      3  O   UNL     1      23.026 -10.391  22.581  1.00  0.00    -0.550 OA
ATOM      4  O   UNL     1      23.929  -9.917  20.530  1.00  0.00    -0.550 OA
ENDBRANCH   1   2
BRANCH   1   5
ATOM      5  C   UNL     1      22.382 -11.997  19.421  1.00  0.00     0.003 C 
ATOM      6  C   UNL     1      23.349 -12.832  18.588  1.00  0.00     0.004 C 
ENDBRANCH   1   5
TORSDOF 2
ENDMDL
MODEL 3
REMARK VINA RESULT:    -3.468      2.044      3.707
REMARK INTER + INTRA:          -3.884
REMARK INTER:                  -3.874
REMARK INTRA:                  -0.010
REMARK UNBOUND:                -0.010
REMARK SMILES CCCC(=O)[O-]
REMARK SMILES IDX 3 1 4 2 5 3 6 4 2 5 1 6
REMARK H PARENT
REMARK Flexibility Score: inf
ROOT
ATOM      1  C   UNL     1      22.557 -12.493  18.643  1.00  0.00     0.052 C 
ENDROOT
BRANCH   1   2
ATOM      2  C   UNL     1      22.885 -11.978  20.008  1.00  0.00     0.041 C 
ATOM      3  O   UNL     1      22.644 -12.680  21.024  1.00  0.00    -0.550 OA
ATOM      4  O   UNL     1      23.411 -10.702  20.163  1.00  0.00    -0.550 OA
ENDBRANCH   1   2
BRANCH   1   5
ATOM      5  C   UNL     1      23.834 -12.680  17.819  1.00  0.00     0.003 C 
ATOM      6  C   UNL     1      23.548 -12.558  16.325  1.00  0.00     0.004 C 
ENDBRANCH   1   5
TORSDOF 2
ENDMDL
MODEL 4
REMARK VINA RESULT:    -3.326      1.850      2.295
REMARK INTER + INTRA:          -3.725
REMARK INTER:                  -3.706
REMARK INTRA:                  -0.020
REMARK UNBOUND:                -0.010
REMARK SMILES CCCC(=O)[O-]
REMARK SMILES IDX 3 1 4 2 5 3 6 4 2 5 1 6
REMARK H PARENT
REMARK Flexibility Score: inf
ROOT
ATOM      1  C   UNL     1      22.770 -12.628  18.920  1.00  0.00     0.052 C 
ENDROOT
BRANCH   1   2
ATOM      2  C   UNL     1      23.642 -12.301  17.749  1.00  0.00     0.041 C 
ATOM      3  O   UNL     1      24.716 -11.667  17.917  1.00  0.00    -0.550 OA
ATOM      4  O   UNL     1      23.244 -12.654  16.466  1.00  0.00    -0.550 OA
ENDBRANCH   1   2
BRANCH   1   5
ATOM      5  C   UNL     1      22.818 -11.502  19.956  1.00  0.00     0.003 C 
ATOM      6  C   UNL     1      22.644 -12.047  21.370  1.00  0.00     0.004 C 
ENDBRANCH   1   5
TORSDOF 2
ENDMDL
MODEL 5
REMARK VINA RESULT:    -3.178      3.527      4.776
REMARK INTER + INTRA:          -3.560
REMARK INTER:                  -3.544
REMARK INTRA:                  -0.016
REMARK UNBOUND:                -0.010
REMARK SMILES CCCC(=O)[O-]
REMARK SMILES IDX 3 1 4 2 5 3 6 4 2 5 1 6
REMARK H PARENT
REMARK Flexibility Score: inf
ROOT
ATOM      1  C   UNL     1      24.103 -12.344  15.923  1.00  0.00     0.052 C 
ENDROOT
BRANCH   1   2
ATOM      2  C   UNL     1      23.834 -12.847  17.305  1.00  0.00     0.041 C 
ATOM      3  O   UNL     1      24.636 -13.643  17.858  1.00  0.00    -0.550 OA
ATOM      4  O   UNL     1      22.669 -12.475  17.966  1.00  0.00    -0.550 OA
ENDBRANCH   1   2
BRANCH   1   5
ATOM      5  C   UNL     1      24.896 -11.035  15.973  1.00  0.00     0.003 C 
ATOM      6  C   UNL     1      26.063 -11.061  14.991  1.00  0.00     0.004 C 
ENDBRANCH   1   5
TORSDOF 2
ENDMDL
MODEL 6
REMARK VINA RESULT:    -3.112      3.368      4.152
REMARK INTER + INTRA:          -3.486
REMARK INTER:                  -3.456
REMARK INTRA:                  -0.030
REMARK UNBOUND:                -0.010
REMARK SMILES CCCC(=O)[O-]
REMARK SMILES IDX 3 1 4 2 5 3 6 4 2 5 1 6
REMARK H PARENT
REMARK Flexibility Score: inf
ROOT
ATOM      1  C   UNL     1      23.774 -12.536  16.558  1.00  0.00     0.052 C 
ENDROOT
BRANCH   1   2
ATOM      2  C   UNL     1      24.821 -11.510  16.264  1.00  0.00     0.041 C 
ATOM      3  O   UNL     1      24.757 -10.821  15.213  1.00  0.00    -0.550 OA
ATOM      4  O   UNL     1      25.898 -11.349  17.127  1.00  0.00    -0.550 OA
ENDBRANCH   1   2
BRANCH   1   5
ATOM      5  C   UNL     1      23.841 -12.966  18.025  1.00  0.00     0.003 C 
ATOM      6  C   UNL     1      22.601 -12.513  18.789  1.00  0.00     0.004 C 
ENDBRANCH   1   5
TORSDOF 2
ENDMDL
MODEL 7
REMARK VINA RESULT:    -3.023      4.145      4.918
REMARK INTER + INTRA:          -3.386
REMARK INTER:                  -3.332
REMARK INTRA:                  -0.054
REMARK UNBOUND:                -0.010
REMARK SMILES CCCC(=O)[O-]
REMARK SMILES IDX 3 1 4 2 5 3 6 4 2 5 1 6
REMARK H PARENT
REMARK Flexibility Score: inf
ROOT
ATOM      1  C   UNL     1      24.783 -11.172  15.938  1.00  0.00     0.052 C 
ENDROOT
BRANCH   1   2
ATOM      2  C   UNL     1      25.722 -10.993  17.088  1.00  0.00     0.041 C 
ATOM      3  O   UNL     1      26.687 -11.784  17.247  1.00  0.00    -0.550 OA
ATOM      4  O   UNL     1      25.500  -9.983  18.016  1.00  0.00    -0.550 OA
ENDBRANCH   1   2
BRANCH   1   5
ATOM      5  C   UNL     1      24.002 -12.481  16.080  1.00  0.00     0.003 C 
ATOM      6  C   UNL     1      23.206 -12.508  17.381  1.00  0.00     0.004 C 
ENDBRANCH   1   5
TORSDOF 2
ENDMDL
MODEL 8
REMARK VINA RESULT:    -3.005      5.524      6.313
REMARK INTER + INTRA:          -3.367
REMARK INTER:                  -3.359
REMARK INTRA:                  -0.007
REMARK UNBOUND:                -0.010
REMARK SMILES CCCC(=O)[O-]
REMARK SMILES IDX 3 1 4 2 5 3 6 4 2 5 1 6
REMARK H PARENT
REMARK Flexibility Score: inf
ROOT
ATOM      1  C   UNL     1      25.603 -11.149  15.055  1.00  0.00     0.052 C 
ENDROOT
BRANCH   1   2
ATOM      2  C   UNL     1      26.989 -10.708  15.401  1.00  0.00     0.041 C 
ATOM      3  O   UNL     1      27.970 -11.110  14.723  1.00  0.00    -0.550 OA
ATOM      4  O   UNL     1      27.204  -9.891  16.504  1.00  0.00    -0.550 OA
ENDBRANCH   1   2
BRANCH   1   5
ATOM      5  C   UNL     1      24.823 -11.510  16.322  1.00  0.00     0.003 C 
ATOM      6  C   UNL     1      23.804 -12.612  16.046  1.00  0.00     0.004 C 
ENDBRANCH   1   5
TORSDOF 2
ENDMDL
MODEL 9
REMARK VINA RESULT:    -2.878      5.751      6.403
REMARK INTER + INTRA:          -3.225
REMARK INTER:                  -3.158
REMARK INTRA:                  -0.068
REMARK UNBOUND:                -0.010
REMARK SMILES CCCC(=O)[O-]
REMARK SMILES IDX 3 1 4 2 5 3 6 4 2 5 1 6
REMARK H PARENT
REMARK Flexibility Score: inf
ROOT
ATOM      1  C   UNL     1      27.248 -10.215  15.709  1.00  0.00     0.052 C 
ENDROOT
BRANCH   1   2
ATOM      2  C   UNL     1      27.398 -10.768  17.090  1.00  0.00     0.041 C 
ATOM      3  O   UNL     1      27.872 -11.920  17.264  1.00  0.00    -0.550 OA
ATOM      4  O   UNL     1      26.967 -10.029  18.185  1.00  0.00    -0.550 OA
ENDBRANCH   1   2
BRANCH   1   5
ATOM      5  C   UNL     1      26.279 -11.072  14.890  1.00  0.00     0.003 C 
ATOM      6  C   UNL     1      24.887 -11.076  15.514  1.00  0.00     0.004 C 
ENDBRANCH   1   5
TORSDOF 2
ENDMDL
