MODEL 1
REMARK VINA RESULT:    -2.824      0.000      0.000
REMARK INTER + INTRA:          -3.726
REMARK INTER:                  -3.484
REMARK INTRA:                  -0.242
REMARK UNBOUND:                -0.242
REMARK SMILES CCCCCC(=O)[O-]
REMARK SMILES IDX 4 1 5 2 6 3 7 4 8 5 3 6 2 7 1 8
REMARK H PARENT
REMARK Flexibility Score: inf
ROOT
ATOM      1  C   UNL     1      -7.986  20.205  15.405  1.00  0.00     0.006 C 
ENDROOT
BRANCH   1   2
ATOM      2  C   UNL     1      -8.870  20.688  16.568  1.00  0.00     0.053 C 
BRANCH   2   3
ATOM      3  C   UNL     1      -8.148  21.624  17.490  1.00  0.00     0.041 C 
ATOM      4  O   UNL     1      -7.234  21.192  18.241  1.00  0.00    -0.550 OA
ATOM      5  O   UNL     1      -8.507  22.964  17.546  1.00  0.00    -0.550 OA
ENDBRANCH   2   3
ENDBRANCH   1   2
BRANCH   1   6
ATOM      6  C   UNL     1      -7.205  21.332  14.705  1.00  0.00     0.000 C 
BRANCH   6   7
ATOM      7  C   UNL     1      -5.765  20.935  14.349  1.00  0.00    -0.003 C 
ATOM      8  C   UNL     1      -4.967  20.585  15.602  1.00  0.00     0.004 C 
ENDBRANCH   6   7
ENDBRANCH   1   6
TORSDOF 4
ENDMDL
MODEL 2
REMARK VINA RESULT:    -2.754      1.331      1.647
REMARK INTER + INTRA:          -3.640
REMARK INTER:                  -3.541
REMARK INTRA:                  -0.099
REMARK UNBOUND:                -0.242
REMARK SMILES CCCCCC(=O)[O-]
REMARK SMILES IDX 4 1 5 2 6 3 7 4 8 5 3 6 2 7 1 8
REMARK H PARENT
REMARK Flexibility Score: inf
ROOT
ATOM      1  C   UNL     1      -7.447  21.438  16.777  1.00  0.00     0.006 C 
ENDROOT
BRANCH   1   2
ATOM      2  C   UNL     1      -8.372  22.453  17.472  1.00  0.00     0.053 C 
BRANCH   2   3
ATOM      3  C   UNL     1      -8.321  22.349  18.967  1.00  0.00     0.041 C 
ATOM      4  O   UNL     1      -8.283  21.219  19.521  1.00  0.00    -0.550 OA
ATOM      5  O   UNL     1      -8.352  23.497  19.748  1.00  0.00    -0.550 OA
ENDBRANCH   2   3
ENDBRANCH   1   2
BRANCH   1   6
ATOM      6  C   UNL     1      -7.956  20.968  15.402  1.00  0.00     0.000 C 
BRANCH   6   7
ATOM      7  C   UNL     1      -6.822  20.679  14.408  1.00  0.00    -0.003 C 
ATOM      8  C   UNL     1      -5.465  21.048  15.001  1.00  0.00     0.004 C 
ENDBRANCH   6   7
ENDBRANCH   1   6
TORSDOF 4
ENDMDL
MODEL 3
REMARK VINA RESULT:    -2.751      1.748      2.486
REMARK INTER + INTRA:          -3.636
REMARK INTER:                  -3.558
REMARK INTRA:                  -0.078
REMARK UNBOUND:                -0.242
REMARK SMILES CCCCCC(=O)[O-]
REMARK SMILES IDX 4 1 5 2 6 3 7 4 8 5 3 6 2 7 1 8
REMARK H PARENT
REMARK Flexibility Score: inf
ROOT
ATOM      1  C   UNL     1      -8.693  21.670  17.299  1.00  0.00     0.006 C 
ENDROOT
BRANCH   1   2
ATOM      2  C   UNL     1      -8.799  23.036  18.000  1.00  0.00     0.053 C 
BRANCH   2   3
ATOM      3  C   UNL     1      -8.512  22.951  19.469  1.00  0.00     0.041 C 
ATOM      4  O   UNL     1      -8.068  23.955  20.085  1.00  0.00    -0.550 OA
ATOM      5  O   UNL     1      -8.702  21.756  20.150  1.00  0.00    -0.550 OA
ENDBRANCH   2   3
ENDBRANCH   1   2
BRANCH   1   6
ATOM      6  C   UNL     1      -7.325  21.410  16.641  1.00  0.00     0.000 C 
BRANCH   6   7
ATOM      7  C   UNL     1      -7.431  21.069  15.148  1.00  0.00    -0.003 C 
ATOM      8  C   UNL     1      -6.053  21.036  14.493  1.00  0.00     0.004 C 
ENDBRANCH   6   7
ENDBRANCH   1   6
TORSDOF 4
ENDMDL
MODEL 4
REMARK VINA RESULT:    -2.558      2.992      4.289
REMARK INTER + INTRA:          -3.398
REMARK INTER:                  -3.340
REMARK INTRA:                  -0.058
REMARK UNBOUND:                -0.242
REMARK SMILES CCCCCC(=O)[O-]
REMARK SMILES IDX 4 1 5 2 6 3 7 4 8 5 3 6 2 7 1 8
REMARK H PARENT
REMARK Flexibility Score: inf
ROOT
ATOM      1  C   UNL     1      -4.887  21.190  15.385  1.00  0.00     0.006 C 
ENDROOT
BRANCH   1   2
ATOM      2  C   UNL     1      -4.207  19.987  16.062  1.00  0.00     0.053 C 
BRANCH   2   3
ATOM      3  C   UNL     1      -2.894  20.347  16.690  1.00  0.00     0.041 C 
ATOM      4  O   UNL     1      -2.686  20.101  17.907  1.00  0.00    -0.550 OA
ATOM      5  O   UNL     1      -1.914  20.985  15.941  1.00  0.00    -0.550 OA
ENDBRANCH   2   3
ENDBRANCH   1   2
BRANCH   1   6
ATOM      6  C   UNL     1      -5.979  20.802  14.372  1.00  0.00     0.000 C 
BRANCH   6   7
ATOM      7  C   UNL     1      -7.395  21.159  14.847  1.00  0.00    -0.003 C 
ATOM      8  C   UNL     1      -7.381  21.657  16.289  1.00  0.00     0.004 C 
ENDBRANCH   6   7
ENDBRANCH   1   6
TORSDOF 4
ENDMDL
MODEL 5
REMARK VINA RESULT:    -2.532      2.383      4.124
REMARK INTER + INTRA:          -3.367
REMARK INTER:                  -3.308
REMARK INTRA:                  -0.059
REMARK UNBOUND:                -0.242
REMARK SMILES CCCCCC(=O)[O-]
REMARK SMILES IDX 4 1 5 2 6 3 7 4 8 5 3 6 2 7 1 8
REMARK H PARENT
REMARK Flexibility Score: inf
ROOT
ATOM      1  C   UNL     1      -7.925  21.491  17.329  1.00  0.00     0.006 C 
ENDROOT
BRANCH   1   2
ATOM      2  C   UNL     1      -7.578  21.418  15.832  1.00  0.00     0.053 C 
BRANCH   2   3
ATOM      3  C   UNL     1      -6.227  20.816  15.584  1.00  0.00     0.041 C 
ATOM      4  O   UNL     1      -5.606  20.248  16.520  1.00  0.00    -0.550 OA
ATOM      5  O   UNL     1      -5.640  20.912  14.329  1.00  0.00    -0.550 OA
ENDBRANCH   2   3
ENDBRANCH   1   2
BRANCH   1   6
ATOM      6  C   UNL     1      -8.476  22.857  17.777  1.00  0.00     0.000 C 
BRANCH   6   7
ATOM      7  C   UNL     1      -9.028  22.843  19.210  1.00  0.00    -0.003 C 
ATOM      8  C   UNL     1      -8.081  23.555  20.171  1.00  0.00     0.004 C 
ENDBRANCH   6   7
ENDBRANCH   1   6
TORSDOF 4
ENDMDL
MODEL 6
REMARK VINA RESULT:    -2.329      2.653      4.647
REMARK INTER + INTRA:          -3.116
REMARK INTER:                  -2.890
REMARK INTRA:                  -0.227
REMARK UNBOUND:                -0.242
REMARK SMILES CCCCCC(=O)[O-]
REMARK SMILES IDX 4 1 5 2 6 3 7 4 8 5 3 6 2 7 1 8
REMARK H PARENT
REMARK Flexibility Score: inf
ROOT
ATOM      1  C   UNL     1      -7.005  21.476  19.614  1.00  0.00     0.006 C 
ENDROOT
BRANCH   1   2
ATOM      2  C   UNL     1      -7.522  20.856  18.304  1.00  0.00     0.053 C 
BRANCH   2   3
ATOM      3  C   UNL     1      -7.908  21.891  17.291  1.00  0.00     0.041 C 
ATOM      4  O   UNL     1      -7.561  21.758  16.088  1.00  0.00    -0.550 OA
ATOM      5  O   UNL     1      -8.618  23.019  17.680  1.00  0.00    -0.550 OA
ENDBRANCH   2   3
ENDBRANCH   1   2
BRANCH   1   6
ATOM      6  C   UNL     1      -7.982  21.342  20.797  1.00  0.00     0.000 C 
BRANCH   6   7
ATOM      7  C   UNL     1      -8.483  22.695  21.320  1.00  0.00    -0.003 C 
ATOM      8  C   UNL     1      -7.517  23.818  20.951  1.00  0.00     0.004 C 
ENDBRANCH   6   7
ENDBRANCH   1   6
TORSDOF 4
ENDMDL
MODEL 7
REMARK VINA RESULT:    -2.286      1.976      3.608
REMARK INTER + INTRA:          -3.063
REMARK INTER:                  -2.991
REMARK INTRA:                  -0.073
REMARK UNBOUND:                -0.242
REMARK SMILES CCCCCC(=O)[O-]
REMARK SMILES IDX 4 1 5 2 6 3 7 4 8 5 3 6 2 7 1 8
REMARK H PARENT
REMARK Flexibility Score: inf
ROOT
ATOM      1  C   UNL     1      -6.938  20.592  14.629  1.00  0.00     0.006 C 
ENDROOT
BRANCH   1   2
ATOM      2  C   UNL     1      -5.667  21.248  15.196  1.00  0.00     0.053 C 
BRANCH   2   3
ATOM      3  C   UNL     1      -4.873  20.313  16.058  1.00  0.00     0.041 C 
ATOM      4  O   UNL     1      -5.355  19.886  17.139  1.00  0.00    -0.550 OA
ATOM      5  O   UNL     1      -3.587  19.942  15.686  1.00  0.00    -0.550 OA
ENDBRANCH   2   3
ENDBRANCH   1   2
BRANCH   1   6
ATOM      6  C   UNL     1      -8.168  20.717  15.545  1.00  0.00     0.000 C 
BRANCH   6   7
ATOM      7  C   UNL     1      -8.046  21.860  16.563  1.00  0.00    -0.003 C 
ATOM      8  C   UNL     1      -8.562  21.432  17.934  1.00  0.00     0.004 C 
ENDBRANCH   6   7
ENDBRANCH   1   6
TORSDOF 4
ENDMDL
MODEL 8
REMARK VINA RESULT:    -2.159      3.911      5.999
REMARK INTER + INTRA:          -2.906
REMARK INTER:                  -2.828
REMARK INTRA:                  -0.078
REMARK UNBOUND:                -0.242
REMARK SMILES CCCCCC(=O)[O-]
REMARK SMILES IDX 4 1 5 2 6 3 7 4 8 5 3 6 2 7 1 8
REMARK H PARENT
REMARK Flexibility Score: inf
ROOT
ATOM      1  C   UNL     1      -7.972  23.278  20.983  1.00  0.00     0.006 C 
ENDROOT
BRANCH   1   2
ATOM      2  C   UNL     1      -8.736  23.384  19.652  1.00  0.00     0.053 C 
BRANCH   2   3
ATOM      3  C   UNL     1      -8.197  22.457  18.604  1.00  0.00     0.041 C 
ATOM      4  O   UNL     1      -8.458  22.656  17.389  1.00  0.00    -0.550 OA
ATOM      5  O   UNL     1      -7.438  21.354  18.972  1.00  0.00    -0.550 OA
ENDBRANCH   2   3
ENDBRANCH   1   2
BRANCH   1   6
ATOM      6  C   UNL     1      -8.743  22.532  22.088  1.00  0.00     0.000 C 
BRANCH   6   7
ATOM      7  C   UNL     1      -7.954  22.421  23.401  1.00  0.00    -0.003 C 
ATOM      8  C   UNL     1      -7.492  20.986  23.643  1.00  0.00     0.004 C 
ENDBRANCH   6   7
ENDBRANCH   1   6
TORSDOF 4
ENDMDL
MODEL 9
REMARK VINA RESULT:    -2.108     18.000     18.803
REMARK INTER + INTRA:          -2.843
REMARK INTER:                  -2.757
REMARK INTRA:                  -0.086
REMARK UNBOUND:                -0.242
REMARK SMILES CCCCCC(=O)[O-]
REMARK SMILES IDX 4 1 5 2 6 3 7 4 8 5 3 6 2 7 1 8
REMARK H PARENT
REMARK Flexibility Score: inf
ROOT
ATOM      1  C   UNL     1       9.952  22.703  12.881  1.00  0.00     0.006 C 
ENDROOT
BRANCH   1   2
ATOM      2  C   UNL     1      11.103  23.109  11.944  1.00  0.00     0.053 C 
BRANCH   2   3
ATOM      3  C   UNL     1      10.776  24.320  11.123  1.00  0.00     0.041 C 
ATOM      4  O   UNL     1      11.115  24.373   9.911  1.00  0.00    -0.550 OA
ATOM      5  O   UNL     1      10.131  25.404  11.704  1.00  0.00    -0.550 OA
ENDBRANCH   2   3
ENDBRANCH   1   2
BRANCH   1   6
ATOM      6  C   UNL     1      10.418  22.117  14.226  1.00  0.00     0.000 C 
BRANCH   6   7
ATOM      7  C   UNL     1      11.123  23.148  15.119  1.00  0.00    -0.003 C 
ATOM      8  C   UNL     1      10.843  22.879  16.595  1.00  0.00     0.004 C 
ENDBRANCH   6   7
ENDBRANCH   1   6
TORSDOF 4
ENDMDL
