MODEL 1
REMARK VINA RESULT:    -2.619      0.000      0.000
REMARK INTER + INTRA:          -7.148
REMARK INTER:                  -4.763
REMARK INTRA:                  -2.384
REMARK UNBOUND:                -2.384
REMARK SMILES CCCCCCCCCCCCCCCC(=O)[O-]
REMARK SMILES IDX 9 1 10 2 11 3 12 4 13 5 14 6 15 7 16 8 17 9 18 10 8 11 7 12
REMARK SMILES IDX 6 13 5 14 4 15 3 16 2 17 1 18
REMARK H PARENT
REMARK Flexibility Score: inf
ROOT
ATOM      1  C   UNL     1     -28.620  59.877  35.060  1.00  0.00     0.000 C 
ENDROOT
BRANCH   1   2
ATOM      2  C   UNL     1     -29.123  60.014  36.507  1.00  0.00     0.000 C 
BRANCH   2   3
ATOM      3  C   UNL     1     -28.114  59.471  37.534  1.00  0.00     0.000 C 
BRANCH   3   4
ATOM      4  C   UNL     1     -28.581  58.160  38.193  1.00  0.00     0.000 C 
BRANCH   4   5
ATOM      5  C   UNL     1     -27.586  56.985  38.097  1.00  0.00     0.000 C 
BRANCH   5   6
ATOM      6  C   UNL     1     -26.116  57.350  38.373  1.00  0.00     0.006 C 
BRANCH   6   7
ATOM      7  C   UNL     1     -25.161  56.826  37.293  1.00  0.00     0.053 C 
BRANCH   7   8
ATOM      8  C   UNL     1     -24.130  57.860  36.965  1.00  0.00     0.041 C 
ATOM      9  O   UNL     1     -24.366  59.079  37.173  1.00  0.00    -0.550 OA
ATOM     10  O   UNL     1     -22.890  57.473  36.472  1.00  0.00    -0.550 OA
ENDBRANCH   7   8
ENDBRANCH   6   7
ENDBRANCH   5   6
ENDBRANCH   4   5
ENDBRANCH   3   4
ENDBRANCH   2   3
ENDBRANCH   1   2
BRANCH   1  11
ATOM     11  C   UNL     1     -27.097  59.666  34.983  1.00  0.00     0.000 C 
BRANCH  11  12
ATOM     12  C   UNL     1     -26.717  58.378  34.234  1.00  0.00    -0.000 C 
BRANCH  12  13
ATOM     13  C   UNL     1     -27.775  57.956  33.204  1.00  0.00    -0.000 C 
BRANCH  13  14
ATOM     14  C   UNL     1     -28.216  56.502  33.434  1.00  0.00    -0.000 C 
BRANCH  14  15
ATOM     15  C   UNL     1     -27.497  55.839  34.623  1.00  0.00    -0.000 C 
BRANCH  15  16
ATOM     16  C   UNL     1     -27.091  54.368  34.404  1.00  0.00    -0.000 C 
BRANCH  16  17
ATOM     17  C   UNL     1     -25.592  54.073  34.584  1.00  0.00    -0.003 C 
ATOM     18  C   UNL     1     -24.697  55.192  34.053  1.00  0.00     0.004 C 
ENDBRANCH  16  17
ENDBRANCH  15  16
ENDBRANCH  14  15
ENDBRANCH  13  14
ENDBRANCH  12  13
ENDBRANCH  11  12
ENDBRANCH   1  11
TORSDOF 14
ENDMDL
MODEL 2
REMARK VINA RESULT:    -2.585      3.735      6.075
REMARK INTER + INTRA:          -7.085
REMARK INTER:                  -5.436
REMARK INTRA:                  -1.650
REMARK UNBOUND:                -2.384
REMARK SMILES CCCCCCCCCCCCCCCC(=O)[O-]
REMARK SMILES IDX 9 1 10 2 11 3 12 4 13 5 14 6 15 7 16 8 17 9 18 10 8 11 7 12
REMARK SMILES IDX 6 13 5 14 4 15 3 16 2 17 1 18
REMARK H PARENT
REMARK Flexibility Score: inf
ROOT
ATOM      1  C   UNL     1     -27.191  57.907  34.040  1.00  0.00     0.000 C 
ENDROOT
BRANCH   1   2
ATOM      2  C   UNL     1     -27.879  56.565  33.737  1.00  0.00     0.000 C 
BRANCH   2   3
ATOM      3  C   UNL     1     -27.502  55.469  34.749  1.00  0.00     0.000 C 
BRANCH   3   4
ATOM      4  C   UNL     1     -26.344  54.580  34.262  1.00  0.00     0.000 C 
BRANCH   4   5
ATOM      5  C   UNL     1     -26.582  53.871  32.913  1.00  0.00     0.000 C 
BRANCH   5   6
ATOM      6  C   UNL     1     -27.929  53.135  32.791  1.00  0.00     0.006 C 
BRANCH   6   7
ATOM      7  C   UNL     1     -27.966  51.827  33.591  1.00  0.00     0.053 C 
BRANCH   7   8
ATOM      8  C   UNL     1     -29.020  50.914  33.047  1.00  0.00     0.041 C 
ATOM      9  O   UNL     1     -30.125  50.799  33.639  1.00  0.00    -0.550 OA
ATOM     10  O   UNL     1     -28.799  50.228  31.860  1.00  0.00    -0.550 OA
ENDBRANCH   7   8
ENDBRANCH   6   7
ENDBRANCH   5   6
ENDBRANCH   4   5
ENDBRANCH   3   4
ENDBRANCH   2   3
ENDBRANCH   1   2
BRANCH   1  11
ATOM     11  C   UNL     1     -28.190  58.998  34.465  1.00  0.00     0.000 C 
BRANCH  11  12
ATOM     12  C   UNL     1     -27.706  59.797  35.687  1.00  0.00    -0.000 C 
BRANCH  12  13
ATOM     13  C   UNL     1     -28.755  59.862  36.807  1.00  0.00    -0.000 C 
BRANCH  13  14
ATOM     14  C   UNL     1     -28.193  59.291  38.118  1.00  0.00    -0.000 C 
BRANCH  14  15
ATOM     15  C   UNL     1     -28.619  57.833  38.367  1.00  0.00    -0.000 C 
BRANCH  15  16
ATOM     16  C   UNL     1     -27.521  56.779  38.120  1.00  0.00    -0.000 C 
BRANCH  16  17
ATOM     17  C   UNL     1     -26.085  57.261  38.387  1.00  0.00    -0.003 C 
ATOM     18  C   UNL     1     -25.200  57.214  37.142  1.00  0.00     0.004 C 
ENDBRANCH  16  17
ENDBRANCH  15  16
ENDBRANCH  14  15
ENDBRANCH  13  14
ENDBRANCH  12  13
ENDBRANCH  11  12
ENDBRANCH   1  11
TORSDOF 14
ENDMDL
MODEL 3
REMARK VINA RESULT:    -2.535      1.681      2.577
REMARK INTER + INTRA:          -6.995
REMARK INTER:                  -5.406
REMARK INTRA:                  -1.588
REMARK UNBOUND:                -2.384
REMARK SMILES CCCCCCCCCCCCCCCC(=O)[O-]
REMARK SMILES IDX 9 1 10 2 11 3 12 4 13 5 14 6 15 7 16 8 17 9 18 10 8 11 7 12
REMARK SMILES IDX 6 13 5 14 4 15 3 16 2 17 1 18
REMARK H PARENT
REMARK Flexibility Score: inf
ROOT
ATOM      1  C   UNL     1     -27.444  59.490  34.699  1.00  0.00     0.000 C 
ENDROOT
BRANCH   1   2
ATOM      2  C   UNL     1     -28.857  60.009  35.010  1.00  0.00     0.000 C 
BRANCH   2   3
ATOM      3  C   UNL     1     -29.141  60.073  36.521  1.00  0.00     0.000 C 
BRANCH   3   4
ATOM      4  C   UNL     1     -28.047  59.393  37.363  1.00  0.00     0.000 C 
BRANCH   4   5
ATOM      5  C   UNL     1     -28.505  58.155  38.161  1.00  0.00     0.000 C 
BRANCH   5   6
ATOM      6  C   UNL     1     -27.612  56.911  38.004  1.00  0.00     0.006 C 
BRANCH   6   7
ATOM      7  C   UNL     1     -26.204  57.249  37.499  1.00  0.00     0.053 C 
BRANCH   7   8
ATOM      8  C   UNL     1     -25.251  57.358  38.648  1.00  0.00     0.041 C 
ATOM      9  O   UNL     1     -24.506  58.366  38.759  1.00  0.00    -0.550 OA
ATOM     10  O   UNL     1     -25.221  56.368  39.621  1.00  0.00    -0.550 OA
ENDBRANCH   7   8
ENDBRANCH   6   7
ENDBRANCH   5   6
ENDBRANCH   4   5
ENDBRANCH   3   4
ENDBRANCH   2   3
ENDBRANCH   1   2
BRANCH   1  11
ATOM     11  C   UNL     1     -27.434  58.452  33.563  1.00  0.00     0.000 C 
BRANCH  11  12
ATOM     12  C   UNL     1     -27.856  57.052  34.039  1.00  0.00    -0.000 C 
BRANCH  12  13
ATOM     13  C   UNL     1     -26.792  55.983  33.753  1.00  0.00    -0.000 C 
BRANCH  13  14
ATOM     14  C   UNL     1     -26.895  54.823  34.756  1.00  0.00    -0.000 C 
BRANCH  14  15
ATOM     15  C   UNL     1     -26.351  53.497  34.197  1.00  0.00    -0.000 C 
BRANCH  15  16
ATOM     16  C   UNL     1     -27.389  52.363  34.074  1.00  0.00    -0.000 C 
BRANCH  16  17
ATOM     17  C   UNL     1     -28.441  52.561  32.970  1.00  0.00    -0.003 C 
ATOM     18  C   UNL     1     -29.491  51.450  32.943  1.00  0.00     0.004 C 
ENDBRANCH  16  17
ENDBRANCH  15  16
ENDBRANCH  14  15
ENDBRANCH  13  14
ENDBRANCH  12  13
ENDBRANCH  11  12
ENDBRANCH   1  11
TORSDOF 14
ENDMDL
MODEL 4
REMARK VINA RESULT:    -2.516      3.310      5.628
REMARK INTER + INTRA:          -6.960
REMARK INTER:                  -5.015
REMARK INTRA:                  -1.945
REMARK UNBOUND:                -2.384
REMARK SMILES CCCCCCCCCCCCCCCC(=O)[O-]
REMARK SMILES IDX 9 1 10 2 11 3 12 4 13 5 14 6 15 7 16 8 17 9 18 10 8 11 7 12
REMARK SMILES IDX 6 13 5 14 4 15 3 16 2 17 1 18
REMARK H PARENT
REMARK Flexibility Score: inf
ROOT
ATOM      1  C   UNL     1     -27.602  58.550  33.407  1.00  0.00     0.000 C 
ENDROOT
BRANCH   1   2
ATOM      2  C   UNL     1     -27.695  58.235  31.905  1.00  0.00     0.000 C 
BRANCH   2   3
ATOM      3  C   UNL     1     -28.025  56.758  31.633  1.00  0.00     0.000 C 
BRANCH   3   4
ATOM      4  C   UNL     1     -28.130  55.922  32.921  1.00  0.00     0.000 C 
BRANCH   4   5
ATOM      5  C   UNL     1     -26.952  54.961  33.179  1.00  0.00     0.000 C 
BRANCH   5   6
ATOM      6  C   UNL     1     -27.209  53.887  34.252  1.00  0.00     0.006 C 
BRANCH   6   7
ATOM      7  C   UNL     1     -26.481  52.569  33.961  1.00  0.00     0.053 C 
BRANCH   7   8
ATOM      8  C   UNL     1     -27.440  51.421  34.015  1.00  0.00     0.041 C 
ATOM      9  O   UNL     1     -27.021  50.255  34.236  1.00  0.00    -0.550 OA
ATOM     10  O   UNL     1     -28.802  51.648  33.868  1.00  0.00    -0.550 OA
ENDBRANCH   7   8
ENDBRANCH   6   7
ENDBRANCH   5   6
ENDBRANCH   4   5
ENDBRANCH   3   4
ENDBRANCH   2   3
ENDBRANCH   1   2
BRANCH   1  11
ATOM     11  C   UNL     1     -26.240  59.149  33.800  1.00  0.00     0.000 C 
BRANCH  11  12
ATOM     12  C   UNL     1     -25.816  58.766  35.228  1.00  0.00    -0.000 C 
BRANCH  12  13
ATOM     13  C   UNL     1     -25.193  57.365  35.307  1.00  0.00    -0.000 C 
BRANCH  13  14
ATOM     14  C   UNL     1     -25.763  56.576  36.496  1.00  0.00    -0.000 C 
BRANCH  14  15
ATOM     15  C   UNL     1     -27.293  56.693  36.614  1.00  0.00    -0.000 C 
BRANCH  15  16
ATOM     16  C   UNL     1     -27.813  57.092  38.009  1.00  0.00    -0.000 C 
BRANCH  16  17
ATOM     17  C   UNL     1     -28.386  58.517  38.107  1.00  0.00    -0.003 C 
ATOM     18  C   UNL     1     -27.341  59.550  38.526  1.00  0.00     0.004 C 
ENDBRANCH  16  17
ENDBRANCH  15  16
ENDBRANCH  14  15
ENDBRANCH  13  14
ENDBRANCH  12  13
ENDBRANCH  11  12
ENDBRANCH   1  11
TORSDOF 14
ENDMDL
MODEL 5
REMARK VINA RESULT:    -2.512      2.734      4.714
REMARK INTER + INTRA:          -6.952
REMARK INTER:                  -5.320
REMARK INTRA:                  -1.633
REMARK UNBOUND:                -2.384
REMARK SMILES CCCCCCCCCCCCCCCC(=O)[O-]
REMARK SMILES IDX 9 1 10 2 11 3 12 4 13 5 14 6 15 7 16 8 17 9 18 10 8 11 7 12
REMARK SMILES IDX 6 13 5 14 4 15 3 16 2 17 1 18
REMARK H PARENT
REMARK Flexibility Score: inf
ROOT
ATOM      1  C   UNL     1     -26.767  55.902  31.202  1.00  0.00     0.000 C 
ENDROOT
BRANCH   1   2
ATOM      2  C   UNL     1     -27.617  56.965  31.919  1.00  0.00     0.000 C 
BRANCH   2   3
ATOM      3  C   UNL     1     -28.231  56.441  33.228  1.00  0.00     0.000 C 
BRANCH   3   4
ATOM      4  C   UNL     1     -27.685  57.162  34.474  1.00  0.00     0.000 C 
BRANCH   4   5
ATOM      5  C   UNL     1     -27.365  56.248  35.674  1.00  0.00     0.000 C 
BRANCH   5   6
ATOM      6  C   UNL     1     -26.787  56.968  36.907  1.00  0.00     0.006 C 
BRANCH   6   7
ATOM      7  C   UNL     1     -27.865  57.370  37.921  1.00  0.00     0.053 C 
BRANCH   7   8
ATOM      8  C   UNL     1     -28.114  58.845  37.858  1.00  0.00     0.041 C 
ATOM      9  O   UNL     1     -28.930  59.314  37.024  1.00  0.00    -0.550 OA
ATOM     10  O   UNL     1     -27.479  59.695  38.755  1.00  0.00    -0.550 OA
ENDBRANCH   7   8
ENDBRANCH   6   7
ENDBRANCH   5   6
ENDBRANCH   4   5
ENDBRANCH   3   4
ENDBRANCH   2   3
ENDBRANCH   1   2
BRANCH   1  11
ATOM     11  C   UNL     1     -25.663  55.324  32.105  1.00  0.00     0.000 C 
BRANCH  11  12
ATOM     12  C   UNL     1     -25.819  53.812  32.333  1.00  0.00    -0.000 C 
BRANCH  12  13
ATOM     13  C   UNL     1     -26.032  53.453  33.811  1.00  0.00    -0.000 C 
BRANCH  13  14
ATOM     14  C   UNL     1     -27.354  52.694  34.006  1.00  0.00    -0.000 C 
BRANCH  14  15
ATOM     15  C   UNL     1     -28.257  52.734  32.761  1.00  0.00    -0.000 C 
BRANCH  15  16
ATOM     16  C   UNL     1     -29.481  51.797  32.810  1.00  0.00    -0.000 C 
BRANCH  16  17
ATOM     17  C   UNL     1     -29.445  50.737  33.924  1.00  0.00    -0.003 C 
ATOM     18  C   UNL     1     -29.110  49.339  33.405  1.00  0.00     0.004 C 
ENDBRANCH  16  17
ENDBRANCH  15  16
ENDBRANCH  14  15
ENDBRANCH  13  14
ENDBRANCH  12  13
ENDBRANCH  11  12
ENDBRANCH   1  11
TORSDOF 14
ENDMDL
MODEL 6
REMARK VINA RESULT:    -2.492      2.465      4.584
REMARK INTER + INTRA:          -6.917
REMARK INTER:                  -4.592
REMARK INTRA:                  -2.325
REMARK UNBOUND:                -2.384
REMARK SMILES CCCCCCCCCCCCCCCC(=O)[O-]
REMARK SMILES IDX 9 1 10 2 11 3 12 4 13 5 14 6 15 7 16 8 17 9 18 10 8 11 7 12
REMARK SMILES IDX 6 13 5 14 4 15 3 16 2 17 1 18
REMARK H PARENT
REMARK Flexibility Score: inf
ROOT
ATOM      1  C   UNL     1     -28.571  59.593  36.172  1.00  0.00     0.000 C 
ENDROOT
BRANCH   1   2
ATOM      2  C   UNL     1     -27.384  59.817  35.221  1.00  0.00     0.000 C 
BRANCH   2   3
ATOM      3  C   UNL     1     -26.881  58.508  34.588  1.00  0.00     0.000 C 
BRANCH   3   4
ATOM      4  C   UNL     1     -27.916  57.863  33.649  1.00  0.00     0.000 C 
BRANCH   4   5
ATOM      5  C   UNL     1     -27.947  56.321  33.664  1.00  0.00     0.000 C 
BRANCH   5   6
ATOM      6  C   UNL     1     -27.392  55.669  34.943  1.00  0.00     0.006 C 
BRANCH   6   7
ATOM      7  C   UNL     1     -26.314  54.617  34.655  1.00  0.00     0.053 C 
BRANCH   7   8
ATOM      8  C   UNL     1     -26.840  53.577  33.716  1.00  0.00     0.041 C 
ATOM      9  O   UNL     1     -26.413  53.517  32.534  1.00  0.00    -0.550 OA
ATOM     10  O   UNL     1     -27.768  52.644  34.162  1.00  0.00    -0.550 OA
ENDBRANCH   7   8
ENDBRANCH   6   7
ENDBRANCH   5   6
ENDBRANCH   4   5
ENDBRANCH   3   4
ENDBRANCH   2   3
ENDBRANCH   1   2
BRANCH   1  11
ATOM     11  C   UNL     1     -28.125  59.385  37.631  1.00  0.00     0.000 C 
BRANCH  11  12
ATOM     12  C   UNL     1     -28.597  58.040  38.207  1.00  0.00    -0.000 C 
BRANCH  12  13
ATOM     13  C   UNL     1     -27.475  56.993  38.266  1.00  0.00    -0.000 C 
BRANCH  13  14
ATOM     14  C   UNL     1     -26.095  57.667  38.252  1.00  0.00    -0.000 C 
BRANCH  14  15
ATOM     15  C   UNL     1     -25.031  56.839  37.509  1.00  0.00    -0.000 C 
BRANCH  15  16
ATOM     16  C   UNL     1     -23.973  57.663  36.748  1.00  0.00    -0.000 C 
BRANCH  16  17
ATOM     17  C   UNL     1     -23.555  57.086  35.385  1.00  0.00    -0.003 C 
ATOM     18  C   UNL     1     -22.753  55.791  35.509  1.00  0.00     0.004 C 
ENDBRANCH  16  17
ENDBRANCH  15  16
ENDBRANCH  14  15
ENDBRANCH  13  14
ENDBRANCH  12  13
ENDBRANCH  11  12
ENDBRANCH   1  11
TORSDOF 14
ENDMDL
MODEL 7
REMARK VINA RESULT:    -2.459      1.179      2.538
REMARK INTER + INTRA:          -6.855
REMARK INTER:                  -4.825
REMARK INTRA:                  -2.031
REMARK UNBOUND:                -2.384
REMARK SMILES CCCCCCCCCCCCCCCC(=O)[O-]
REMARK SMILES IDX 9 1 10 2 11 3 12 4 13 5 14 6 15 7 16 8 17 9 18 10 8 11 7 12
REMARK SMILES IDX 6 13 5 14 4 15 3 16 2 17 1 18
REMARK H PARENT
REMARK Flexibility Score: inf
ROOT
ATOM      1  C   UNL     1     -27.460  58.302  33.935  1.00  0.00     0.000 C 
ENDROOT
BRANCH   1   2
ATOM      2  C   UNL     1     -28.523  59.307  34.407  1.00  0.00     0.000 C 
BRANCH   2   3
ATOM      3  C   UNL     1     -28.061  60.125  35.625  1.00  0.00     0.000 C 
BRANCH   3   4
ATOM      4  C   UNL     1     -28.922  59.873  36.875  1.00  0.00     0.000 C 
BRANCH   4   5
ATOM      5  C   UNL     1     -28.170  59.276  38.083  1.00  0.00     0.000 C 
BRANCH   5   6
ATOM      6  C   UNL     1     -28.488  57.800  38.385  1.00  0.00     0.006 C 
BRANCH   6   7
ATOM      7  C   UNL     1     -27.563  56.828  37.641  1.00  0.00     0.053 C 
BRANCH   7   8
ATOM      8  C   UNL     1     -26.131  57.210  37.850  1.00  0.00     0.041 C 
ATOM      9  O   UNL     1     -25.587  57.041  38.972  1.00  0.00    -0.550 OA
ATOM     10  O   UNL     1     -25.384  57.709  36.790  1.00  0.00    -0.550 OA
ENDBRANCH   7   8
ENDBRANCH   6   7
ENDBRANCH   5   6
ENDBRANCH   4   5
ENDBRANCH   3   4
ENDBRANCH   2   3
ENDBRANCH   1   2
BRANCH   1  11
ATOM     11  C   UNL     1     -27.921  56.841  34.086  1.00  0.00     0.000 C 
BRANCH  11  12
ATOM     12  C   UNL     1     -27.991  56.102  32.739  1.00  0.00    -0.000 C 
BRANCH  12  13
ATOM     13  C   UNL     1     -27.668  54.606  32.866  1.00  0.00    -0.000 C 
BRANCH  13  14
ATOM     14  C   UNL     1     -27.234  54.258  34.298  1.00  0.00    -0.000 C 
BRANCH  14  15
ATOM     15  C   UNL     1     -25.842  53.604  34.360  1.00  0.00    -0.000 C 
BRANCH  15  16
ATOM     16  C   UNL     1     -24.753  54.302  33.521  1.00  0.00    -0.000 C 
BRANCH  16  17
ATOM     17  C   UNL     1     -24.304  55.675  34.051  1.00  0.00    -0.003 C 
ATOM     18  C   UNL     1     -24.247  56.744  32.960  1.00  0.00     0.004 C 
ENDBRANCH  16  17
ENDBRANCH  15  16
ENDBRANCH  14  15
ENDBRANCH  13  14
ENDBRANCH  12  13
ENDBRANCH  11  12
ENDBRANCH   1  11
TORSDOF 14
ENDMDL
MODEL 8
REMARK VINA RESULT:    -2.432      1.995      4.452
REMARK INTER + INTRA:          -6.806
REMARK INTER:                  -4.414
REMARK INTRA:                  -2.392
REMARK UNBOUND:                -2.384
REMARK SMILES CCCCCCCCCCCCCCCC(=O)[O-]
REMARK SMILES IDX 9 1 10 2 11 3 12 4 13 5 14 6 15 7 16 8 17 9 18 10 8 11 7 12
REMARK SMILES IDX 6 13 5 14 4 15 3 16 2 17 1 18
REMARK H PARENT
REMARK Flexibility Score: inf
ROOT
ATOM      1  C   UNL     1     -26.949  58.505  34.741  1.00  0.00     0.000 C 
ENDROOT
BRANCH   1   2
ATOM      2  C   UNL     1     -27.868  58.047  33.597  1.00  0.00     0.000 C 
BRANCH   2   3
ATOM      3  C   UNL     1     -28.099  56.527  33.599  1.00  0.00     0.000 C 
BRANCH   3   4
ATOM      4  C   UNL     1     -27.430  55.823  34.794  1.00  0.00     0.000 C 
BRANCH   4   5
ATOM      5  C   UNL     1     -26.843  54.429  34.491  1.00  0.00     0.000 C 
BRANCH   5   6
ATOM      6  C   UNL     1     -25.314  54.319  34.637  1.00  0.00     0.006 C 
BRANCH   6   7
ATOM      7  C   UNL     1     -24.571  55.518  34.035  1.00  0.00     0.053 C 
BRANCH   7   8
ATOM      8  C   UNL     1     -24.494  55.388  32.546  1.00  0.00     0.041 C 
ATOM      9  O   UNL     1     -23.903  54.407  32.025  1.00  0.00    -0.550 OA
ATOM     10  O   UNL     1     -25.118  56.328  31.735  1.00  0.00    -0.550 OA
ENDBRANCH   7   8
ENDBRANCH   6   7
ENDBRANCH   5   6
ENDBRANCH   4   5
ENDBRANCH   3   4
ENDBRANCH   2   3
ENDBRANCH   1   2
BRANCH   1  11
ATOM     11  C   UNL     1     -27.472  59.768  35.449  1.00  0.00     0.000 C 
BRANCH  11  12
ATOM     12  C   UNL     1     -28.665  59.474  36.373  1.00  0.00    -0.000 C 
BRANCH  12  13
ATOM     13  C   UNL     1     -28.245  59.261  37.835  1.00  0.00    -0.000 C 
BRANCH  13  14
ATOM     14  C   UNL     1     -28.508  57.812  38.276  1.00  0.00    -0.000 C 
BRANCH  14  15
ATOM     15  C   UNL     1     -27.253  56.925  38.194  1.00  0.00    -0.000 C 
BRANCH  15  16
ATOM     16  C   UNL     1     -25.922  57.642  38.498  1.00  0.00    -0.000 C 
BRANCH  16  17
ATOM     17  C   UNL     1     -24.799  57.389  37.478  1.00  0.00    -0.003 C 
ATOM     18  C   UNL     1     -24.064  56.071  37.718  1.00  0.00     0.004 C 
ENDBRANCH  16  17
ENDBRANCH  15  16
ENDBRANCH  14  15
ENDBRANCH  13  14
ENDBRANCH  12  13
ENDBRANCH  11  12
ENDBRANCH   1  11
TORSDOF 14
ENDMDL
MODEL 9
REMARK VINA RESULT:    -2.430      1.907      4.136
REMARK INTER + INTRA:          -6.802
REMARK INTER:                  -4.256
REMARK INTRA:                  -2.546
REMARK UNBOUND:                -2.384
REMARK SMILES CCCCCCCCCCCCCCCC(=O)[O-]
REMARK SMILES IDX 9 1 10 2 11 3 12 4 13 5 14 6 15 7 16 8 17 9 18 10 8 11 7 12
REMARK SMILES IDX 6 13 5 14 4 15 3 16 2 17 1 18
REMARK H PARENT
REMARK Flexibility Score: inf
ROOT
ATOM      1  C   UNL     1     -28.287  56.417  32.809  1.00  0.00     0.000 C 
ENDROOT
BRANCH   1   2
ATOM      2  C   UNL     1     -27.609  57.578  32.064  1.00  0.00     0.000 C 
BRANCH   2   3
ATOM      3  C   UNL     1     -27.512  58.852  32.921  1.00  0.00     0.000 C 
BRANCH   3   4
ATOM      4  C   UNL     1     -28.306  58.748  34.236  1.00  0.00     0.000 C 
BRANCH   4   5
ATOM      5  C   UNL     1     -27.843  59.697  35.360  1.00  0.00     0.000 C 
BRANCH   5   6
ATOM      6  C   UNL     1     -28.769  59.752  36.590  1.00  0.00     0.006 C 
BRANCH   6   7
ATOM      7  C   UNL     1     -27.997  59.763  37.915  1.00  0.00     0.053 C 
BRANCH   7   8
ATOM      8  C   UNL     1     -27.526  58.384  38.255  1.00  0.00     0.041 C 
ATOM      9  O   UNL     1     -28.325  57.412  38.205  1.00  0.00    -0.550 OA
ATOM     10  O   UNL     1     -26.194  58.165  38.582  1.00  0.00    -0.550 OA
ENDBRANCH   7   8
ENDBRANCH   6   7
ENDBRANCH   5   6
ENDBRANCH   4   5
ENDBRANCH   3   4
ENDBRANCH   2   3
ENDBRANCH   1   2
BRANCH   1  11
ATOM     11  C   UNL     1     -27.540  55.084  32.627  1.00  0.00     0.000 C 
BRANCH  11  12
ATOM     12  C   UNL     1     -26.888  54.590  33.930  1.00  0.00    -0.000 C 
BRANCH  12  13
ATOM     13  C   UNL     1     -27.230  55.475  35.137  1.00  0.00    -0.000 C 
BRANCH  13  14
ATOM     14  C   UNL     1     -25.956  56.046  35.778  1.00  0.00    -0.000 C 
BRANCH  14  15
ATOM     15  C   UNL     1     -25.002  56.682  34.751  1.00  0.00    -0.000 C 
BRANCH  15  16
ATOM     16  C   UNL     1     -24.523  58.106  35.096  1.00  0.00    -0.000 C 
BRANCH  16  17
ATOM     17  C   UNL     1     -23.981  58.917  33.907  1.00  0.00    -0.003 C 
ATOM     18  C   UNL     1     -23.853  58.086  32.630  1.00  0.00     0.004 C 
ENDBRANCH  16  17
ENDBRANCH  15  16
ENDBRANCH  14  15
ENDBRANCH  13  14
ENDBRANCH  12  13
ENDBRANCH  11  12
ENDBRANCH   1  11
TORSDOF 14
ENDMDL
