MODEL 1
REMARK VINA RESULT:    -2.985      0.000      0.000
REMARK INTER + INTRA:          -4.257
REMARK INTER:                  -4.032
REMARK INTRA:                  -0.224
REMARK UNBOUND:                -0.224
REMARK SMILES CCCCCCCC(=O)[O-]
REMARK SMILES IDX 5 1 6 2 7 3 8 4 9 5 10 6 4 7 3 8 2 9 1 10
REMARK H PARENT
REMARK Flexibility Score: inf
ROOT
ATOM      1  C   UNL     1      -4.234  11.294  -3.789  1.00  0.00     0.000 C 
ENDROOT
BRANCH   1   2
ATOM      2  C   UNL     1      -3.592  12.184  -2.718  1.00  0.00     0.006 C 
BRANCH   2   3
ATOM      3  C   UNL     1      -4.657  12.813  -1.815  1.00  0.00     0.053 C 
BRANCH   3   4
ATOM      4  C   UNL     1      -4.172  12.881  -0.402  1.00  0.00     0.041 C 
ATOM      5  O   UNL     1      -2.947  12.742  -0.145  1.00  0.00    -0.550 OA
ATOM      6  O   UNL     1      -5.079  13.048   0.637  1.00  0.00    -0.550 OA
ENDBRANCH   3   4
ENDBRANCH   2   3
ENDBRANCH   1   2
BRANCH   1   7
ATOM      7  C   UNL     1      -3.343  10.089  -4.111  1.00  0.00     0.000 C 
BRANCH   7   8
ATOM      8  C   UNL     1      -4.069   9.099  -5.034  1.00  0.00    -0.000 C 
BRANCH   8   9
ATOM      9  C   UNL     1      -5.594   9.286  -5.016  1.00  0.00    -0.003 C 
ATOM     10  C   UNL     1      -6.350   7.972  -4.824  1.00  0.00     0.004 C 
ENDBRANCH   8   9
ENDBRANCH   7   8
ENDBRANCH   1   7
TORSDOF 6
ENDMDL
MODEL 2
REMARK VINA RESULT:    -2.936     15.300     16.080
REMARK INTER + INTRA:          -4.190
REMARK INTER:                  -3.994
REMARK INTRA:                  -0.196
REMARK UNBOUND:                -0.224
REMARK SMILES CCCCCCCC(=O)[O-]
REMARK SMILES IDX 5 1 6 2 7 3 8 4 9 5 10 6 4 7 3 8 2 9 1 10
REMARK H PARENT
REMARK Flexibility Score: inf
ROOT
ATOM      1  C   UNL     1       7.451   0.184  -6.127  1.00  0.00     0.000 C 
ENDROOT
BRANCH   1   2
ATOM      2  C   UNL     1       7.501   0.602  -4.652  1.00  0.00     0.006 C 
BRANCH   2   3
ATOM      3  C   UNL     1       7.687   2.116  -4.517  1.00  0.00     0.053 C 
BRANCH   3   4
ATOM      4  C   UNL     1       8.967   2.424  -3.805  1.00  0.00     0.041 C 
ATOM      5  O   UNL     1       8.947   2.814  -2.608  1.00  0.00    -0.550 OA
ATOM      6  O   UNL     1      10.177   2.328  -4.479  1.00  0.00    -0.550 OA
ENDBRANCH   3   4
ENDBRANCH   2   3
ENDBRANCH   1   2
BRANCH   1   7
ATOM      7  C   UNL     1       6.847  -1.217  -6.283  1.00  0.00     0.000 C 
BRANCH   7   8
ATOM      8  C   UNL     1       5.319  -1.145  -6.411  1.00  0.00    -0.000 C 
BRANCH   8   9
ATOM      9  C   UNL     1       4.803  -1.799  -7.702  1.00  0.00    -0.003 C 
ATOM     10  C   UNL     1       4.162  -0.796  -8.660  1.00  0.00     0.004 C 
ENDBRANCH   8   9
ENDBRANCH   7   8
ENDBRANCH   1   7
TORSDOF 6
ENDMDL
MODEL 3
REMARK VINA RESULT:    -2.932     15.489     16.116
REMARK INTER + INTRA:          -4.185
REMARK INTER:                  -4.008
REMARK INTRA:                  -0.177
REMARK UNBOUND:                -0.224
REMARK SMILES CCCCCCCC(=O)[O-]
REMARK SMILES IDX 5 1 6 2 7 3 8 4 9 5 10 6 4 7 3 8 2 9 1 10
REMARK H PARENT
REMARK Flexibility Score: inf
ROOT
ATOM      1  C   UNL     1       6.553  -0.875  -6.744  1.00  0.00     0.000 C 
ENDROOT
BRANCH   1   2
ATOM      2  C   UNL     1       7.006  -0.209  -5.439  1.00  0.00     0.006 C 
BRANCH   2   3
ATOM      3  C   UNL     1       7.991   0.931  -5.717  1.00  0.00     0.053 C 
BRANCH   3   4
ATOM      4  C   UNL     1       8.134   1.805  -4.512  1.00  0.00     0.041 C 
ATOM      5  O   UNL     1       9.260   1.956  -3.968  1.00  0.00    -0.550 OA
ATOM      6  O   UNL     1       7.015   2.416  -3.959  1.00  0.00    -0.550 OA
ENDBRANCH   3   4
ENDBRANCH   2   3
ENDBRANCH   1   2
BRANCH   1   7
ATOM      7  C   UNL     1       5.069  -1.253  -6.683  1.00  0.00     0.000 C 
BRANCH   7   8
ATOM      8  C   UNL     1       4.445  -1.259  -8.086  1.00  0.00    -0.000 C 
BRANCH   8   9
ATOM      9  C   UNL     1       3.779  -2.601  -8.430  1.00  0.00    -0.003 C 
ATOM     10  C   UNL     1       3.943  -3.644  -7.325  1.00  0.00     0.004 C 
ENDBRANCH   8   9
ENDBRANCH   7   8
ENDBRANCH   1   7
TORSDOF 6
ENDMDL
MODEL 4
REMARK VINA RESULT:    -2.927      3.456      5.501
REMARK INTER + INTRA:          -4.178
REMARK INTER:                  -3.926
REMARK INTRA:                  -0.252
REMARK UNBOUND:                -0.224
REMARK SMILES CCCCCCCC(=O)[O-]
REMARK SMILES IDX 5 1 6 2 7 3 8 4 9 5 10 6 4 7 3 8 2 9 1 10
REMARK H PARENT
REMARK Flexibility Score: inf
ROOT
ATOM      1  C   UNL     1      -3.984  12.130  -3.897  1.00  0.00     0.000 C 
ENDROOT
BRANCH   1   2
ATOM      2  C   UNL     1      -3.537  10.688  -3.625  1.00  0.00     0.006 C 
BRANCH   2   3
ATOM      3  C   UNL     1      -4.232   9.710  -4.577  1.00  0.00     0.053 C 
BRANCH   3   4
ATOM      4  C   UNL     1      -3.221   8.906  -5.332  1.00  0.00     0.041 C 
ATOM      5  O   UNL     1      -2.158   9.446  -5.738  1.00  0.00    -0.550 OA
ATOM      6  O   UNL     1      -3.474   7.573  -5.630  1.00  0.00    -0.550 OA
ENDBRANCH   3   4
ENDBRANCH   2   3
ENDBRANCH   1   2
BRANCH   1   7
ATOM      7  C   UNL     1      -4.755  12.702  -2.701  1.00  0.00     0.000 C 
BRANCH   7   8
ATOM      8  C   UNL     1      -3.989  12.469  -1.391  1.00  0.00    -0.000 C 
BRANCH   8   9
ATOM      9  C   UNL     1      -4.739  13.012  -0.165  1.00  0.00    -0.003 C 
ATOM     10  C   UNL     1      -6.008  13.777  -0.538  1.00  0.00     0.004 C 
ENDBRANCH   8   9
ENDBRANCH   7   8
ENDBRANCH   1   7
TORSDOF 6
ENDMDL
MODEL 5
REMARK VINA RESULT:    -2.865      1.263      2.362
REMARK INTER + INTRA:          -4.094
REMARK INTER:                  -3.764
REMARK INTRA:                  -0.330
REMARK UNBOUND:                -0.224
REMARK SMILES CCCCCCCC(=O)[O-]
REMARK SMILES IDX 5 1 6 2 7 3 8 4 9 5 10 6 4 7 3 8 2 9 1 10
REMARK H PARENT
REMARK Flexibility Score: inf
ROOT
ATOM      1  C   UNL     1      -5.872  13.241  -3.510  1.00  0.00     0.000 C 
ENDROOT
BRANCH   1   2
ATOM      2  C   UNL     1      -5.118  13.754  -2.277  1.00  0.00     0.006 C 
BRANCH   2   3
ATOM      3  C   UNL     1      -6.013  13.727  -1.035  1.00  0.00     0.053 C 
BRANCH   3   4
ATOM      4  C   UNL     1      -5.254  13.214   0.147  1.00  0.00     0.041 C 
ATOM      5  O   UNL     1      -5.654  13.464   1.315  1.00  0.00    -0.550 OA
ATOM      6  O   UNL     1      -4.077  12.500  -0.039  1.00  0.00    -0.550 OA
ENDBRANCH   3   4
ENDBRANCH   2   3
ENDBRANCH   1   2
BRANCH   1   7
ATOM      7  C   UNL     1      -5.000  12.282  -4.329  1.00  0.00     0.000 C 
BRANCH   7   8
ATOM      8  C   UNL     1      -3.947  11.603  -3.442  1.00  0.00    -0.000 C 
BRANCH   8   9
ATOM      9  C   UNL     1      -3.562  10.205  -3.948  1.00  0.00    -0.003 C 
ATOM     10  C   UNL     1      -4.700   9.512  -4.696  1.00  0.00     0.004 C 
ENDBRANCH   8   9
ENDBRANCH   7   8
ENDBRANCH   1   7
TORSDOF 6
ENDMDL
MODEL 6
REMARK VINA RESULT:    -2.863     13.020     14.245
REMARK INTER + INTRA:          -4.092
REMARK INTER:                  -3.668
REMARK INTRA:                  -0.424
REMARK UNBOUND:                -0.224
REMARK SMILES CCCCCCCC(=O)[O-]
REMARK SMILES IDX 5 1 6 2 7 3 8 4 9 5 10 6 4 7 3 8 2 9 1 10
REMARK H PARENT
REMARK Flexibility Score: inf
ROOT
ATOM      1  C   UNL     1       8.553   8.500   2.440  1.00  0.00     0.000 C 
ENDROOT
BRANCH   1   2
ATOM      2  C   UNL     1       8.326   7.211   1.642  1.00  0.00     0.006 C 
BRANCH   2   3
ATOM      3  C   UNL     1       9.321   7.099   0.484  1.00  0.00     0.053 C 
BRANCH   3   4
ATOM      4  C   UNL     1       9.554   5.664   0.130  1.00  0.00     0.041 C 
ATOM      5  O   UNL     1      10.032   5.358  -0.994  1.00  0.00    -0.550 OA
ATOM      6  O   UNL     1       9.198   4.661   1.023  1.00  0.00    -0.550 OA
ENDBRANCH   3   4
ENDBRANCH   2   3
ENDBRANCH   1   2
BRANCH   1   7
ATOM      7  C   UNL     1       7.294   9.375   2.444  1.00  0.00     0.000 C 
BRANCH   7   8
ATOM      8  C   UNL     1       6.313   8.930   1.349  1.00  0.00    -0.000 C 
BRANCH   8   9
ATOM      9  C   UNL     1       6.224   9.937   0.192  1.00  0.00    -0.003 C 
ATOM     10  C   UNL     1       6.799   9.390  -1.114  1.00  0.00     0.004 C 
ENDBRANCH   8   9
ENDBRANCH   7   8
ENDBRANCH   1   7
TORSDOF 6
ENDMDL
MODEL 7
REMARK VINA RESULT:    -2.858     16.067     16.929
REMARK INTER + INTRA:          -4.084
REMARK INTER:                  -3.699
REMARK INTRA:                  -0.385
REMARK UNBOUND:                -0.224
REMARK SMILES CCCCCCCC(=O)[O-]
REMARK SMILES IDX 5 1 6 2 7 3 8 4 9 5 10 6 4 7 3 8 2 9 1 10
REMARK H PARENT
REMARK Flexibility Score: inf
ROOT
ATOM      1  C   UNL     1       2.115  -3.809   3.448  1.00  0.00     0.000 C 
ENDROOT
BRANCH   1   2
ATOM      2  C   UNL     1       1.439  -2.825   2.486  1.00  0.00     0.006 C 
BRANCH   2   3
ATOM      3  C   UNL     1       0.969  -3.535   1.213  1.00  0.00     0.053 C 
BRANCH   3   4
ATOM      4  C   UNL     1       1.853  -3.181   0.059  1.00  0.00     0.041 C 
ATOM      5  O   UNL     1       3.041  -2.814   0.261  1.00  0.00    -0.550 OA
ATOM      6  O   UNL     1       1.351  -3.209  -1.235  1.00  0.00    -0.550 OA
ENDBRANCH   3   4
ENDBRANCH   2   3
ENDBRANCH   1   2
BRANCH   1   7
ATOM      7  C   UNL     1       1.664  -3.566   4.893  1.00  0.00     0.000 C 
BRANCH   7   8
ATOM      8  C   UNL     1       1.109  -2.144   5.063  1.00  0.00    -0.000 C 
BRANCH   8   9
ATOM      9  C   UNL     1      -0.244  -2.122   5.791  1.00  0.00    -0.003 C 
ATOM     10  C   UNL     1      -1.194  -3.218   5.309  1.00  0.00     0.004 C 
ENDBRANCH   8   9
ENDBRANCH   7   8
ENDBRANCH   1   7
TORSDOF 6
ENDMDL
MODEL 8
REMARK VINA RESULT:    -2.854     12.733     14.066
REMARK INTER + INTRA:          -4.080
REMARK INTER:                  -3.547
REMARK INTRA:                  -0.533
REMARK UNBOUND:                -0.224
REMARK SMILES CCCCCCCC(=O)[O-]
REMARK SMILES IDX 5 1 6 2 7 3 8 4 9 5 10 6 4 7 3 8 2 9 1 10
REMARK H PARENT
REMARK Flexibility Score: inf
ROOT
ATOM      1  C   UNL     1       7.335   8.767  -0.863  1.00  0.00     0.000 C 
ENDROOT
BRANCH   1   2
ATOM      2  C   UNL     1       8.816   8.533  -0.538  1.00  0.00     0.006 C 
BRANCH   2   3
ATOM      3  C   UNL     1       9.158   7.040  -0.580  1.00  0.00     0.053 C 
BRANCH   3   4
ATOM      4  C   UNL     1       9.319   6.500   0.805  1.00  0.00     0.041 C 
ATOM      5  O   UNL     1       9.883   7.193   1.693  1.00  0.00    -0.550 OA
ATOM      6  O   UNL     1       8.892   5.213   1.104  1.00  0.00    -0.550 OA
ENDBRANCH   3   4
ENDBRANCH   2   3
ENDBRANCH   1   2
BRANCH   1   7
ATOM      7  C   UNL     1       6.665   9.629   0.213  1.00  0.00     0.000 C 
BRANCH   7   8
ATOM      8  C   UNL     1       6.313   8.789   1.449  1.00  0.00    -0.000 C 
BRANCH   8   9
ATOM      9  C   UNL     1       7.170   9.151   2.672  1.00  0.00    -0.003 C 
ATOM     10  C   UNL     1       7.784  10.547   2.573  1.00  0.00     0.004 C 
ENDBRANCH   8   9
ENDBRANCH   7   8
ENDBRANCH   1   7
TORSDOF 6
ENDMDL
MODEL 9
REMARK VINA RESULT:    -2.839      3.117      5.263
REMARK INTER + INTRA:          -4.060
REMARK INTER:                  -3.745
REMARK INTRA:                  -0.315
REMARK UNBOUND:                -0.224
REMARK SMILES CCCCCCCC(=O)[O-]
REMARK SMILES IDX 5 1 6 2 7 3 8 4 9 5 10 6 4 7 3 8 2 9 1 10
REMARK H PARENT
REMARK Flexibility Score: inf
ROOT
ATOM      1  C   UNL     1      -4.832  12.868  -2.691  1.00  0.00     0.000 C 
ENDROOT
BRANCH   1   2
ATOM      2  C   UNL     1      -4.603  11.943  -3.893  1.00  0.00     0.006 C 
BRANCH   2   3
ATOM      3  C   UNL     1      -3.476  10.945  -3.611  1.00  0.00     0.053 C 
BRANCH   3   4
ATOM      4  C   UNL     1      -2.344  11.149  -4.568  1.00  0.00     0.041 C 
ATOM      5  O   UNL     1      -1.311  11.769  -4.202  1.00  0.00    -0.550 OA
ATOM      6  O   UNL     1      -2.450  10.698  -5.877  1.00  0.00    -0.550 OA
ENDBRANCH   3   4
ENDBRANCH   2   3
ENDBRANCH   1   2
BRANCH   1   7
ATOM      7  C   UNL     1      -4.000  12.418  -1.484  1.00  0.00     0.000 C 
BRANCH   7   8
ATOM      8  C   UNL     1      -4.627  12.909  -0.171  1.00  0.00    -0.000 C 
BRANCH   8   9
ATOM      9  C   UNL     1      -5.896  13.745  -0.399  1.00  0.00    -0.003 C 
ATOM     10  C   UNL     1      -6.570  14.167   0.906  1.00  0.00     0.004 C 
ENDBRANCH   8   9
ENDBRANCH   7   8
ENDBRANCH   1   7
TORSDOF 6
ENDMDL
