MODEL 1
REMARK VINA RESULT:    -4.573      0.000      0.000
REMARK INTER + INTRA:          -5.193
REMARK INTER:                  -4.974
REMARK INTRA:                  -0.218
REMARK UNBOUND:                -0.218
REMARK SMILES CC(C)(C)[C@H]1C=C[C@H](O)CC1
REMARK SMILES IDX 5 1 11 2 10 3 8 4 7 5 6 6 2 7 1 8 3 9 4 10 9 11
REMARK H PARENT 9 12
REMARK Flexibility Score: inf
ROOT
ATOM      1  C   UNL     1     139.327 143.045 146.096  1.00  0.00     0.017 C 
ATOM      2  C   UNL     1     138.008 142.570 145.428  1.00  0.00     0.011 C 
ATOM      3  C   UNL     1     138.196 142.370 143.923  1.00  0.00     0.037 C 
ATOM      4  C   UNL     1     139.241 141.278 143.665  1.00  0.00     0.137 C 
ATOM      5  C   UNL     1     140.503 141.531 144.447  1.00  0.00     0.000 C 
ATOM      6  C   UNL     1     140.527 142.256 145.579  1.00  0.00    -0.025 C 
ENDROOT
BRANCH   1   7
ATOM      7  C   UNL     1     139.256 143.074 147.673  1.00  0.00    -0.032 C 
ATOM      8  C   UNL     1     139.960 141.834 148.276  1.00  0.00     0.011 C 
ATOM      9  C   UNL     1     139.917 144.346 148.254  1.00  0.00     0.011 C 
ATOM     10  C   UNL     1     137.779 143.032 148.140  1.00  0.00     0.011 C 
ENDBRANCH   1   7
BRANCH   4  11
ATOM     11  O   UNL     1     139.552 141.230 142.298  1.00  0.00    -0.389 OA
ATOM     12  H   UNL     1     138.692 141.300 141.806  1.00  0.00     0.211 HD
ENDBRANCH   4  11
TORSDOF 2
ENDMDL
MODEL 2
REMARK VINA RESULT:    -4.544      0.124      1.328
REMARK INTER + INTRA:          -5.161
REMARK INTER:                  -4.945
REMARK INTRA:                  -0.216
REMARK UNBOUND:                -0.218
REMARK SMILES CC(C)(C)[C@H]1C=C[C@H](O)CC1
REMARK SMILES IDX 5 1 11 2 10 3 8 4 7 5 6 6 2 7 1 8 3 9 4 10 9 11
REMARK H PARENT 9 12
REMARK Flexibility Score: inf
ROOT
ATOM      1  C   UNL     1     139.310 143.057 146.108  1.00  0.00     0.017 C 
ATOM      2  C   UNL     1     137.956 142.667 145.455  1.00  0.00     0.011 C 
ATOM      3  C   UNL     1     138.102 142.503 143.942  1.00  0.00     0.037 C 
ATOM      4  C   UNL     1     139.087 141.370 143.629  1.00  0.00     0.137 C 
ATOM      5  C   UNL     1     140.376 141.538 144.390  1.00  0.00     0.000 C 
ATOM      6  C   UNL     1     140.460 142.227 145.541  1.00  0.00    -0.025 C 
ENDROOT
BRANCH   1   7
ATOM      7  C   UNL     1     139.274 143.042 147.686  1.00  0.00    -0.032 C 
ATOM      8  C   UNL     1     137.815 143.086 148.200  1.00  0.00     0.011 C 
ATOM      9  C   UNL     1     139.962 141.784 148.265  1.00  0.00     0.011 C 
ATOM     10  C   UNL     1     139.993 144.296 148.246  1.00  0.00     0.011 C 
ENDBRANCH   1   7
BRANCH   4  11
ATOM     11  O   UNL     1     139.367 141.347 142.255  1.00  0.00    -0.389 OA
ATOM     12  H   UNL     1     139.918 140.537 142.088  1.00  0.00     0.211 HD
ENDBRANCH   4  11
TORSDOF 2
ENDMDL
MODEL 3
REMARK VINA RESULT:    -4.354      0.827      2.080
REMARK INTER + INTRA:          -4.954
REMARK INTER:                  -4.729
REMARK INTRA:                  -0.224
REMARK UNBOUND:                -0.218
REMARK SMILES CC(C)(C)[C@H]1C=C[C@H](O)CC1
REMARK SMILES IDX 5 1 11 2 10 3 8 4 7 5 6 6 2 7 1 8 3 9 4 10 9 11
REMARK H PARENT 9 12
REMARK Flexibility Score: inf
ROOT
ATOM      1  C   UNL     1     138.823 141.675 146.345  1.00  0.00     0.017 C 
ATOM      2  C   UNL     1     140.307 141.450 145.949  1.00  0.00     0.011 C 
ATOM      3  C   UNL     1     140.420 140.923 144.517  1.00  0.00     0.037 C 
ATOM      4  C   UNL     1     139.849 141.952 143.533  1.00  0.00     0.137 C 
ATOM      5  C   UNL     1     138.475 142.406 143.949  1.00  0.00     0.000 C 
ATOM      6  C   UNL     1     138.044 142.355 145.222  1.00  0.00    -0.025 C 
ENDROOT
BRANCH   1   7
ATOM      7  C   UNL     1     138.647 142.407 147.733  1.00  0.00    -0.032 C 
ATOM      8  C   UNL     1     139.569 143.647 147.817  1.00  0.00     0.011 C 
ATOM      9  C   UNL     1     137.187 142.863 147.961  1.00  0.00     0.011 C 
ATOM     10  C   UNL     1     139.051 141.458 148.889  1.00  0.00     0.011 C 
ENDBRANCH   1   7
BRANCH   4  11
ATOM     11  O   UNL     1     139.776 141.392 142.249  1.00  0.00    -0.389 OA
ATOM     12  H   UNL     1     139.694 142.150 141.611  1.00  0.00     0.211 HD
ENDBRANCH   4  11
TORSDOF 2
ENDMDL
MODEL 4
REMARK VINA RESULT:    -4.337      1.491      2.072
REMARK INTER + INTRA:          -4.936
REMARK INTER:                  -4.710
REMARK INTRA:                  -0.226
REMARK UNBOUND:                -0.218
REMARK SMILES CC(C)(C)[C@H]1C=C[C@H](O)CC1
REMARK SMILES IDX 5 1 11 2 10 3 8 4 7 5 6 6 2 7 1 8 3 9 4 10 9 11
REMARK H PARENT 9 12
REMARK Flexibility Score: inf
ROOT
ATOM      1  C   UNL     1     139.021 141.863 146.413  1.00  0.00     0.017 C 
ATOM      2  C   UNL     1     138.845 140.320 146.398  1.00  0.00     0.011 C 
ATOM      3  C   UNL     1     139.242 139.735 145.042  1.00  0.00     0.037 C 
ATOM      4  C   UNL     1     140.724 140.014 144.763  1.00  0.00     0.137 C 
ATOM      5  C   UNL     1     141.054 141.471 144.962  1.00  0.00     0.000 C 
ATOM      6  C   UNL     1     140.338 142.279 145.762  1.00  0.00    -0.025 C 
ENDROOT
BRANCH   1   7
ATOM      7  C   UNL     1     138.822 142.504 147.842  1.00  0.00    -0.032 C 
ATOM      8  C   UNL     1     139.737 143.740 148.019  1.00  0.00     0.011 C 
ATOM      9  C   UNL     1     137.356 142.938 148.078  1.00  0.00     0.011 C 
ATOM     10  C   UNL     1     139.215 141.485 148.941  1.00  0.00     0.011 C 
ENDBRANCH   1   7
BRANCH   4  11
ATOM     11  O   UNL     1     141.038 139.650 143.446  1.00  0.00    -0.389 OA
ATOM     12  H   UNL     1     142.021 139.752 143.347  1.00  0.00     0.211 HD
ENDBRANCH   4  11
TORSDOF 2
ENDMDL
MODEL 5
REMARK VINA RESULT:    -4.013      9.175      9.916
REMARK INTER + INTRA:          -4.583
REMARK INTER:                  -4.367
REMARK INTRA:                  -0.216
REMARK UNBOUND:                -0.218
REMARK SMILES CC(C)(C)[C@H]1C=C[C@H](O)CC1
REMARK SMILES IDX 5 1 11 2 10 3 8 4 7 5 6 6 2 7 1 8 3 9 4 10 9 11
REMARK H PARENT 9 12
REMARK Flexibility Score: inf
ROOT
ATOM      1  C   UNL     1     135.377 134.159 148.360  1.00  0.00     0.017 C 
ATOM      2  C   UNL     1     134.321 135.261 148.646  1.00  0.00     0.011 C 
ATOM      3  C   UNL     1     134.357 136.349 147.572  1.00  0.00     0.037 C 
ATOM      4  C   UNL     1     134.010 135.748 146.204  1.00  0.00     0.137 C 
ATOM      5  C   UNL     1     134.842 134.525 145.915  1.00  0.00     0.000 C 
ATOM      6  C   UNL     1     135.388 133.769 146.883  1.00  0.00    -0.025 C 
ENDROOT
BRANCH   1   7
ATOM      7  C   UNL     1     135.255 132.908 149.315  1.00  0.00    -0.032 C 
ATOM      8  C   UNL     1     134.278 133.202 150.479  1.00  0.00     0.011 C 
ATOM      9  C   UNL     1     134.756 131.654 148.559  1.00  0.00     0.011 C 
ATOM     10  C   UNL     1     136.632 132.584 149.946  1.00  0.00     0.011 C 
ENDBRANCH   1   7
BRANCH   4  11
ATOM     11  O   UNL     1     134.230 136.699 145.196  1.00  0.00    -0.389 OA
ATOM     12  H   UNL     1     133.382 136.776 144.686  1.00  0.00     0.211 HD
ENDBRANCH   4  11
TORSDOF 2
ENDMDL
MODEL 6
REMARK VINA RESULT:    -3.940     14.851     16.476
REMARK INTER + INTRA:          -4.504
REMARK INTER:                  -4.287
REMARK INTRA:                  -0.216
REMARK UNBOUND:                -0.218
REMARK SMILES CC(C)(C)[C@H]1C=C[C@H](O)CC1
REMARK SMILES IDX 5 1 11 2 10 3 8 4 7 5 6 6 2 7 1 8 3 9 4 10 9 11
REMARK H PARENT 9 12
REMARK Flexibility Score: inf
ROOT
ATOM      1  C   UNL     1     152.506 139.271 136.964  1.00  0.00     0.017 C 
ATOM      2  C   UNL     1     153.118 137.941 136.449  1.00  0.00     0.011 C 
ATOM      3  C   UNL     1     153.087 136.864 137.535  1.00  0.00     0.037 C 
ATOM      4  C   UNL     1     151.637 136.560 137.931  1.00  0.00     0.137 C 
ATOM      5  C   UNL     1     150.878 137.823 138.248  1.00  0.00     0.000 C 
ATOM      6  C   UNL     1     151.221 139.024 137.752  1.00  0.00    -0.025 C 
ENDROOT
BRANCH   1   7
ATOM      7  C   UNL     1     152.323 140.358 135.834  1.00  0.00    -0.032 C 
ATOM      8  C   UNL     1     152.869 139.838 134.482  1.00  0.00     0.011 C 
ATOM      9  C   UNL     1     150.838 140.748 135.647  1.00  0.00     0.011 C 
ATOM     10  C   UNL     1     153.125 141.635 136.189  1.00  0.00     0.011 C 
ENDBRANCH   1   7
BRANCH   4  11
ATOM     11  O   UNL     1     151.616 135.720 139.054  1.00  0.00    -0.389 OA
ATOM     12  H   UNL     1     152.516 135.777 139.471  1.00  0.00     0.211 HD
ENDBRANCH   4  11
TORSDOF 2
ENDMDL
MODEL 7
REMARK VINA RESULT:    -3.908      2.382      4.290
REMARK INTER + INTRA:          -4.469
REMARK INTER:                  -4.246
REMARK INTRA:                  -0.223
REMARK UNBOUND:                -0.218
REMARK SMILES CC(C)(C)[C@H]1C=C[C@H](O)CC1
REMARK SMILES IDX 5 1 11 2 10 3 8 4 7 5 6 6 2 7 1 8 3 9 4 10 9 11
REMARK H PARENT 9 12
REMARK Flexibility Score: inf
ROOT
ATOM      1  C   UNL     1     139.310 141.636 145.635  1.00  0.00     0.017 C 
ATOM      2  C   UNL     1     138.155 142.435 146.298  1.00  0.00     0.011 C 
ATOM      3  C   UNL     1     138.602 143.049 147.625  1.00  0.00     0.037 C 
ATOM      4  C   UNL     1     139.747 144.041 147.387  1.00  0.00     0.137 C 
ATOM      5  C   UNL     1     140.843 143.424 146.557  1.00  0.00     0.000 C 
ATOM      6  C   UNL     1     140.630 142.398 145.714  1.00  0.00    -0.025 C 
ENDROOT
BRANCH   1   7
ATOM      7  C   UNL     1     138.978 141.149 144.171  1.00  0.00    -0.032 C 
ATOM      8  C   UNL     1     140.198 141.344 143.239  1.00  0.00     0.011 C 
ATOM      9  C   UNL     1     138.568 139.658 144.140  1.00  0.00     0.011 C 
ATOM     10  C   UNL     1     137.816 141.989 143.583  1.00  0.00     0.011 C 
ENDBRANCH   1   7
BRANCH   4  11
ATOM     11  O   UNL     1     140.283 144.455 148.615  1.00  0.00    -0.389 OA
ATOM     12  H   UNL     1     140.440 145.433 148.543  1.00  0.00     0.211 HD
ENDBRANCH   4  11
TORSDOF 2
ENDMDL
MODEL 8
REMARK VINA RESULT:    -3.832      7.345      8.520
REMARK INTER + INTRA:          -4.387
REMARK INTER:                  -4.166
REMARK INTRA:                  -0.221
REMARK UNBOUND:                -0.218
REMARK SMILES CC(C)(C)[C@H]1C=C[C@H](O)CC1
REMARK SMILES IDX 5 1 11 2 10 3 8 4 7 5 6 6 2 7 1 8 3 9 4 10 9 11
REMARK H PARENT 9 12
REMARK Flexibility Score: inf
ROOT
ATOM      1  C   UNL     1     135.303 147.333 142.274  1.00  0.00     0.017 C 
ATOM      2  C   UNL     1     135.153 148.306 143.475  1.00  0.00     0.011 C 
ATOM      3  C   UNL     1     136.517 148.658 144.072  1.00  0.00     0.037 C 
ATOM      4  C   UNL     1     137.379 149.374 143.025  1.00  0.00     0.137 C 
ATOM      5  C   UNL     1     137.417 148.609 141.728  1.00  0.00     0.000 C 
ATOM      6  C   UNL     1     136.448 147.754 141.357  1.00  0.00    -0.025 C 
ENDROOT
BRANCH   1   7
ATOM      7  C   UNL     1     133.955 147.092 141.489  1.00  0.00    -0.032 C 
ATOM      8  C   UNL     1     134.160 147.312 139.971  1.00  0.00     0.011 C 
ATOM      9  C   UNL     1     133.410 145.661 141.710  1.00  0.00     0.011 C 
ATOM     10  C   UNL     1     132.880 148.104 141.956  1.00  0.00     0.011 C 
ENDBRANCH   1   7
BRANCH   4  11
ATOM     11  O   UNL     1     138.688 149.523 143.507  1.00  0.00    -0.389 OA
ATOM     12  H   UNL     1     138.808 148.845 144.224  1.00  0.00     0.211 HD
ENDBRANCH   4  11
TORSDOF 2
ENDMDL
MODEL 9
REMARK VINA RESULT:    -3.793      2.347      3.240
REMARK INTER + INTRA:          -4.344
REMARK INTER:                  -4.119
REMARK INTRA:                  -0.225
REMARK UNBOUND:                -0.218
REMARK SMILES CC(C)(C)[C@H]1C=C[C@H](O)CC1
REMARK SMILES IDX 5 1 11 2 10 3 8 4 7 5 6 6 2 7 1 8 3 9 4 10 9 11
REMARK H PARENT 9 12
REMARK Flexibility Score: inf
ROOT
ATOM      1  C   UNL     1     140.019 141.531 146.790  1.00  0.00     0.017 C 
ATOM      2  C   UNL     1     140.712 141.286 145.423  1.00  0.00     0.011 C 
ATOM      3  C   UNL     1     141.404 139.923 145.394  1.00  0.00     0.037 C 
ATOM      4  C   UNL     1     140.371 138.804 145.572  1.00  0.00     0.137 C 
ATOM      5  C   UNL     1     139.489 139.058 146.768  1.00  0.00     0.000 C 
ATOM      6  C   UNL     1     139.269 140.288 147.264  1.00  0.00    -0.025 C 
ENDROOT
BRANCH   1   7
ATOM      7  C   UNL     1     139.117 142.827 146.814  1.00  0.00    -0.032 C 
ATOM      8  C   UNL     1     138.299 142.949 145.507  1.00  0.00     0.011 C 
ATOM      9  C   UNL     1     138.137 142.822 148.011  1.00  0.00     0.011 C 
ATOM     10  C   UNL     1     140.007 144.091 146.915  1.00  0.00     0.011 C 
ENDBRANCH   1   7
BRANCH   4  11
ATOM     11  O   UNL     1     141.023 137.574 145.739  1.00  0.00    -0.389 OA
ATOM     12  H   UNL     1     141.249 137.498 146.703  1.00  0.00     0.211 HD
ENDBRANCH   4  11
TORSDOF 2
ENDMDL
