MODEL 1
REMARK VINA RESULT:    -2.407      0.000      0.000
REMARK INTER + INTRA:          -3.547
REMARK INTER:                  -3.111
REMARK INTRA:                  -0.437
REMARK UNBOUND:                -0.437
REMARK SMILES CCCCCCC(=O)[O-]
REMARK SMILES IDX 5 1 6 2 7 3 8 4 9 5 4 6 3 7 2 8 1 9
REMARK H PARENT
REMARK Flexibility Score: inf
ROOT
ATOM      1  C   UNL     1       9.130 -18.726  17.904  1.00  0.00     0.006 C 
ENDROOT
BRANCH   1   2
ATOM      2  C   UNL     1      10.492 -19.276  18.345  1.00  0.00     0.053 C 
BRANCH   2   3
ATOM      3  C   UNL     1      10.989 -18.598  19.585  1.00  0.00     0.041 C 
ATOM      4  O   UNL     1      10.342 -17.642  20.088  1.00  0.00    -0.550 OA
ATOM      5  O   UNL     1      12.151 -19.044  20.204  1.00  0.00    -0.550 OA
ENDBRANCH   2   3
ENDBRANCH   1   2
BRANCH   1   6
ATOM      6  C   UNL     1       7.968 -19.628  18.348  1.00  0.00     0.000 C 
BRANCH   6   7
ATOM      7  C   UNL     1       7.057 -18.901  19.344  1.00  0.00    -0.000 C 
BRANCH   7   8
ATOM      8  C   UNL     1       7.290 -19.404  20.773  1.00  0.00    -0.003 C 
ATOM      9  C   UNL     1       7.982 -20.763  20.772  1.00  0.00     0.004 C 
ENDBRANCH   7   8
ENDBRANCH   6   7
ENDBRANCH   1   6
TORSDOF 5
ENDMDL
MODEL 2
REMARK VINA RESULT:    -2.341      2.362      3.887
REMARK INTER + INTRA:          -3.461
REMARK INTER:                  -3.278
REMARK INTRA:                  -0.183
REMARK UNBOUND:                -0.437
REMARK SMILES CCCCCCC(=O)[O-]
REMARK SMILES IDX 5 1 6 2 7 3 8 4 9 5 4 6 3 7 2 8 1 9
REMARK H PARENT
REMARK Flexibility Score: inf
ROOT
ATOM      1  C   UNL     1       9.215 -19.344  19.128  1.00  0.00     0.006 C 
ENDROOT
BRANCH   1   2
ATOM      2  C   UNL     1       8.017 -19.283  18.172  1.00  0.00     0.053 C 
BRANCH   2   3
ATOM      3  C   UNL     1       7.503 -17.885  18.016  1.00  0.00     0.041 C 
ATOM      4  O   UNL     1       6.269 -17.672  17.892  1.00  0.00    -0.550 OA
ATOM      5  O   UNL     1       8.387 -16.812  18.040  1.00  0.00    -0.550 OA
ENDBRANCH   2   3
ENDBRANCH   1   2
BRANCH   1   6
ATOM      6  C   UNL     1      10.551 -19.467  18.379  1.00  0.00     0.000 C 
BRANCH   6   7
ATOM      7  C   UNL     1      11.715 -18.976  19.247  1.00  0.00    -0.000 C 
BRANCH   7   8
ATOM      8  C   UNL     1      11.283 -18.816  20.709  1.00  0.00    -0.003 C 
ATOM      9  C   UNL     1      12.410 -19.199  21.662  1.00  0.00     0.004 C 
ENDBRANCH   7   8
ENDBRANCH   6   7
ENDBRANCH   1   6
TORSDOF 5
ENDMDL
MODEL 3
REMARK VINA RESULT:    -2.299      1.585      2.295
REMARK INTER + INTRA:          -3.407
REMARK INTER:                  -2.992
REMARK INTRA:                  -0.416
REMARK UNBOUND:                -0.437
REMARK SMILES CCCCCCC(=O)[O-]
REMARK SMILES IDX 5 1 6 2 7 3 8 4 9 5 4 6 3 7 2 8 1 9
REMARK H PARENT
REMARK Flexibility Score: inf
ROOT
ATOM      1  C   UNL     1       9.374 -16.652  19.976  1.00  0.00     0.006 C 
ENDROOT
BRANCH   1   2
ATOM      2  C   UNL     1      10.880 -16.942  19.994  1.00  0.00     0.053 C 
BRANCH   2   3
ATOM      3  C   UNL     1      11.161 -18.411  20.073  1.00  0.00     0.041 C 
ATOM      4  O   UNL     1      10.868 -19.059  21.112  1.00  0.00    -0.550 OA
ATOM      5  O   UNL     1      11.718 -19.071  18.984  1.00  0.00    -0.550 OA
ENDBRANCH   2   3
ENDBRANCH   1   2
BRANCH   1   6
ATOM      6  C   UNL     1       8.796 -16.669  18.553  1.00  0.00     0.000 C 
BRANCH   6   7
ATOM      7  C   UNL     1       7.597 -17.620  18.458  1.00  0.00    -0.000 C 
BRANCH   7   8
ATOM      8  C   UNL     1       8.014 -18.975  17.875  1.00  0.00    -0.003 C 
ATOM      9  C   UNL     1       8.099 -20.041  18.964  1.00  0.00     0.004 C 
ENDBRANCH   7   8
ENDBRANCH   6   7
ENDBRANCH   1   6
TORSDOF 5
ENDMDL
MODEL 4
REMARK VINA RESULT:    -2.270      2.311      3.419
REMARK INTER + INTRA:          -3.370
REMARK INTER:                  -3.011
REMARK INTRA:                  -0.359
REMARK UNBOUND:                -0.437
REMARK SMILES CCCCCCC(=O)[O-]
REMARK SMILES IDX 5 1 6 2 7 3 8 4 9 5 4 6 3 7 2 8 1 9
REMARK H PARENT
REMARK Flexibility Score: inf
ROOT
ATOM      1  C   UNL     1       7.753 -19.232  18.254  1.00  0.00     0.006 C 
ENDROOT
BRANCH   1   2
ATOM      2  C   UNL     1       8.375 -20.296  19.166  1.00  0.00     0.053 C 
BRANCH   2   3
ATOM      3  C   UNL     1       8.115 -20.006  20.613  1.00  0.00     0.041 C 
ATOM      4  O   UNL     1       8.977 -19.403  21.304  1.00  0.00    -0.550 OA
ATOM      5  O   UNL     1       6.906 -20.375  21.190  1.00  0.00    -0.550 OA
ENDBRANCH   2   3
ENDBRANCH   1   2
BRANCH   1   6
ATOM      6  C   UNL     1       8.756 -18.132  17.875  1.00  0.00     0.000 C 
BRANCH   6   7
ATOM      7  C   UNL     1       8.169 -16.740  18.134  1.00  0.00    -0.000 C 
BRANCH   7   8
ATOM      8  C   UNL     1       8.801 -16.097  19.374  1.00  0.00    -0.003 C 
ATOM      9  C   UNL     1      10.199 -16.652  19.630  1.00  0.00     0.004 C 
ENDBRANCH   7   8
ENDBRANCH   6   7
ENDBRANCH   1   6
TORSDOF 5
ENDMDL
MODEL 5
REMARK VINA RESULT:    -2.265      2.433      4.080
REMARK INTER + INTRA:          -3.363
REMARK INTER:                  -3.148
REMARK INTRA:                  -0.215
REMARK UNBOUND:                -0.437
REMARK SMILES CCCCCCC(=O)[O-]
REMARK SMILES IDX 5 1 6 2 7 3 8 4 9 5 4 6 3 7 2 8 1 9
REMARK H PARENT
REMARK Flexibility Score: inf
ROOT
ATOM      1  C   UNL     1      10.773 -19.268  18.597  1.00  0.00     0.006 C 
ENDROOT
BRANCH   1   2
ATOM      2  C   UNL     1       9.470 -18.459  18.614  1.00  0.00     0.053 C 
BRANCH   2   3
ATOM      3  C   UNL     1       8.265 -19.348  18.609  1.00  0.00     0.041 C 
ATOM      4  O   UNL     1       7.152 -18.908  18.217  1.00  0.00    -0.550 OA
ATOM      5  O   UNL     1       8.378 -20.675  19.008  1.00  0.00    -0.550 OA
ENDBRANCH   2   3
ENDBRANCH   1   2
BRANCH   1   6
ATOM      6  C   UNL     1      11.752 -18.815  19.691  1.00  0.00     0.000 C 
BRANCH   6   7
ATOM      7  C   UNL     1      11.216 -19.159  21.086  1.00  0.00    -0.000 C 
BRANCH   7   8
ATOM      8  C   UNL     1      12.349 -19.194  22.117  1.00  0.00    -0.003 C 
ATOM      9  C   UNL     1      13.584 -18.460  21.605  1.00  0.00     0.004 C 
ENDBRANCH   7   8
ENDBRANCH   6   7
ENDBRANCH   1   6
TORSDOF 5
ENDMDL
MODEL 6
REMARK VINA RESULT:    -2.246      1.517      2.178
REMARK INTER + INTRA:          -3.339
REMARK INTER:                  -2.997
REMARK INTRA:                  -0.342
REMARK UNBOUND:                -0.437
REMARK SMILES CCCCCCC(=O)[O-]
REMARK SMILES IDX 5 1 6 2 7 3 8 4 9 5 4 6 3 7 2 8 1 9
REMARK H PARENT
REMARK Flexibility Score: inf
ROOT
ATOM      1  C   UNL     1       7.967 -19.592  18.304  1.00  0.00     0.006 C 
ENDROOT
BRANCH   1   2
ATOM      2  C   UNL     1       8.877 -19.487  19.534  1.00  0.00     0.053 C 
BRANCH   2   3
ATOM      3  C   UNL     1      10.145 -18.753  19.224  1.00  0.00     0.041 C 
ATOM      4  O   UNL     1      11.051 -19.307  18.548  1.00  0.00    -0.550 OA
ATOM      5  O   UNL     1      10.313 -17.443  19.657  1.00  0.00    -0.550 OA
ENDBRANCH   2   3
ENDBRANCH   1   2
BRANCH   1   6
ATOM      6  C   UNL     1       7.246 -18.270  18.000  1.00  0.00     0.000 C 
BRANCH   6   7
ATOM      7  C   UNL     1       6.451 -17.785  19.218  1.00  0.00    -0.000 C 
BRANCH   7   8
ATOM      8  C   UNL     1       5.120 -18.537  19.341  1.00  0.00    -0.003 C 
ATOM      9  C   UNL     1       4.940 -19.112  20.742  1.00  0.00     0.004 C 
ENDBRANCH   7   8
ENDBRANCH   6   7
ENDBRANCH   1   6
TORSDOF 5
ENDMDL
MODEL 7
REMARK VINA RESULT:    -2.239      3.569      4.820
REMARK INTER + INTRA:          -3.330
REMARK INTER:                  -2.946
REMARK INTRA:                  -0.384
REMARK UNBOUND:                -0.437
REMARK SMILES CCCCCCC(=O)[O-]
REMARK SMILES IDX 5 1 6 2 7 3 8 4 9 5 4 6 3 7 2 8 1 9
REMARK H PARENT
REMARK Flexibility Score: inf
ROOT
ATOM      1  C   UNL     1       6.580 -17.756  19.090  1.00  0.00     0.006 C 
ENDROOT
BRANCH   1   2
ATOM      2  C   UNL     1       5.084 -17.619  18.780  1.00  0.00     0.053 C 
BRANCH   2   3
ATOM      3  C   UNL     1       4.292 -18.749  19.362  1.00  0.00     0.041 C 
ATOM      4  O   UNL     1       4.599 -19.228  20.485  1.00  0.00    -0.550 OA
ATOM      5  O   UNL     1       3.192 -19.252  18.678  1.00  0.00    -0.550 OA
ENDBRANCH   2   3
ENDBRANCH   1   2
BRANCH   1   6
ATOM      6  C   UNL     1       7.315 -18.604  18.042  1.00  0.00     0.000 C 
BRANCH   6   7
ATOM      7  C   UNL     1       8.046 -19.780  18.701  1.00  0.00    -0.000 C 
BRANCH   7   8
ATOM      8  C   UNL     1       8.118 -19.602  20.221  1.00  0.00    -0.003 C 
ATOM      9  C   UNL     1       7.687 -20.873  20.947  1.00  0.00     0.004 C 
ENDBRANCH   7   8
ENDBRANCH   6   7
ENDBRANCH   1   6
TORSDOF 5
ENDMDL
MODEL 8
REMARK VINA RESULT:    -2.212      8.282      9.582
REMARK INTER + INTRA:          -3.295
REMARK INTER:                  -2.982
REMARK INTRA:                  -0.313
REMARK UNBOUND:                -0.437
REMARK SMILES CCCCCCC(=O)[O-]
REMARK SMILES IDX 5 1 6 2 7 3 8 4 9 5 4 6 3 7 2 8 1 9
REMARK H PARENT
REMARK Flexibility Score: inf
ROOT
ATOM      1  C   UNL     1      -0.732 -19.725  18.605  1.00  0.00     0.006 C 
ENDROOT
BRANCH   1   2
ATOM      2  C   UNL     1       0.514 -20.620  18.608  1.00  0.00     0.053 C 
BRANCH   2   3
ATOM      3  C   UNL     1       1.641 -19.997  19.373  1.00  0.00     0.041 C 
ATOM      4  O   UNL     1       2.663 -19.577  18.768  1.00  0.00    -0.550 OA
ATOM      5  O   UNL     1       1.550 -19.852  20.752  1.00  0.00    -0.550 OA
ENDBRANCH   2   3
ENDBRANCH   1   2
BRANCH   1   6
ATOM      6  C   UNL     1      -1.919 -20.379  19.329  1.00  0.00     0.000 C 
BRANCH   6   7
ATOM      7  C   UNL     1      -1.967 -19.953  20.802  1.00  0.00    -0.000 C 
BRANCH   7   8
ATOM      8  C   UNL     1      -1.620 -21.125  21.726  1.00  0.00    -0.003 C 
ATOM      9  C   UNL     1      -1.298 -20.638  23.136  1.00  0.00     0.004 C 
ENDBRANCH   7   8
ENDBRANCH   6   7
ENDBRANCH   1   6
TORSDOF 5
ENDMDL
