MODEL 1
REMARK VINA RESULT:    -6.116      0.000      0.000
REMARK INTER + INTRA:          -6.116
REMARK INTER:                  -6.116
REMARK INTRA:                   0.000
REMARK UNBOUND:                 0.000
REMARK SMILES Cc1cc2cc3c(C)cc(=O)oc3c(C)c2o1
REMARK SMILES IDX 8 1 7 2 9 3 10 4 11 5 12 6 13 7 6 8 5 9 4 10 3 11 2 12 17 13
REMARK SMILES IDX 16 14 14 15 15 16 1 17
REMARK H PARENT
REMARK Flexibility Score: inf
ROOT
ATOM      1  C   UNL     1       7.829  -2.114  -3.744  1.00  0.00     0.045 C 
ATOM      2  C   UNL     1       8.125  -1.013  -2.759  1.00  0.00    -0.033 A 
ATOM      3  C   UNL     1       8.243   0.304  -3.219  1.00  0.00     0.098 A 
ATOM      4  C   UNL     1       8.515   1.331  -2.313  1.00  0.00     0.336 A 
ATOM      5  O   UNL     1       8.622   2.517  -2.722  1.00  0.00    -0.246 OA
ATOM      6  O   UNL     1       8.663   1.069  -1.020  1.00  0.00    -0.422 OA
ATOM      7  C   UNL     1       8.564  -0.159  -0.515  1.00  0.00     0.145 A 
ATOM      8  C   UNL     1       8.284  -1.266  -1.377  1.00  0.00     0.022 A 
ATOM      9  C   UNL     1       8.171  -2.567  -0.829  1.00  0.00     0.024 A 
ATOM     10  C   UNL     1       8.335  -2.716   0.543  1.00  0.00     0.022 A 
ATOM     11  C   UNL     1       8.270  -3.840   1.334  1.00  0.00     0.054 A 
ATOM     12  C   UNL     1       8.508  -3.366   2.619  1.00  0.00     0.102 A 
ATOM     13  O   UNL     1       8.706  -2.062   2.610  1.00  0.00    -0.461 OA
ATOM     14  C   UNL     1       8.604  -1.657   1.366  1.00  0.00     0.140 A 
ATOM     15  C   UNL     1       8.738  -0.356   0.876  1.00  0.00     0.036 A 
ATOM     16  C   UNL     1       9.005   0.800   1.799  1.00  0.00     0.052 C 
ATOM     17  C   UNL     1       8.555  -4.207   3.850  1.00  0.00     0.087 C 
ENDROOT
TORSDOF 0
ENDMDL
MODEL 2
REMARK VINA RESULT:    -6.075      2.708      4.545
REMARK INTER + INTRA:          -6.075
REMARK INTER:                  -6.075
REMARK INTRA:                   0.000
REMARK UNBOUND:                 0.000
REMARK SMILES Cc1cc2cc3c(C)cc(=O)oc3c(C)c2o1
REMARK SMILES IDX 8 1 7 2 9 3 10 4 11 5 12 6 13 7 6 8 5 9 4 10 3 11 2 12 17 13
REMARK SMILES IDX 16 14 14 15 15 16 1 17
REMARK H PARENT
REMARK Flexibility Score: inf
ROOT
ATOM      1  C   UNL     1       8.954   0.366   1.290  1.00  0.00     0.045 C 
ATOM      2  C   UNL     1       9.206  -1.085   0.970  1.00  0.00    -0.033 A 
ATOM      3  C   UNL     1       9.242  -1.495  -0.369  1.00  0.00     0.098 A 
ATOM      4  C   UNL     1       9.476  -2.836  -0.674  1.00  0.00     0.336 A 
ATOM      5  O   UNL     1       9.509  -3.210  -1.876  1.00  0.00    -0.246 OA
ATOM      6  O   UNL     1       9.665  -3.726   0.293  1.00  0.00    -0.422 OA
ATOM      7  C   UNL     1       9.644  -3.405   1.584  1.00  0.00     0.145 A 
ATOM      8  C   UNL     1       9.413  -2.050   1.981  1.00  0.00     0.022 A 
ATOM      9  C   UNL     1       9.403  -1.717   3.358  1.00  0.00     0.024 A 
ATOM     10  C   UNL     1       9.624  -2.734   4.279  1.00  0.00     0.022 A 
ATOM     11  C   UNL     1       9.679  -2.698   5.653  1.00  0.00     0.054 A 
ATOM     12  C   UNL     1       9.940  -4.014   6.018  1.00  0.00     0.102 A 
ATOM     13  O   UNL     1      10.031  -4.788   4.953  1.00  0.00    -0.461 OA
ATOM     14  C   UNL     1       9.845  -4.030   3.898  1.00  0.00     0.140 A 
ATOM     15  C   UNL     1       9.853  -4.414   2.555  1.00  0.00     0.036 A 
ATOM     16  C   UNL     1      10.125  -5.837   2.155  1.00  0.00     0.052 C 
ATOM     17  C   UNL     1      10.081  -4.506   7.419  1.00  0.00     0.087 C 
ENDROOT
TORSDOF 0
ENDMDL
MODEL 3
REMARK VINA RESULT:    -6.060      1.627      2.812
REMARK INTER + INTRA:          -6.060
REMARK INTER:                  -6.060
REMARK INTRA:                   0.000
REMARK UNBOUND:                 0.000
REMARK SMILES Cc1cc2cc3c(C)cc(=O)oc3c(C)c2o1
REMARK SMILES IDX 8 1 7 2 9 3 10 4 11 5 12 6 13 7 6 8 5 9 4 10 3 11 2 12 17 13
REMARK SMILES IDX 16 14 14 15 15 16 1 17
REMARK H PARENT
REMARK Flexibility Score: inf
ROOT
ATOM      1  C   UNL     1       7.891   2.259   0.020  1.00  0.00     0.045 C 
ATOM      2  C   UNL     1       8.279   1.153  -0.928  1.00  0.00    -0.033 A 
ATOM      3  C   UNL     1       8.239   1.389  -2.307  1.00  0.00     0.098 A 
ATOM      4  C   UNL     1       8.598   0.370  -3.192  1.00  0.00     0.336 A 
ATOM      5  O   UNL     1       8.565   0.577  -4.434  1.00  0.00    -0.246 OA
ATOM      6  O   UNL     1       8.975  -0.818  -2.737  1.00  0.00    -0.422 OA
ATOM      7  C   UNL     1       9.035  -1.109  -1.440  1.00  0.00     0.145 A 
ATOM      8  C   UNL     1       8.686  -0.119  -0.467  1.00  0.00     0.022 A 
ATOM      9  C   UNL     1       8.762  -0.435   0.911  1.00  0.00     0.024 A 
ATOM     10  C   UNL     1       9.182  -1.712   1.268  1.00  0.00     0.022 A 
ATOM     11  C   UNL     1       9.357  -2.281   2.508  1.00  0.00     0.054 A 
ATOM     12  C   UNL     1       9.799  -3.570   2.232  1.00  0.00     0.102 A 
ATOM     13  O   UNL     1       9.883  -3.769   0.931  1.00  0.00    -0.461 OA
ATOM     14  C   UNL     1       9.515  -2.658   0.337  1.00  0.00     0.140 A 
ATOM     15  C   UNL     1       9.446  -2.402  -1.034  1.00  0.00     0.036 A 
ATOM     16  C   UNL     1       9.842  -3.445  -2.041  1.00  0.00     0.052 C 
ATOM     17  C   UNL     1      10.123  -4.605   3.256  1.00  0.00     0.087 C 
ENDROOT
TORSDOF 0
ENDMDL
MODEL 4
REMARK VINA RESULT:    -5.977     11.457     12.585
REMARK INTER + INTRA:          -5.977
REMARK INTER:                  -5.977
REMARK INTRA:                   0.000
REMARK UNBOUND:                 0.000
REMARK SMILES Cc1cc2cc3c(C)cc(=O)oc3c(C)c2o1
REMARK SMILES IDX 8 1 7 2 9 3 10 4 11 5 12 6 13 7 6 8 5 9 4 10 3 11 2 12 17 13
REMARK SMILES IDX 16 14 14 15 15 16 1 17
REMARK H PARENT
REMARK Flexibility Score: inf
ROOT
ATOM      1  C   UNL     1      -0.039  -4.498  -4.396  1.00  0.00     0.045 C 
ATOM      2  C   UNL     1      -0.444  -5.339  -3.213  1.00  0.00    -0.033 A 
ATOM      3  C   UNL     1       0.383  -6.394  -2.808  1.00  0.00     0.098 A 
ATOM      4  C   UNL     1       0.016  -7.177  -1.712  1.00  0.00     0.336 A 
ATOM      5  O   UNL     1       0.757  -8.126  -1.344  1.00  0.00    -0.246 OA
ATOM      6  O   UNL     1      -1.109  -6.931  -1.052  1.00  0.00    -0.422 OA
ATOM      7  C   UNL     1      -1.940  -5.946  -1.383  1.00  0.00     0.145 A 
ATOM      8  C   UNL     1      -1.635  -5.094  -2.493  1.00  0.00     0.022 A 
ATOM      9  C   UNL     1      -2.521  -4.043  -2.831  1.00  0.00     0.024 A 
ATOM     10  C   UNL     1      -3.665  -3.876  -2.058  1.00  0.00     0.022 A 
ATOM     11  C   UNL     1      -4.676  -2.948  -2.149  1.00  0.00     0.054 A 
ATOM     12  C   UNL     1      -5.533  -3.275  -1.104  1.00  0.00     0.102 A 
ATOM     13  O   UNL     1      -5.081  -4.318  -0.435  1.00  0.00    -0.461 OA
ATOM     14  C   UNL     1      -3.956  -4.690  -0.998  1.00  0.00     0.140 A 
ATOM     15  C   UNL     1      -3.122  -5.749  -0.629  1.00  0.00     0.036 A 
ATOM     16  C   UNL     1      -3.444  -6.615   0.556  1.00  0.00     0.052 C 
ATOM     17  C   UNL     1      -6.803  -2.565  -0.780  1.00  0.00     0.087 C 
ENDROOT
TORSDOF 0
ENDMDL
MODEL 5
REMARK VINA RESULT:    -5.949      2.114      4.818
REMARK INTER + INTRA:          -5.949
REMARK INTER:                  -5.949
REMARK INTRA:                   0.000
REMARK UNBOUND:                 0.000
REMARK SMILES Cc1cc2cc3c(C)cc(=O)oc3c(C)c2o1
REMARK SMILES IDX 8 1 7 2 9 3 10 4 11 5 12 6 13 7 6 8 5 9 4 10 3 11 2 12 17 13
REMARK SMILES IDX 16 14 14 15 15 16 1 17
REMARK H PARENT
REMARK Flexibility Score: inf
ROOT
ATOM      1  C   UNL     1       8.144  -1.459   1.243  1.00  0.00     0.045 C 
ATOM      2  C   UNL     1       8.167  -0.536   0.052  1.00  0.00    -0.033 A 
ATOM      3  C   UNL     1       7.976   0.837   0.246  1.00  0.00     0.098 A 
ATOM      4  C   UNL     1       7.998   1.699  -0.852  1.00  0.00     0.336 A 
ATOM      5  O   UNL     1       7.827   2.935  -0.682  1.00  0.00    -0.246 OA
ATOM      6  O   UNL     1       8.198   1.228  -2.076  1.00  0.00    -0.422 OA
ATOM      7  C   UNL     1       8.387  -0.064  -2.332  1.00  0.00     0.145 A 
ATOM      8  C   UNL     1       8.382  -1.014  -1.261  1.00  0.00     0.022 A 
ATOM      9  C   UNL     1       8.592  -2.385  -1.542  1.00  0.00     0.024 A 
ATOM     10  C   UNL     1       8.803  -2.758  -2.865  1.00  0.00     0.022 A 
ATOM     11  C   UNL     1       9.040  -3.995  -3.417  1.00  0.00     0.054 A 
ATOM     12  C   UNL     1       9.178  -3.740  -4.777  1.00  0.00     0.102 A 
ATOM     13  O   UNL     1       9.033  -2.453  -5.031  1.00  0.00    -0.461 OA
ATOM     14  C   UNL     1       8.807  -1.849  -3.888  1.00  0.00     0.140 A 
ATOM     15  C   UNL     1       8.592  -0.487  -3.667  1.00  0.00     0.036 A 
ATOM     16  C   UNL     1       8.628   0.500  -4.801  1.00  0.00     0.052 C 
ATOM     17  C   UNL     1       9.438  -4.771  -5.823  1.00  0.00     0.087 C 
ENDROOT
TORSDOF 0
ENDMDL
MODEL 6
REMARK VINA RESULT:    -5.941      1.837      5.301
REMARK INTER + INTRA:          -5.941
REMARK INTER:                  -5.941
REMARK INTRA:                   0.000
REMARK UNBOUND:                 0.000
REMARK SMILES Cc1cc2cc3c(C)cc(=O)oc3c(C)c2o1
REMARK SMILES IDX 8 1 7 2 9 3 10 4 11 5 12 6 13 7 6 8 5 9 4 10 3 11 2 12 17 13
REMARK SMILES IDX 16 14 14 15 15 16 1 17
REMARK H PARENT
REMARK Flexibility Score: inf
ROOT
ATOM      1  C   UNL     1      10.125  -4.009   0.528  1.00  0.00     0.045 C 
ATOM      2  C   UNL     1       9.629  -2.587   0.480  1.00  0.00    -0.033 A 
ATOM      3  C   UNL     1       9.352  -1.917   1.678  1.00  0.00     0.098 A 
ATOM      4  C   UNL     1       8.893  -0.599   1.642  1.00  0.00     0.336 A 
ATOM      5  O   UNL     1       8.643   0.007   2.717  1.00  0.00    -0.246 OA
ATOM      6  O   UNL     1       8.717   0.024   0.483  1.00  0.00    -0.422 OA
ATOM      7  C   UNL     1       8.961  -0.552  -0.691  1.00  0.00     0.145 A 
ATOM      8  C   UNL     1       9.437  -1.901  -0.742  1.00  0.00     0.022 A 
ATOM      9  C   UNL     1       9.702  -2.503  -1.996  1.00  0.00     0.024 A 
ATOM     10  C   UNL     1       9.490  -1.745  -3.143  1.00  0.00     0.022 A 
ATOM     11  C   UNL     1       9.671  -2.064  -4.469  1.00  0.00     0.054 A 
ATOM     12  C   UNL     1       9.304  -0.908  -5.149  1.00  0.00     0.102 A 
ATOM     13  O   UNL     1       8.926   0.034  -4.306  1.00  0.00    -0.461 OA
ATOM     14  C   UNL     1       9.034  -0.456  -3.094  1.00  0.00     0.140 A 
ATOM     15  C   UNL     1       8.746   0.179  -1.884  1.00  0.00     0.036 A 
ATOM     16  C   UNL     1       8.273   1.606  -1.848  1.00  0.00     0.052 C 
ATOM     17  C   UNL     1       9.312  -0.744  -6.631  1.00  0.00     0.087 C 
ENDROOT
TORSDOF 0
ENDMDL
MODEL 7
REMARK VINA RESULT:    -5.852      3.048      6.300
REMARK INTER + INTRA:          -5.852
REMARK INTER:                  -5.852
REMARK INTRA:                   0.000
REMARK UNBOUND:                 0.000
REMARK SMILES Cc1cc2cc3c(C)cc(=O)oc3c(C)c2o1
REMARK SMILES IDX 8 1 7 2 9 3 10 4 11 5 12 6 13 7 6 8 5 9 4 10 3 11 2 12 17 13
REMARK SMILES IDX 16 14 14 15 15 16 1 17
REMARK H PARENT
REMARK Flexibility Score: inf
ROOT
ATOM      1  C   UNL     1       8.403   0.036   0.263  1.00  0.00     0.045 C 
ATOM      2  C   UNL     1       7.339  -0.711  -0.499  1.00  0.00    -0.033 A 
ATOM      3  C   UNL     1       6.222  -1.202   0.188  1.00  0.00     0.098 A 
ATOM      4  C   UNL     1       5.231  -1.894  -0.511  1.00  0.00     0.336 A 
ATOM      5  O   UNL     1       4.225  -2.337   0.103  1.00  0.00    -0.246 OA
ATOM      6  O   UNL     1       5.339  -2.090  -1.819  1.00  0.00    -0.422 OA
ATOM      7  C   UNL     1       6.373  -1.651  -2.533  1.00  0.00     0.145 A 
ATOM      8  C   UNL     1       7.430  -0.930  -1.892  1.00  0.00     0.022 A 
ATOM      9  C   UNL     1       8.521  -0.458  -2.662  1.00  0.00     0.024 A 
ATOM     10  C   UNL     1       8.518  -0.716  -4.029  1.00  0.00     0.022 A 
ATOM     11  C   UNL     1       9.426  -0.374  -5.004  1.00  0.00     0.054 A 
ATOM     12  C   UNL     1       8.882  -0.895  -6.173  1.00  0.00     0.102 A 
ATOM     13  O   UNL     1       7.740  -1.507  -5.927  1.00  0.00    -0.461 OA
ATOM     14  C   UNL     1       7.507  -1.406  -4.640  1.00  0.00     0.140 A 
ATOM     15  C   UNL     1       6.415  -1.904  -3.925  1.00  0.00     0.036 A 
ATOM     16  C   UNL     1       5.300  -2.635  -4.619  1.00  0.00     0.052 C 
ATOM     17  C   UNL     1       9.502  -0.800  -7.526  1.00  0.00     0.087 C 
ENDROOT
TORSDOF 0
ENDMDL
MODEL 8
REMARK VINA RESULT:    -5.609      2.321      6.091
REMARK INTER + INTRA:          -5.609
REMARK INTER:                  -5.609
REMARK INTRA:                   0.000
REMARK UNBOUND:                 0.000
REMARK SMILES Cc1cc2cc3c(C)cc(=O)oc3c(C)c2o1
REMARK SMILES IDX 8 1 7 2 9 3 10 4 11 5 12 6 13 7 6 8 5 9 4 10 3 11 2 12 17 13
REMARK SMILES IDX 16 14 14 15 15 16 1 17
REMARK H PARENT
REMARK Flexibility Score: inf
ROOT
ATOM      1  C   UNL     1       7.532   1.139  -0.041  1.00  0.00     0.045 C 
ATOM      2  C   UNL     1       7.880  -0.300  -0.320  1.00  0.00    -0.033 A 
ATOM      3  C   UNL     1       7.852  -1.228   0.729  1.00  0.00     0.098 A 
ATOM      4  C   UNL     1       8.171  -2.563   0.479  1.00  0.00     0.336 A 
ATOM      5  O   UNL     1       8.146  -3.401   1.419  1.00  0.00    -0.246 OA
ATOM      6  O   UNL     1       8.501  -2.961  -0.744  1.00  0.00    -0.422 OA
ATOM      7  C   UNL     1       8.548  -2.134  -1.785  1.00  0.00     0.145 A 
ATOM      8  C   UNL     1       8.232  -0.748  -1.613  1.00  0.00     0.022 A 
ATOM      9  C   UNL     1       8.275   0.122  -2.729  1.00  0.00     0.024 A 
ATOM     10  C   UNL     1       8.625  -0.414  -3.964  1.00  0.00     0.022 A 
ATOM     11  C   UNL     1       8.735   0.185  -5.198  1.00  0.00     0.054 A 
ATOM     12  C   UNL     1       9.106  -0.852  -6.047  1.00  0.00     0.102 A 
ATOM     13  O   UNL     1       9.216  -1.986  -5.383  1.00  0.00    -0.461 OA
ATOM     14  C   UNL     1       8.928  -1.738  -4.127  1.00  0.00     0.140 A 
ATOM     15  C   UNL     1       8.912  -2.636  -3.058  1.00  0.00     0.036 A 
ATOM     16  C   UNL     1       9.221  -4.093  -3.261  1.00  0.00     0.052 C 
ATOM     17  C   UNL     1       9.366  -0.714  -7.509  1.00  0.00     0.087 C 
ENDROOT
TORSDOF 0
ENDMDL
MODEL 9
REMARK VINA RESULT:    -5.561      1.778      5.243
REMARK INTER + INTRA:          -5.561
REMARK INTER:                  -5.561
REMARK INTRA:                   0.000
REMARK UNBOUND:                 0.000
REMARK SMILES Cc1cc2cc3c(C)cc(=O)oc3c(C)c2o1
REMARK SMILES IDX 8 1 7 2 9 3 10 4 11 5 12 6 13 7 6 8 5 9 4 10 3 11 2 12 17 13
REMARK SMILES IDX 16 14 14 15 15 16 1 17
REMARK H PARENT
REMARK Flexibility Score: inf
ROOT
ATOM      1  C   UNL     1       8.478  -3.002   0.706  1.00  0.00     0.045 C 
ATOM      2  C   UNL     1       8.460  -1.584   0.194  1.00  0.00    -0.033 A 
ATOM      3  C   UNL     1       8.333  -0.529   1.106  1.00  0.00     0.098 A 
ATOM      4  C   UNL     1       8.317   0.787   0.640  1.00  0.00     0.336 A 
ATOM      5  O   UNL     1       8.205   1.740   1.456  1.00  0.00    -0.246 OA
ATOM      6  O   UNL     1       8.420   1.046  -0.657  1.00  0.00    -0.422 OA
ATOM      7  C   UNL     1       8.543   0.092  -1.577  1.00  0.00     0.145 A 
ATOM      8  C   UNL     1       8.571  -1.284  -1.182  1.00  0.00     0.022 A 
ATOM      9  C   UNL     1       8.711  -2.291  -2.167  1.00  0.00     0.024 A 
ATOM     10  C   UNL     1       8.821  -1.896  -3.496  1.00  0.00     0.022 A 
ATOM     11  C   UNL     1       8.975  -2.645  -4.640  1.00  0.00     0.054 A 
ATOM     12  C   UNL     1       9.035  -1.701  -5.659  1.00  0.00     0.102 A 
ATOM     13  O   UNL     1       8.922  -0.479  -5.175  1.00  0.00    -0.461 OA
ATOM     14  C   UNL     1       8.793  -0.581  -3.873  1.00  0.00     0.140 A 
ATOM     15  C   UNL     1       8.645   0.450  -2.943  1.00  0.00     0.036 A 
ATOM     16  C   UNL     1       8.645   1.890  -3.373  1.00  0.00     0.052 C 
ATOM     17  C   UNL     1       9.188  -2.011  -7.110  1.00  0.00     0.087 C 
ENDROOT
TORSDOF 0
ENDMDL
