MODEL 1
REMARK VINA RESULT:    -3.179      0.000      0.000
REMARK INTER + INTRA:          -5.287
REMARK INTER:                  -4.851
REMARK INTRA:                  -0.436
REMARK UNBOUND:                -0.436
REMARK SMILES CC1=CCC[C@H](C)C(=O)C[C@H](C(C)C)C(=O)C1
REMARK SMILES IDX 8 1 9 2 6 3 7 4 5 5 4 6 3 7 2 8 1 9 10 11 11 12 15 13 16 14
REMARK SMILES IDX 17 15 12 17 13 18 14 19
REMARK H PARENT
REMARK Flexibility Score: 70.00
ROOT
ATOM      1  C   UNL     1      -6.082 -39.096 215.046  1.00  0.00     0.136 C 
ATOM      2  O   UNL     1      -6.622 -38.162 214.471  1.00  0.00    -0.299 OA
ENDROOT
BRANCH   1   3
ATOM      3  C   UNL     1      -6.588 -40.503 214.785  1.00  0.00     0.053 C 
ATOM      4  C   UNL     1      -8.062 -40.635 215.185  1.00  0.00     0.016 C 
BRANCH   3   5
ATOM      5  C   UNL     1      -6.371 -40.920 213.318  1.00  0.00     0.015 C 
BRANCH   5   6
ATOM      6  C   UNL     1      -5.222 -41.933 213.170  1.00  0.00     0.028 C 
BRANCH   6   7
ATOM      7  C   UNL     1      -3.924 -41.227 212.874  1.00  0.00    -0.028 C 
ATOM      8  C   UNL     1      -2.926 -41.047 213.770  1.00  0.00    -0.070 CG0
ATOM      9  C   UNL     1      -1.714 -40.264 213.332  1.00  0.00     0.039 C 
ATOM     10  G   UNL     1      -2.970 -41.612 215.182  1.00  0.00     0.000 G0
ENDBRANCH   6   7
ENDBRANCH   5   6
ENDBRANCH   3   5
ENDBRANCH   1   3
BRANCH   1  11
ATOM     11  C   UNL     1      -4.918 -38.806 215.967  1.00  0.00     0.087 C 
BRANCH  11  12
ATOM     12  C   UNL     1      -4.445 -40.072 216.734  1.00  0.00     0.066 C 
BRANCH  12  13
ATOM     13  C   UNL     1      -3.082 -40.538 216.242  1.00  0.00     0.140 C 
ATOM     14  O   UNL     1      -2.065 -40.082 216.743  1.00  0.00    -0.299 OA
BRANCH  13  15
ATOM     15  C   UNL     1      -2.959 -41.620 215.196  1.00  0.00     0.106 CG0
ATOM     16  G   UNL     1      -2.925 -41.054 213.785  1.00  0.00     0.000 G0
ENDBRANCH  13  15
ENDBRANCH  12  13
BRANCH  12  17
ATOM     17  C   UNL     1      -4.433 -39.892 218.286  1.00  0.00    -0.006 C 
ATOM     18  C   UNL     1      -5.016 -38.550 218.767  1.00  0.00     0.008 C 
ATOM     19  C   UNL     1      -5.146 -41.055 218.995  1.00  0.00     0.008 C 
ENDBRANCH  12  17
ENDBRANCH  11  12
ENDBRANCH   1  11
TORSDOF 1
ENDMDL
MODEL 2
REMARK VINA RESULT:    -2.934     12.307     14.523
REMARK INTER + INTRA:          -4.913
REMARK INTER:                  -4.843
REMARK INTRA:                  -0.070
REMARK UNBOUND:                -0.436
REMARK SMILES CC1=CCC[C@H](C)C(=O)C[C@H](C(C)C)C(=O)C1
REMARK SMILES IDX 8 1 9 2 6 3 7 4 5 5 4 6 3 7 2 8 1 9 10 11 11 12 15 13 16 14
REMARK SMILES IDX 17 15 12 17 13 18 14 19
REMARK H PARENT
REMARK Flexibility Score: 70.00
ROOT
ATOM      1  C   UNL     1     -18.607 -39.406 210.671  1.00  0.00     0.136 C 
ATOM      2  O   UNL     1     -19.620 -39.448 211.354  1.00  0.00    -0.299 OA
ENDROOT
BRANCH   1   3
ATOM      3  C   UNL     1     -17.305 -38.982 211.324  1.00  0.00     0.053 C 
ATOM      4  C   UNL     1     -17.527 -37.789 212.260  1.00  0.00     0.016 C 
BRANCH   3   5
ATOM      5  C   UNL     1     -16.636 -40.154 212.069  1.00  0.00     0.015 C 
BRANCH   5   6
ATOM      6  C   UNL     1     -16.519 -41.408 211.185  1.00  0.00     0.028 C 
BRANCH   6   7
ATOM      7  C   UNL     1     -15.244 -41.379 210.382  1.00  0.00    -0.028 C 
ATOM      8  C   UNL     1     -15.188 -41.320 209.031  1.00  0.00    -0.070 CG0
ATOM      9  C   UNL     1     -13.829 -41.360 208.377  1.00  0.00     0.039 C 
ATOM     10  G   UNL     1     -16.426 -41.199 208.156  1.00  0.00     0.000 G0
ENDBRANCH   6   7
ENDBRANCH   5   6
ENDBRANCH   3   5
ENDBRANCH   1   3
BRANCH   1  11
ATOM     11  C   UNL     1     -18.696 -39.808 209.215  1.00  0.00     0.087 C 
BRANCH  11  12
ATOM     12  C   UNL     1     -17.772 -38.947 208.310  1.00  0.00     0.066 C 
BRANCH  12  13
ATOM     13  C   UNL     1     -16.668 -39.790 207.687  1.00  0.00     0.140 C 
ATOM     14  O   UNL     1     -15.925 -39.298 206.850  1.00  0.00    -0.299 OA
BRANCH  13  15
ATOM     15  C   UNL     1     -16.418 -41.208 208.143  1.00  0.00     0.106 CG0
ATOM     16  G   UNL     1     -15.180 -41.319 209.019  1.00  0.00     0.000 G0
ENDBRANCH  13  15
ENDBRANCH  12  13
BRANCH  12  17
ATOM     17  C   UNL     1     -18.544 -38.156 207.206  1.00  0.00    -0.006 C 
ATOM     18  C   UNL     1     -19.776 -38.894 206.650  1.00  0.00     0.008 C 
ATOM     19  C   UNL     1     -18.950 -36.755 207.694  1.00  0.00     0.008 C 
ENDBRANCH  12  17
ENDBRANCH  11  12
ENDBRANCH   1  11
TORSDOF 1
ENDMDL
MODEL 3
REMARK VINA RESULT:    -2.922     12.184     14.575
REMARK INTER + INTRA:          -4.895
REMARK INTER:                  -5.142
REMARK INTRA:                   0.247
REMARK UNBOUND:                -0.436
REMARK SMILES CC1=CCC[C@H](C)C(=O)C[C@H](C(C)C)C(=O)C1
REMARK SMILES IDX 8 1 9 2 6 3 7 4 5 5 4 6 3 7 2 8 1 9 10 11 11 12 15 13 16 14
REMARK SMILES IDX 17 15 12 17 13 18 14 19
REMARK H PARENT
REMARK Flexibility Score: 70.00
ROOT
ATOM      1  C   UNL     1     -15.992 -38.554 211.279  1.00  0.00     0.136 C 
ATOM      2  O   UNL     1     -16.254 -37.470 211.779  1.00  0.00    -0.299 OA
ENDROOT
BRANCH   1   3
ATOM      3  C   UNL     1     -16.507 -39.812 211.954  1.00  0.00     0.053 C 
ATOM      4  C   UNL     1     -16.389 -39.701 213.478  1.00  0.00     0.016 C 
BRANCH   3   5
ATOM      5  C   UNL     1     -17.955 -40.129 211.531  1.00  0.00     0.015 C 
BRANCH   5   6
ATOM      6  C   UNL     1     -18.727 -38.863 211.122  1.00  0.00     0.028 C 
BRANCH   6   7
ATOM      7  C   UNL     1     -19.466 -39.083 209.828  1.00  0.00    -0.028 C 
ATOM      8  C   UNL     1     -19.127 -38.521 208.644  1.00  0.00    -0.070 CG0
ATOM      9  C   UNL     1     -20.008 -38.795 207.452  1.00  0.00     0.039 C 
ATOM     10  G   UNL     1     -17.895 -37.646 208.467  1.00  0.00     0.000 G0
ENDBRANCH   6   7
ENDBRANCH   5   6
ENDBRANCH   3   5
ENDBRANCH   1   3
BRANCH   1  11
ATOM     11  C   UNL     1     -15.190 -38.587 209.997  1.00  0.00     0.087 C 
BRANCH  11  12
ATOM     12  C   UNL     1     -15.922 -39.361 208.866  1.00  0.00     0.066 C 
BRANCH  12  13
ATOM     13  C   UNL     1     -16.685 -38.413 207.952  1.00  0.00     0.140 C 
ATOM     14  O   UNL     1     -16.376 -38.323 206.772  1.00  0.00    -0.299 OA
BRANCH  13  15
ATOM     15  C   UNL     1     -17.877 -37.636 208.456  1.00  0.00     0.106 CG0
ATOM     16  G   UNL     1     -19.101 -38.519 208.646  1.00  0.00     0.000 G0
ENDBRANCH  13  15
ENDBRANCH  12  13
BRANCH  12  17
ATOM     17  C   UNL     1     -14.976 -40.283 208.030  1.00  0.00    -0.006 C 
ATOM     18  C   UNL     1     -13.494 -40.201 208.442  1.00  0.00     0.008 C 
ATOM     19  C   UNL     1     -15.446 -41.747 208.057  1.00  0.00     0.008 C 
ENDBRANCH  12  17
ENDBRANCH  11  12
ENDBRANCH   1  11
TORSDOF 1
ENDMDL
MODEL 4
REMARK VINA RESULT:    -2.816     12.089     13.396
REMARK INTER + INTRA:          -4.733
REMARK INTER:                  -4.675
REMARK INTRA:                  -0.057
REMARK UNBOUND:                -0.436
REMARK SMILES CC1=CCC[C@H](C)C(=O)C[C@H](C(C)C)C(=O)C1
REMARK SMILES IDX 8 1 9 2 6 3 7 4 5 5 4 6 3 7 2 8 1 9 10 11 11 12 15 13 16 14
REMARK SMILES IDX 17 15 12 17 13 18 14 19
REMARK H PARENT
REMARK Flexibility Score: 70.00
ROOT
ATOM      1  C   UNL     1     -17.393 -37.920 209.365  1.00  0.00     0.136 C 
ATOM      2  O   UNL     1     -17.510 -36.725 209.135  1.00  0.00    -0.299 OA
ENDROOT
BRANCH   1   3
ATOM      3  C   UNL     1     -18.305 -38.893 208.641  1.00  0.00     0.053 C 
ATOM      4  C   UNL     1     -19.778 -38.558 208.904  1.00  0.00     0.016 C 
BRANCH   3   5
ATOM      5  C   UNL     1     -18.007 -38.935 207.130  1.00  0.00     0.015 C 
BRANCH   5   6
ATOM      6  C   UNL     1     -16.521 -38.674 206.828  1.00  0.00     0.028 C 
BRANCH   6   7
ATOM      7  C   UNL     1     -15.798 -39.966 206.550  1.00  0.00    -0.028 C 
ATOM      8  C   UNL     1     -14.846 -40.502 207.350  1.00  0.00    -0.070 CG0
ATOM      9  C   UNL     1     -14.174 -41.773 206.896  1.00  0.00     0.039 C 
ATOM     10  G   UNL     1     -14.445 -39.888 208.683  1.00  0.00     0.000 G0
ENDBRANCH   6   7
ENDBRANCH   5   6
ENDBRANCH   3   5
ENDBRANCH   1   3
BRANCH   1  11
ATOM     11  C   UNL     1     -16.325 -38.372 210.336  1.00  0.00     0.087 C 
BRANCH  11  12
ATOM     12  C   UNL     1     -16.323 -39.913 210.533  1.00  0.00     0.066 C 
BRANCH  12  13
ATOM     13  C   UNL     1     -15.118 -40.554 209.858  1.00  0.00     0.140 C 
ATOM     14  O   UNL     1     -14.730 -41.654 210.222  1.00  0.00    -0.299 OA
BRANCH  13  15
ATOM     15  C   UNL     1     -14.436 -39.890 208.685  1.00  0.00     0.106 CG0
ATOM     16  G   UNL     1     -14.846 -40.508 207.357  1.00  0.00     0.000 G0
ENDBRANCH  13  15
ENDBRANCH  12  13
BRANCH  12  17
ATOM     17  C   UNL     1     -16.406 -40.350 212.030  1.00  0.00    -0.006 C 
ATOM     18  C   UNL     1     -16.594 -39.181 213.016  1.00  0.00     0.008 C 
ATOM     19  C   UNL     1     -17.506 -41.402 212.252  1.00  0.00     0.008 C 
ENDBRANCH  12  17
ENDBRANCH  11  12
ENDBRANCH   1  11
TORSDOF 1
ENDMDL
MODEL 5
REMARK VINA RESULT:    -2.701      1.803      4.004
REMARK INTER + INTRA:          -4.557
REMARK INTER:                  -4.395
REMARK INTRA:                  -0.163
REMARK UNBOUND:                -0.436
REMARK SMILES CC1=CCC[C@H](C)C(=O)C[C@H](C(C)C)C(=O)C1
REMARK SMILES IDX 8 1 9 2 6 3 7 4 5 5 4 6 3 7 2 8 1 9 10 11 11 12 15 13 16 14
REMARK SMILES IDX 17 15 12 17 13 18 14 19
REMARK H PARENT
REMARK Flexibility Score: 70.00
ROOT
ATOM      1  C   UNL     1      -5.744 -40.752 213.854  1.00  0.00     0.136 C 
ATOM      2  O   UNL     1      -5.980 -40.755 212.655  1.00  0.00    -0.299 OA
ENDROOT
BRANCH   1   3
ATOM      3  C   UNL     1      -6.638 -39.937 214.770  1.00  0.00     0.053 C 
ATOM      4  C   UNL     1      -7.026 -38.607 214.113  1.00  0.00     0.016 C 
BRANCH   3   5
ATOM      5  C   UNL     1      -7.889 -40.731 215.194  1.00  0.00     0.015 C 
BRANCH   5   6
ATOM      6  C   UNL     1      -7.647 -41.548 216.475  1.00  0.00     0.028 C 
BRANCH   6   7
ATOM      7  C   UNL     1      -6.943 -40.715 217.515  1.00  0.00    -0.028 C 
ATOM      8  C   UNL     1      -5.668 -40.913 217.925  1.00  0.00    -0.070 CG0
ATOM      9  C   UNL     1      -5.132 -40.027 219.021  1.00  0.00     0.039 C 
ATOM     10  G   UNL     1      -4.759 -41.970 217.317  1.00  0.00     0.000 G0
ENDBRANCH   6   7
ENDBRANCH   5   6
ENDBRANCH   3   5
ENDBRANCH   1   3
BRANCH   1  11
ATOM     11  C   UNL     1      -4.590 -41.583 214.369  1.00  0.00     0.087 C 
BRANCH  11  12
ATOM     12  C   UNL     1      -3.615 -40.754 215.249  1.00  0.00     0.066 C 
BRANCH  12  13
ATOM     13  C   UNL     1      -3.532 -41.315 216.661  1.00  0.00     0.140 C 
ATOM     14  O   UNL     1      -2.500 -41.192 217.306  1.00  0.00    -0.299 OA
BRANCH  13  15
ATOM     15  C   UNL     1      -4.731 -41.956 217.317  1.00  0.00     0.106 CG0
ATOM     16  G   UNL     1      -5.672 -40.926 217.924  1.00  0.00     0.000 G0
ENDBRANCH  13  15
ENDBRANCH  12  13
BRANCH  12  17
ATOM     17  C   UNL     1      -2.186 -40.612 214.632  1.00  0.00    -0.006 C 
ATOM     18  C   UNL     1      -1.843 -41.694 213.590  1.00  0.00     0.008 C 
ATOM     19  C   UNL     1      -1.967 -39.216 214.027  1.00  0.00     0.008 C 
ENDBRANCH  12  17
ENDBRANCH  11  12
ENDBRANCH   1  11
TORSDOF 1
ENDMDL
MODEL 6
REMARK VINA RESULT:    -2.648      1.847      2.424
REMARK INTER + INTRA:          -4.477
REMARK INTER:                  -4.602
REMARK INTRA:                   0.125
REMARK UNBOUND:                -0.436
REMARK SMILES CC1=CCC[C@H](C)C(=O)C[C@H](C(C)C)C(=O)C1
REMARK SMILES IDX 8 1 9 2 6 3 7 4 5 5 4 6 3 7 2 8 1 9 10 11 11 12 15 13 16 14
REMARK SMILES IDX 17 15 12 17 13 18 14 19
REMARK H PARENT
REMARK Flexibility Score: 70.00
ROOT
ATOM      1  C   UNL     1      -4.689 -38.353 216.022  1.00  0.00     0.136 C 
ATOM      2  O   UNL     1      -3.849 -37.717 215.402  1.00  0.00    -0.299 OA
ENDROOT
BRANCH   1   3
ATOM      3  C   UNL     1      -5.774 -39.075 215.246  1.00  0.00     0.053 C 
ATOM      4  C   UNL     1      -6.660 -38.079 214.490  1.00  0.00     0.016 C 
BRANCH   3   5
ATOM      5  C   UNL     1      -5.182 -40.128 214.290  1.00  0.00     0.015 C 
BRANCH   5   6
ATOM      6  C   UNL     1      -4.895 -41.460 215.004  1.00  0.00     0.028 C 
BRANCH   6   7
ATOM      7  C   UNL     1      -3.411 -41.687 215.135  1.00  0.00    -0.028 C 
ATOM      8  C   UNL     1      -2.765 -41.882 216.308  1.00  0.00    -0.070 CG0
ATOM      9  C   UNL     1      -1.265 -42.033 216.273  1.00  0.00     0.039 C 
ATOM     10  G   UNL     1      -3.485 -41.971 217.645  1.00  0.00     0.000 G0
ENDBRANCH   6   7
ENDBRANCH   5   6
ENDBRANCH   3   5
ENDBRANCH   1   3
BRANCH   1  11
ATOM     11  C   UNL     1      -4.588 -38.411 217.530  1.00  0.00     0.087 C 
BRANCH  11  12
ATOM     12  C   UNL     1      -4.944 -39.816 218.089  1.00  0.00     0.066 C 
BRANCH  12  13
ATOM     13  C   UNL     1      -3.691 -40.646 218.336  1.00  0.00     0.140 C 
ATOM     14  O   UNL     1      -2.857 -40.264 219.144  1.00  0.00    -0.299 OA
BRANCH  13  15
ATOM     15  C   UNL     1      -3.494 -41.980 217.658  1.00  0.00     0.106 CG0
ATOM     16  G   UNL     1      -2.775 -41.847 216.325  1.00  0.00     0.000 G0
ENDBRANCH  13  15
ENDBRANCH  12  13
BRANCH  12  17
ATOM     17  C   UNL     1      -5.830 -39.768 219.376  1.00  0.00    -0.006 C 
ATOM     18  C   UNL     1      -5.444 -40.810 220.442  1.00  0.00     0.008 C 
ATOM     19  C   UNL     1      -5.846 -38.363 219.999  1.00  0.00     0.008 C 
ENDBRANCH  12  17
ENDBRANCH  11  12
ENDBRANCH   1  11
TORSDOF 1
ENDMDL
MODEL 7
REMARK VINA RESULT:    -2.454      1.976      5.109
REMARK INTER + INTRA:          -4.181
REMARK INTER:                  -4.194
REMARK INTRA:                   0.013
REMARK UNBOUND:                -0.436
REMARK SMILES CC1=CCC[C@H](C)C(=O)C[C@H](C(C)C)C(=O)C1
REMARK SMILES IDX 8 1 9 2 6 3 7 4 5 5 4 6 3 7 2 8 1 9 10 11 11 12 15 13 16 14
REMARK SMILES IDX 17 15 12 17 13 18 14 19
REMARK H PARENT
REMARK Flexibility Score: 70.00
ROOT
ATOM      1  C   UNL     1      -2.778 -39.500 215.565  1.00  0.00     0.136 C 
ATOM      2  O   UNL     1      -1.828 -38.732 215.607  1.00  0.00    -0.299 OA
ENDROOT
BRANCH   1   3
ATOM      3  C   UNL     1      -3.117 -40.309 216.802  1.00  0.00     0.053 C 
ATOM      4  C   UNL     1      -1.874 -41.022 217.347  1.00  0.00     0.016 C 
BRANCH   3   5
ATOM      5  C   UNL     1      -3.775 -39.436 217.888  1.00  0.00     0.015 C 
BRANCH   5   6
ATOM      6  C   UNL     1      -5.212 -39.035 217.513  1.00  0.00     0.028 C 
BRANCH   6   7
ATOM      7  C   UNL     1      -6.100 -40.249 217.428  1.00  0.00    -0.028 C 
ATOM      8  C   UNL     1      -6.715 -40.674 216.300  1.00  0.00    -0.070 CG0
ATOM      9  C   UNL     1      -7.622 -41.875 216.397  1.00  0.00     0.039 C 
ATOM     10  G   UNL     1      -6.515 -40.007 214.948  1.00  0.00     0.000 G0
ENDBRANCH   6   7
ENDBRANCH   5   6
ENDBRANCH   3   5
ENDBRANCH   1   3
BRANCH   1  11
ATOM     11  C   UNL     1      -3.586 -39.584 214.289  1.00  0.00     0.087 C 
BRANCH  11  12
ATOM     12  C   UNL     1      -4.232 -40.983 214.093  1.00  0.00     0.066 C 
BRANCH  12  13
ATOM     13  C   UNL     1      -5.747 -40.882 213.984  1.00  0.00     0.140 C 
ATOM     14  O   UNL     1      -6.344 -41.554 213.156  1.00  0.00    -0.299 OA
BRANCH  13  15
ATOM     15  C   UNL     1      -6.541 -40.023 214.938  1.00  0.00     0.106 CG0
ATOM     16  G   UNL     1      -6.698 -40.675 216.303  1.00  0.00     0.000 G0
ENDBRANCH  13  15
ENDBRANCH  12  13
BRANCH  12  17
ATOM     17  C   UNL     1      -3.649 -41.774 212.878  1.00  0.00    -0.006 C 
ATOM     18  C   UNL     1      -3.923 -41.118 211.512  1.00  0.00     0.008 C 
ATOM     19  C   UNL     1      -2.141 -42.031 213.042  1.00  0.00     0.008 C 
ENDBRANCH  12  17
ENDBRANCH  11  12
ENDBRANCH   1  11
TORSDOF 1
ENDMDL
MODEL 8
REMARK VINA RESULT:    -2.447      2.742      4.924
REMARK INTER + INTRA:          -4.171
REMARK INTER:                  -5.022
REMARK INTRA:                   0.852
REMARK UNBOUND:                -0.436
REMARK SMILES CC1=CCC[C@H](C)C(=O)C[C@H](C(C)C)C(=O)C1
REMARK SMILES IDX 8 1 9 2 6 3 7 4 5 5 4 6 3 7 2 8 1 9 10 11 11 12 15 13 16 14
REMARK SMILES IDX 17 15 12 17 13 18 14 19
REMARK H PARENT
REMARK Flexibility Score: 70.00
ROOT
ATOM      1  C   UNL     1      -5.533 -38.700 219.881  1.00  0.00     0.136 C 
ATOM      2  O   UNL     1      -6.571 -38.563 220.511  1.00  0.00    -0.299 OA
ENDROOT
BRANCH   1   3
ATOM      3  C   UNL     1      -4.448 -39.594 220.451  1.00  0.00     0.053 C 
ATOM      4  C   UNL     1      -3.644 -38.858 221.528  1.00  0.00     0.016 C 
BRANCH   3   5
ATOM      5  C   UNL     1      -5.028 -40.913 220.997  1.00  0.00     0.015 C 
BRANCH   5   6
ATOM      6  C   UNL     1      -4.650 -42.118 220.118  1.00  0.00     0.028 C 
BRANCH   6   7
ATOM      7  C   UNL     1      -3.406 -41.826 219.319  1.00  0.00    -0.028 C 
ATOM      8  C   UNL     1      -3.386 -41.591 217.986  1.00  0.00    -0.070 CG0
ATOM      9  C   UNL     1      -2.048 -41.376 217.326  1.00  0.00     0.039 C 
ATOM     10  G   UNL     1      -4.648 -41.519 217.140  1.00  0.00     0.000 G0
ENDBRANCH   6   7
ENDBRANCH   5   6
ENDBRANCH   3   5
ENDBRANCH   1   3
BRANCH   1  11
ATOM     11  C   UNL     1      -5.393 -37.996 218.550  1.00  0.00     0.087 C 
BRANCH  11  12
ATOM     12  C   UNL     1      -4.715 -38.893 217.478  1.00  0.00     0.066 C 
BRANCH  12  13
ATOM     13  C   UNL     1      -5.426 -40.232 217.348  1.00  0.00     0.140 C 
ATOM     14  O   UNL     1      -6.647 -40.277 217.359  1.00  0.00    -0.299 OA
BRANCH  13  15
ATOM     15  C   UNL     1      -4.649 -41.508 217.125  1.00  0.00     0.106 CG0
ATOM     16  G   UNL     1      -3.391 -41.571 217.977  1.00  0.00     0.000 G0
ENDBRANCH  13  15
ENDBRANCH  12  13
BRANCH  12  17
ATOM     17  C   UNL     1      -4.587 -38.205 216.081  1.00  0.00    -0.006 C 
ATOM     18  C   UNL     1      -3.227 -38.427 215.393  1.00  0.00     0.008 C 
ATOM     19  C   UNL     1      -5.725 -38.627 215.136  1.00  0.00     0.008 C 
ENDBRANCH  12  17
ENDBRANCH  11  12
ENDBRANCH   1  11
TORSDOF 1
ENDMDL
MODEL 9
REMARK VINA RESULT:    -2.308      2.143      4.290
REMARK INTER + INTRA:          -3.958
REMARK INTER:                  -4.524
REMARK INTRA:                   0.566
REMARK UNBOUND:                -0.436
REMARK SMILES CC1=CCC[C@H](C)C(=O)C[C@H](C(C)C)C(=O)C1
REMARK SMILES IDX 8 1 9 2 6 3 7 4 5 5 4 6 3 7 2 8 1 9 10 11 11 12 15 13 16 14
REMARK SMILES IDX 17 15 12 17 13 18 14 19
REMARK H PARENT
REMARK Flexibility Score: 70.00
ROOT
ATOM      1  C   UNL     1      -4.387 -41.395 213.458  1.00  0.00     0.136 C 
ATOM      2  O   UNL     1      -4.966 -41.094 212.425  1.00  0.00    -0.299 OA
ENDROOT
BRANCH   1   3
ATOM      3  C   UNL     1      -2.897 -41.128 213.563  1.00  0.00     0.053 C 
ATOM      4  C   UNL     1      -2.381 -40.415 212.308  1.00  0.00     0.016 C 
BRANCH   3   5
ATOM      5  C   UNL     1      -2.552 -40.330 214.835  1.00  0.00     0.015 C 
BRANCH   5   6
ATOM      6  C   UNL     1      -2.331 -41.248 216.050  1.00  0.00     0.028 C 
BRANCH   6   7
ATOM      7  C   UNL     1      -2.731 -40.553 217.325  1.00  0.00    -0.028 C 
ATOM      8  C   UNL     1      -3.929 -40.700 217.937  1.00  0.00    -0.070 CG0
ATOM      9  C   UNL     1      -4.196 -39.884 219.177  1.00  0.00     0.039 C 
ATOM     10  G   UNL     1      -4.999 -41.660 217.440  1.00  0.00     0.000 G0
ENDBRANCH   6   7
ENDBRANCH   5   6
ENDBRANCH   3   5
ENDBRANCH   1   3
BRANCH   1  11
ATOM     11  C   UNL     1      -5.190 -41.993 214.592  1.00  0.00     0.087 C 
BRANCH  11  12
ATOM     12  C   UNL     1      -6.207 -40.982 215.189  1.00  0.00     0.066 C 
BRANCH  12  13
ATOM     13  C   UNL     1      -6.114 -40.937 216.708  1.00  0.00     0.140 C 
ATOM     14  O   UNL     1      -6.984 -40.371 217.354  1.00  0.00    -0.299 OA
BRANCH  13  15
ATOM     15  C   UNL     1      -5.005 -41.651 217.443  1.00  0.00     0.106 CG0
ATOM     16  G   UNL     1      -3.939 -40.690 217.947  1.00  0.00     0.000 G0
ENDBRANCH  13  15
ENDBRANCH  12  13
BRANCH  12  17
ATOM     17  C   UNL     1      -6.080 -39.544 214.591  1.00  0.00    -0.006 C 
ATOM     18  C   UNL     1      -7.391 -38.990 214.003  1.00  0.00     0.008 C 
ATOM     19  C   UNL     1      -5.509 -38.553 215.619  1.00  0.00     0.008 C 
ENDBRANCH  12  17
ENDBRANCH  11  12
ENDBRANCH   1  11
TORSDOF 1
ENDMDL
