MODEL 1
REMARK VINA RESULT:    -2.376      0.000      0.000
REMARK INTER + INTRA:          -2.376
REMARK INTER:                  -2.376
REMARK INTRA:                   0.000
REMARK UNBOUND:                 0.000
REMARK SMILES CC(=O)[O-]
REMARK SMILES IDX 1 1 2 2 3 3 4 4
REMARK H PARENT
REMARK Flexibility Score: inf
ROOT
ATOM      1  C   UNL     1      41.237  17.968  45.193  1.00  0.00     0.063 C 
ATOM      2  C   UNL     1      42.269  17.720  44.147  1.00  0.00     0.038 C 
ATOM      3  O   UNL     1      41.932  17.629  42.938  1.00  0.00    -0.550 OA
ATOM      4  O   UNL     1      43.606  17.588  44.500  1.00  0.00    -0.550 OA
ENDROOT
TORSDOF 0
ENDMDL
MODEL 2
REMARK VINA RESULT:    -2.172      1.309      2.196
REMARK INTER + INTRA:          -2.172
REMARK INTER:                  -2.172
REMARK INTRA:                   0.000
REMARK UNBOUND:                 0.000
REMARK SMILES CC(=O)[O-]
REMARK SMILES IDX 1 1 2 2 3 3 4 4
REMARK H PARENT
REMARK Flexibility Score: inf
ROOT
ATOM      1  C   UNL     1      43.998  17.159  44.413  1.00  0.00     0.063 C 
ATOM      2  C   UNL     1      42.669  17.790  44.173  1.00  0.00     0.038 C 
ATOM      3  O   UNL     1      42.136  18.498  45.066  1.00  0.00    -0.550 OA
ATOM      4  O   UNL     1      42.013  17.600  42.962  1.00  0.00    -0.550 OA
ENDROOT
TORSDOF 0
ENDMDL
MODEL 3
REMARK VINA RESULT:    -1.954      1.587      2.135
REMARK INTER + INTRA:          -1.954
REMARK INTER:                  -1.954
REMARK INTRA:                   0.000
REMARK UNBOUND:                 0.000
REMARK SMILES CC(=O)[O-]
REMARK SMILES IDX 1 1 2 2 3 3 4 4
REMARK H PARENT
REMARK Flexibility Score: inf
ROOT
ATOM      1  C   UNL     1      41.418  17.334  42.919  1.00  0.00     0.063 C 
ATOM      2  C   UNL     1      41.793  17.697  44.315  1.00  0.00     0.038 C 
ATOM      3  O   UNL     1      42.986  17.987  44.592  1.00  0.00    -0.550 OA
ATOM      4  O   UNL     1      40.829  17.717  45.316  1.00  0.00    -0.550 OA
ENDROOT
TORSDOF 0
ENDMDL
MODEL 4
REMARK VINA RESULT:    -1.902     14.712     14.947
REMARK INTER + INTRA:          -1.902
REMARK INTER:                  -1.902
REMARK INTRA:                   0.000
REMARK UNBOUND:                 0.000
REMARK SMILES CC(=O)[O-]
REMARK SMILES IDX 1 1 2 2 3 3 4 4
REMARK H PARENT
REMARK Flexibility Score: inf
ROOT
ATOM      1  C   UNL     1      55.630  20.982  50.017  1.00  0.00     0.063 C 
ATOM      2  C   UNL     1      56.185  20.557  48.700  1.00  0.00     0.038 C 
ATOM      3  O   UNL     1      56.757  21.396  47.956  1.00  0.00    -0.550 OA
ATOM      4  O   UNL     1      56.075  19.235  48.289  1.00  0.00    -0.550 OA
ENDROOT
TORSDOF 0
ENDMDL
MODEL 5
REMARK VINA RESULT:    -1.894     15.030     15.253
REMARK INTER + INTRA:          -1.894
REMARK INTER:                  -1.894
REMARK INTRA:                   0.000
REMARK UNBOUND:                 0.000
REMARK SMILES CC(=O)[O-]
REMARK SMILES IDX 1 1 2 2 3 3 4 4
REMARK H PARENT
REMARK Flexibility Score: inf
ROOT
ATOM      1  C   UNL     1      56.349  20.003  48.737  1.00  0.00     0.063 C 
ATOM      2  C   UNL     1      56.359  21.440  48.340  1.00  0.00     0.038 C 
ATOM      3  O   UNL     1      55.665  22.274  48.977  1.00  0.00    -0.550 OA
ATOM      4  O   UNL     1      57.133  21.864  47.267  1.00  0.00    -0.550 OA
ENDROOT
TORSDOF 0
ENDMDL
MODEL 6
REMARK VINA RESULT:    -1.854     14.720     14.943
REMARK INTER + INTRA:          -1.854
REMARK INTER:                  -1.854
REMARK INTRA:                   0.000
REMARK UNBOUND:                 0.000
REMARK SMILES CC(=O)[O-]
REMARK SMILES IDX 1 1 2 2 3 3 4 4
REMARK H PARENT
REMARK Flexibility Score: inf
ROOT
ATOM      1  C   UNL     1      56.375  20.004  48.683  1.00  0.00     0.063 C 
ATOM      2  C   UNL     1      55.701  21.095  49.443  1.00  0.00     0.038 C 
ATOM      3  O   UNL     1      55.861  22.295  49.099  1.00  0.00    -0.550 OA
ATOM      4  O   UNL     1      54.895  20.793  50.533  1.00  0.00    -0.550 OA
ENDROOT
TORSDOF 0
ENDMDL
MODEL 7
REMARK VINA RESULT:    -1.820     15.446     15.866
REMARK INTER + INTRA:          -1.820
REMARK INTER:                  -1.820
REMARK INTRA:                   0.000
REMARK UNBOUND:                 0.000
REMARK SMILES CC(=O)[O-]
REMARK SMILES IDX 1 1 2 2 3 3 4 4
REMARK H PARENT
REMARK Flexibility Score: inf
ROOT
ATOM      1  C   UNL     1      57.448  24.008  46.927  1.00  0.00     0.063 C 
ATOM      2  C   UNL     1      56.719  22.890  47.592  1.00  0.00     0.038 C 
ATOM      3  O   UNL     1      57.108  21.703  47.438  1.00  0.00    -0.550 OA
ATOM      4  O   UNL     1      55.608  23.153  48.383  1.00  0.00    -0.550 OA
ENDROOT
TORSDOF 0
ENDMDL
MODEL 8
REMARK VINA RESULT:    -1.763     13.786     14.145
REMARK INTER + INTRA:          -1.763
REMARK INTER:                  -1.763
REMARK INTRA:                   0.000
REMARK UNBOUND:                 0.000
REMARK SMILES CC(=O)[O-]
REMARK SMILES IDX 1 1 2 2 3 3 4 4
REMARK H PARENT
REMARK Flexibility Score: inf
ROOT
ATOM      1  C   UNL     1      53.849  24.796  46.952  1.00  0.00     0.063 C 
ATOM      2  C   UNL     1      54.354  23.809  47.950  1.00  0.00     0.038 C 
ATOM      3  O   UNL     1      55.504  23.315  47.822  1.00  0.00    -0.550 OA
ATOM      4  O   UNL     1      53.557  23.430  49.023  1.00  0.00    -0.550 OA
ENDROOT
TORSDOF 0
ENDMDL
MODEL 9
REMARK VINA RESULT:    -1.762     14.860     15.057
REMARK INTER + INTRA:          -1.762
REMARK INTER:                  -1.762
REMARK INTRA:                   0.000
REMARK UNBOUND:                 0.000
REMARK SMILES CC(=O)[O-]
REMARK SMILES IDX 1 1 2 2 3 3 4 4
REMARK H PARENT
REMARK Flexibility Score: inf
ROOT
ATOM      1  C   UNL     1      56.010  22.178  48.562  1.00  0.00     0.063 C 
ATOM      2  C   UNL     1      55.990  20.838  49.215  1.00  0.00     0.038 C 
ATOM      3  O   UNL     1      55.259  20.637  50.220  1.00  0.00    -0.550 OA
ATOM      4  O   UNL     1      56.776  19.806  48.717  1.00  0.00    -0.550 OA
ENDROOT
TORSDOF 0
ENDMDL
