MODEL 1
REMARK VINA RESULT:    -3.268      0.000      0.000
REMARK INTER + INTRA:          -3.912
REMARK INTER:                  -3.841
REMARK INTRA:                  -0.071
REMARK UNBOUND:                -0.071
REMARK SMILES O=C([O-])CCC(=O)[O-]
REMARK SMILES IDX 4 1 2 2 1 3 3 4 5 5 6 6 7 7 8 8
REMARK H PARENT
REMARK Flexibility Score: inf
ROOT
ATOM      1  C   UNL     1      12.593  26.534  34.840  1.00  0.00     0.059 C 
ENDROOT
BRANCH   1   2
ATOM      2  C   UNL     1      11.518  27.555  34.627  1.00  0.00     0.042 C 
ATOM      3  O   UNL     1      10.930  27.635  33.517  1.00  0.00    -0.550 OA
ATOM      4  O   UNL     1      11.194  28.446  35.642  1.00  0.00    -0.550 OA
ENDBRANCH   1   2
BRANCH   1   5
ATOM      5  C   UNL     1      12.750  25.618  33.623  1.00  0.00     0.059 C 
BRANCH   5   6
ATOM      6  C   UNL     1      14.185  25.490  33.211  1.00  0.00     0.042 C 
ATOM      7  O   UNL     1      14.672  24.359  32.950  1.00  0.00    -0.550 OA
ATOM      8  O   UNL     1      14.995  26.618  33.154  1.00  0.00    -0.550 OA
ENDBRANCH   5   6
ENDBRANCH   1   5
TORSDOF 3
ENDMDL
MODEL 2
REMARK VINA RESULT:    -3.229      0.968      1.681
REMARK INTER + INTRA:          -3.866
REMARK INTER:                  -3.763
REMARK INTRA:                  -0.103
REMARK UNBOUND:                -0.071
REMARK SMILES O=C([O-])CCC(=O)[O-]
REMARK SMILES IDX 4 1 2 2 1 3 3 4 5 5 6 6 7 7 8 8
REMARK H PARENT
REMARK Flexibility Score: inf
ROOT
ATOM      1  C   UNL     1      12.066  27.012  33.873  1.00  0.00     0.059 C 
ENDROOT
BRANCH   1   2
ATOM      2  C   UNL     1      11.807  27.356  35.307  1.00  0.00     0.042 C 
ATOM      3  O   UNL     1      12.189  26.583  36.224  1.00  0.00    -0.550 OA
ATOM      4  O   UNL     1      11.107  28.511  35.629  1.00  0.00    -0.550 OA
ENDBRANCH   1   2
BRANCH   1   5
ATOM      5  C   UNL     1      12.632  25.596  33.726  1.00  0.00     0.059 C 
BRANCH   5   6
ATOM      6  C   UNL     1      14.075  25.619  33.325  1.00  0.00     0.042 C 
ATOM      7  O   UNL     1      14.716  26.703  33.322  1.00  0.00    -0.550 OA
ATOM      8  O   UNL     1      14.703  24.449  32.918  1.00  0.00    -0.550 OA
ENDBRANCH   5   6
ENDBRANCH   1   5
TORSDOF 3
ENDMDL
MODEL 3
REMARK VINA RESULT:    -3.224      1.388      2.015
REMARK INTER + INTRA:          -3.861
REMARK INTER:                  -3.746
REMARK INTRA:                  -0.115
REMARK UNBOUND:                -0.071
REMARK SMILES O=C([O-])CCC(=O)[O-]
REMARK SMILES IDX 4 1 2 2 1 3 3 4 5 5 6 6 7 7 8 8
REMARK H PARENT
REMARK Flexibility Score: inf
ROOT
ATOM      1  C   UNL     1      12.721  25.465  33.599  1.00  0.00     0.059 C 
ENDROOT
BRANCH   1   2
ATOM      2  C   UNL     1      12.519  26.835  34.168  1.00  0.00     0.042 C 
ATOM      3  O   UNL     1      11.410  27.417  34.042  1.00  0.00    -0.550 OA
ATOM      4  O   UNL     1      13.568  27.486  34.803  1.00  0.00    -0.550 OA
ENDBRANCH   1   2
BRANCH   1   5
ATOM      5  C   UNL     1      14.133  25.293  33.029  1.00  0.00     0.059 C 
BRANCH   5   6
ATOM      6  C   UNL     1      14.877  24.194  33.724  1.00  0.00     0.042 C 
ATOM      7  O   UNL     1      14.787  24.057  34.972  1.00  0.00    -0.550 OA
ATOM      8  O   UNL     1      15.701  23.344  32.996  1.00  0.00    -0.550 OA
ENDBRANCH   5   6
ENDBRANCH   1   5
TORSDOF 3
ENDMDL
MODEL 4
REMARK VINA RESULT:    -3.209      0.987      3.892
REMARK INTER + INTRA:          -3.843
REMARK INTER:                  -3.740
REMARK INTRA:                  -0.103
REMARK UNBOUND:                -0.071
REMARK SMILES O=C([O-])CCC(=O)[O-]
REMARK SMILES IDX 4 1 2 2 1 3 3 4 5 5 6 6 7 7 8 8
REMARK H PARENT
REMARK Flexibility Score: inf
ROOT
ATOM      1  C   UNL     1      12.635  25.605  33.733  1.00  0.00     0.059 C 
ENDROOT
BRANCH   1   2
ATOM      2  C   UNL     1      14.068  25.615  33.299  1.00  0.00     0.042 C 
ATOM      3  O   UNL     1      14.624  24.551  32.920  1.00  0.00    -0.550 OA
ATOM      4  O   UNL     1      14.802  26.793  33.351  1.00  0.00    -0.550 OA
ENDBRANCH   1   2
BRANCH   1   5
ATOM      5  C   UNL     1      12.089  27.025  33.909  1.00  0.00     0.059 C 
BRANCH   5   6
ATOM      6  C   UNL     1      11.848  27.346  35.353  1.00  0.00     0.042 C 
ATOM      7  O   UNL     1      12.265  26.572  36.254  1.00  0.00    -0.550 OA
ATOM      8  O   UNL     1      11.126  28.482  35.701  1.00  0.00    -0.550 OA
ENDBRANCH   5   6
ENDBRANCH   1   5
TORSDOF 3
ENDMDL
MODEL 5
REMARK VINA RESULT:    -3.201      1.378      2.041
REMARK INTER + INTRA:          -3.834
REMARK INTER:                  -3.721
REMARK INTRA:                  -0.113
REMARK UNBOUND:                -0.071
REMARK SMILES O=C([O-])CCC(=O)[O-]
REMARK SMILES IDX 4 1 2 2 1 3 3 4 5 5 6 6 7 7 8 8
REMARK H PARENT
REMARK Flexibility Score: inf
ROOT
ATOM      1  C   UNL     1      12.759  25.478  33.608  1.00  0.00     0.059 C 
ENDROOT
BRANCH   1   2
ATOM      2  C   UNL     1      12.574  26.863  34.146  1.00  0.00     0.042 C 
ATOM      3  O   UNL     1      13.515  27.438  34.754  1.00  0.00    -0.550 OA
ATOM      4  O   UNL     1      11.349  27.503  34.013  1.00  0.00    -0.550 OA
ENDBRANCH   1   2
BRANCH   1   5
ATOM      5  C   UNL     1      14.143  25.298  32.977  1.00  0.00     0.059 C 
BRANCH   5   6
ATOM      6  C   UNL     1      14.922  24.214  33.657  1.00  0.00     0.042 C 
ATOM      7  O   UNL     1      15.685  23.467  32.990  1.00  0.00    -0.550 OA
ATOM      8  O   UNL     1      14.775  24.004  35.023  1.00  0.00    -0.550 OA
ENDBRANCH   5   6
ENDBRANCH   1   5
TORSDOF 3
ENDMDL
MODEL 6
REMARK VINA RESULT:    -3.194      1.369      4.123
REMARK INTER + INTRA:          -3.826
REMARK INTER:                  -3.706
REMARK INTRA:                  -0.120
REMARK UNBOUND:                -0.071
REMARK SMILES O=C([O-])CCC(=O)[O-]
REMARK SMILES IDX 4 1 2 2 1 3 3 4 5 5 6 6 7 7 8 8
REMARK H PARENT
REMARK Flexibility Score: inf
ROOT
ATOM      1  C   UNL     1      14.119  25.306  32.996  1.00  0.00     0.059 C 
ENDROOT
BRANCH   1   2
ATOM      2  C   UNL     1      14.850  24.206  33.702  1.00  0.00     0.042 C 
ATOM      3  O   UNL     1      15.519  23.365  33.045  1.00  0.00    -0.550 OA
ATOM      4  O   UNL     1      14.758  24.083  35.082  1.00  0.00    -0.550 OA
ENDBRANCH   1   2
BRANCH   1   5
ATOM      5  C   UNL     1      12.750  25.572  33.631  1.00  0.00     0.059 C 
BRANCH   5   6
ATOM      6  C   UNL     1      12.687  26.933  34.253  1.00  0.00     0.042 C 
ATOM      7  O   UNL     1      13.736  27.488  34.674  1.00  0.00    -0.550 OA
ATOM      8  O   UNL     1      11.462  27.572  34.405  1.00  0.00    -0.550 OA
ENDBRANCH   5   6
ENDBRANCH   1   5
TORSDOF 3
ENDMDL
MODEL 7
REMARK VINA RESULT:    -2.887      2.603      5.268
REMARK INTER + INTRA:          -3.465
REMARK INTER:                  -3.436
REMARK INTRA:                  -0.029
REMARK UNBOUND:                -0.071
REMARK SMILES O=C([O-])CCC(=O)[O-]
REMARK SMILES IDX 4 1 2 2 1 3 3 4 5 5 6 6 7 7 8 8
REMARK H PARENT
REMARK Flexibility Score: inf
ROOT
ATOM      1  C   UNL     1      15.347  23.558  34.314  1.00  0.00     0.059 C 
ENDROOT
BRANCH   1   2
ATOM      2  C   UNL     1      15.890  22.172  34.146  1.00  0.00     0.042 C 
ATOM      3  O   UNL     1      16.571  21.876  33.130  1.00  0.00    -0.550 OA
ATOM      4  O   UNL     1      15.609  21.196  35.094  1.00  0.00    -0.550 OA
ENDBRANCH   1   2
BRANCH   1   5
ATOM      5  C   UNL     1      14.837  24.128  32.987  1.00  0.00     0.059 C 
BRANCH   5   6
ATOM      6  C   UNL     1      13.969  25.330  33.201  1.00  0.00     0.042 C 
ATOM      7  O   UNL     1      14.487  26.468  33.350  1.00  0.00    -0.550 OA
ATOM      8  O   UNL     1      12.589  25.187  33.276  1.00  0.00    -0.550 OA
ENDBRANCH   5   6
ENDBRANCH   1   5
TORSDOF 3
ENDMDL
MODEL 8
REMARK VINA RESULT:    -2.865      2.329      3.216
REMARK INTER + INTRA:          -3.439
REMARK INTER:                  -3.409
REMARK INTRA:                  -0.030
REMARK UNBOUND:                -0.071
REMARK SMILES O=C([O-])CCC(=O)[O-]
REMARK SMILES IDX 4 1 2 2 1 3 3 4 5 5 6 6 7 7 8 8
REMARK H PARENT
REMARK Flexibility Score: inf
ROOT
ATOM      1  C   UNL     1      14.598  24.681  34.198  1.00  0.00     0.059 C 
ENDROOT
BRANCH   1   2
ATOM      2  C   UNL     1      13.551  25.652  33.747  1.00  0.00     0.042 C 
ATOM      3  O   UNL     1      12.477  25.236  33.238  1.00  0.00    -0.550 OA
ATOM      4  O   UNL     1      13.778  27.018  33.851  1.00  0.00    -0.550 OA
ENDBRANCH   1   2
BRANCH   1   5
ATOM      5  C   UNL     1      15.151  23.864  33.027  1.00  0.00     0.059 C 
BRANCH   5   6
ATOM      6  C   UNL     1      16.278  22.975  33.459  1.00  0.00     0.042 C 
ATOM      7  O   UNL     1      16.440  21.850  32.919  1.00  0.00    -0.550 OA
ATOM      8  O   UNL     1      17.124  23.375  34.486  1.00  0.00    -0.550 OA
ENDBRANCH   5   6
ENDBRANCH   1   5
TORSDOF 3
ENDMDL
MODEL 9
REMARK VINA RESULT:    -2.807      1.829      3.989
REMARK INTER + INTRA:          -3.371
REMARK INTER:                  -3.245
REMARK INTRA:                  -0.125
REMARK UNBOUND:                -0.071
REMARK SMILES O=C([O-])CCC(=O)[O-]
REMARK SMILES IDX 4 1 2 2 1 3 3 4 5 5 6 6 7 7 8 8
REMARK H PARENT
REMARK Flexibility Score: inf
ROOT
ATOM      1  C   UNL     1      14.849  27.672  34.307  1.00  0.00     0.059 C 
ENDROOT
BRANCH   1   2
ATOM      2  C   UNL     1      15.805  27.152  33.278  1.00  0.00     0.042 C 
ATOM      3  O   UNL     1      16.328  27.936  32.443  1.00  0.00    -0.550 OA
ATOM      4  O   UNL     1      16.087  25.793  33.215  1.00  0.00    -0.550 OA
ENDBRANCH   1   2
BRANCH   1   5
ATOM      5  C   UNL     1      13.955  26.559  34.861  1.00  0.00     0.059 C 
BRANCH   5   6
ATOM      6  C   UNL     1      12.721  26.379  34.030  1.00  0.00     0.042 C 
ATOM      7  O   UNL     1      11.803  27.240  34.065  1.00  0.00    -0.550 OA
ATOM      8  O   UNL     1      12.569  25.241  33.249  1.00  0.00    -0.550 OA
ENDBRANCH   5   6
ENDBRANCH   1   5
TORSDOF 3
ENDMDL
