MODEL 1
REMARK VINA RESULT:     1.400      0.000      0.000
REMARK INTER + INTRA:           1.482
REMARK INTER:                   2.709
REMARK INTRA:                  -1.227
REMARK UNBOUND:                -1.227
REMARK SMILES CCCCCCCCCCCCCCCCCC(=O)[O-]
REMARK SMILES IDX 10 1 11 2 12 3 13 4 14 5 15 6 16 7 17 8 18 9 19 10 20 11
REMARK SMILES IDX 9 12 8 13 7 14 6 15 5 16 4 17 3 18 2 19 1 20
REMARK H PARENT
REMARK Flexibility Score: inf
ROOT
ATOM      1  C   UNL     1     104.627 104.281 102.642  1.00  0.00     0.000 C 
ENDROOT
BRANCH   1   2
ATOM      2  C   UNL     1     103.364 103.425 102.471  1.00  0.00     0.000 C 
BRANCH   2   3
ATOM      3  C   UNL     1     103.677 101.923 102.367  1.00  0.00     0.000 C 
BRANCH   3   4
ATOM      4  C   UNL     1     103.316 101.334 100.992  1.00  0.00     0.000 C 
BRANCH   4   5
ATOM      5  C   UNL     1     103.259 102.417  99.894  1.00  0.00     0.000 C 
BRANCH   5   6
ATOM      6  C   UNL     1     103.418 101.859  98.468  1.00  0.00     0.000 C 
BRANCH   6   7
ATOM      7  C   UNL     1     103.914 102.915  97.465  1.00  0.00     0.006 C 
BRANCH   7   8
ATOM      8  C   UNL     1     103.403 104.321  97.802  1.00  0.00     0.053 C 
BRANCH   8   9
ATOM      9  C   UNL     1     104.506 105.334  97.777  1.00  0.00     0.041 C 
ATOM     10  O   UNL     1     104.239 106.564  97.834  1.00  0.00    -0.550 OA
ATOM     11  O   UNL     1     105.830 104.919  97.726  1.00  0.00    -0.550 OA
ENDBRANCH   8   9
ENDBRANCH   7   8
ENDBRANCH   6   7
ENDBRANCH   5   6
ENDBRANCH   4   5
ENDBRANCH   3   4
ENDBRANCH   2   3
ENDBRANCH   1   2
BRANCH   1  12
ATOM     12  C   UNL     1     104.390 105.717 102.159  1.00  0.00     0.000 C 
BRANCH  12  13
ATOM     13  C   UNL     1     104.576 106.721 103.306  1.00  0.00    -0.000 C 
BRANCH  13  14
ATOM     14  C   UNL     1     104.661 106.039 104.681  1.00  0.00    -0.000 C 
BRANCH  14  15
ATOM     15  C   UNL     1     104.670 107.048 105.839  1.00  0.00    -0.000 C 
BRANCH  15  16
ATOM     16  C   UNL     1     104.339 106.362 107.170  1.00  0.00    -0.000 C 
BRANCH  16  17
ATOM     17  C   UNL     1     104.712 104.872 107.129  1.00  0.00    -0.000 C 
BRANCH  17  18
ATOM     18  C   UNL     1     103.565 103.967 107.623  1.00  0.00    -0.000 C 
BRANCH  18  19
ATOM     19  C   UNL     1     103.319 102.743 106.723  1.00  0.00    -0.003 C 
ATOM     20  C   UNL     1     103.656 101.419 107.406  1.00  0.00     0.004 C 
ENDBRANCH  18  19
ENDBRANCH  17  18
ENDBRANCH  16  17
ENDBRANCH  15  16
ENDBRANCH  14  15
ENDBRANCH  13  14
ENDBRANCH  12  13
ENDBRANCH   1  12
TORSDOF 16
ENDMDL
MODEL 2
REMARK VINA RESULT:     1.406      3.216      7.380
REMARK INTER + INTRA:           1.494
REMARK INTER:                   2.743
REMARK INTRA:                  -1.250
REMARK UNBOUND:                -1.227
REMARK SMILES CCCCCCCCCCCCCCCCCC(=O)[O-]
REMARK SMILES IDX 10 1 11 2 12 3 13 4 14 5 15 6 16 7 17 8 18 9 19 10 20 11
REMARK SMILES IDX 9 12 8 13 7 14 6 15 5 16 4 17 3 18 2 19 1 20
REMARK H PARENT
REMARK Flexibility Score: inf
ROOT
ATOM      1  C   UNL     1     104.655 104.610 102.308  1.00  0.00     0.000 C 
ENDROOT
BRANCH   1   2
ATOM      2  C   UNL     1     103.390 103.752 102.450  1.00  0.00     0.000 C 
BRANCH   2   3
ATOM      3  C   UNL     1     103.694 102.244 102.437  1.00  0.00     0.000 C 
BRANCH   3   4
ATOM      4  C   UNL     1     103.336 101.554 103.765  1.00  0.00     0.000 C 
BRANCH   4   5
ATOM      5  C   UNL     1     103.288 102.550 104.943  1.00  0.00     0.000 C 
BRANCH   5   6
ATOM      6  C   UNL     1     103.514 101.894 106.316  1.00  0.00     0.000 C 
BRANCH   6   7
ATOM      7  C   UNL     1     103.664 102.921 107.453  1.00  0.00     0.006 C 
BRANCH   7   8
ATOM      8  C   UNL     1     103.386 104.353 106.980  1.00  0.00     0.053 C 
BRANCH   8   9
ATOM      9  C   UNL     1     104.546 105.262 107.249  1.00  0.00     0.041 C 
ATOM     10  O   UNL     1     105.719 104.803 107.275  1.00  0.00    -0.550 OA
ATOM     11  O   UNL     1     104.334 106.622 107.436  1.00  0.00    -0.550 OA
ENDBRANCH   8   9
ENDBRANCH   7   8
ENDBRANCH   6   7
ENDBRANCH   5   6
ENDBRANCH   4   5
ENDBRANCH   3   4
ENDBRANCH   2   3
ENDBRANCH   1   2
BRANCH   1  12
ATOM     12  C   UNL     1     104.362 106.080 102.630  1.00  0.00     0.000 C 
BRANCH  12  13
ATOM     13  C   UNL     1     104.551 106.963 101.387  1.00  0.00    -0.000 C 
BRANCH  13  14
ATOM     14  C   UNL     1     104.642 106.145 100.089  1.00  0.00    -0.000 C 
BRANCH  14  15
ATOM     15  C   UNL     1     104.676 107.032  98.836  1.00  0.00    -0.000 C 
BRANCH  15  16
ATOM     16  C   UNL     1     104.296 106.232  97.584  1.00  0.00    -0.000 C 
BRANCH  16  17
ATOM     17  C   UNL     1     104.723 104.762  97.720  1.00  0.00    -0.000 C 
BRANCH  17  18
ATOM     18  C   UNL     1     103.601 103.786  97.312  1.00  0.00    -0.000 C 
BRANCH  18  19
ATOM     19  C   UNL     1     103.408 102.624  98.303  1.00  0.00    -0.003 C 
ATOM     20  C   UNL     1     103.694 101.256  97.686  1.00  0.00     0.004 C 
ENDBRANCH  18  19
ENDBRANCH  17  18
ENDBRANCH  16  17
ENDBRANCH  15  16
ENDBRANCH  14  15
ENDBRANCH  13  14
ENDBRANCH  12  13
ENDBRANCH   1  12
TORSDOF 16
ENDMDL
MODEL 3
REMARK VINA RESULT:     1.416      1.619      3.903
REMARK INTER + INTRA:           1.514
REMARK INTER:                   2.726
REMARK INTRA:                  -1.212
REMARK UNBOUND:                -1.227
REMARK SMILES CCCCCCCCCCCCCCCCCC(=O)[O-]
REMARK SMILES IDX 10 1 11 2 12 3 13 4 14 5 15 6 16 7 17 8 18 9 19 10 20 11
REMARK SMILES IDX 9 12 8 13 7 14 6 15 5 16 4 17 3 18 2 19 1 20
REMARK H PARENT
REMARK Flexibility Score: inf
ROOT
ATOM      1  C   UNL     1     103.385 103.935 102.681  1.00  0.00     0.000 C 
ENDROOT
BRANCH   1   2
ATOM      2  C   UNL     1     104.629 104.816 102.487  1.00  0.00     0.000 C 
BRANCH   2   3
ATOM      3  C   UNL     1     104.280 106.304 102.321  1.00  0.00     0.000 C 
BRANCH   3   4
ATOM      4  C   UNL     1     104.734 106.874 100.967  1.00  0.00     0.000 C 
BRANCH   4   5
ATOM      5  C   UNL     1     104.685 105.815  99.845  1.00  0.00     0.000 C 
BRANCH   5   6
ATOM      6  C   UNL     1     104.567 106.415  98.433  1.00  0.00     0.000 C 
BRANCH   6   7
ATOM      7  C   UNL     1     104.042 105.407  97.396  1.00  0.00     0.006 C 
BRANCH   7   8
ATOM      8  C   UNL     1     104.584 103.992  97.637  1.00  0.00     0.053 C 
BRANCH   8   9
ATOM      9  C   UNL     1     103.480 102.985  97.744  1.00  0.00     0.041 C 
ATOM     10  O   UNL     1     103.748 101.759  97.844  1.00  0.00    -0.550 OA
ATOM     11  O   UNL     1     102.156 103.405  97.766  1.00  0.00    -0.550 OA
ENDBRANCH   8   9
ENDBRANCH   7   8
ENDBRANCH   6   7
ENDBRANCH   5   6
ENDBRANCH   4   5
ENDBRANCH   3   4
ENDBRANCH   2   3
ENDBRANCH   1   2
BRANCH   1  12
ATOM     12  C   UNL     1     103.645 102.502 102.202  1.00  0.00     0.000 C 
BRANCH  12  13
ATOM     13  C   UNL     1     103.420 101.494 103.339  1.00  0.00    -0.000 C 
BRANCH  13  14
ATOM     14  C   UNL     1     103.318 102.168 104.716  1.00  0.00    -0.000 C 
BRANCH  14  15
ATOM     15  C   UNL     1     103.321 101.154 105.869  1.00  0.00    -0.000 C 
BRANCH  15  16
ATOM     16  C   UNL     1     103.643 101.838 107.204  1.00  0.00    -0.000 C 
BRANCH  16  17
ATOM     17  C   UNL     1     103.263 103.326 107.165  1.00  0.00    -0.000 C 
BRANCH  17  18
ATOM     18  C   UNL     1     104.469 104.246 107.444  1.00  0.00    -0.000 C 
BRANCH  18  19
ATOM     19  C   UNL     1     104.448 105.551 106.630  1.00  0.00    -0.003 C 
ATOM     20  C   UNL     1     104.509 106.803 107.503  1.00  0.00     0.004 C 
ENDBRANCH  18  19
ENDBRANCH  17  18
ENDBRANCH  16  17
ENDBRANCH  15  16
ENDBRANCH  14  15
ENDBRANCH  13  14
ENDBRANCH  12  13
ENDBRANCH   1  12
TORSDOF 16
ENDMDL
MODEL 4
REMARK VINA RESULT:     1.466      2.968      4.769
REMARK INTER + INTRA:           1.610
REMARK INTER:                   2.818
REMARK INTRA:                  -1.208
REMARK UNBOUND:                -1.227
REMARK SMILES CCCCCCCCCCCCCCCCCC(=O)[O-]
REMARK SMILES IDX 10 1 11 2 12 3 13 4 14 5 15 6 16 7 17 8 18 9 19 10 20 11
REMARK SMILES IDX 9 12 8 13 7 14 6 15 5 16 4 17 3 18 2 19 1 20
REMARK H PARENT
REMARK Flexibility Score: inf
ROOT
ATOM      1  C   UNL     1     104.620 104.145 107.351  1.00  0.00     0.000 C 
ENDROOT
BRANCH   1   2
ATOM      2  C   UNL     1     103.340 103.302 107.251  1.00  0.00     0.000 C 
BRANCH   2   3
ATOM      3  C   UNL     1     103.633 101.799 107.110  1.00  0.00     0.000 C 
BRANCH   3   4
ATOM      4  C   UNL     1     103.308 101.260 105.706  1.00  0.00     0.000 C 
BRANCH   4   5
ATOM      5  C   UNL     1     103.323 102.374 104.638  1.00  0.00     0.000 C 
BRANCH   5   6
ATOM      6  C   UNL     1     103.391 101.846 103.194  1.00  0.00     0.000 C 
BRANCH   6   7
ATOM      7  C   UNL     1     103.841 102.917 102.186  1.00  0.00     0.006 C 
BRANCH   7   8
ATOM      8  C   UNL     1     103.391 104.325 102.596  1.00  0.00     0.053 C 
BRANCH   8   9
ATOM      9  C   UNL     1     104.518 105.310 102.529  1.00  0.00     0.041 C 
ATOM     10  O   UNL     1     105.709 104.908 102.450  1.00  0.00    -0.550 OA
ATOM     11  O   UNL     1     104.249 106.673 102.520  1.00  0.00    -0.550 OA
ENDBRANCH   8   9
ENDBRANCH   7   8
ENDBRANCH   6   7
ENDBRANCH   5   6
ENDBRANCH   4   5
ENDBRANCH   3   4
ENDBRANCH   2   3
ENDBRANCH   1   2
BRANCH   1  12
ATOM     12  C   UNL     1     104.387 105.564 106.820  1.00  0.00     0.000 C 
BRANCH  12  13
ATOM     13  C   UNL     1     104.523 106.601 107.945  1.00  0.00    -0.000 C 
BRANCH  13  14
ATOM     14  C   UNL     1     104.610 105.956 109.337  1.00  0.00    -0.000 C 
BRANCH  14  15
ATOM     15  C   UNL     1     104.729 106.995 110.462  1.00  0.00    -0.000 C 
BRANCH  15  16
ATOM     16  C   UNL     1     104.346 106.388 111.817  1.00  0.00    -0.000 C 
BRANCH  16  17
ATOM     17  C   UNL     1     104.764 104.911 111.895  1.00  0.00    -0.000 C 
BRANCH  17  18
ATOM     18  C   UNL     1     103.623 104.005 112.401  1.00  0.00    -0.000 C 
BRANCH  18  19
ATOM     19  C   UNL     1     103.306 102.833 111.457  1.00  0.00    -0.003 C 
ATOM     20  C   UNL     1     103.629 101.469 112.065  1.00  0.00     0.004 C 
ENDBRANCH  18  19
ENDBRANCH  17  18
ENDBRANCH  16  17
ENDBRANCH  15  16
ENDBRANCH  14  15
ENDBRANCH  13  14
ENDBRANCH  12  13
ENDBRANCH   1  12
TORSDOF 16
ENDMDL
MODEL 5
REMARK VINA RESULT:     1.550      4.989      8.804
REMARK INTER + INTRA:           1.773
REMARK INTER:                   2.969
REMARK INTRA:                  -1.196
REMARK UNBOUND:                -1.227
REMARK SMILES CCCCCCCCCCCCCCCCCC(=O)[O-]
REMARK SMILES IDX 10 1 11 2 12 3 13 4 14 5 15 6 16 7 17 8 18 9 19 10 20 11
REMARK SMILES IDX 9 12 8 13 7 14 6 15 5 16 4 17 3 18 2 19 1 20
REMARK H PARENT
REMARK Flexibility Score: inf
ROOT
ATOM      1  C   UNL     1     104.631 104.446 107.085  1.00  0.00     0.000 C 
ENDROOT
BRANCH   1   2
ATOM      2  C   UNL     1     103.342 103.611 107.103  1.00  0.00     0.000 C 
BRANCH   2   3
ATOM      3  C   UNL     1     103.617 102.101 107.179  1.00  0.00     0.000 C 
BRANCH   3   4
ATOM      4  C   UNL     1     103.329 101.513 108.571  1.00  0.00     0.000 C 
BRANCH   4   5
ATOM      5  C   UNL     1     103.209 102.610 109.651  1.00  0.00     0.000 C 
BRANCH   5   6
ATOM      6  C   UNL     1     103.343 102.079 111.089  1.00  0.00     0.000 C 
BRANCH   6   7
ATOM      7  C   UNL     1     103.613 103.193 112.115  1.00  0.00     0.006 C 
BRANCH   7   8
ATOM      8  C   UNL     1     103.534 104.590 111.489  1.00  0.00     0.053 C 
BRANCH   8   9
ATOM      9  C   UNL     1     104.659 105.469 111.945  1.00  0.00     0.041 C 
ATOM     10  O   UNL     1     104.437 106.665 112.271  1.00  0.00    -0.550 OA
ATOM     11  O   UNL     1     105.946 104.956 112.042  1.00  0.00    -0.550 OA
ENDBRANCH   8   9
ENDBRANCH   7   8
ENDBRANCH   6   7
ENDBRANCH   5   6
ENDBRANCH   4   5
ENDBRANCH   3   4
ENDBRANCH   2   3
ENDBRANCH   1   2
BRANCH   1  12
ATOM     12  C   UNL     1     104.351 105.900 107.482  1.00  0.00     0.000 C 
BRANCH  12  13
ATOM     13  C   UNL     1     104.512 106.839 106.277  1.00  0.00    -0.000 C 
BRANCH  13  14
ATOM     14  C   UNL     1     104.701 106.079 104.955  1.00  0.00    -0.000 C 
BRANCH  14  15
ATOM     15  C   UNL     1     104.644 107.003 103.730  1.00  0.00    -0.000 C 
BRANCH  15  16
ATOM     16  C   UNL     1     104.234 106.227 102.473  1.00  0.00    -0.000 C 
BRANCH  16  17
ATOM     17  C   UNL     1     104.761 104.785 102.519  1.00  0.00    -0.000 C 
BRANCH  17  18
ATOM     18  C   UNL     1     103.804 103.789 101.835  1.00  0.00    -0.000 C 
BRANCH  18  19
ATOM     19  C   UNL     1     103.152 102.794 102.811  1.00  0.00    -0.003 C 
ATOM     20  C   UNL     1     103.609 101.353 102.593  1.00  0.00     0.004 C 
ENDBRANCH  18  19
ENDBRANCH  17  18
ENDBRANCH  16  17
ENDBRANCH  15  16
ENDBRANCH  14  15
ENDBRANCH  13  14
ENDBRANCH  12  13
ENDBRANCH   1  12
TORSDOF 16
ENDMDL
MODEL 6
REMARK VINA RESULT:     1.555      3.174      6.117
REMARK INTER + INTRA:           1.783
REMARK INTER:                   2.958
REMARK INTRA:                  -1.176
REMARK UNBOUND:                -1.227
REMARK SMILES CCCCCCCCCCCCCCCCCC(=O)[O-]
REMARK SMILES IDX 10 1 11 2 12 3 13 4 14 5 15 6 16 7 17 8 18 9 19 10 20 11
REMARK SMILES IDX 9 12 8 13 7 14 6 15 5 16 4 17 3 18 2 19 1 20
REMARK H PARENT
REMARK Flexibility Score: inf
ROOT
ATOM      1  C   UNL     1     103.501 103.989 107.435  1.00  0.00     0.000 C 
ENDROOT
BRANCH   1   2
ATOM      2  C   UNL     1     104.777 104.819 107.224  1.00  0.00     0.000 C 
BRANCH   2   3
ATOM      3  C   UNL     1     104.497 106.329 107.169  1.00  0.00     0.000 C 
BRANCH   3   4
ATOM      4  C   UNL     1     104.539 106.890 105.737  1.00  0.00     0.000 C 
BRANCH   4   5
ATOM      5  C   UNL     1     104.746 105.780 104.684  1.00  0.00     0.000 C 
BRANCH   5   6
ATOM      6  C   UNL     1     104.696 106.287 103.232  1.00  0.00     0.000 C 
BRANCH   6   7
ATOM      7  C   UNL     1     103.905 105.355 102.299  1.00  0.00     0.006 C 
BRANCH   7   8
ATOM      8  C   UNL     1     104.473 103.931 102.285  1.00  0.00     0.053 C 
BRANCH   8   9
ATOM      9  C   UNL     1     103.409 102.905 102.529  1.00  0.00     0.041 C 
ATOM     10  O   UNL     1     102.195 103.242 102.549  1.00  0.00    -0.550 OA
ATOM     11  O   UNL     1     103.756 101.571 102.701  1.00  0.00    -0.550 OA
ENDBRANCH   8   9
ENDBRANCH   7   8
ENDBRANCH   6   7
ENDBRANCH   5   6
ENDBRANCH   4   5
ENDBRANCH   3   4
ENDBRANCH   2   3
ENDBRANCH   1   2
BRANCH   1  12
ATOM     12  C   UNL     1     103.700 102.544 106.963  1.00  0.00     0.000 C 
BRANCH  12  13
ATOM     13  C   UNL     1     103.313 101.548 108.066  1.00  0.00    -0.000 C 
BRANCH  13  14
ATOM     14  C   UNL     1     103.282 102.193 109.461  1.00  0.00    -0.000 C 
BRANCH  14  15
ATOM     15  C   UNL     1     103.256 101.152 110.590  1.00  0.00    -0.000 C 
BRANCH  15  16
ATOM     16  C   UNL     1     103.575 101.800 111.943  1.00  0.00    -0.000 C 
BRANCH  16  17
ATOM     17  C   UNL     1     103.171 103.282 111.954  1.00  0.00    -0.000 C 
BRANCH  17  18
ATOM     18  C   UNL     1     104.276 104.188 112.534  1.00  0.00    -0.000 C 
BRANCH  18  19
ATOM     19  C   UNL     1     104.776 105.256 111.547  1.00  0.00    -0.003 C 
ATOM     20  C   UNL     1     104.380 106.676 111.949  1.00  0.00     0.004 C 
ENDBRANCH  18  19
ENDBRANCH  17  18
ENDBRANCH  16  17
ENDBRANCH  15  16
ENDBRANCH  14  15
ENDBRANCH  13  14
ENDBRANCH  12  13
ENDBRANCH   1  12
TORSDOF 16
ENDMDL
MODEL 7
REMARK VINA RESULT:     1.597      3.399      8.297
REMARK INTER + INTRA:           1.863
REMARK INTER:                   3.188
REMARK INTRA:                  -1.325
REMARK UNBOUND:                -1.227
REMARK SMILES CCCCCCCCCCCCCCCCCC(=O)[O-]
REMARK SMILES IDX 10 1 11 2 12 3 13 4 14 5 15 6 16 7 17 8 18 9 19 10 20 11
REMARK SMILES IDX 9 12 8 13 7 14 6 15 5 16 4 17 3 18 2 19 1 20
REMARK H PARENT
REMARK Flexibility Score: inf
ROOT
ATOM      1  C   UNL     1     103.411 104.204 102.193  1.00  0.00     0.000 C 
ENDROOT
BRANCH   1   2
ATOM      2  C   UNL     1     104.692 105.034 102.366  1.00  0.00     0.000 C 
BRANCH   2   3
ATOM      3  C   UNL     1     104.402 106.522 102.620  1.00  0.00     0.000 C 
BRANCH   3   4
ATOM      4  C   UNL     1     104.757 106.961 104.051  1.00  0.00     0.000 C 
BRANCH   4   5
ATOM      5  C   UNL     1     104.706 105.784 105.049  1.00  0.00     0.000 C 
BRANCH   5   6
ATOM      6  C   UNL     1     104.363 106.208 106.488  1.00  0.00     0.000 C 
BRANCH   6   7
ATOM      7  C   UNL     1     104.491 105.055 107.498  1.00  0.00     0.006 C 
BRANCH   7   8
ATOM      8  C   UNL     1     104.502 103.682 106.813  1.00  0.00     0.053 C 
BRANCH   8   9
ATOM      9  C   UNL     1     103.353 102.830 107.258  1.00  0.00     0.041 C 
ATOM     10  O   UNL     1     103.549 101.639 107.618  1.00  0.00    -0.550 OA
ATOM     11  O   UNL     1     102.071 103.362 107.306  1.00  0.00    -0.550 OA
ENDBRANCH   8   9
ENDBRANCH   7   8
ENDBRANCH   6   7
ENDBRANCH   5   6
ENDBRANCH   4   5
ENDBRANCH   3   4
ENDBRANCH   2   3
ENDBRANCH   1   2
BRANCH   1  12
ATOM     12  C   UNL     1     103.597 102.784 102.740  1.00  0.00     0.000 C 
BRANCH  12  13
ATOM     13  C   UNL     1     103.492 101.744 101.614  1.00  0.00    -0.000 C 
BRANCH  13  14
ATOM     14  C   UNL     1     103.324 102.387 100.228  1.00  0.00    -0.000 C 
BRANCH  14  15
ATOM     15  C   UNL     1     103.345 101.353  99.093  1.00  0.00    -0.000 C 
BRANCH  15  16
ATOM     16  C   UNL     1     103.694 102.013  97.753  1.00  0.00    -0.000 C 
BRANCH  16  17
ATOM     17  C   UNL     1     103.253 103.485  97.732  1.00  0.00    -0.000 C 
BRANCH  17  18
ATOM     18  C   UNL     1     104.384 104.429  97.278  1.00  0.00    -0.000 C 
BRANCH  18  19
ATOM     19  C   UNL     1     104.660 105.576  98.265  1.00  0.00    -0.003 C 
ATOM     20  C   UNL     1     104.240 106.943  97.729  1.00  0.00     0.004 C 
ENDBRANCH  18  19
ENDBRANCH  17  18
ENDBRANCH  16  17
ENDBRANCH  15  16
ENDBRANCH  14  15
ENDBRANCH  13  14
ENDBRANCH  12  13
ENDBRANCH   1  12
TORSDOF 16
ENDMDL
MODEL 8
REMARK VINA RESULT:     1.610      5.195      9.588
REMARK INTER + INTRA:           1.889
REMARK INTER:                   3.143
REMARK INTRA:                  -1.254
REMARK UNBOUND:                -1.227
REMARK SMILES CCCCCCCCCCCCCCCCCC(=O)[O-]
REMARK SMILES IDX 10 1 11 2 12 3 13 4 14 5 15 6 16 7 17 8 18 9 19 10 20 11
REMARK SMILES IDX 9 12 8 13 7 14 6 15 5 16 4 17 3 18 2 19 1 20
REMARK H PARENT
REMARK Flexibility Score: inf
ROOT
ATOM      1  C   UNL     1     103.346 103.764 107.047  1.00  0.00     0.000 C 
ENDROOT
BRANCH   1   2
ATOM      2  C   UNL     1     104.615 104.628 107.077  1.00  0.00     0.000 C 
BRANCH   2   3
ATOM      3  C   UNL     1     104.303 106.131 107.177  1.00  0.00     0.000 C 
BRANCH   3   4
ATOM      4  C   UNL     1     104.665 106.722 108.550  1.00  0.00     0.000 C 
BRANCH   4   5
ATOM      5  C   UNL     1     104.698 105.646 109.656  1.00  0.00     0.000 C 
BRANCH   5   6
ATOM      6  C   UNL     1     104.522 106.213 111.076  1.00  0.00     0.000 C 
BRANCH   6   7
ATOM      7  C   UNL     1     104.327 105.117 112.138  1.00  0.00     0.006 C 
BRANCH   7   8
ATOM      8  C   UNL     1     104.472 103.708 111.550  1.00  0.00     0.053 C 
BRANCH   8   9
ATOM      9  C   UNL     1     103.348 102.811 111.973  1.00  0.00     0.041 C 
ATOM     10  O   UNL     1     102.170 103.252 112.023  1.00  0.00    -0.550 OA
ATOM     11  O   UNL     1     103.599 101.479 112.278  1.00  0.00    -0.550 OA
ENDBRANCH   8   9
ENDBRANCH   7   8
ENDBRANCH   6   7
ENDBRANCH   5   6
ENDBRANCH   4   5
ENDBRANCH   3   4
ENDBRANCH   2   3
ENDBRANCH   1   2
BRANCH   1  12
ATOM     12  C   UNL     1     103.680 102.287 107.290  1.00  0.00     0.000 C 
BRANCH  12  13
ATOM     13  C   UNL     1     103.298 101.430 106.073  1.00  0.00    -0.000 C 
BRANCH  13  14
ATOM     14  C   UNL     1     103.203 102.251 104.778  1.00  0.00    -0.000 C 
BRANCH  14  15
ATOM     15  C   UNL     1     103.496 101.411 103.525  1.00  0.00    -0.000 C 
BRANCH  15  16
ATOM     16  C   UNL     1     103.463 102.278 102.261  1.00  0.00    -0.000 C 
BRANCH  16  17
ATOM     17  C   UNL     1     103.286 103.763 102.615  1.00  0.00    -0.000 C 
BRANCH  17  18
ATOM     18  C   UNL     1     104.487 104.620 102.167  1.00  0.00    -0.000 C 
BRANCH  18  19
ATOM     19  C   UNL     1     104.707 105.870 103.036  1.00  0.00    -0.003 C 
ATOM     20  C   UNL     1     104.347 107.169 102.319  1.00  0.00     0.004 C 
ENDBRANCH  18  19
ENDBRANCH  17  18
ENDBRANCH  16  17
ENDBRANCH  15  16
ENDBRANCH  14  15
ENDBRANCH  13  14
ENDBRANCH  12  13
ENDBRANCH   1  12
TORSDOF 16
ENDMDL
MODEL 9
REMARK VINA RESULT:     3.304      2.515      4.504
REMARK INTER + INTRA:           5.167
REMARK INTER:                   6.073
REMARK INTRA:                  -0.907
REMARK UNBOUND:                -1.227
REMARK SMILES CCCCCCCCCCCCCCCCCC(=O)[O-]
REMARK SMILES IDX 10 1 11 2 12 3 13 4 14 5 15 6 16 7 17 8 18 9 19 10 20 11
REMARK SMILES IDX 9 12 8 13 7 14 6 15 5 16 4 17 3 18 2 19 1 20
REMARK H PARENT
REMARK Flexibility Score: inf
ROOT
ATOM      1  C   UNL     1     104.671 105.979 106.309  1.00  0.00     0.000 C 
ENDROOT
BRANCH   1   2
ATOM      2  C   UNL     1     104.870 105.275 104.958  1.00  0.00     0.000 C 
BRANCH   2   3
ATOM      3  C   UNL     1     104.720 106.232 103.765  1.00  0.00     0.000 C 
BRANCH   3   4
ATOM      4  C   UNL     1     104.206 105.527 102.498  1.00  0.00     0.000 C 
BRANCH   4   5
ATOM      5  C   UNL     1     104.471 104.007 102.531  1.00  0.00     0.000 C 
BRANCH   5   6
ATOM      6  C   UNL     1     103.295 103.163 102.011  1.00  0.00     0.000 C 
BRANCH   6   7
ATOM      7  C   UNL     1     103.605 102.462 100.676  1.00  0.00     0.006 C 
BRANCH   7   8
ATOM      8  C   UNL     1     102.992 103.199  99.479  1.00  0.00     0.053 C 
BRANCH   8   9
ATOM      9  C   UNL     1     103.508 102.668  98.176  1.00  0.00     0.041 C 
ATOM     10  O   UNL     1     103.861 103.460  97.263  1.00  0.00    -0.550 OA
ATOM     11  O   UNL     1     103.630 101.297  97.985  1.00  0.00    -0.550 OA
ENDBRANCH   8   9
ENDBRANCH   7   8
ENDBRANCH   6   7
ENDBRANCH   5   6
ENDBRANCH   4   5
ENDBRANCH   3   4
ENDBRANCH   2   3
ENDBRANCH   1   2
BRANCH   1  12
ATOM     12  C   UNL     1     104.333 104.969 107.412  1.00  0.00     0.000 C 
BRANCH  12  13
ATOM     13  C   UNL     1     103.883 103.629 106.811  1.00  0.00    -0.000 C 
BRANCH  13  14
ATOM     14  C   UNL     1     103.365 102.648 107.874  1.00  0.00    -0.000 C 
BRANCH  14  15
ATOM     15  C   UNL     1     103.517 103.194 109.302  1.00  0.00    -0.000 C 
BRANCH  15  16
ATOM     16  C   UNL     1     103.326 102.081 110.340  1.00  0.00    -0.000 C 
BRANCH  16  17
ATOM     17  C   UNL     1     103.722 102.565 111.744  1.00  0.00    -0.000 C 
BRANCH  17  18
ATOM     18  C   UNL     1     103.425 104.063 111.954  1.00  0.00    -0.000 C 
BRANCH  18  19
ATOM     19  C   UNL     1     104.688 104.941 111.982  1.00  0.00    -0.003 C 
ATOM     20  C   UNL     1     104.378 106.437 111.981  1.00  0.00     0.004 C 
ENDBRANCH  18  19
ENDBRANCH  17  18
ENDBRANCH  16  17
ENDBRANCH  15  16
ENDBRANCH  14  15
ENDBRANCH  13  14
ENDBRANCH  12  13
ENDBRANCH   1  12
TORSDOF 16
ENDMDL
