MODEL 1
REMARK VINA RESULT:    -3.349      0.000      0.000
REMARK INTER + INTRA:          -3.779
REMARK INTER:                  -3.741
REMARK INTRA:                  -0.038
REMARK UNBOUND:                -0.038
REMARK SMILES CCCC(=O)[O-]
REMARK SMILES IDX 3 1 4 2 5 3 6 4 2 5 1 6
REMARK H PARENT
REMARK Flexibility Score: inf
ROOT
ATOM      1  C   UNL     1       1.142 -22.120  -7.895  1.00  0.00     0.052 C 
ENDROOT
BRANCH   1   2
ATOM      2  C   UNL     1       0.528 -22.550  -6.598  1.00  0.00     0.041 C 
ATOM      3  O   UNL     1       0.128 -23.735  -6.447  1.00  0.00    -0.550 OA
ATOM      4  O   UNL     1       0.366 -21.632  -5.568  1.00  0.00    -0.550 OA
ENDBRANCH   1   2
BRANCH   1   5
ATOM      5  C   UNL     1       1.496 -20.628  -7.889  1.00  0.00     0.003 C 
ATOM      6  C   UNL     1       3.000 -20.388  -7.754  1.00  0.00     0.004 C 
ENDBRANCH   1   5
TORSDOF 2
ENDMDL
MODEL 2
REMARK VINA RESULT:    -3.136      2.287      2.853
REMARK INTER + INTRA:          -3.541
REMARK INTER:                  -3.533
REMARK INTRA:                  -0.008
REMARK UNBOUND:                -0.038
REMARK SMILES CCCC(=O)[O-]
REMARK SMILES IDX 3 1 4 2 5 3 6 4 2 5 1 6
REMARK H PARENT
REMARK Flexibility Score: inf
ROOT
ATOM      1  C   UNL     1       1.464 -21.054  -6.315  1.00  0.00     0.052 C 
ENDROOT
BRANCH   1   2
ATOM      2  C   UNL     1       1.187 -21.766  -7.604  1.00  0.00     0.041 C 
ATOM      3  O   UNL     1       0.733 -22.940  -7.596  1.00  0.00    -0.550 OA
ATOM      4  O   UNL     1       1.462 -21.142  -8.814  1.00  0.00    -0.550 OA
ENDBRANCH   1   2
BRANCH   1   5
ATOM      5  C   UNL     1       0.409 -21.379  -5.249  1.00  0.00     0.003 C 
ATOM      6  C   UNL     1       0.424 -20.377  -4.094  1.00  0.00     0.004 C 
ENDBRANCH   1   5
TORSDOF 2
ENDMDL
MODEL 3
REMARK VINA RESULT:    -3.123      9.834     10.480
REMARK INTER + INTRA:          -3.526
REMARK INTER:                  -3.466
REMARK INTRA:                  -0.060
REMARK UNBOUND:                -0.038
REMARK SMILES CCCC(=O)[O-]
REMARK SMILES IDX 3 1 4 2 5 3 6 4 2 5 1 6
REMARK H PARENT
REMARK Flexibility Score: inf
ROOT
ATOM      1  C   UNL     1      -5.496 -27.056  -3.173  1.00  0.00     0.052 C 
ENDROOT
BRANCH   1   2
ATOM      2  C   UNL     1      -6.005 -27.009  -1.764  1.00  0.00     0.041 C 
ATOM      3  O   UNL     1      -7.004 -26.300  -1.474  1.00  0.00    -0.550 OA
ATOM      4  O   UNL     1      -5.353 -27.722  -0.766  1.00  0.00    -0.550 OA
ENDBRANCH   1   2
BRANCH   1   5
ATOM      5  C   UNL     1      -5.096 -28.479  -3.584  1.00  0.00     0.003 C 
ATOM      6  C   UNL     1      -6.307 -29.394  -3.764  1.00  0.00     0.004 C 
ENDBRANCH   1   5
TORSDOF 2
ENDMDL
MODEL 4
REMARK VINA RESULT:    -3.115      2.383      3.128
REMARK INTER + INTRA:          -3.517
REMARK INTER:                  -3.451
REMARK INTRA:                  -0.066
REMARK UNBOUND:                -0.038
REMARK SMILES CCCC(=O)[O-]
REMARK SMILES IDX 3 1 4 2 5 3 6 4 2 5 1 6
REMARK H PARENT
REMARK Flexibility Score: inf
ROOT
ATOM      1  C   UNL     1       1.680 -21.012  -8.276  1.00  0.00     0.052 C 
ENDROOT
BRANCH   1   2
ATOM      2  C   UNL     1       2.832 -20.554  -7.435  1.00  0.00     0.041 C 
ATOM      3  O   UNL     1       3.822 -21.310  -7.249  1.00  0.00    -0.550 OA
ATOM      4  O   UNL     1       2.796 -19.305  -6.829  1.00  0.00    -0.550 OA
ENDBRANCH   1   2
BRANCH   1   5
ATOM      5  C   UNL     1       0.992 -22.245  -7.675  1.00  0.00     0.003 C 
ATOM      6  C   UNL     1       0.513 -22.003  -6.244  1.00  0.00     0.004 C 
ENDBRANCH   1   5
TORSDOF 2
ENDMDL
MODEL 5
REMARK VINA RESULT:    -3.103      9.964     10.664
REMARK INTER + INTRA:          -3.505
REMARK INTER:                  -3.444
REMARK INTRA:                  -0.060
REMARK UNBOUND:                -0.038
REMARK SMILES CCCC(=O)[O-]
REMARK SMILES IDX 3 1 4 2 5 3 6 4 2 5 1 6
REMARK H PARENT
REMARK Flexibility Score: inf
ROOT
ATOM      1  C   UNL     1      -5.109 -28.550  -3.429  1.00  0.00     0.052 C 
ENDROOT
BRANCH   1   2
ATOM      2  C   UNL     1      -6.343 -29.350  -3.717  1.00  0.00     0.041 C 
ATOM      3  O   UNL     1      -6.550 -30.436  -3.115  1.00  0.00    -0.550 OA
ATOM      4  O   UNL     1      -7.247 -28.911  -4.676  1.00  0.00    -0.550 OA
ENDBRANCH   1   2
BRANCH   1   5
ATOM      5  C   UNL     1      -5.417 -27.051  -3.317  1.00  0.00     0.003 C 
ATOM      6  C   UNL     1      -6.250 -26.721  -2.078  1.00  0.00     0.004 C 
ENDBRANCH   1   5
TORSDOF 2
ENDMDL
MODEL 6
REMARK VINA RESULT:    -3.089      1.777      2.355
REMARK INTER + INTRA:          -3.488
REMARK INTER:                  -3.455
REMARK INTRA:                  -0.034
REMARK UNBOUND:                -0.038
REMARK SMILES CCCC(=O)[O-]
REMARK SMILES IDX 3 1 4 2 5 3 6 4 2 5 1 6
REMARK H PARENT
REMARK Flexibility Score: inf
ROOT
ATOM      1  C   UNL     1       1.875 -21.395  -6.198  1.00  0.00     0.052 C 
ENDROOT
BRANCH   1   2
ATOM      2  C   UNL     1       1.073 -20.535  -5.270  1.00  0.00     0.041 C 
ATOM      3  O   UNL     1       0.203 -21.052  -4.520  1.00  0.00    -0.550 OA
ATOM      4  O   UNL     1       1.263 -19.159  -5.258  1.00  0.00    -0.550 OA
ENDBRANCH   1   2
BRANCH   1   5
ATOM      5  C   UNL     1       1.071 -21.789  -7.445  1.00  0.00     0.003 C 
ATOM      6  C   UNL     1       1.450 -20.953  -8.667  1.00  0.00     0.004 C 
ENDBRANCH   1   5
TORSDOF 2
ENDMDL
MODEL 7
REMARK VINA RESULT:    -3.031      1.897      2.318
REMARK INTER + INTRA:          -3.424
REMARK INTER:                  -3.398
REMARK INTRA:                  -0.026
REMARK UNBOUND:                -0.038
REMARK SMILES CCCC(=O)[O-]
REMARK SMILES IDX 3 1 4 2 5 3 6 4 2 5 1 6
REMARK H PARENT
REMARK Flexibility Score: inf
ROOT
ATOM      1  C   UNL     1       0.614 -21.763  -6.510  1.00  0.00     0.052 C 
ENDROOT
BRANCH   1   2
ATOM      2  C   UNL     1       0.991 -20.864  -5.373  1.00  0.00     0.041 C 
ATOM      3  O   UNL     1       2.041 -20.171  -5.433  1.00  0.00    -0.550 OA
ATOM      4  O   UNL     1       0.199 -20.817  -4.233  1.00  0.00    -0.550 OA
ENDBRANCH   1   2
BRANCH   1   5
ATOM      5  C   UNL     1       1.690 -21.779  -7.603  1.00  0.00     0.003 C 
ATOM      6  C   UNL     1       1.337 -20.871  -8.780  1.00  0.00     0.004 C 
ENDBRANCH   1   5
TORSDOF 2
ENDMDL
MODEL 8
REMARK VINA RESULT:    -2.839      9.672     11.110
REMARK INTER + INTRA:          -3.210
REMARK INTER:                  -3.170
REMARK INTRA:                  -0.040
REMARK UNBOUND:                -0.038
REMARK SMILES CCCC(=O)[O-]
REMARK SMILES IDX 3 1 4 2 5 3 6 4 2 5 1 6
REMARK H PARENT
REMARK Flexibility Score: inf
ROOT
ATOM      1  C   UNL     1      -5.495 -29.002  -3.387  1.00  0.00     0.052 C 
ENDROOT
BRANCH   1   2
ATOM      2  C   UNL     1      -6.027 -27.639  -3.712  1.00  0.00     0.041 C 
ATOM      3  O   UNL     1      -5.393 -26.610  -3.358  1.00  0.00    -0.550 OA
ATOM      4  O   UNL     1      -7.240 -27.507  -4.375  1.00  0.00    -0.550 OA
ENDBRANCH   1   2
BRANCH   1   5
ATOM      5  C   UNL     1      -6.560 -30.088  -3.582  1.00  0.00     0.003 C 
ATOM      6  C   UNL     1      -7.254 -30.462  -2.273  1.00  0.00     0.004 C 
ENDBRANCH   1   5
TORSDOF 2
ENDMDL
MODEL 9
REMARK VINA RESULT:    -2.833     15.933     16.634
REMARK INTER + INTRA:          -3.203
REMARK INTER:                  -3.166
REMARK INTRA:                  -0.037
REMARK UNBOUND:                -0.038
REMARK SMILES CCCC(=O)[O-]
REMARK SMILES IDX 3 1 4 2 5 3 6 4 2 5 1 6
REMARK H PARENT
REMARK Flexibility Score: inf
ROOT
ATOM      1  C   UNL     1      -1.641 -19.767   9.710  1.00  0.00     0.052 C 
ENDROOT
BRANCH   1   2
ATOM      2  C   UNL     1      -2.415 -20.488   8.648  1.00  0.00     0.041 C 
ATOM      3  O   UNL     1      -2.704 -21.705   8.789  1.00  0.00    -0.550 OA
ATOM      4  O   UNL     1      -2.789 -19.821   7.488  1.00  0.00    -0.550 OA
ENDBRANCH   1   2
BRANCH   1   5
ATOM      5  C   UNL     1      -1.318 -18.325   9.297  1.00  0.00     0.003 C 
ATOM      6  C   UNL     1      -2.090 -17.298  10.125  1.00  0.00     0.004 C 
ENDBRANCH   1   5
TORSDOF 2
ENDMDL
