MODEL 1
REMARK VINA RESULT:    -3.922      0.000      0.000
REMARK INTER + INTRA:          -7.453
REMARK INTER:                  -6.214
REMARK INTRA:                  -1.239
REMARK UNBOUND:                -1.239
REMARK SMILES C=CCCCCCCCCCCC
REMARK SMILES IDX 7 1 8 2 9 3 10 4 11 5 12 6 13 7 6 8 5 9 4 10 3 11 2 12 1 13
REMARK H PARENT
REMARK Flexibility Score: inf
ROOT
ATOM      1  C   UNL     1      31.617  25.789  12.898  1.00  0.00     0.000 C 
ENDROOT
BRANCH   1   2
ATOM      2  C   UNL     1      31.439  25.829  11.368  1.00  0.00     0.000 C 
BRANCH   2   3
ATOM      3  C   UNL     1      31.575  27.227  10.733  1.00  0.00    -0.000 C 
BRANCH   3   4
ATOM      4  C   UNL     1      31.579  28.379  11.762  1.00  0.00    -0.000 C 
BRANCH   4   5
ATOM      5  C   UNL     1      30.306  29.238  11.683  1.00  0.00    -0.000 C 
BRANCH   5   6
ATOM      6  C   UNL     1      29.167  28.688  12.555  1.00  0.00    -0.003 C 
ATOM      7  C   UNL     1      28.067  28.013  11.738  1.00  0.00     0.004 C 
ENDBRANCH   5   6
ENDBRANCH   4   5
ENDBRANCH   3   4
ENDBRANCH   2   3
ENDBRANCH   1   2
BRANCH   1   8
ATOM      8  C   UNL     1      31.593  24.380  13.521  1.00  0.00     0.000 C 
BRANCH   8   9
ATOM      9  C   UNL     1      30.867  23.350  12.641  1.00  0.00     0.000 C 
BRANCH   9  10
ATOM     10  C   UNL     1      29.718  22.648  13.382  1.00  0.00     0.004 C 
BRANCH  10  11
ATOM     11  C   UNL     1      28.525  23.579  13.645  1.00  0.00     0.027 C 
BRANCH  11  12
ATOM     12  C   UNL     1      28.067  24.244  12.376  1.00  0.00    -0.035 C 
ATOM     13  C   UNL     1      26.928  23.895  11.770  1.00  0.00     0.004 C 
ENDBRANCH  11  12
ENDBRANCH  10  11
ENDBRANCH   9  10
ENDBRANCH   8   9
ENDBRANCH   1   8
TORSDOF 10
ENDMDL
MODEL 2
REMARK VINA RESULT:    -3.896      1.081      2.225
REMARK INTER + INTRA:          -7.412
REMARK INTER:                  -6.054
REMARK INTRA:                  -1.358
REMARK UNBOUND:                -1.239
REMARK SMILES C=CCCCCCCCCCCC
REMARK SMILES IDX 7 1 8 2 9 3 10 4 11 5 12 6 13 7 6 8 5 9 4 10 3 11 2 12 1 13
REMARK H PARENT
REMARK Flexibility Score: inf
ROOT
ATOM      1  C   UNL     1      31.002  26.065  10.630  1.00  0.00     0.000 C 
ENDROOT
BRANCH   1   2
ATOM      2  C   UNL     1      31.987  26.428  11.758  1.00  0.00     0.000 C 
BRANCH   2   3
ATOM      3  C   UNL     1      31.865  27.869  12.290  1.00  0.00    -0.000 C 
BRANCH   3   4
ATOM      4  C   UNL     1      31.351  28.877  11.240  1.00  0.00    -0.000 C 
BRANCH   4   5
ATOM      5  C   UNL     1      30.071  29.598  11.697  1.00  0.00    -0.000 C 
BRANCH   5   6
ATOM      6  C   UNL     1      29.143  28.688  12.517  1.00  0.00    -0.003 C 
ATOM      7  C   UNL     1      28.030  28.064  11.676  1.00  0.00     0.004 C 
ENDBRANCH   5   6
ENDBRANCH   4   5
ENDBRANCH   3   4
ENDBRANCH   2   3
ENDBRANCH   1   2
BRANCH   1   8
ATOM      8  C   UNL     1      30.669  24.566  10.513  1.00  0.00     0.000 C 
BRANCH   8   9
ATOM      9  C   UNL     1      29.243  24.232  10.982  1.00  0.00     0.000 C 
BRANCH   9  10
ATOM     10  C   UNL     1      29.026  24.544  12.472  1.00  0.00     0.004 C 
BRANCH  10  11
ATOM     11  C   UNL     1      28.901  23.277  13.332  1.00  0.00     0.027 C 
BRANCH  11  12
ATOM     12  C   UNL     1      30.254  22.770  13.749  1.00  0.00    -0.035 C 
ATOM     13  C   UNL     1      31.244  23.603  14.087  1.00  0.00     0.004 C 
ENDBRANCH  11  12
ENDBRANCH  10  11
ENDBRANCH   9  10
ENDBRANCH   8   9
ENDBRANCH   1   8
TORSDOF 10
ENDMDL
MODEL 3
REMARK VINA RESULT:    -3.893      1.299      1.785
REMARK INTER + INTRA:          -7.407
REMARK INTER:                  -5.967
REMARK INTRA:                  -1.440
REMARK UNBOUND:                -1.239
REMARK SMILES C=CCCCCCCCCCCC
REMARK SMILES IDX 7 1 8 2 9 3 10 4 11 5 12 6 13 7 6 8 5 9 4 10 3 11 2 12 1 13
REMARK H PARENT
REMARK Flexibility Score: inf
ROOT
ATOM      1  C   UNL     1      31.696  23.550  11.861  1.00  0.00     0.000 C 
ENDROOT
BRANCH   1   2
ATOM      2  C   UNL     1      31.295  24.087  10.474  1.00  0.00     0.000 C 
BRANCH   2   3
ATOM      3  C   UNL     1      31.228  25.623  10.365  1.00  0.00    -0.000 C 
BRANCH   3   4
ATOM      4  C   UNL     1      30.332  26.283  11.436  1.00  0.00    -0.000 C 
BRANCH   4   5
ATOM      5  C   UNL     1      29.230  27.160  10.819  1.00  0.00    -0.000 C 
BRANCH   5   6
ATOM      6  C   UNL     1      28.516  28.033  11.863  1.00  0.00    -0.003 C 
ATOM      7  C   UNL     1      29.480  28.906  12.666  1.00  0.00     0.004 C 
ENDBRANCH   5   6
ENDBRANCH   4   5
ENDBRANCH   3   4
ENDBRANCH   2   3
ENDBRANCH   1   2
BRANCH   1   8
ATOM      8  C   UNL     1      31.263  22.100  12.150  1.00  0.00     0.000 C 
BRANCH   8   9
ATOM      9  C   UNL     1      30.171  22.006  13.229  1.00  0.00     0.000 C 
BRANCH   9  10
ATOM     10  C   UNL     1      29.674  23.388  13.686  1.00  0.00     0.004 C 
BRANCH  10  11
ATOM     11  C   UNL     1      28.146  23.450  13.833  1.00  0.00     0.027 C 
BRANCH  11  12
ATOM     12  C   UNL     1      27.536  24.335  12.781  1.00  0.00    -0.035 C 
ATOM     13  C   UNL     1      27.391  23.928  11.516  1.00  0.00     0.004 C 
ENDBRANCH  11  12
ENDBRANCH  10  11
ENDBRANCH   9  10
ENDBRANCH   8   9
ENDBRANCH   1   8
TORSDOF 10
ENDMDL
MODEL 4
REMARK VINA RESULT:    -3.885      1.204      2.589
REMARK INTER + INTRA:          -7.395
REMARK INTER:                  -6.131
REMARK INTRA:                  -1.264
REMARK UNBOUND:                -1.239
REMARK SMILES C=CCCCCCCCCCCC
REMARK SMILES IDX 7 1 8 2 9 3 10 4 11 5 12 6 13 7 6 8 5 9 4 10 3 11 2 12 1 13
REMARK H PARENT
REMARK Flexibility Score: inf
ROOT
ATOM      1  C   UNL     1      29.683  24.549  11.011  1.00  0.00     0.000 C 
ENDROOT
BRANCH   1   2
ATOM      2  C   UNL     1      30.720  25.688  10.976  1.00  0.00     0.000 C 
BRANCH   2   3
ATOM      3  C   UNL     1      31.101  26.265  12.354  1.00  0.00    -0.000 C 
BRANCH   3   4
ATOM      4  C   UNL     1      31.694  27.690  12.287  1.00  0.00    -0.000 C 
BRANCH   4   5
ATOM      5  C   UNL     1      30.675  28.725  11.784  1.00  0.00    -0.000 C 
BRANCH   5   6
ATOM      6  C   UNL     1      29.358  28.690  12.576  1.00  0.00    -0.003 C 
ATOM      7  C   UNL     1      28.141  28.418  11.692  1.00  0.00     0.004 C 
ENDBRANCH   5   6
ENDBRANCH   4   5
ENDBRANCH   3   4
ENDBRANCH   2   3
ENDBRANCH   1   2
BRANCH   1   8
ATOM      8  C   UNL     1      28.500  24.773  11.973  1.00  0.00     0.000 C 
BRANCH   8   9
ATOM      9  C   UNL     1      28.331  23.630  12.988  1.00  0.00     0.000 C 
BRANCH   9  10
ATOM     10  C   UNL     1      29.660  23.223  13.644  1.00  0.00     0.004 C 
BRANCH  10  11
ATOM     11  C   UNL     1      29.957  21.722  13.500  1.00  0.00     0.027 C 
BRANCH  11  12
ATOM     12  C   UNL     1      31.374  21.491  13.050  1.00  0.00    -0.035 C 
ATOM     13  C   UNL     1      31.701  21.443  11.755  1.00  0.00     0.004 C 
ENDBRANCH  11  12
ENDBRANCH  10  11
ENDBRANCH   9  10
ENDBRANCH   8   9
ENDBRANCH   1   8
TORSDOF 10
ENDMDL
MODEL 5
REMARK VINA RESULT:    -3.865      1.337      5.370
REMARK INTER + INTRA:          -7.364
REMARK INTER:                  -6.152
REMARK INTRA:                  -1.212
REMARK UNBOUND:                -1.239
REMARK SMILES C=CCCCCCCCCCCC
REMARK SMILES IDX 7 1 8 2 9 3 10 4 11 5 12 6 13 7 6 8 5 9 4 10 3 11 2 12 1 13
REMARK H PARENT
REMARK Flexibility Score: inf
ROOT
ATOM      1  C   UNL     1      30.590  26.465  11.232  1.00  0.00     0.000 C 
ENDROOT
BRANCH   1   2
ATOM      2  C   UNL     1      31.072  25.198  10.501  1.00  0.00     0.000 C 
BRANCH   2   3
ATOM      3  C   UNL     1      30.491  23.874  11.036  1.00  0.00    -0.000 C 
BRANCH   3   4
ATOM      4  C   UNL     1      30.476  23.782  12.578  1.00  0.00    -0.000 C 
BRANCH   4   5
ATOM      5  C   UNL     1      29.108  23.340  13.124  1.00  0.00    -0.000 C 
BRANCH   5   6
ATOM      6  C   UNL     1      27.996  24.358  12.826  1.00  0.00    -0.003 C 
ATOM      7  C   UNL     1      26.963  23.833  11.829  1.00  0.00     0.004 C 
ENDBRANCH   5   6
ENDBRANCH   4   5
ENDBRANCH   3   4
ENDBRANCH   2   3
ENDBRANCH   1   2
BRANCH   1   8
ATOM      8  C   UNL     1      29.252  27.039  10.729  1.00  0.00     0.000 C 
BRANCH   8   9
ATOM      9  C   UNL     1      28.679  28.121  11.659  1.00  0.00     0.000 C 
BRANCH   9  10
ATOM     10  C   UNL     1      29.762  29.073  12.192  1.00  0.00     0.004 C 
BRANCH  10  11
ATOM     11  C   UNL     1      30.141  30.167  11.181  1.00  0.00     0.027 C 
BRANCH  11  12
ATOM     12  C   UNL     1      31.540  29.966  10.666  1.00  0.00    -0.035 C 
ATOM     13  C   UNL     1      31.800  29.862   9.359  1.00  0.00     0.004 C 
ENDBRANCH  11  12
ENDBRANCH  10  11
ENDBRANCH   9  10
ENDBRANCH   8   9
ENDBRANCH   1   8
TORSDOF 10
ENDMDL
MODEL 6
REMARK VINA RESULT:    -3.864      1.316      4.547
REMARK INTER + INTRA:          -7.361
REMARK INTER:                  -5.888
REMARK INTRA:                  -1.473
REMARK UNBOUND:                -1.239
REMARK SMILES C=CCCCCCCCCCCC
REMARK SMILES IDX 7 1 8 2 9 3 10 4 11 5 12 6 13 7 6 8 5 9 4 10 3 11 2 12 1 13
REMARK H PARENT
REMARK Flexibility Score: inf
ROOT
ATOM      1  C   UNL     1      31.944  22.991  10.894  1.00  0.00     0.000 C 
ENDROOT
BRANCH   1   2
ATOM      2  C   UNL     1      31.423  22.048  11.996  1.00  0.00     0.000 C 
BRANCH   2   3
ATOM      3  C   UNL     1      31.548  22.592  13.432  1.00  0.00    -0.000 C 
BRANCH   3   4
ATOM      4  C   UNL     1      30.423  23.574  13.824  1.00  0.00    -0.000 C 
BRANCH   4   5
ATOM      5  C   UNL     1      29.026  23.033  13.475  1.00  0.00    -0.000 C 
BRANCH   5   6
ATOM      6  C   UNL     1      28.028  24.150  13.133  1.00  0.00    -0.003 C 
ATOM      7  C   UNL     1      27.253  23.880  11.844  1.00  0.00     0.004 C 
ENDBRANCH   5   6
ENDBRANCH   4   5
ENDBRANCH   3   4
ENDBRANCH   2   3
ENDBRANCH   1   2
BRANCH   1   8
ATOM      8  C   UNL     1      30.894  23.956  10.311  1.00  0.00     0.000 C 
BRANCH   8   9
ATOM      9  C   UNL     1      31.361  25.420  10.312  1.00  0.00     0.000 C 
BRANCH   9  10
ATOM     10  C   UNL     1      30.607  26.278  11.341  1.00  0.00     0.004 C 
BRANCH  10  11
ATOM     11  C   UNL     1      29.388  26.993  10.738  1.00  0.00     0.027 C 
BRANCH  11  12
ATOM     12  C   UNL     1      28.621  27.740  11.794  1.00  0.00    -0.035 C 
ATOM     13  C   UNL     1      29.200  28.676  12.554  1.00  0.00     0.004 C 
ENDBRANCH  11  12
ENDBRANCH  10  11
ENDBRANCH   9  10
ENDBRANCH   8   9
ENDBRANCH   1   8
TORSDOF 10
ENDMDL
MODEL 7
REMARK VINA RESULT:    -3.783      1.508      5.626
REMARK INTER + INTRA:          -7.233
REMARK INTER:                  -6.190
REMARK INTRA:                  -1.043
REMARK UNBOUND:                -1.239
REMARK SMILES C=CCCCCCCCCCCC
REMARK SMILES IDX 7 1 8 2 9 3 10 4 11 5 12 6 13 7 6 8 5 9 4 10 3 11 2 12 1 13
REMARK H PARENT
REMARK Flexibility Score: inf
ROOT
ATOM      1  C   UNL     1      29.734  24.393  11.022  1.00  0.00     0.000 C 
ENDROOT
BRANCH   1   2
ATOM      2  C   UNL     1      28.643  24.593  12.091  1.00  0.00     0.000 C 
BRANCH   2   3
ATOM      3  C   UNL     1      28.664  23.570  13.244  1.00  0.00    -0.000 C 
BRANCH   3   4
ATOM      4  C   UNL     1      30.080  23.068  13.601  1.00  0.00    -0.000 C 
BRANCH   4   5
ATOM      5  C   UNL     1      30.251  21.563  13.336  1.00  0.00    -0.000 C 
BRANCH   5   6
ATOM      6  C   UNL     1      31.059  20.857  14.437  1.00  0.00    -0.003 C 
ATOM      7  C   UNL     1      30.357  19.615  14.985  1.00  0.00     0.004 C 
ENDBRANCH   5   6
ENDBRANCH   4   5
ENDBRANCH   3   4
ENDBRANCH   2   3
ENDBRANCH   1   2
BRANCH   1   8
ATOM      8  C   UNL     1      30.533  25.660  10.660  1.00  0.00     0.000 C 
BRANCH   8   9
ATOM      9  C   UNL     1      31.682  25.942  11.642  1.00  0.00     0.000 C 
BRANCH   9  10
ATOM     10  C   UNL     1      31.342  27.060  12.641  1.00  0.00     0.004 C 
BRANCH  10  11
ATOM     11  C   UNL     1      30.776  28.315  11.958  1.00  0.00     0.027 C 
BRANCH  11  12
ATOM     12  C   UNL     1      29.407  28.648  12.484  1.00  0.00    -0.035 C 
ATOM     13  C   UNL     1      28.297  28.224  11.873  1.00  0.00     0.004 C 
ENDBRANCH  11  12
ENDBRANCH  10  11
ENDBRANCH   9  10
ENDBRANCH   8   9
ENDBRANCH   1   8
TORSDOF 10
ENDMDL
MODEL 8
REMARK VINA RESULT:    -3.695      1.850      6.148
REMARK INTER + INTRA:          -7.095
REMARK INTER:                  -6.310
REMARK INTRA:                  -0.785
REMARK UNBOUND:                -1.239
REMARK SMILES C=CCCCCCCCCCCC
REMARK SMILES IDX 7 1 8 2 9 3 10 4 11 5 12 6 13 7 6 8 5 9 4 10 3 11 2 12 1 13
REMARK H PARENT
REMARK Flexibility Score: inf
ROOT
ATOM      1  C   UNL     1      28.485  24.195  12.607  1.00  0.00     0.000 C 
ENDROOT
BRANCH   1   2
ATOM      2  C   UNL     1      29.024  23.168  13.621  1.00  0.00     0.000 C 
BRANCH   2   3
ATOM      3  C   UNL     1      30.483  23.392  14.063  1.00  0.00    -0.000 C 
BRANCH   3   4
ATOM      4  C   UNL     1      31.341  22.109  14.044  1.00  0.00    -0.000 C 
BRANCH   4   5
ATOM      5  C   UNL     1      30.651  20.953  13.300  1.00  0.00    -0.000 C 
BRANCH   5   6
ATOM      6  C   UNL     1      30.939  19.585  13.937  1.00  0.00    -0.003 C 
ATOM      7  C   UNL     1      30.634  19.551  15.434  1.00  0.00     0.004 C 
ENDBRANCH   5   6
ENDBRANCH   4   5
ENDBRANCH   3   4
ENDBRANCH   2   3
ENDBRANCH   1   2
BRANCH   1   8
ATOM      8  C   UNL     1      29.506  24.676  11.560  1.00  0.00     0.000 C 
BRANCH   8   9
ATOM      9  C   UNL     1      29.568  26.208  11.445  1.00  0.00     0.000 C 
BRANCH   9  10
ATOM     10  C   UNL     1      28.228  26.879  11.785  1.00  0.00     0.004 C 
BRANCH  10  11
ATOM     11  C   UNL     1      28.371  28.384  12.063  1.00  0.00     0.027 C 
BRANCH  11  12
ATOM     12  C   UNL     1      29.815  28.803  12.041  1.00  0.00    -0.035 C 
ATOM     13  C   UNL     1      30.237  29.835  11.303  1.00  0.00     0.004 C 
ENDBRANCH  11  12
ENDBRANCH  10  11
ENDBRANCH   9  10
ENDBRANCH   8   9
ENDBRANCH   1   8
TORSDOF 10
ENDMDL
MODEL 9
REMARK VINA RESULT:    -3.682      0.747      4.893
REMARK INTER + INTRA:          -7.073
REMARK INTER:                  -5.886
REMARK INTRA:                  -1.187
REMARK UNBOUND:                -1.239
REMARK SMILES C=CCCCCCCCCCCC
REMARK SMILES IDX 7 1 8 2 9 3 10 4 11 5 12 6 13 7 6 8 5 9 4 10 3 11 2 12 1 13
REMARK H PARENT
REMARK Flexibility Score: inf
ROOT
ATOM      1  C   UNL     1      31.033  25.640  11.398  1.00  0.00     0.000 C 
ENDROOT
BRANCH   1   2
ATOM      2  C   UNL     1      31.633  25.314  12.779  1.00  0.00     0.000 C 
BRANCH   2   3
ATOM      3  C   UNL     1      31.731  23.811  13.108  1.00  0.00    -0.000 C 
BRANCH   3   4
ATOM      4  C   UNL     1      30.632  23.314  14.073  1.00  0.00    -0.000 C 
BRANCH   4   5
ATOM      5  C   UNL     1      29.377  22.828  13.329  1.00  0.00    -0.000 C 
BRANCH   5   6
ATOM      6  C   UNL     1      28.250  23.874  13.326  1.00  0.00    -0.003 C 
ATOM      7  C   UNL     1      27.607  24.050  11.951  1.00  0.00     0.004 C 
ENDBRANCH   5   6
ENDBRANCH   4   5
ENDBRANCH   3   4
ENDBRANCH   2   3
ENDBRANCH   1   2
BRANCH   1   8
ATOM      8  C   UNL     1      31.901  26.552  10.509  1.00  0.00     0.000 C 
BRANCH   8   9
ATOM      9  C   UNL     1      31.986  27.994  11.034  1.00  0.00     0.000 C 
BRANCH   9  10
ATOM     10  C   UNL     1      30.877  28.894  10.465  1.00  0.00     0.004 C 
BRANCH  10  11
ATOM     11  C   UNL     1      30.104  29.647  11.560  1.00  0.00     0.027 C 
BRANCH  11  12
ATOM     12  C   UNL     1      29.281  28.701  12.390  1.00  0.00    -0.035 C 
ATOM     13  C   UNL     1      28.259  28.014  11.868  1.00  0.00     0.004 C 
ENDBRANCH  11  12
ENDBRANCH  10  11
ENDBRANCH   9  10
ENDBRANCH   8   9
ENDBRANCH   1   8
TORSDOF 10
ENDMDL
