MODEL 1
REMARK VINA RESULT:    -4.604      0.000      0.000
REMARK INTER + INTRA:         -11.191
REMARK INTER:                  -8.910
REMARK INTRA:                  -2.280
REMARK UNBOUND:                -2.280
REMARK SMILES CCCCCCCCCCCCCCCCCC(=O)[O-]
REMARK SMILES IDX 10 1 11 2 12 3 13 4 14 5 15 6 16 7 17 8 18 9 19 10 20 11
REMARK SMILES IDX 9 12 8 13 7 14 6 15 5 16 4 17 3 18 2 19 1 20
REMARK H PARENT
REMARK Flexibility Score: inf
ROOT
ATOM      1  C   UNL     1      47.772  21.481  51.957  1.00  0.00     0.000 C 
ENDROOT
BRANCH   1   2
ATOM      2  C   UNL     1      48.310  22.914  52.032  1.00  0.00     0.000 C 
BRANCH   2   3
ATOM      3  C   UNL     1      49.511  23.002  52.986  1.00  0.00     0.000 C 
BRANCH   3   4
ATOM      4  C   UNL     1      49.721  21.720  53.811  1.00  0.00     0.000 C 
BRANCH   4   5
ATOM      5  C   UNL     1      50.925  21.751  54.770  1.00  0.00     0.000 C 
BRANCH   5   6
ATOM      6  C   UNL     1      52.198  21.150  54.156  1.00  0.00     0.000 C 
BRANCH   6   7
ATOM      7  C   UNL     1      53.363  22.149  54.219  1.00  0.00     0.006 C 
BRANCH   7   8
ATOM      8  C   UNL     1      53.595  22.855  52.877  1.00  0.00     0.053 C 
BRANCH   8   9
ATOM      9  C   UNL     1      53.282  24.318  52.958  1.00  0.00     0.041 C 
ATOM     10  O   UNL     1      52.384  24.816  52.229  1.00  0.00    -0.550 OA
ATOM     11  O   UNL     1      53.960  25.124  53.863  1.00  0.00    -0.550 OA
ENDBRANCH   8   9
ENDBRANCH   7   8
ENDBRANCH   6   7
ENDBRANCH   5   6
ENDBRANCH   4   5
ENDBRANCH   3   4
ENDBRANCH   2   3
ENDBRANCH   1   2
BRANCH   1  12
ATOM     12  C   UNL     1      47.493  21.074  50.502  1.00  0.00     0.000 C 
BRANCH  12  13
ATOM     13  C   UNL     1      48.776  20.754  49.719  1.00  0.00    -0.000 C 
BRANCH  13  14
ATOM     14  C   UNL     1      49.411  19.420  50.141  1.00  0.00    -0.000 C 
BRANCH  14  15
ATOM     15  C   UNL     1      50.656  19.658  51.010  1.00  0.00    -0.000 C 
BRANCH  15  16
ATOM     16  C   UNL     1      51.485  20.866  50.546  1.00  0.00    -0.000 C 
BRANCH  16  17
ATOM     17  C   UNL     1      52.500  20.501  49.449  1.00  0.00    -0.000 C 
BRANCH  17  18
ATOM     18  C   UNL     1      53.954  20.561  49.948  1.00  0.00    -0.000 C 
BRANCH  18  19
ATOM     19  C   UNL     1      54.970  20.187  48.858  1.00  0.00    -0.003 C 
ATOM     20  C   UNL     1      55.338  21.401  48.010  1.00  0.00     0.004 C 
ENDBRANCH  18  19
ENDBRANCH  17  18
ENDBRANCH  16  17
ENDBRANCH  15  16
ENDBRANCH  14  15
ENDBRANCH  13  14
ENDBRANCH  12  13
ENDBRANCH   1  12
TORSDOF 16
ENDMDL
MODEL 2
REMARK VINA RESULT:    -4.557      4.229      5.630
REMARK INTER + INTRA:         -11.101
REMARK INTER:                  -9.554
REMARK INTRA:                  -1.547
REMARK UNBOUND:                -2.280
REMARK SMILES CCCCCCCCCCCCCCCCCC(=O)[O-]
REMARK SMILES IDX 10 1 11 2 12 3 13 4 14 5 15 6 16 7 17 8 18 9 19 10 20 11
REMARK SMILES IDX 9 12 8 13 7 14 6 15 5 16 4 17 3 18 2 19 1 20
REMARK H PARENT
REMARK Flexibility Score: inf
ROOT
ATOM      1  C   UNL     1      47.784  22.542  51.761  1.00  0.00     0.000 C 
ENDROOT
BRANCH   1   2
ATOM      2  C   UNL     1      49.197  22.927  52.215  1.00  0.00     0.000 C 
BRANCH   2   3
ATOM      3  C   UNL     1      49.569  22.213  53.524  1.00  0.00     0.000 C 
BRANCH   3   4
ATOM      4  C   UNL     1      48.644  22.586  54.697  1.00  0.00     0.000 C 
BRANCH   4   5
ATOM      5  C   UNL     1      47.884  21.406  55.329  1.00  0.00     0.000 C 
BRANCH   5   6
ATOM      6  C   UNL     1      46.359  21.547  55.219  1.00  0.00     0.000 C 
BRANCH   6   7
ATOM      7  C   UNL     1      45.714  20.222  54.787  1.00  0.00     0.006 C 
BRANCH   7   8
ATOM      8  C   UNL     1      44.296  20.055  55.350  1.00  0.00     0.053 C 
BRANCH   8   9
ATOM      9  C   UNL     1      43.577  18.906  54.711  1.00  0.00     0.041 C 
ATOM     10  O   UNL     1      42.334  18.771  54.865  1.00  0.00    -0.550 OA
ATOM     11  O   UNL     1      44.275  18.003  53.920  1.00  0.00    -0.550 OA
ENDBRANCH   8   9
ENDBRANCH   7   8
ENDBRANCH   6   7
ENDBRANCH   5   6
ENDBRANCH   4   5
ENDBRANCH   3   4
ENDBRANCH   2   3
ENDBRANCH   1   2
BRANCH   1  12
ATOM     12  C   UNL     1      47.748  21.098  51.238  1.00  0.00     0.000 C 
BRANCH  12  13
ATOM     13  C   UNL     1      48.774  20.847  50.122  1.00  0.00    -0.000 C 
BRANCH  13  14
ATOM     14  C   UNL     1      49.535  19.525  50.302  1.00  0.00    -0.000 C 
BRANCH  14  15
ATOM     15  C   UNL     1      50.994  19.666  49.840  1.00  0.00    -0.000 C 
BRANCH  15  16
ATOM     16  C   UNL     1      51.633  20.992  50.279  1.00  0.00    -0.000 C 
BRANCH  16  17
ATOM     17  C   UNL     1      53.169  20.963  50.204  1.00  0.00    -0.000 C 
BRANCH  17  18
ATOM     18  C   UNL     1      53.691  19.925  49.196  1.00  0.00    -0.000 C 
BRANCH  18  19
ATOM     19  C   UNL     1      55.159  20.159  48.812  1.00  0.00    -0.003 C 
ATOM     20  C   UNL     1      55.321  21.459  48.027  1.00  0.00     0.004 C 
ENDBRANCH  18  19
ENDBRANCH  17  18
ENDBRANCH  16  17
ENDBRANCH  15  16
ENDBRANCH  14  15
ENDBRANCH  13  14
ENDBRANCH  12  13
ENDBRANCH   1  12
TORSDOF 16
ENDMDL
MODEL 3
REMARK VINA RESULT:    -4.514      4.379      6.111
REMARK INTER + INTRA:         -11.017
REMARK INTER:                  -9.591
REMARK INTRA:                  -1.425
REMARK UNBOUND:                -2.280
REMARK SMILES CCCCCCCCCCCCCCCCCC(=O)[O-]
REMARK SMILES IDX 10 1 11 2 12 3 13 4 14 5 15 6 16 7 17 8 18 9 19 10 20 11
REMARK SMILES IDX 9 12 8 13 7 14 6 15 5 16 4 17 3 18 2 19 1 20
REMARK H PARENT
REMARK Flexibility Score: inf
ROOT
ATOM      1  C   UNL     1      48.593  22.147  53.052  1.00  0.00     0.000 C 
ENDROOT
BRANCH   1   2
ATOM      2  C   UNL     1      47.513  22.532  54.069  1.00  0.00     0.000 C 
BRANCH   2   3
ATOM      3  C   UNL     1      47.756  21.842  55.420  1.00  0.00     0.000 C 
BRANCH   3   4
ATOM      4  C   UNL     1      46.589  20.937  55.853  1.00  0.00     0.000 C 
BRANCH   4   5
ATOM      5  C   UNL     1      45.757  20.349  54.698  1.00  0.00     0.000 C 
BRANCH   5   6
ATOM      6  C   UNL     1      44.335  19.953  55.123  1.00  0.00     0.000 C 
BRANCH   6   7
ATOM      7  C   UNL     1      43.835  18.747  54.315  1.00  0.00     0.006 C 
BRANCH   7   8
ATOM      8  C   UNL     1      44.830  18.326  53.225  1.00  0.00     0.053 C 
BRANCH   8   9
ATOM      9  C   UNL     1      44.151  18.112  51.907  1.00  0.00     0.041 C 
ATOM     10  O   UNL     1      43.109  18.758  51.617  1.00  0.00    -0.550 OA
ATOM     11  O   UNL     1      44.688  17.223  50.985  1.00  0.00    -0.550 OA
ENDBRANCH   8   9
ENDBRANCH   7   8
ENDBRANCH   6   7
ENDBRANCH   5   6
ENDBRANCH   4   5
ENDBRANCH   3   4
ENDBRANCH   2   3
ENDBRANCH   1   2
BRANCH   1  12
ATOM     12  C   UNL     1      47.999  22.011  51.642  1.00  0.00     0.000 C 
BRANCH  12  13
ATOM     13  C   UNL     1      47.614  20.564  51.298  1.00  0.00    -0.000 C 
BRANCH  13  14
ATOM     14  C   UNL     1      48.527  19.945  50.229  1.00  0.00    -0.000 C 
BRANCH  14  15
ATOM     15  C   UNL     1      49.615  20.941  49.796  1.00  0.00    -0.000 C 
BRANCH  15  16
ATOM     16  C   UNL     1      51.033  20.361  49.912  1.00  0.00    -0.000 C 
BRANCH  16  17
ATOM     17  C   UNL     1      51.874  21.065  50.991  1.00  0.00    -0.000 C 
BRANCH  17  18
ATOM     18  C   UNL     1      53.375  21.076  50.656  1.00  0.00    -0.000 C 
BRANCH  18  19
ATOM     19  C   UNL     1      53.705  20.277  49.387  1.00  0.00    -0.003 C 
ATOM     20  C   UNL     1      54.729  21.011  48.526  1.00  0.00     0.004 C 
ENDBRANCH  18  19
ENDBRANCH  17  18
ENDBRANCH  16  17
ENDBRANCH  15  16
ENDBRANCH  14  15
ENDBRANCH  13  14
ENDBRANCH  12  13
ENDBRANCH   1  12
TORSDOF 16
ENDMDL
MODEL 4
REMARK VINA RESULT:    -4.511      2.588      4.720
REMARK INTER + INTRA:         -11.011
REMARK INTER:                  -8.418
REMARK INTRA:                  -2.593
REMARK UNBOUND:                -2.280
REMARK SMILES CCCCCCCCCCCCCCCCCC(=O)[O-]
REMARK SMILES IDX 10 1 11 2 12 3 13 4 14 5 15 6 16 7 17 8 18 9 19 10 20 11
REMARK SMILES IDX 9 12 8 13 7 14 6 15 5 16 4 17 3 18 2 19 1 20
REMARK H PARENT
REMARK Flexibility Score: inf
ROOT
ATOM      1  C   UNL     1      49.924  21.838  54.909  1.00  0.00     0.000 C 
ENDROOT
BRANCH   1   2
ATOM      2  C   UNL     1      50.395  23.176  55.489  1.00  0.00     0.000 C 
BRANCH   2   3
ATOM      3  C   UNL     1      49.813  24.356  54.694  1.00  0.00     0.000 C 
BRANCH   3   4
ATOM      4  C   UNL     1      50.570  24.631  53.383  1.00  0.00     0.000 C 
BRANCH   4   5
ATOM      5  C   UNL     1      49.942  24.005  52.124  1.00  0.00     0.000 C 
BRANCH   5   6
ATOM      6  C   UNL     1      48.424  23.805  52.247  1.00  0.00     0.000 C 
BRANCH   6   7
ATOM      7  C   UNL     1      48.039  22.342  51.981  1.00  0.00     0.006 C 
BRANCH   7   8
ATOM      8  C   UNL     1      49.078  21.617  51.116  1.00  0.00     0.053 C 
BRANCH   8   9
ATOM      9  C   UNL     1      48.551  20.317  50.590  1.00  0.00     0.041 C 
ATOM     10  O   UNL     1      47.310  20.106  50.547  1.00  0.00    -0.550 OA
ATOM     11  O   UNL     1      49.430  19.351  50.117  1.00  0.00    -0.550 OA
ENDBRANCH   8   9
ENDBRANCH   7   8
ENDBRANCH   6   7
ENDBRANCH   5   6
ENDBRANCH   4   5
ENDBRANCH   3   4
ENDBRANCH   2   3
ENDBRANCH   1   2
BRANCH   1  12
ATOM     12  C   UNL     1      51.114  20.900  54.653  1.00  0.00     0.000 C 
BRANCH  12  13
ATOM     13  C   UNL     1      52.464  21.546  55.006  1.00  0.00    -0.000 C 
BRANCH  13  14
ATOM     14  C   UNL     1      53.495  21.421  53.875  1.00  0.00    -0.000 C 
BRANCH  14  15
ATOM     15  C   UNL     1      53.562  22.716  53.049  1.00  0.00    -0.000 C 
BRANCH  15  16
ATOM     16  C   UNL     1      53.317  22.481  51.551  1.00  0.00    -0.000 C 
BRANCH  16  17
ATOM     17  C   UNL     1      52.669  21.114  51.265  1.00  0.00    -0.000 C 
BRANCH  17  18
ATOM     18  C   UNL     1      52.821  20.685  49.797  1.00  0.00    -0.000 C 
BRANCH  18  19
ATOM     19  C   UNL     1      54.248  20.229  49.457  1.00  0.00    -0.003 C 
ATOM     20  C   UNL     1      54.858  21.103  48.364  1.00  0.00     0.004 C 
ENDBRANCH  18  19
ENDBRANCH  17  18
ENDBRANCH  16  17
ENDBRANCH  15  16
ENDBRANCH  14  15
ENDBRANCH  13  14
ENDBRANCH  12  13
ENDBRANCH   1  12
TORSDOF 16
ENDMDL
MODEL 5
REMARK VINA RESULT:    -4.486      2.388      4.451
REMARK INTER + INTRA:         -10.962
REMARK INTER:                  -8.286
REMARK INTRA:                  -2.676
REMARK UNBOUND:                -2.280
REMARK SMILES CCCCCCCCCCCCCCCCCC(=O)[O-]
REMARK SMILES IDX 10 1 11 2 12 3 13 4 14 5 15 6 16 7 17 8 18 9 19 10 20 11
REMARK SMILES IDX 9 12 8 13 7 14 6 15 5 16 4 17 3 18 2 19 1 20
REMARK H PARENT
REMARK Flexibility Score: inf
ROOT
ATOM      1  C   UNL     1      53.771  21.521  54.504  1.00  0.00     0.000 C 
ENDROOT
BRANCH   1   2
ATOM      2  C   UNL     1      54.455  22.760  55.093  1.00  0.00     0.000 C 
BRANCH   2   3
ATOM      3  C   UNL     1      54.072  24.025  54.311  1.00  0.00     0.000 C 
BRANCH   3   4
ATOM      4  C   UNL     1      54.072  23.813  52.786  1.00  0.00     0.000 C 
BRANCH   4   5
ATOM      5  C   UNL     1      52.772  24.225  52.071  1.00  0.00     0.000 C 
BRANCH   5   6
ATOM      6  C   UNL     1      51.689  24.728  53.038  1.00  0.00     0.000 C 
BRANCH   6   7
ATOM      7  C   UNL     1      50.296  24.256  52.596  1.00  0.00     0.006 C 
BRANCH   7   8
ATOM      8  C   UNL     1      49.361  24.010  53.788  1.00  0.00     0.053 C 
BRANCH   8   9
ATOM      9  C   UNL     1      48.104  23.309  53.372  1.00  0.00     0.041 C 
ATOM     10  O   UNL     1      47.978  22.879  52.195  1.00  0.00    -0.550 OA
ATOM     11  O   UNL     1      47.087  23.099  54.294  1.00  0.00    -0.550 OA
ENDBRANCH   8   9
ENDBRANCH   7   8
ENDBRANCH   6   7
ENDBRANCH   5   6
ENDBRANCH   4   5
ENDBRANCH   3   4
ENDBRANCH   2   3
ENDBRANCH   1   2
BRANCH   1  12
ATOM     12  C   UNL     1      52.361  21.341  55.088  1.00  0.00     0.000 C 
BRANCH  12  13
ATOM     13  C   UNL     1      51.315  20.998  54.015  1.00  0.00    -0.000 C 
BRANCH  13  14
ATOM     14  C   UNL     1      51.937  20.791  52.625  1.00  0.00    -0.000 C 
BRANCH  14  15
ATOM     15  C   UNL     1      50.865  20.880  51.527  1.00  0.00    -0.000 C 
BRANCH  15  16
ATOM     16  C   UNL     1      51.465  21.028  50.121  1.00  0.00    -0.000 C 
BRANCH  16  17
ATOM     17  C   UNL     1      53.004  21.002  50.128  1.00  0.00    -0.000 C 
BRANCH  17  18
ATOM     18  C   UNL     1      53.580  19.926  49.192  1.00  0.00    -0.000 C 
BRANCH  18  19
ATOM     19  C   UNL     1      55.079  20.117  48.923  1.00  0.00    -0.003 C 
ATOM     20  C   UNL     1      55.330  21.351  48.060  1.00  0.00     0.004 C 
ENDBRANCH  18  19
ENDBRANCH  17  18
ENDBRANCH  16  17
ENDBRANCH  15  16
ENDBRANCH  14  15
ENDBRANCH  13  14
ENDBRANCH  12  13
ENDBRANCH   1  12
TORSDOF 16
ENDMDL
MODEL 6
REMARK VINA RESULT:    -4.454      2.302      4.950
REMARK INTER + INTRA:         -10.901
REMARK INTER:                  -8.408
REMARK INTRA:                  -2.493
REMARK UNBOUND:                -2.280
REMARK SMILES CCCCCCCCCCCCCCCCCC(=O)[O-]
REMARK SMILES IDX 10 1 11 2 12 3 13 4 14 5 15 6 16 7 17 8 18 9 19 10 20 11
REMARK SMILES IDX 9 12 8 13 7 14 6 15 5 16 4 17 3 18 2 19 1 20
REMARK H PARENT
REMARK Flexibility Score: inf
ROOT
ATOM      1  C   UNL     1      47.743  23.240  52.174  1.00  0.00     0.000 C 
ENDROOT
BRANCH   1   2
ATOM      2  C   UNL     1      48.192  21.774  52.139  1.00  0.00     0.000 C 
BRANCH   2   3
ATOM      3  C   UNL     1      47.744  21.092  50.837  1.00  0.00     0.000 C 
BRANCH   3   4
ATOM      4  C   UNL     1      48.922  20.559  50.001  1.00  0.00     0.000 C 
BRANCH   4   5
ATOM      5  C   UNL     1      50.216  21.387  50.097  1.00  0.00     0.000 C 
BRANCH   5   6
ATOM      6  C   UNL     1      51.391  20.597  50.693  1.00  0.00     0.000 C 
BRANCH   6   7
ATOM      7  C   UNL     1      52.449  20.294  49.622  1.00  0.00     0.006 C 
BRANCH   7   8
ATOM      8  C   UNL     1      53.791  20.975  49.923  1.00  0.00     0.053 C 
BRANCH   8   9
ATOM      9  C   UNL     1      54.830  20.629  48.901  1.00  0.00     0.041 C 
ATOM     10  O   UNL     1      55.532  19.592  49.035  1.00  0.00    -0.550 OA
ATOM     11  O   UNL     1      55.000  21.435  47.782  1.00  0.00    -0.550 OA
ENDBRANCH   8   9
ENDBRANCH   7   8
ENDBRANCH   6   7
ENDBRANCH   5   6
ENDBRANCH   4   5
ENDBRANCH   3   4
ENDBRANCH   2   3
ENDBRANCH   1   2
BRANCH   1  12
ATOM     12  C   UNL     1      48.901  24.159  52.591  1.00  0.00     0.000 C 
BRANCH  12  13
ATOM     13  C   UNL     1      50.060  23.392  53.248  1.00  0.00    -0.000 C 
BRANCH  13  14
ATOM     14  C   UNL     1      51.363  24.205  53.286  1.00  0.00    -0.000 C 
BRANCH  14  15
ATOM     15  C   UNL     1      52.305  23.781  52.148  1.00  0.00    -0.000 C 
BRANCH  15  16
ATOM     16  C   UNL     1      53.774  23.699  52.591  1.00  0.00    -0.000 C 
BRANCH  16  17
ATOM     17  C   UNL     1      53.947  22.960  53.930  1.00  0.00    -0.000 C 
BRANCH  17  18
ATOM     18  C   UNL     1      53.760  21.440  53.793  1.00  0.00    -0.000 C 
BRANCH  18  19
ATOM     19  C   UNL     1      52.894  20.846  54.914  1.00  0.00    -0.003 C 
ATOM     20  C   UNL     1      51.568  20.325  54.366  1.00  0.00     0.004 C 
ENDBRANCH  18  19
ENDBRANCH  17  18
ENDBRANCH  16  17
ENDBRANCH  15  16
ENDBRANCH  14  15
ENDBRANCH  13  14
ENDBRANCH  12  13
ENDBRANCH   1  12
TORSDOF 16
ENDMDL
MODEL 7
REMARK VINA RESULT:    -4.415      2.738      5.180
REMARK INTER + INTRA:         -10.825
REMARK INTER:                  -8.238
REMARK INTRA:                  -2.586
REMARK UNBOUND:                -2.280
REMARK SMILES CCCCCCCCCCCCCCCCCC(=O)[O-]
REMARK SMILES IDX 10 1 11 2 12 3 13 4 14 5 15 6 16 7 17 8 18 9 19 10 20 11
REMARK SMILES IDX 9 12 8 13 7 14 6 15 5 16 4 17 3 18 2 19 1 20
REMARK H PARENT
REMARK Flexibility Score: inf
ROOT
ATOM      1  C   UNL     1      52.779  24.902  53.618  1.00  0.00     0.000 C 
ENDROOT
BRANCH   1   2
ATOM      2  C   UNL     1      52.431  24.949  52.126  1.00  0.00     0.000 C 
BRANCH   2   3
ATOM      3  C   UNL     1      50.917  24.802  51.909  1.00  0.00     0.000 C 
BRANCH   3   4
ATOM      4  C   UNL     1      50.115  24.827  53.223  1.00  0.00     0.000 C 
BRANCH   4   5
ATOM      5  C   UNL     1      49.270  23.569  53.494  1.00  0.00     0.000 C 
BRANCH   5   6
ATOM      6  C   UNL     1      48.203  23.319  52.418  1.00  0.00     0.000 C 
BRANCH   6   7
ATOM      7  C   UNL     1      47.877  21.823  52.304  1.00  0.00     0.006 C 
BRANCH   7   8
ATOM      8  C   UNL     1      47.862  21.341  50.848  1.00  0.00     0.053 C 
BRANCH   8   9
ATOM      9  C   UNL     1      47.835  19.846  50.758  1.00  0.00     0.041 C 
ATOM     10  O   UNL     1      46.840  19.203  51.188  1.00  0.00    -0.550 OA
ATOM     11  O   UNL     1      48.892  19.165  50.170  1.00  0.00    -0.550 OA
ENDBRANCH   8   9
ENDBRANCH   7   8
ENDBRANCH   6   7
ENDBRANCH   5   6
ENDBRANCH   4   5
ENDBRANCH   3   4
ENDBRANCH   2   3
ENDBRANCH   1   2
BRANCH   1  12
ATOM     12  C   UNL     1      53.748  23.749  53.920  1.00  0.00     0.000 C 
BRANCH  12  13
ATOM     13  C   UNL     1      53.216  22.796  55.003  1.00  0.00    -0.000 C 
BRANCH  13  14
ATOM     14  C   UNL     1      52.282  21.717  54.436  1.00  0.00    -0.000 C 
BRANCH  14  15
ATOM     15  C   UNL     1      52.723  21.297  53.024  1.00  0.00    -0.000 C 
BRANCH  15  16
ATOM     16  C   UNL     1      51.538  21.049  52.079  1.00  0.00    -0.000 C 
BRANCH  16  17
ATOM     17  C   UNL     1      51.969  20.941  50.605  1.00  0.00    -0.000 C 
BRANCH  17  18
ATOM     18  C   UNL     1      53.495  21.014  50.430  1.00  0.00    -0.000 C 
BRANCH  18  19
ATOM     19  C   UNL     1      53.936  20.790  48.977  1.00  0.00    -0.003 C 
ATOM     20  C   UNL     1      55.151  19.868  48.907  1.00  0.00     0.004 C 
ENDBRANCH  18  19
ENDBRANCH  17  18
ENDBRANCH  16  17
ENDBRANCH  15  16
ENDBRANCH  14  15
ENDBRANCH  13  14
ENDBRANCH  12  13
ENDBRANCH   1  12
TORSDOF 16
ENDMDL
MODEL 8
REMARK VINA RESULT:    -4.395      4.943      7.070
REMARK INTER + INTRA:         -10.787
REMARK INTER:                  -9.494
REMARK INTRA:                  -1.293
REMARK UNBOUND:                -2.280
REMARK SMILES CCCCCCCCCCCCCCCCCC(=O)[O-]
REMARK SMILES IDX 10 1 11 2 12 3 13 4 14 5 15 6 16 7 17 8 18 9 19 10 20 11
REMARK SMILES IDX 9 12 8 13 7 14 6 15 5 16 4 17 3 18 2 19 1 20
REMARK H PARENT
REMARK Flexibility Score: inf
ROOT
ATOM      1  C   UNL     1      48.106  21.780  52.414  1.00  0.00     0.000 C 
ENDROOT
BRANCH   1   2
ATOM      2  C   UNL     1      47.726  21.355  50.991  1.00  0.00     0.000 C 
BRANCH   2   3
ATOM      3  C   UNL     1      47.463  19.843  50.920  1.00  0.00     0.000 C 
BRANCH   3   4
ATOM      4  C   UNL     1      45.970  19.486  51.037  1.00  0.00     0.000 C 
BRANCH   4   5
ATOM      5  C   UNL     1      45.650  18.335  52.008  1.00  0.00     0.000 C 
BRANCH   5   6
ATOM      6  C   UNL     1      44.178  17.899  51.958  1.00  0.00     0.000 C 
BRANCH   6   7
ATOM      7  C   UNL     1      43.332  18.703  52.956  1.00  0.00     0.006 C 
BRANCH   7   8
ATOM      8  C   UNL     1      43.731  18.425  54.411  1.00  0.00     0.053 C 
BRANCH   8   9
ATOM      9  C   UNL     1      42.539  18.397  55.318  1.00  0.00     0.041 C 
ATOM     10  O   UNL     1      41.436  18.866  54.929  1.00  0.00    -0.550 OA
ATOM     11  O   UNL     1      42.638  17.824  56.578  1.00  0.00    -0.550 OA
ENDBRANCH   8   9
ENDBRANCH   7   8
ENDBRANCH   6   7
ENDBRANCH   5   6
ENDBRANCH   4   5
ENDBRANCH   3   4
ENDBRANCH   2   3
ENDBRANCH   1   2
BRANCH   1  12
ATOM     12  C   UNL     1      48.251  23.307  52.512  1.00  0.00     0.000 C 
BRANCH  12  13
ATOM     13  C   UNL     1      49.669  23.743  52.912  1.00  0.00    -0.000 C 
BRANCH  13  14
ATOM     14  C   UNL     1      50.715  23.418  51.835  1.00  0.00    -0.000 C 
BRANCH  14  15
ATOM     15  C   UNL     1      52.043  22.982  52.476  1.00  0.00    -0.000 C 
BRANCH  15  16
ATOM     16  C   UNL     1      52.393  21.515  52.182  1.00  0.00    -0.000 C 
BRANCH  16  17
ATOM     17  C   UNL     1      51.491  20.897  51.099  1.00  0.00    -0.000 C 
BRANCH  17  18
ATOM     18  C   UNL     1      52.231  20.678  49.770  1.00  0.00    -0.000 C 
BRANCH  18  19
ATOM     19  C   UNL     1      53.754  20.810  49.911  1.00  0.00    -0.003 C 
ATOM     20  C   UNL     1      54.478  19.959  48.870  1.00  0.00     0.004 C 
ENDBRANCH  18  19
ENDBRANCH  17  18
ENDBRANCH  16  17
ENDBRANCH  15  16
ENDBRANCH  14  15
ENDBRANCH  13  14
ENDBRANCH  12  13
ENDBRANCH   1  12
TORSDOF 16
ENDMDL
MODEL 9
REMARK VINA RESULT:    -4.332      2.098      2.674
REMARK INTER + INTRA:         -10.664
REMARK INTER:                  -9.262
REMARK INTRA:                  -1.402
REMARK UNBOUND:                -2.280
REMARK SMILES CCCCCCCCCCCCCCCCCC(=O)[O-]
REMARK SMILES IDX 10 1 11 2 12 3 13 4 14 5 15 6 16 7 17 8 18 9 19 10 20 11
REMARK SMILES IDX 9 12 8 13 7 14 6 15 5 16 4 17 3 18 2 19 1 20
REMARK H PARENT
REMARK Flexibility Score: inf
ROOT
ATOM      1  C   UNL     1      48.628  22.112  51.894  1.00  0.00     0.000 C 
ENDROOT
BRANCH   1   2
ATOM      2  C   UNL     1      47.829  22.775  53.023  1.00  0.00     0.000 C 
BRANCH   2   3
ATOM      3  C   UNL     1      47.406  21.742  54.078  1.00  0.00     0.000 C 
BRANCH   3   4
ATOM      4  C   UNL     1      47.103  22.372  55.450  1.00  0.00     0.000 C 
BRANCH   4   5
ATOM      5  C   UNL     1      47.952  23.608  55.800  1.00  0.00     0.000 C 
BRANCH   5   6
ATOM      6  C   UNL     1      48.774  23.427  57.085  1.00  0.00     0.000 C 
BRANCH   6   7
ATOM      7  C   UNL     1      50.268  23.662  56.819  1.00  0.00     0.006 C 
BRANCH   7   8
ATOM      8  C   UNL     1      50.620  23.535  55.331  1.00  0.00     0.053 C 
BRANCH   8   9
ATOM      9  C   UNL     1      51.424  22.301  55.055  1.00  0.00     0.041 C 
ATOM     10  O   UNL     1      50.877  21.289  54.542  1.00  0.00    -0.550 OA
ATOM     11  O   UNL     1      52.785  22.281  55.334  1.00  0.00    -0.550 OA
ENDBRANCH   8   9
ENDBRANCH   7   8
ENDBRANCH   6   7
ENDBRANCH   5   6
ENDBRANCH   4   5
ENDBRANCH   3   4
ENDBRANCH   2   3
ENDBRANCH   1   2
BRANCH   1  12
ATOM     12  C   UNL     1      47.708  21.289  50.979  1.00  0.00     0.000 C 
BRANCH  12  13
ATOM     13  C   UNL     1      48.487  20.463  49.944  1.00  0.00    -0.000 C 
BRANCH  13  14
ATOM     14  C   UNL     1      49.803  19.901  50.503  1.00  0.00    -0.000 C 
BRANCH  14  15
ATOM     15  C   UNL     1      51.008  20.687  49.960  1.00  0.00    -0.000 C 
BRANCH  15  16
ATOM     16  C   UNL     1      52.085  20.938  51.027  1.00  0.00    -0.000 C 
BRANCH  16  17
ATOM     17  C   UNL     1      53.491  21.097  50.422  1.00  0.00    -0.000 C 
BRANCH  17  18
ATOM     18  C   UNL     1      53.746  20.123  49.260  1.00  0.00    -0.000 C 
BRANCH  18  19
ATOM     19  C   UNL     1      55.195  20.173  48.753  1.00  0.00    -0.003 C 
ATOM     20  C   UNL     1      55.449  21.440  47.940  1.00  0.00     0.004 C 
ENDBRANCH  18  19
ENDBRANCH  17  18
ENDBRANCH  16  17
ENDBRANCH  15  16
ENDBRANCH  14  15
ENDBRANCH  13  14
ENDBRANCH  12  13
ENDBRANCH   1  12
TORSDOF 16
ENDMDL
