MODEL 1
REMARK VINA RESULT:    -3.787      0.000      0.000
REMARK INTER + INTRA:          -6.811
REMARK INTER:                  -5.780
REMARK INTRA:                  -1.031
REMARK UNBOUND:                -1.031
REMARK SMILES CCCCCCCCCCC(=O)[O-]
REMARK SMILES IDX 7 1 8 2 9 3 10 4 11 5 12 6 13 7 6 8 5 9 4 10 3 11 2 12 1 13
REMARK H PARENT
REMARK Flexibility Score: inf
ROOT
ATOM      1  C   UNL     1      40.578  23.394 223.039  1.00  0.00     0.000 C 
ENDROOT
BRANCH   1   2
ATOM      2  C   UNL     1      39.106  23.618 222.645  1.00  0.00     0.000 C 
BRANCH   2   3
ATOM      3  C   UNL     1      38.167  23.640 223.860  1.00  0.00     0.006 C 
BRANCH   3   4
ATOM      4  C   UNL     1      37.178  24.812 223.820  1.00  0.00     0.053 C 
BRANCH   4   5
ATOM      5  C   UNL     1      36.470  24.943 225.131  1.00  0.00     0.041 C 
ATOM      6  O   UNL     1      35.736  25.941 225.359  1.00  0.00    -0.550 OA
ATOM      7  O   UNL     1      36.579  23.937 226.084  1.00  0.00    -0.550 OA
ENDBRANCH   4   5
ENDBRANCH   3   4
ENDBRANCH   2   3
ENDBRANCH   1   2
BRANCH   1   8
ATOM      8  C   UNL     1      40.800  23.475 224.558  1.00  0.00     0.000 C 
BRANCH   8   9
ATOM      9  C   UNL     1      41.823  24.552 224.949  1.00  0.00    -0.000 C 
BRANCH   9  10
ATOM     10  C   UNL     1      41.490  25.155 226.319  1.00  0.00    -0.000 C 
BRANCH  10  11
ATOM     11  C   UNL     1      39.982  25.415 226.453  1.00  0.00    -0.000 C 
BRANCH  11  12
ATOM     12  C   UNL     1      39.570  26.795 225.916  1.00  0.00    -0.003 C 
ATOM     13  C   UNL     1      40.461  27.923 226.438  1.00  0.00     0.004 C 
ENDBRANCH  11  12
ENDBRANCH  10  11
ENDBRANCH   9  10
ENDBRANCH   8   9
ENDBRANCH   1   8
TORSDOF 9
ENDMDL
MODEL 2
REMARK VINA RESULT:    -3.732      1.636      1.998
REMARK INTER + INTRA:          -6.727
REMARK INTER:                  -5.361
REMARK INTRA:                  -1.367
REMARK UNBOUND:                -1.031
REMARK SMILES CCCCCCCCCCC(=O)[O-]
REMARK SMILES IDX 7 1 8 2 9 3 10 4 11 5 12 6 13 7 6 8 5 9 4 10 3 11 2 12 1 13
REMARK H PARENT
REMARK Flexibility Score: inf
ROOT
ATOM      1  C   UNL     1      41.198  23.172 224.127  1.00  0.00     0.000 C 
ENDROOT
BRANCH   1   2
ATOM      2  C   UNL     1      40.365  23.814 223.002  1.00  0.00     0.000 C 
BRANCH   2   3
ATOM      3  C   UNL     1      38.854  23.616 223.201  1.00  0.00     0.006 C 
BRANCH   3   4
ATOM      4  C   UNL     1      38.533  22.622 224.325  1.00  0.00     0.053 C 
BRANCH   4   5
ATOM      5  C   UNL     1      37.069  22.635 224.630  1.00  0.00     0.041 C 
ATOM      6  O   UNL     1      36.668  22.528 225.819  1.00  0.00    -0.550 OA
ATOM      7  O   UNL     1      36.146  22.817 223.607  1.00  0.00    -0.550 OA
ENDBRANCH   4   5
ENDBRANCH   3   4
ENDBRANCH   2   3
ENDBRANCH   1   2
BRANCH   1   8
ATOM      8  C   UNL     1      42.065  24.196 224.878  1.00  0.00     0.000 C 
BRANCH   8   9
ATOM      9  C   UNL     1      41.966  24.047 226.403  1.00  0.00    -0.000 C 
BRANCH   9  10
ATOM     10  C   UNL     1      41.058  25.128 227.003  1.00  0.00    -0.000 C 
BRANCH  10  11
ATOM     11  C   UNL     1      39.628  24.602 227.194  1.00  0.00    -0.000 C 
BRANCH  11  12
ATOM     12  C   UNL     1      38.564  25.577 226.667  1.00  0.00    -0.003 C 
ATOM     13  C   UNL     1      39.083  26.465 225.535  1.00  0.00     0.004 C 
ENDBRANCH  11  12
ENDBRANCH  10  11
ENDBRANCH   9  10
ENDBRANCH   8   9
ENDBRANCH   1   8
TORSDOF 9
ENDMDL
MODEL 3
REMARK VINA RESULT:    -3.707      3.517      5.130
REMARK INTER + INTRA:          -6.689
REMARK INTER:                  -5.530
REMARK INTRA:                  -1.159
REMARK UNBOUND:                -1.031
REMARK SMILES CCCCCCCCCCC(=O)[O-]
REMARK SMILES IDX 7 1 8 2 9 3 10 4 11 5 12 6 13 7 6 8 5 9 4 10 3 11 2 12 1 13
REMARK H PARENT
REMARK Flexibility Score: inf
ROOT
ATOM      1  C   UNL     1      38.544  22.520 226.816  1.00  0.00     0.000 C 
ENDROOT
BRANCH   1   2
ATOM      2  C   UNL     1      38.452  21.510 225.657  1.00  0.00     0.000 C 
BRANCH   2   3
ATOM      3  C   UNL     1      37.040  20.928 225.493  1.00  0.00     0.006 C 
BRANCH   3   4
ATOM      4  C   UNL     1      36.409  20.525 226.833  1.00  0.00     0.053 C 
BRANCH   4   5
ATOM      5  C   UNL     1      35.722  19.202 226.710  1.00  0.00     0.041 C 
ATOM      6  O   UNL     1      34.859  19.017 225.813  1.00  0.00    -0.550 OA
ATOM      7  O   UNL     1      36.072  18.156 227.555  1.00  0.00    -0.550 OA
ENDBRANCH   4   5
ENDBRANCH   3   4
ENDBRANCH   2   3
ENDBRANCH   1   2
BRANCH   1   8
ATOM      8  C   UNL     1      38.503  23.979 226.332  1.00  0.00     0.000 C 
BRANCH   8   9
ATOM      9  C   UNL     1      37.097  24.591 226.418  1.00  0.00    -0.000 C 
BRANCH   9  10
ATOM     10  C   UNL     1      36.522  24.843 225.019  1.00  0.00    -0.000 C 
BRANCH  10  11
ATOM     11  C   UNL     1      37.637  24.878 223.964  1.00  0.00    -0.000 C 
BRANCH  11  12
ATOM     12  C   UNL     1      37.417  23.855 222.838  1.00  0.00    -0.003 C 
ATOM     13  C   UNL     1      35.981  23.331 222.787  1.00  0.00     0.004 C 
ENDBRANCH  11  12
ENDBRANCH  10  11
ENDBRANCH   9  10
ENDBRANCH   8   9
ENDBRANCH   1   8
TORSDOF 9
ENDMDL
MODEL 4
REMARK VINA RESULT:    -3.702      1.477      3.345
REMARK INTER + INTRA:          -6.681
REMARK INTER:                  -5.441
REMARK INTRA:                  -1.240
REMARK UNBOUND:                -1.031
REMARK SMILES CCCCCCCCCCC(=O)[O-]
REMARK SMILES IDX 7 1 8 2 9 3 10 4 11 5 12 6 13 7 6 8 5 9 4 10 3 11 2 12 1 13
REMARK H PARENT
REMARK Flexibility Score: inf
ROOT
ATOM      1  C   UNL     1      40.246  26.317 226.179  1.00  0.00     0.000 C 
ENDROOT
BRANCH   1   2
ATOM      2  C   UNL     1      38.746  25.969 226.185  1.00  0.00     0.000 C 
BRANCH   2   3
ATOM      3  C   UNL     1      38.162  25.853 224.769  1.00  0.00     0.006 C 
BRANCH   3   4
ATOM      4  C   UNL     1      36.692  25.414 224.772  1.00  0.00     0.053 C 
BRANCH   4   5
ATOM      5  C   UNL     1      36.453  24.382 223.716  1.00  0.00     0.041 C 
ATOM      6  O   UNL     1      36.573  24.681 222.499  1.00  0.00    -0.550 OA
ATOM      7  O   UNL     1      36.148  23.075 224.077  1.00  0.00    -0.550 OA
ENDBRANCH   4   5
ENDBRANCH   3   4
ENDBRANCH   2   3
ENDBRANCH   1   2
BRANCH   1   8
ATOM      8  C   UNL     1      41.136  25.097 226.466  1.00  0.00     0.000 C 
BRANCH   8   9
ATOM      9  C   UNL     1      42.186  24.861 225.370  1.00  0.00    -0.000 C 
BRANCH   9  10
ATOM     10  C   UNL     1      41.913  23.551 224.621  1.00  0.00    -0.000 C 
BRANCH  10  11
ATOM     11  C   UNL     1      40.957  23.782 223.441  1.00  0.00    -0.000 C 
BRANCH  11  12
ATOM     12  C   UNL     1      39.796  22.774 223.415  1.00  0.00    -0.003 C 
ATOM     13  C   UNL     1      39.464  22.220 224.801  1.00  0.00     0.004 C 
ENDBRANCH  11  12
ENDBRANCH  10  11
ENDBRANCH   9  10
ENDBRANCH   8   9
ENDBRANCH   1   8
TORSDOF 9
ENDMDL
MODEL 5
REMARK VINA RESULT:    -3.697      1.288      3.203
REMARK INTER + INTRA:          -6.674
REMARK INTER:                  -5.828
REMARK INTRA:                  -0.846
REMARK UNBOUND:                -1.031
REMARK SMILES CCCCCCCCCCC(=O)[O-]
REMARK SMILES IDX 7 1 8 2 9 3 10 4 11 5 12 6 13 7 6 8 5 9 4 10 3 11 2 12 1 13
REMARK H PARENT
REMARK Flexibility Score: inf
ROOT
ATOM      1  C   UNL     1      39.259  26.019 226.864  1.00  0.00     0.000 C 
ENDROOT
BRANCH   1   2
ATOM      2  C   UNL     1      38.125  25.456 225.987  1.00  0.00     0.000 C 
BRANCH   2   3
ATOM      3  C   UNL     1      38.077  26.107 224.596  1.00  0.00     0.006 C 
BRANCH   3   4
ATOM      4  C   UNL     1      37.180  25.340 223.616  1.00  0.00     0.053 C 
BRANCH   4   5
ATOM      5  C   UNL     1      36.109  24.604 224.357  1.00  0.00     0.041 C 
ATOM      6  O   UNL     1      36.136  23.347 224.429  1.00  0.00    -0.550 OA
ATOM      7  O   UNL     1      35.106  25.309 225.012  1.00  0.00    -0.550 OA
ENDBRANCH   4   5
ENDBRANCH   3   4
ENDBRANCH   2   3
ENDBRANCH   1   2
BRANCH   1   8
ATOM      8  C   UNL     1      39.920  27.262 226.247  1.00  0.00     0.000 C 
BRANCH   8   9
ATOM      9  C   UNL     1      41.446  27.267 226.422  1.00  0.00    -0.000 C 
BRANCH   9  10
ATOM     10  C   UNL     1      41.959  25.873 226.802  1.00  0.00    -0.000 C 
BRANCH  10  11
ATOM     11  C   UNL     1      42.693  25.216 225.624  1.00  0.00    -0.000 C 
BRANCH  11  12
ATOM     12  C   UNL     1      42.077  23.867 225.221  1.00  0.00    -0.003 C 
ATOM     13  C   UNL     1      41.139  23.981 224.019  1.00  0.00     0.004 C 
ENDBRANCH  11  12
ENDBRANCH  10  11
ENDBRANCH   9  10
ENDBRANCH   8   9
ENDBRANCH   1   8
TORSDOF 9
ENDMDL
MODEL 6
REMARK VINA RESULT:    -3.691      2.136      3.363
REMARK INTER + INTRA:          -6.664
REMARK INTER:                  -5.302
REMARK INTRA:                  -1.361
REMARK UNBOUND:                -1.031
REMARK SMILES CCCCCCCCCCC(=O)[O-]
REMARK SMILES IDX 7 1 8 2 9 3 10 4 11 5 12 6 13 7 6 8 5 9 4 10 3 11 2 12 1 13
REMARK H PARENT
REMARK Flexibility Score: inf
ROOT
ATOM      1  C   UNL     1      41.339  23.174 226.333  1.00  0.00     0.000 C 
ENDROOT
BRANCH   1   2
ATOM      2  C   UNL     1      40.722  21.774 226.158  1.00  0.00     0.000 C 
BRANCH   2   3
ATOM      3  C   UNL     1      39.224  21.744 226.497  1.00  0.00     0.006 C 
BRANCH   3   4
ATOM      4  C   UNL     1      38.397  20.995 225.444  1.00  0.00     0.053 C 
BRANCH   4   5
ATOM      5  C   UNL     1      36.979  21.472 225.459  1.00  0.00     0.041 C 
ATOM      6  O   UNL     1      36.506  22.086 224.467  1.00  0.00    -0.550 OA
ATOM      7  O   UNL     1      36.163  21.194 226.549  1.00  0.00    -0.550 OA
ENDBRANCH   4   5
ENDBRANCH   3   4
ENDBRANCH   2   3
ENDBRANCH   1   2
BRANCH   1   8
ATOM      8  C   UNL     1      41.981  23.702 225.039  1.00  0.00     0.000 C 
BRANCH   8   9
ATOM      9  C   UNL     1      41.384  23.059 223.779  1.00  0.00    -0.000 C 
BRANCH   9  10
ATOM     10  C   UNL     1      40.555  24.075 222.984  1.00  0.00    -0.000 C 
BRANCH  10  11
ATOM     11  C   UNL     1      39.081  24.041 223.417  1.00  0.00    -0.000 C 
BRANCH  11  12
ATOM     12  C   UNL     1      38.630  25.352 224.080  1.00  0.00    -0.003 C 
ATOM     13  C   UNL     1      38.229  25.167 225.544  1.00  0.00     0.004 C 
ENDBRANCH  11  12
ENDBRANCH  10  11
ENDBRANCH   9  10
ENDBRANCH   8   9
ENDBRANCH   1   8
TORSDOF 9
ENDMDL
MODEL 7
REMARK VINA RESULT:    -3.637      1.611      2.881
REMARK INTER + INTRA:          -6.582
REMARK INTER:                  -5.454
REMARK INTRA:                  -1.129
REMARK UNBOUND:                -1.031
REMARK SMILES CCCCCCCCCCC(=O)[O-]
REMARK SMILES IDX 7 1 8 2 9 3 10 4 11 5 12 6 13 7 6 8 5 9 4 10 3 11 2 12 1 13
REMARK H PARENT
REMARK Flexibility Score: inf
ROOT
ATOM      1  C   UNL     1      38.604  21.966 225.938  1.00  0.00     0.000 C 
ENDROOT
BRANCH   1   2
ATOM      2  C   UNL     1      37.235  22.528 225.512  1.00  0.00     0.000 C 
BRANCH   2   3
ATOM      3  C   UNL     1      37.294  23.265 224.165  1.00  0.00     0.006 C 
BRANCH   3   4
ATOM      4  C   UNL     1      36.057  24.138 223.916  1.00  0.00     0.053 C 
BRANCH   4   5
ATOM      5  C   UNL     1      36.071  25.332 224.817  1.00  0.00     0.041 C 
ATOM      6  O   UNL     1      35.092  25.568 225.573  1.00  0.00    -0.550 OA
ATOM      7  O   UNL     1      37.188  26.158 224.860  1.00  0.00    -0.550 OA
ENDBRANCH   4   5
ENDBRANCH   3   4
ENDBRANCH   2   3
ENDBRANCH   1   2
BRANCH   1   8
ATOM      8  C   UNL     1      39.283  21.156 224.822  1.00  0.00     0.000 C 
BRANCH   8   9
ATOM      9  C   UNL     1      40.776  21.484 224.679  1.00  0.00    -0.000 C 
BRANCH   9  10
ATOM     10  C   UNL     1      41.063  22.158 223.332  1.00  0.00    -0.000 C 
BRANCH  10  11
ATOM     11  C   UNL     1      40.959  23.686 223.448  1.00  0.00    -0.000 C 
BRANCH  11  12
ATOM     12  C   UNL     1      41.565  24.223 224.754  1.00  0.00    -0.003 C 
ATOM     13  C   UNL     1      40.589  25.093 225.546  1.00  0.00     0.004 C 
ENDBRANCH  11  12
ENDBRANCH  10  11
ENDBRANCH   9  10
ENDBRANCH   8   9
ENDBRANCH   1   8
TORSDOF 9
ENDMDL
MODEL 8
REMARK VINA RESULT:    -3.625      1.687      2.908
REMARK INTER + INTRA:          -6.563
REMARK INTER:                  -5.420
REMARK INTRA:                  -1.144
REMARK UNBOUND:                -1.031
REMARK SMILES CCCCCCCCCCC(=O)[O-]
REMARK SMILES IDX 7 1 8 2 9 3 10 4 11 5 12 6 13 7 6 8 5 9 4 10 3 11 2 12 1 13
REMARK H PARENT
REMARK Flexibility Score: inf
ROOT
ATOM      1  C   UNL     1      38.157  21.568 225.622  1.00  0.00     0.000 C 
ENDROOT
BRANCH   1   2
ATOM      2  C   UNL     1      37.115  22.684 225.422  1.00  0.00     0.000 C 
BRANCH   2   3
ATOM      3  C   UNL     1      37.065  23.192 223.973  1.00  0.00     0.006 C 
BRANCH   3   4
ATOM      4  C   UNL     1      35.961  24.233 223.751  1.00  0.00     0.053 C 
BRANCH   4   5
ATOM      5  C   UNL     1      36.087  25.347 224.741  1.00  0.00     0.041 C 
ATOM      6  O   UNL     1      37.117  26.071 224.753  1.00  0.00    -0.550 OA
ATOM      7  O   UNL     1      35.044  25.619 225.618  1.00  0.00    -0.550 OA
ENDBRANCH   4   5
ENDBRANCH   3   4
ENDBRANCH   2   3
ENDBRANCH   1   2
BRANCH   1   8
ATOM      8  C   UNL     1      39.247  21.953 226.635  1.00  0.00     0.000 C 
BRANCH   8   9
ATOM      9  C   UNL     1      39.146  23.419 227.083  1.00  0.00    -0.000 C 
BRANCH   9  10
ATOM     10  C   UNL     1      40.419  24.193 226.721  1.00  0.00    -0.000 C 
BRANCH  10  11
ATOM     11  C   UNL     1      40.344  24.734 225.286  1.00  0.00    -0.000 C 
BRANCH  11  12
ATOM     12  C   UNL     1      41.325  24.028 224.336  1.00  0.00    -0.003 C 
ATOM     13  C   UNL     1      40.658  23.549 223.047  1.00  0.00     0.004 C 
ENDBRANCH  11  12
ENDBRANCH  10  11
ENDBRANCH   9  10
ENDBRANCH   8   9
ENDBRANCH   1   8
TORSDOF 9
ENDMDL
MODEL 9
REMARK VINA RESULT:    -3.523      3.020      4.698
REMARK INTER + INTRA:          -6.408
REMARK INTER:                  -5.346
REMARK INTRA:                  -1.062
REMARK UNBOUND:                -1.031
REMARK SMILES CCCCCCCCCCC(=O)[O-]
REMARK SMILES IDX 7 1 8 2 9 3 10 4 11 5 12 6 13 7 6 8 5 9 4 10 3 11 2 12 1 13
REMARK H PARENT
REMARK Flexibility Score: inf
ROOT
ATOM      1  C   UNL     1      37.276  23.049 225.130  1.00  0.00     0.000 C 
ENDROOT
BRANCH   1   2
ATOM      2  C   UNL     1      38.414  22.516 226.019  1.00  0.00     0.000 C 
BRANCH   2   3
ATOM      3  C   UNL     1      38.064  21.176 226.685  1.00  0.00     0.006 C 
BRANCH   3   4
ATOM      4  C   UNL     1      37.556  20.134 225.680  1.00  0.00     0.053 C 
BRANCH   4   5
ATOM      5  C   UNL     1      36.188  19.665 226.061  1.00  0.00     0.041 C 
ATOM      6  O   UNL     1      35.443  20.393 226.769  1.00  0.00    -0.550 OA
ATOM      7  O   UNL     1      35.715  18.445 225.593  1.00  0.00    -0.550 OA
ENDBRANCH   4   5
ENDBRANCH   3   4
ENDBRANCH   2   3
ENDBRANCH   1   2
BRANCH   1   8
ATOM      8  C   UNL     1      37.749  23.395 223.709  1.00  0.00     0.000 C 
BRANCH   8   9
ATOM      9  C   UNL     1      38.897  24.415 223.701  1.00  0.00    -0.000 C 
BRANCH   9  10
ATOM     10  C   UNL     1      40.132  23.846 222.991  1.00  0.00    -0.000 C 
BRANCH  10  11
ATOM     11  C   UNL     1      41.333  23.781 223.946  1.00  0.00    -0.000 C 
BRANCH  11  12
ATOM     12  C   UNL     1      41.816  22.343 224.192  1.00  0.00    -0.003 C 
ATOM     13  C   UNL     1      40.928  21.298 223.516  1.00  0.00     0.004 C 
ENDBRANCH  11  12
ENDBRANCH  10  11
ENDBRANCH   9  10
ENDBRANCH   8   9
ENDBRANCH   1   8
TORSDOF 9
ENDMDL
