MODEL 1
REMARK VINA RESULT:    -5.909      0.000      0.000
REMARK INTER + INTRA:          -7.169
REMARK INTER:                  -6.945
REMARK INTRA:                  -0.224
REMARK UNBOUND:                -0.224
REMARK SMILES O=c1c(O)c(-c2ccc(O)cc2)oc2cc(O)cc(O)c12
REMARK SMILES IDX 5 1 3 2 2 3 1 4 21 5 19 6 18 7 16 8 15 9 14 10 13 11 6 12
REMARK SMILES IDX 7 13 8 14 9 15 12 16 11 17 10 18 4 20 20 22 17 24
REMARK H PARENT 10 19 4 21 20 23 17 25
REMARK Flexibility Score: inf
ROOT
ATOM      1  C   UNL     1      18.439  -1.084 -16.634  1.00  0.00     0.180 A 
ATOM      2  C   UNL     1      17.755  -0.284 -15.703  1.00  0.00     0.208 A 
ATOM      3  C   UNL     1      17.040  -0.906 -14.667  1.00  0.00     0.238 A 
ATOM      4  O   UNL     1      16.385  -0.187 -13.869  1.00  0.00    -0.285 OA
ATOM      5  C   UNL     1      17.032  -2.318 -14.565  1.00  0.00     0.111 A 
ATOM      6  C   UNL     1      16.375  -3.053 -13.532  1.00  0.00     0.134 A 
ATOM      7  C   UNL     1      16.325  -4.450 -13.604  1.00  0.00     0.093 A 
ATOM      8  C   UNL     1      16.963  -5.142 -14.636  1.00  0.00     0.123 A 
ATOM      9  C   UNL     1      17.657  -4.437 -15.616  1.00  0.00     0.094 A 
ATOM     10  C   UNL     1      17.695  -3.040 -15.591  1.00  0.00     0.146 A 
ATOM     11  O   UNL     1      18.359  -2.407 -16.551  1.00  0.00    -0.452 OA
ENDROOT
BRANCH   1  12
ATOM     12  C   UNL     1      19.235  -0.502 -17.740  1.00  0.00     0.021 A 
ATOM     13  C   UNL     1      20.463   0.140 -17.498  1.00  0.00     0.016 A 
ATOM     14  C   UNL     1      21.209   0.661 -18.561  1.00  0.00     0.047 A 
ATOM     15  C   UNL     1      20.744   0.536 -19.876  1.00  0.00     0.115 A 
ATOM     16  C   UNL     1      18.786  -0.641 -19.064  1.00  0.00     0.016 A 
ATOM     17  C   UNL     1      19.533  -0.119 -20.123  1.00  0.00     0.047 A 
BRANCH  15  18
ATOM     18  O   UNL     1      21.477   1.052 -20.942  1.00  0.00    -0.508 OA
ATOM     19  H   UNL     1      21.034   1.289 -21.823  1.00  0.00     0.293 HD
ENDBRANCH  15  18
ENDBRANCH   1  12
BRANCH   2  20
ATOM     20  O   UNL     1      17.757   1.107 -15.835  1.00  0.00    -0.502 OA
ATOM     21  H   UNL     1      18.403   1.701 -15.331  1.00  0.00     0.293 HD
ENDBRANCH   2  20
BRANCH   6  22
ATOM     22  O   UNL     1      15.787  -2.464 -12.410  1.00  0.00    -0.507 OA
ATOM     23  H   UNL     1      15.305  -2.969 -11.681  1.00  0.00     0.293 HD
ENDBRANCH   6  22
BRANCH   8  24
ATOM     24  O   UNL     1      16.921  -6.534 -14.692  1.00  0.00    -0.508 OA
ATOM     25  H   UNL     1      16.264  -7.020 -15.291  1.00  0.00     0.293 HD
ENDBRANCH   8  24
TORSDOF 5
ENDMDL
MODEL 2
REMARK VINA RESULT:    -5.822      7.356      9.739
REMARK INTER + INTRA:          -7.067
REMARK INTER:                  -6.845
REMARK INTRA:                  -0.221
REMARK UNBOUND:                -0.224
REMARK SMILES O=c1c(O)c(-c2ccc(O)cc2)oc2cc(O)cc(O)c12
REMARK SMILES IDX 5 1 3 2 2 3 1 4 21 5 19 6 18 7 16 8 15 9 14 10 13 11 6 12
REMARK SMILES IDX 7 13 8 14 9 15 12 16 11 17 10 18 4 20 20 22 17 24
REMARK H PARENT 10 19 4 21 20 23 17 25
REMARK Flexibility Score: inf
ROOT
ATOM      1  C   UNL     1      18.597  -1.886  -8.196  1.00  0.00     0.180 A 
ATOM      2  C   UNL     1      17.694  -2.753  -8.833  1.00  0.00     0.208 A 
ATOM      3  C   UNL     1      16.609  -2.208  -9.539  1.00  0.00     0.238 A 
ATOM      4  O   UNL     1      15.773  -2.990 -10.061  1.00  0.00    -0.285 OA
ATOM      5  C   UNL     1      16.451  -0.803  -9.613  1.00  0.00     0.111 A 
ATOM      6  C   UNL     1      15.412  -0.141 -10.334  1.00  0.00     0.134 A 
ATOM      7  C   UNL     1      15.278   1.249 -10.231  1.00  0.00     0.093 A 
ATOM      8  C   UNL     1      16.183   2.007  -9.484  1.00  0.00     0.123 A 
ATOM      9  C   UNL     1      17.236   1.376  -8.825  1.00  0.00     0.094 A 
ATOM     10  C   UNL     1      17.375  -0.013  -8.880  1.00  0.00     0.146 A 
ATOM     11  O   UNL     1      18.386  -0.574  -8.228  1.00  0.00    -0.452 OA
ENDROOT
BRANCH   1  12
ATOM     12  C   UNL     1      19.779  -2.383  -7.454  1.00  0.00     0.021 A 
ATOM     13  C   UNL     1      21.079  -2.251  -7.974  1.00  0.00     0.016 A 
ATOM     14  C   UNL     1      22.182  -2.707  -7.245  1.00  0.00     0.047 A 
ATOM     15  C   UNL     1      22.001  -3.288  -5.983  1.00  0.00     0.115 A 
ATOM     16  C   UNL     1      19.608  -2.949  -6.179  1.00  0.00     0.016 A 
ATOM     17  C   UNL     1      20.712  -3.404  -5.453  1.00  0.00     0.047 A 
BRANCH  15  18
ATOM     18  O   UNL     1      23.091  -3.747  -5.248  1.00  0.00    -0.508 OA
ATOM     19  H   UNL     1      24.041  -3.496  -5.497  1.00  0.00     0.293 HD
ENDBRANCH  15  18
ENDBRANCH   1  12
BRANCH   2  20
ATOM     20  O   UNL     1      17.855  -4.137  -8.728  1.00  0.00    -0.502 OA
ATOM     21  H   UNL     1      17.821  -4.751  -9.533  1.00  0.00     0.293 HD
ENDBRANCH   2  20
BRANCH   6  22
ATOM     22  O   UNL     1      14.513  -0.793 -11.181  1.00  0.00    -0.507 OA
ATOM     23  H   UNL     1      13.516  -0.641 -11.188  1.00  0.00     0.293 HD
ENDBRANCH   6  22
BRANCH   8  24
ATOM     24  O   UNL     1      16.051   3.392  -9.399  1.00  0.00    -0.508 OA
ATOM     25  H   UNL     1      15.345   3.821  -8.812  1.00  0.00     0.293 HD
ENDBRANCH   8  24
TORSDOF 5
ENDMDL
MODEL 3
REMARK VINA RESULT:    -5.812      3.624      5.129
REMARK INTER + INTRA:          -7.055
REMARK INTER:                  -6.956
REMARK INTRA:                  -0.100
REMARK UNBOUND:                -0.224
REMARK SMILES O=c1c(O)c(-c2ccc(O)cc2)oc2cc(O)cc(O)c12
REMARK SMILES IDX 5 1 3 2 2 3 1 4 21 5 19 6 18 7 16 8 15 9 14 10 13 11 6 12
REMARK SMILES IDX 7 13 8 14 9 15 12 16 11 17 10 18 4 20 20 22 17 24
REMARK H PARENT 10 19 4 21 20 23 17 25
REMARK Flexibility Score: inf
ROOT
ATOM      1  C   UNL     1      20.432   0.455 -17.171  1.00  0.00     0.180 A 
ATOM      2  C   UNL     1      19.203   0.456 -16.490  1.00  0.00     0.208 A 
ATOM      3  C   UNL     1      19.170   0.853 -15.144  1.00  0.00     0.238 A 
ATOM      4  O   UNL     1      18.076   0.799 -14.525  1.00  0.00    -0.285 OA
ATOM      5  C   UNL     1      20.363   1.260 -14.500  1.00  0.00     0.111 A 
ATOM      6  C   UNL     1      20.440   1.719 -13.151  1.00  0.00     0.134 A 
ATOM      7  C   UNL     1      21.692   1.973 -12.578  1.00  0.00     0.093 A 
ATOM      8  C   UNL     1      22.865   1.845 -13.325  1.00  0.00     0.123 A 
ATOM      9  C   UNL     1      22.796   1.454 -14.660  1.00  0.00     0.094 A 
ATOM     10  C   UNL     1      21.564   1.160 -15.249  1.00  0.00     0.146 A 
ATOM     11  O   UNL     1      21.544   0.780 -16.522  1.00  0.00    -0.452 OA
ENDROOT
BRANCH   1  12
ATOM     12  C   UNL     1      20.544   0.074 -18.598  1.00  0.00     0.021 A 
ATOM     13  C   UNL     1      21.005   0.986 -19.565  1.00  0.00     0.016 A 
ATOM     14  C   UNL     1      21.125   0.597 -20.903  1.00  0.00     0.047 A 
ATOM     15  C   UNL     1      20.799  -0.710 -21.289  1.00  0.00     0.115 A 
ATOM     16  C   UNL     1      20.238  -1.240 -18.990  1.00  0.00     0.016 A 
ATOM     17  C   UNL     1      20.358  -1.625 -20.328  1.00  0.00     0.047 A 
BRANCH  15  18
ATOM     18  O   UNL     1      20.912  -1.109 -22.618  1.00  0.00    -0.508 OA
ATOM     19  H   UNL     1      21.806  -1.110 -23.096  1.00  0.00     0.293 HD
ENDBRANCH  15  18
ENDBRANCH   1  12
BRANCH   2  20
ATOM     20  O   UNL     1      18.040   0.029 -17.138  1.00  0.00    -0.502 OA
ATOM     21  H   UNL     1      17.935  -0.909 -17.506  1.00  0.00     0.293 HD
ENDBRANCH   2  20
BRANCH   6  22
ATOM     22  O   UNL     1      19.324   1.969 -12.347  1.00  0.00    -0.507 OA
ATOM     23  H   UNL     1      18.576   1.313 -12.182  1.00  0.00     0.293 HD
ENDBRANCH   6  22
BRANCH   8  24
ATOM     24  O   UNL     1      24.107   2.113 -12.752  1.00  0.00    -0.508 OA
ATOM     25  H   UNL     1      24.274   2.963 -12.225  1.00  0.00     0.293 HD
ENDBRANCH   8  24
TORSDOF 5
ENDMDL
MODEL 4
REMARK VINA RESULT:    -5.788      9.906     12.370
REMARK INTER + INTRA:          -7.027
REMARK INTER:                  -6.840
REMARK INTRA:                  -0.186
REMARK UNBOUND:                -0.224
REMARK SMILES O=c1c(O)c(-c2ccc(O)cc2)oc2cc(O)cc(O)c12
REMARK SMILES IDX 5 1 3 2 2 3 1 4 21 5 19 6 18 7 16 8 15 9 14 10 13 11 6 12
REMARK SMILES IDX 7 13 8 14 9 15 12 16 11 17 10 18 4 20 20 22 17 24
REMARK H PARENT 10 19 4 21 20 23 17 25
REMARK Flexibility Score: inf
ROOT
ATOM      1  C   UNL     1      10.431  -7.121 -10.032  1.00  0.00     0.180 A 
ATOM      2  C   UNL     1      10.197  -7.199  -8.649  1.00  0.00     0.208 A 
ATOM      3  C   UNL     1       9.166  -6.428  -8.088  1.00  0.00     0.238 A 
ATOM      4  O   UNL     1       8.998  -6.460  -6.841  1.00  0.00    -0.285 OA
ATOM      5  C   UNL     1       8.372  -5.602  -8.919  1.00  0.00     0.111 A 
ATOM      6  C   UNL     1       7.276  -4.808  -8.464  1.00  0.00     0.134 A 
ATOM      7  C   UNL     1       6.644  -3.930  -9.352  1.00  0.00     0.093 A 
ATOM      8  C   UNL     1       7.026  -3.864 -10.694  1.00  0.00     0.123 A 
ATOM      9  C   UNL     1       8.056  -4.677 -11.162  1.00  0.00     0.094 A 
ATOM     10  C   UNL     1       8.729  -5.538 -10.291  1.00  0.00     0.146 A 
ATOM     11  O   UNL     1       9.711  -6.288 -10.776  1.00  0.00    -0.452 OA
ENDROOT
BRANCH   1  12
ATOM     12  C   UNL     1      11.482  -7.922 -10.701  1.00  0.00     0.021 A 
ATOM     13  C   UNL     1      11.389  -9.324 -10.789  1.00  0.00     0.016 A 
ATOM     14  C   UNL     1      12.382 -10.057 -11.446  1.00  0.00     0.047 A 
ATOM     15  C   UNL     1      13.471  -9.401 -12.034  1.00  0.00     0.115 A 
ATOM     16  C   UNL     1      12.566  -7.270 -11.310  1.00  0.00     0.016 A 
ATOM     17  C   UNL     1      13.557  -8.007 -11.966  1.00  0.00     0.047 A 
BRANCH  15  18
ATOM     18  O   UNL     1      14.466 -10.120 -12.690  1.00  0.00    -0.508 OA
ATOM     19  H   UNL     1      14.732  -9.907 -13.645  1.00  0.00     0.293 HD
ENDBRANCH  15  18
ENDBRANCH   1  12
BRANCH   2  20
ATOM     20  O   UNL     1      11.007  -8.003  -7.843  1.00  0.00    -0.502 OA
ATOM     21  H   UNL     1      11.836  -8.467  -8.194  1.00  0.00     0.293 HD
ENDBRANCH   2  20
BRANCH   6  22
ATOM     22  O   UNL     1       6.756  -4.867  -7.168  1.00  0.00    -0.507 OA
ATOM     23  H   UNL     1       6.996  -4.230  -6.423  1.00  0.00     0.293 HD
ENDBRANCH   6  22
BRANCH   8  24
ATOM     24  O   UNL     1       6.382  -2.998 -11.575  1.00  0.00    -0.508 OA
ATOM     25  H   UNL     1       6.683  -2.037 -11.689  1.00  0.00     0.293 HD
ENDBRANCH   8  24
TORSDOF 5
ENDMDL
MODEL 5
REMARK VINA RESULT:    -5.774      6.219      8.379
REMARK INTER + INTRA:          -7.010
REMARK INTER:                  -6.727
REMARK INTRA:                  -0.284
REMARK UNBOUND:                -0.224
REMARK SMILES O=c1c(O)c(-c2ccc(O)cc2)oc2cc(O)cc(O)c12
REMARK SMILES IDX 5 1 3 2 2 3 1 4 21 5 19 6 18 7 16 8 15 9 14 10 13 11 6 12
REMARK SMILES IDX 7 13 8 14 9 15 12 16 11 17 10 18 4 20 20 22 17 24
REMARK H PARENT 10 19 4 21 20 23 17 25
REMARK Flexibility Score: inf
ROOT
ATOM      1  C   UNL     1      18.062  -2.415  -9.026  1.00  0.00     0.180 A 
ATOM      2  C   UNL     1      17.293  -1.240  -9.057  1.00  0.00     0.208 A 
ATOM      3  C   UNL     1      16.234  -1.142  -9.974  1.00  0.00     0.238 A 
ATOM      4  O   UNL     1      15.584  -0.067 -10.034  1.00  0.00    -0.285 OA
ATOM      5  C   UNL     1      15.948  -2.227 -10.837  1.00  0.00     0.111 A 
ATOM      6  C   UNL     1      14.874  -2.253 -11.777  1.00  0.00     0.134 A 
ATOM      7  C   UNL     1      14.764  -3.326 -12.670  1.00  0.00     0.093 A 
ATOM      8  C   UNL     1      15.650  -4.404 -12.613  1.00  0.00     0.123 A 
ATOM      9  C   UNL     1      16.666  -4.416 -11.660  1.00  0.00     0.094 A 
ATOM     10  C   UNL     1      16.822  -3.343 -10.779  1.00  0.00     0.146 A 
ATOM     11  O   UNL     1      17.810  -3.390  -9.893  1.00  0.00    -0.452 OA
ENDROOT
BRANCH   1  12
ATOM     12  C   UNL     1      19.179  -2.603  -8.071  1.00  0.00     0.021 A 
ATOM     13  C   UNL     1      18.946  -3.004  -6.742  1.00  0.00     0.016 A 
ATOM     14  C   UNL     1      20.017  -3.198  -5.865  1.00  0.00     0.047 A 
ATOM     15  C   UNL     1      21.333  -3.007  -6.306  1.00  0.00     0.115 A 
ATOM     16  C   UNL     1      20.502  -2.434  -8.511  1.00  0.00     0.016 A 
ATOM     17  C   UNL     1      21.571  -2.628  -7.631  1.00  0.00     0.047 A 
BRANCH  15  18
ATOM     18  O   UNL     1      22.408  -3.196  -5.441  1.00  0.00    -0.508 OA
ATOM     19  H   UNL     1      22.997  -4.019  -5.501  1.00  0.00     0.293 HD
ENDBRANCH  15  18
ENDBRANCH   1  12
BRANCH   2  20
ATOM     20  O   UNL     1      17.607  -0.172  -8.212  1.00  0.00    -0.502 OA
ATOM     21  H   UNL     1      18.246   0.566  -8.482  1.00  0.00     0.293 HD
ENDBRANCH   2  20
BRANCH   6  22
ATOM     22  O   UNL     1      13.882  -1.273 -11.855  1.00  0.00    -0.507 OA
ATOM     23  H   UNL     1      13.863  -0.428 -11.304  1.00  0.00     0.293 HD
ENDBRANCH   6  22
BRANCH   8  24
ATOM     24  O   UNL     1      15.525  -5.476 -13.496  1.00  0.00    -0.508 OA
ATOM     25  H   UNL     1      15.247  -6.396 -13.175  1.00  0.00     0.293 HD
ENDBRANCH   8  24
TORSDOF 5
ENDMDL
MODEL 6
REMARK VINA RESULT:    -5.690     10.021     12.672
REMARK INTER + INTRA:          -6.912
REMARK INTER:                  -6.663
REMARK INTRA:                  -0.249
REMARK UNBOUND:                -0.224
REMARK SMILES O=c1c(O)c(-c2ccc(O)cc2)oc2cc(O)cc(O)c12
REMARK SMILES IDX 5 1 3 2 2 3 1 4 21 5 19 6 18 7 16 8 15 9 14 10 13 11 6 12
REMARK SMILES IDX 7 13 8 14 9 15 12 16 11 17 10 18 4 20 20 22 17 24
REMARK H PARENT 10 19 4 21 20 23 17 25
REMARK Flexibility Score: inf
ROOT
ATOM      1  C   UNL     1      10.265  -7.953 -10.306  1.00  0.00     0.180 A 
ATOM      2  C   UNL     1      10.236  -8.671  -9.098  1.00  0.00     0.208 A 
ATOM      3  C   UNL     1       9.397  -8.228  -8.063  1.00  0.00     0.238 A 
ATOM      4  O   UNL     1       9.416  -8.843  -6.965  1.00  0.00    -0.285 OA
ATOM      5  C   UNL     1       8.585  -7.085  -8.254  1.00  0.00     0.111 A 
ATOM      6  C   UNL     1       7.668  -6.571  -7.288  1.00  0.00     0.134 A 
ATOM      7  C   UNL     1       7.013  -5.358  -7.535  1.00  0.00     0.093 A 
ATOM      8  C   UNL     1       7.192  -4.675  -8.740  1.00  0.00     0.123 A 
ATOM      9  C   UNL     1       8.040  -5.198  -9.713  1.00  0.00     0.094 A 
ATOM     10  C   UNL     1       8.735  -6.388  -9.481  1.00  0.00     0.146 A 
ATOM     11  O   UNL     1       9.541  -6.846 -10.432  1.00  0.00    -0.452 OA
ENDROOT
BRANCH   1  12
ATOM     12  C   UNL     1      11.105  -8.371 -11.452  1.00  0.00     0.021 A 
ATOM     13  C   UNL     1      12.490  -8.121 -11.475  1.00  0.00     0.016 A 
ATOM     14  C   UNL     1      13.267  -8.546 -12.557  1.00  0.00     0.047 A 
ATOM     15  C   UNL     1      12.674  -9.237 -13.622  1.00  0.00     0.115 A 
ATOM     16  C   UNL     1      10.522  -9.082 -12.514  1.00  0.00     0.016 A 
ATOM     17  C   UNL     1      11.302  -9.504 -13.595  1.00  0.00     0.047 A 
BRANCH  15  18
ATOM     18  O   UNL     1      13.437  -9.663 -14.706  1.00  0.00    -0.508 OA
ATOM     19  H   UNL     1      13.107  -9.559 -15.659  1.00  0.00     0.293 HD
ENDBRANCH  15  18
ENDBRANCH   1  12
BRANCH   2  20
ATOM     20  O   UNL     1      11.062  -9.784  -8.921  1.00  0.00    -0.502 OA
ATOM     21  H   UNL     1      11.040 -10.351  -8.083  1.00  0.00     0.293 HD
ENDBRANCH   2  20
BRANCH   6  22
ATOM     22  O   UNL     1       7.347  -7.222  -6.094  1.00  0.00    -0.507 OA
ATOM     23  H   UNL     1       7.740  -6.997  -5.193  1.00  0.00     0.293 HD
ENDBRANCH   6  22
BRANCH   8  24
ATOM     24  O   UNL     1       6.525  -3.476  -8.984  1.00  0.00    -0.508 OA
ATOM     25  H   UNL     1       6.966  -2.718  -9.491  1.00  0.00     0.293 HD
ENDBRANCH   8  24
TORSDOF 5
ENDMDL
MODEL 7
REMARK VINA RESULT:    -5.646      2.249      6.636
REMARK INTER + INTRA:          -6.860
REMARK INTER:                  -6.571
REMARK INTRA:                  -0.289
REMARK UNBOUND:                -0.224
REMARK SMILES O=c1c(O)c(-c2ccc(O)cc2)oc2cc(O)cc(O)c12
REMARK SMILES IDX 5 1 3 2 2 3 1 4 21 5 19 6 18 7 16 8 15 9 14 10 13 11 6 12
REMARK SMILES IDX 7 13 8 14 9 15 12 16 11 17 10 18 4 20 20 22 17 24
REMARK H PARENT 10 19 4 21 20 23 17 25
REMARK Flexibility Score: inf
ROOT
ATOM      1  C   UNL     1      18.083  -0.252 -15.615  1.00  0.00     0.180 A 
ATOM      2  C   UNL     1      19.196   0.446 -15.118  1.00  0.00     0.208 A 
ATOM      3  C   UNL     1      20.238   0.782 -15.997  1.00  0.00     0.238 A 
ATOM      4  O   UNL     1      21.257   1.358 -15.534  1.00  0.00    -0.285 OA
ATOM      5  C   UNL     1      20.147   0.431 -17.365  1.00  0.00     0.111 A 
ATOM      6  C   UNL     1      21.125   0.756 -18.352  1.00  0.00     0.134 A 
ATOM      7  C   UNL     1      20.993   0.245 -19.649  1.00  0.00     0.093 A 
ATOM      8  C   UNL     1      19.885  -0.525 -20.011  1.00  0.00     0.123 A 
ATOM      9  C   UNL     1      18.895  -0.798 -19.070  1.00  0.00     0.094 A 
ATOM     10  C   UNL     1      19.017  -0.332 -17.758  1.00  0.00     0.146 A 
ATOM     11  O   UNL     1      18.055  -0.625 -16.890  1.00  0.00    -0.452 OA
ENDROOT
BRANCH   1  12
ATOM     12  C   UNL     1      16.933  -0.619 -14.757  1.00  0.00     0.021 A 
ATOM     13  C   UNL     1      16.897  -1.845 -14.066  1.00  0.00     0.016 A 
ATOM     14  C   UNL     1      15.813  -2.160 -13.242  1.00  0.00     0.047 A 
ATOM     15  C   UNL     1      14.757  -1.251 -13.087  1.00  0.00     0.115 A 
ATOM     16  C   UNL     1      15.881   0.295 -14.580  1.00  0.00     0.016 A 
ATOM     17  C   UNL     1      14.798  -0.024 -13.756  1.00  0.00     0.047 A 
BRANCH  15  18
ATOM     18  O   UNL     1      13.671  -1.555 -12.271  1.00  0.00    -0.508 OA
ATOM     19  H   UNL     1      12.990  -2.257 -12.536  1.00  0.00     0.293 HD
ENDBRANCH  15  18
ENDBRANCH   1  12
BRANCH   2  20
ATOM     20  O   UNL     1      19.277   0.764 -13.759  1.00  0.00    -0.502 OA
ATOM     21  H   UNL     1      18.537   0.545 -13.104  1.00  0.00     0.293 HD
ENDBRANCH   2  20
BRANCH   6  22
ATOM     22  O   UNL     1      22.220   1.592 -18.120  1.00  0.00    -0.507 OA
ATOM     23  H   UNL     1      22.326   2.190 -17.315  1.00  0.00     0.293 HD
ENDBRANCH   6  22
BRANCH   8  24
ATOM     24  O   UNL     1      19.753  -1.017 -21.308  1.00  0.00    -0.508 OA
ATOM     25  H   UNL     1      19.490  -1.980 -21.485  1.00  0.00     0.293 HD
ENDBRANCH   8  24
TORSDOF 5
ENDMDL
MODEL 8
REMARK VINA RESULT:    -5.573     10.448     12.602
REMARK INTER + INTRA:          -6.774
REMARK INTER:                  -6.482
REMARK INTRA:                  -0.292
REMARK UNBOUND:                -0.224
REMARK SMILES O=c1c(O)c(-c2ccc(O)cc2)oc2cc(O)cc(O)c12
REMARK SMILES IDX 5 1 3 2 2 3 1 4 21 5 19 6 18 7 16 8 15 9 14 10 13 11 6 12
REMARK SMILES IDX 7 13 8 14 9 15 12 16 11 17 10 18 4 20 20 22 17 24
REMARK H PARENT 10 19 4 21 20 23 17 25
REMARK Flexibility Score: inf
ROOT
ATOM      1  C   UNL     1       8.094   3.731 -17.887  1.00  0.00     0.180 A 
ATOM      2  C   UNL     1       7.748   5.085 -17.742  1.00  0.00     0.208 A 
ATOM      3  C   UNL     1       8.770   6.045 -17.670  1.00  0.00     0.238 A 
ATOM      4  O   UNL     1       8.456   7.249 -17.486  1.00  0.00    -0.285 OA
ATOM      5  C   UNL     1      10.124   5.641 -17.759  1.00  0.00     0.111 A 
ATOM      6  C   UNL     1      11.239   6.531 -17.738  1.00  0.00     0.134 A 
ATOM      7  C   UNL     1      12.538   6.011 -17.702  1.00  0.00     0.093 A 
ATOM      8  C   UNL     1      12.764   4.633 -17.752  1.00  0.00     0.123 A 
ATOM      9  C   UNL     1      11.684   3.757 -17.833  1.00  0.00     0.094 A 
ATOM     10  C   UNL     1      10.375   4.246 -17.835  1.00  0.00     0.146 A 
ATOM     11  O   UNL     1       9.374   3.376 -17.902  1.00  0.00    -0.452 OA
ENDROOT
BRANCH   1  12
ATOM     12  C   UNL     1       7.073   2.663 -17.996  1.00  0.00     0.021 A 
ATOM     13  C   UNL     1       6.472   2.347 -19.229  1.00  0.00     0.016 A 
ATOM     14  C   UNL     1       5.528   1.319 -19.312  1.00  0.00     0.047 A 
ATOM     15  C   UNL     1       5.182   0.585 -18.169  1.00  0.00     0.115 A 
ATOM     16  C   UNL     1       6.735   1.909 -16.859  1.00  0.00     0.016 A 
ATOM     17  C   UNL     1       5.791   0.883 -16.946  1.00  0.00     0.047 A 
BRANCH  15  18
ATOM     18  O   UNL     1       4.242  -0.439 -18.239  1.00  0.00    -0.508 OA
ATOM     19  H   UNL     1       4.108  -1.088 -17.471  1.00  0.00     0.293 HD
ENDBRANCH  15  18
ENDBRANCH   1  12
BRANCH   2  20
ATOM     20  O   UNL     1       6.406   5.460 -17.633  1.00  0.00    -0.502 OA
ATOM     21  H   UNL     1       5.783   5.058 -16.944  1.00  0.00     0.293 HD
ENDBRANCH   2  20
BRANCH   6  22
ATOM     22  O   UNL     1      11.126   7.924 -17.779  1.00  0.00    -0.507 OA
ATOM     23  H   UNL     1      11.550   8.515 -18.477  1.00  0.00     0.293 HD
ENDBRANCH   6  22
BRANCH   8  24
ATOM     24  O   UNL     1      14.061   4.123 -17.732  1.00  0.00    -0.508 OA
ATOM     25  H   UNL     1      14.259   3.170 -18.013  1.00  0.00     0.293 HD
ENDBRANCH   8  24
TORSDOF 5
ENDMDL
MODEL 9
REMARK VINA RESULT:    -5.554      5.145      7.247
REMARK INTER + INTRA:          -6.751
REMARK INTER:                  -6.480
REMARK INTRA:                  -0.271
REMARK UNBOUND:                -0.224
REMARK SMILES O=c1c(O)c(-c2ccc(O)cc2)oc2cc(O)cc(O)c12
REMARK SMILES IDX 5 1 3 2 2 3 1 4 21 5 19 6 18 7 16 8 15 9 14 10 13 11 6 12
REMARK SMILES IDX 7 13 8 14 9 15 12 16 11 17 10 18 4 20 20 22 17 24
REMARK H PARENT 10 19 4 21 20 23 17 25
REMARK Flexibility Score: inf
ROOT
ATOM      1  C   UNL     1      15.860  -1.311 -11.441  1.00  0.00     0.180 A 
ATOM      2  C   UNL     1      15.785  -2.696 -11.216  1.00  0.00     0.208 A 
ATOM      3  C   UNL     1      16.521  -3.256 -10.160  1.00  0.00     0.238 A 
ATOM      4  O   UNL     1      16.492  -4.504  -9.999  1.00  0.00    -0.285 OA
ATOM      5  C   UNL     1      17.310  -2.423  -9.332  1.00  0.00     0.111 A 
ATOM      6  C   UNL     1      18.065  -2.877  -8.209  1.00  0.00     0.134 A 
ATOM      7  C   UNL     1      18.912  -1.985  -7.540  1.00  0.00     0.093 A 
ATOM      8  C   UNL     1      18.982  -0.641  -7.912  1.00  0.00     0.123 A 
ATOM      9  C   UNL     1      18.204  -0.175  -8.970  1.00  0.00     0.094 A 
ATOM     10  C   UNL     1      17.376  -1.049  -9.679  1.00  0.00     0.146 A 
ATOM     11  O   UNL     1      16.660  -0.564 -10.687  1.00  0.00    -0.452 OA
ENDROOT
BRANCH   1  12
ATOM     12  C   UNL     1      15.094  -0.643 -12.518  1.00  0.00     0.021 A 
ATOM     13  C   UNL     1      13.725  -0.351 -12.370  1.00  0.00     0.016 A 
ATOM     14  C   UNL     1      13.028   0.302 -13.391  1.00  0.00     0.047 A 
ATOM     15  C   UNL     1      13.690   0.682 -14.565  1.00  0.00     0.115 A 
ATOM     16  C   UNL     1      15.755  -0.241 -13.690  1.00  0.00     0.016 A 
ATOM     17  C   UNL     1      15.054   0.411 -14.709  1.00  0.00     0.047 A 
BRANCH  15  18
ATOM     18  O   UNL     1      13.006   1.331 -15.590  1.00  0.00    -0.508 OA
ATOM     19  H   UNL     1      13.492   1.704 -16.398  1.00  0.00     0.293 HD
ENDBRANCH  15  18
ENDBRANCH   1  12
BRANCH   2  20
ATOM     20  O   UNL     1      15.018  -3.504 -12.060  1.00  0.00    -0.502 OA
ATOM     21  H   UNL     1      14.069  -3.270 -12.324  1.00  0.00     0.293 HD
ENDBRANCH   2  20
BRANCH   6  22
ATOM     22  O   UNL     1      17.998  -4.176  -7.698  1.00  0.00    -0.507 OA
ATOM     23  H   UNL     1      17.323  -4.871  -7.980  1.00  0.00     0.293 HD
ENDBRANCH   6  22
BRANCH   8  24
ATOM     24  O   UNL     1      19.816   0.244  -7.232  1.00  0.00    -0.508 OA
ATOM     25  H   UNL     1      19.446   1.051  -6.744  1.00  0.00     0.293 HD
ENDBRANCH   8  24
TORSDOF 5
ENDMDL
