MODEL 1
REMARK VINA RESULT:    -3.075      0.000      0.000
REMARK INTER + INTRA:          -3.911
REMARK INTER:                  -3.704
REMARK INTRA:                  -0.207
REMARK UNBOUND:                -0.207
REMARK SMILES OCC(O)CO
REMARK SMILES IDX 3 1 5 2 6 3 2 5 1 6 4 8
REMARK H PARENT 6 4 1 7 4 9
REMARK Flexibility Score: inf
ROOT
ATOM      1  C   UNL     1       9.631 -26.472  31.946  1.00  0.00     0.165 C 
ENDROOT
BRANCH   1   2
ATOM      2  C   UNL     1       8.570 -27.225  32.762  1.00  0.00     0.190 C 
BRANCH   2   3
ATOM      3  O   UNL     1       9.002 -27.397  34.084  1.00  0.00    -0.394 OA
ATOM      4  H   UNL     1       9.629 -28.166  34.070  1.00  0.00     0.210 HD
ENDBRANCH   2   3
ENDBRANCH   1   2
BRANCH   1   5
ATOM      5  C   UNL     1       9.429 -24.954  32.041  1.00  0.00     0.190 C 
BRANCH   5   6
ATOM      6  O   UNL     1       8.324 -24.657  32.852  1.00  0.00    -0.394 OA
ATOM      7  H   UNL     1       7.682 -24.154  32.285  1.00  0.00     0.210 HD
ENDBRANCH   5   6
ENDBRANCH   1   5
BRANCH   1   8
ATOM      8  O   UNL     1       9.573 -26.867  30.600  1.00  0.00    -0.388 OA
ATOM      9  H   UNL     1       8.611 -26.927  30.359  1.00  0.00     0.211 HD
ENDBRANCH   1   8
TORSDOF 5
ENDMDL
MODEL 2
REMARK VINA RESULT:    -3.055      0.671      2.387
REMARK INTER + INTRA:          -3.887
REMARK INTER:                  -3.673
REMARK INTRA:                  -0.214
REMARK UNBOUND:                -0.207
REMARK SMILES OCC(O)CO
REMARK SMILES IDX 3 1 5 2 6 3 2 5 1 6 4 8
REMARK H PARENT 6 4 1 7 4 9
REMARK Flexibility Score: inf
ROOT
ATOM      1  C   UNL     1       9.407 -26.449  31.711  1.00  0.00     0.165 C 
ENDROOT
BRANCH   1   2
ATOM      2  C   UNL     1       9.429 -24.963  32.096  1.00  0.00     0.190 C 
BRANCH   2   3
ATOM      3  O   UNL     1       8.302 -24.640  32.864  1.00  0.00    -0.394 OA
ATOM      4  H   UNL     1       8.419 -25.106  33.731  1.00  0.00     0.210 HD
ENDBRANCH   2   3
ENDBRANCH   1   2
BRANCH   1   5
ATOM      5  C   UNL     1       8.542 -27.262  32.684  1.00  0.00     0.190 C 
BRANCH   5   6
ATOM      6  O   UNL     1       9.167 -27.352  33.936  1.00  0.00    -0.394 OA
ATOM      7  H   UNL     1       9.458 -26.434  34.177  1.00  0.00     0.210 HD
ENDBRANCH   5   6
ENDBRANCH   1   5
BRANCH   1   8
ATOM      8  O   UNL     1      10.713 -26.965  31.706  1.00  0.00    -0.388 OA
ATOM      9  H   UNL     1      10.956 -27.122  30.756  1.00  0.00     0.211 HD
ENDBRANCH   1   8
TORSDOF 5
ENDMDL
MODEL 3
REMARK VINA RESULT:    -2.933      1.963      3.315
REMARK INTER + INTRA:          -3.740
REMARK INTER:                  -3.517
REMARK INTRA:                  -0.224
REMARK UNBOUND:                -0.207
REMARK SMILES OCC(O)CO
REMARK SMILES IDX 3 1 5 2 6 3 2 5 1 6 4 8
REMARK H PARENT 6 4 1 7 4 9
REMARK Flexibility Score: inf
ROOT
ATOM      1  C   UNL     1       8.010 -28.651  33.284  1.00  0.00     0.165 C 
ENDROOT
BRANCH   1   2
ATOM      2  C   UNL     1       8.438 -27.531  32.325  1.00  0.00     0.190 C 
BRANCH   2   3
ATOM      3  O   UNL     1       8.568 -26.319  33.016  1.00  0.00    -0.394 OA
ATOM      4  H   UNL     1       9.333 -25.845  32.598  1.00  0.00     0.210 HD
ENDBRANCH   2   3
ENDBRANCH   1   2
BRANCH   1   5
ATOM      5  C   UNL     1       8.983 -28.774  34.464  1.00  0.00     0.190 C 
BRANCH   5   6
ATOM      6  O   UNL     1       8.608 -27.906  35.500  1.00  0.00    -0.394 OA
ATOM      7  H   UNL     1       8.679 -26.984  35.139  1.00  0.00     0.210 HD
ENDBRANCH   5   6
ENDBRANCH   1   5
BRANCH   1   8
ATOM      8  O   UNL     1       7.950 -29.875  32.599  1.00  0.00    -0.388 OA
ATOM      9  H   UNL     1       7.018 -30.206  32.681  1.00  0.00     0.211 HD
ENDBRANCH   1   8
TORSDOF 5
ENDMDL
MODEL 4
REMARK VINA RESULT:    -2.914      1.180      2.249
REMARK INTER + INTRA:          -3.717
REMARK INTER:                  -3.705
REMARK INTRA:                  -0.012
REMARK UNBOUND:                -0.207
REMARK SMILES OCC(O)CO
REMARK SMILES IDX 3 1 5 2 6 3 2 5 1 6 4 8
REMARK H PARENT 6 4 1 7 4 9
REMARK Flexibility Score: inf
ROOT
ATOM      1  C   UNL     1       9.294 -26.323  32.004  1.00  0.00     0.165 C 
ENDROOT
BRANCH   1   2
ATOM      2  C   UNL     1      10.555 -26.937  31.381  1.00  0.00     0.190 C 
BRANCH   2   3
ATOM      3  O   UNL     1      11.557 -25.966  31.249  1.00  0.00    -0.394 OA
ATOM      4  H   UNL     1      12.215 -26.337  30.605  1.00  0.00     0.210 HD
ENDBRANCH   2   3
ENDBRANCH   1   2
BRANCH   1   5
ATOM      5  C   UNL     1       9.409 -24.795  32.100  1.00  0.00     0.190 C 
BRANCH   5   6
ATOM      6  O   UNL     1       8.441 -24.286  32.977  1.00  0.00    -0.394 OA
ATOM      7  H   UNL     1       8.059 -25.063  33.463  1.00  0.00     0.210 HD
ENDBRANCH   5   6
ENDBRANCH   1   5
BRANCH   1   8
ATOM      8  O   UNL     1       9.081 -26.856  33.286  1.00  0.00    -0.388 OA
ATOM      9  H   UNL     1       8.239 -26.457  33.627  1.00  0.00     0.211 HD
ENDBRANCH   1   8
TORSDOF 5
ENDMDL
MODEL 5
REMARK VINA RESULT:    -2.853      2.376      3.177
REMARK INTER + INTRA:          -3.643
REMARK INTER:                  -3.632
REMARK INTRA:                  -0.011
REMARK UNBOUND:                -0.207
REMARK SMILES OCC(O)CO
REMARK SMILES IDX 3 1 5 2 6 3 2 5 1 6 4 8
REMARK H PARENT 6 4 1 7 4 9
REMARK Flexibility Score: inf
ROOT
ATOM      1  C   UNL     1      10.219 -25.236  30.922  1.00  0.00     0.165 C 
ENDROOT
BRANCH   1   2
ATOM      2  C   UNL     1       9.306 -25.032  32.140  1.00  0.00     0.190 C 
BRANCH   2   3
ATOM      3  O   UNL     1       9.618 -23.829  32.787  1.00  0.00    -0.394 OA
ATOM      4  H   UNL     1       9.282 -23.922  33.716  1.00  0.00     0.210 HD
ENDBRANCH   2   3
ENDBRANCH   1   2
BRANCH   1   5
ATOM      5  C   UNL     1      11.024 -26.537  31.044  1.00  0.00     0.190 C 
BRANCH   5   6
ATOM      6  O   UNL     1      12.372 -26.254  31.307  1.00  0.00    -0.394 OA
ATOM      7  H   UNL     1      12.606 -26.733  32.146  1.00  0.00     0.210 HD
ENDBRANCH   5   6
ENDBRANCH   1   5
BRANCH   1   8
ATOM      8  O   UNL     1      11.101 -24.151  30.793  1.00  0.00    -0.388 OA
ATOM      9  H   UNL     1      11.554 -24.043  31.669  1.00  0.00     0.211 HD
ENDBRANCH   1   8
TORSDOF 5
ENDMDL
MODEL 6
REMARK VINA RESULT:    -2.843      1.893      2.648
REMARK INTER + INTRA:          -3.631
REMARK INTER:                  -3.427
REMARK INTRA:                  -0.204
REMARK UNBOUND:                -0.207
REMARK SMILES OCC(O)CO
REMARK SMILES IDX 3 1 5 2 6 3 2 5 1 6 4 8
REMARK H PARENT 6 4 1 7 4 9
REMARK Flexibility Score: inf
ROOT
ATOM      1  C   UNL     1       8.525 -28.748  32.954  1.00  0.00     0.165 C 
ENDROOT
BRANCH   1   2
ATOM      2  C   UNL     1       9.308 -28.582  34.264  1.00  0.00     0.190 C 
BRANCH   2   3
ATOM      3  O   UNL     1       8.508 -27.969  35.237  1.00  0.00    -0.394 OA
ATOM      4  H   UNL     1       7.582 -28.286  35.072  1.00  0.00     0.210 HD
ENDBRANCH   2   3
ENDBRANCH   1   2
BRANCH   1   5
ATOM      5  C   UNL     1       8.447 -27.423  32.183  1.00  0.00     0.190 C 
BRANCH   5   6
ATOM      6  O   UNL     1       8.831 -26.355  33.005  1.00  0.00    -0.394 OA
ATOM      7  H   UNL     1       8.565 -25.522  32.534  1.00  0.00     0.210 HD
ENDBRANCH   5   6
ENDBRANCH   1   5
BRANCH   1   8
ATOM      8  O   UNL     1       7.226 -29.208  33.224  1.00  0.00    -0.388 OA
ATOM      9  H   UNL     1       6.634 -28.822  32.527  1.00  0.00     0.211 HD
ENDBRANCH   1   8
TORSDOF 5
ENDMDL
MODEL 7
REMARK VINA RESULT:    -2.823      1.549      3.183
REMARK INTER + INTRA:          -3.607
REMARK INTER:                  -3.604
REMARK INTRA:                  -0.003
REMARK UNBOUND:                -0.207
REMARK SMILES OCC(O)CO
REMARK SMILES IDX 3 1 5 2 6 3 2 5 1 6 4 8
REMARK H PARENT 6 4 1 7 4 9
REMARK Flexibility Score: inf
ROOT
ATOM      1  C   UNL     1       9.493 -25.239  32.224  1.00  0.00     0.165 C 
ENDROOT
BRANCH   1   2
ATOM      2  C   UNL     1       9.945 -24.835  30.813  1.00  0.00     0.190 C 
BRANCH   2   3
ATOM      3  O   UNL     1      10.993 -23.908  30.882  1.00  0.00    -0.394 OA
ATOM      4  H   UNL     1      11.422 -24.045  31.766  1.00  0.00     0.210 HD
ENDBRANCH   2   3
ENDBRANCH   1   2
BRANCH   1   5
ATOM      5  C   UNL     1       8.826 -26.621  32.219  1.00  0.00     0.190 C 
BRANCH   5   6
ATOM      6  O   UNL     1       8.511 -27.017  33.527  1.00  0.00    -0.394 OA
ATOM      7  H   UNL     1       9.363 -27.026  34.036  1.00  0.00     0.210 HD
ENDBRANCH   5   6
ENDBRANCH   1   5
BRANCH   1   8
ATOM      8  O   UNL     1       8.594 -24.289  32.733  1.00  0.00    -0.388 OA
ATOM      9  H   UNL     1       7.934 -24.105  32.015  1.00  0.00     0.211 HD
ENDBRANCH   1   8
TORSDOF 5
ENDMDL
MODEL 8
REMARK VINA RESULT:    -2.801      1.823      2.819
REMARK INTER + INTRA:          -3.581
REMARK INTER:                  -3.578
REMARK INTRA:                  -0.002
REMARK UNBOUND:                -0.207
REMARK SMILES OCC(O)CO
REMARK SMILES IDX 3 1 5 2 6 3 2 5 1 6 4 8
REMARK H PARENT 6 4 1 7 4 9
REMARK Flexibility Score: inf
ROOT
ATOM      1  C   UNL     1       8.343 -28.027  33.522  1.00  0.00     0.165 C 
ENDROOT
BRANCH   1   2
ATOM      2  C   UNL     1       8.537 -29.455  32.994  1.00  0.00     0.190 C 
BRANCH   2   3
ATOM      3  O   UNL     1       7.307 -30.123  32.929  1.00  0.00    -0.394 OA
ATOM      4  H   UNL     1       6.612 -29.417  32.902  1.00  0.00     0.210 HD
ENDBRANCH   2   3
ENDBRANCH   1   2
BRANCH   1   5
ATOM      5  C   UNL     1       8.888 -26.989  32.531  1.00  0.00     0.190 C 
BRANCH   5   6
ATOM      6  O   UNL     1       8.474 -25.700  32.896  1.00  0.00    -0.394 OA
ATOM      7  H   UNL     1       8.796 -25.549  33.823  1.00  0.00     0.210 HD
ENDBRANCH   5   6
ENDBRANCH   1   5
BRANCH   1   8
ATOM      8  O   UNL     1       8.993 -27.878  34.758  1.00  0.00    -0.388 OA
ATOM      9  H   UNL     1       9.261 -28.787  35.053  1.00  0.00     0.211 HD
ENDBRANCH   1   8
TORSDOF 5
ENDMDL
MODEL 9
REMARK VINA RESULT:    -2.796      1.225      1.918
REMARK INTER + INTRA:          -3.575
REMARK INTER:                  -3.565
REMARK INTRA:                  -0.009
REMARK UNBOUND:                -0.207
REMARK SMILES OCC(O)CO
REMARK SMILES IDX 3 1 5 2 6 3 2 5 1 6 4 8
REMARK H PARENT 6 4 1 7 4 9
REMARK Flexibility Score: inf
ROOT
ATOM      1  C   UNL     1       8.721 -26.652  32.212  1.00  0.00     0.165 C 
ENDROOT
BRANCH   1   2
ATOM      2  C   UNL     1       8.369 -27.800  33.168  1.00  0.00     0.190 C 
BRANCH   2   3
ATOM      3  O   UNL     1       9.041 -27.645  34.387  1.00  0.00    -0.394 OA
ATOM      4  H   UNL     1       9.513 -28.501  34.552  1.00  0.00     0.210 HD
ENDBRANCH   2   3
ENDBRANCH   1   2
BRANCH   1   5
ATOM      5  C   UNL     1      10.171 -26.761  31.724  1.00  0.00     0.190 C 
BRANCH   5   6
ATOM      6  O   UNL     1      10.689 -25.489  31.439  1.00  0.00    -0.394 OA
ATOM      7  H   UNL     1       9.916 -24.866  31.412  1.00  0.00     0.210 HD
ENDBRANCH   5   6
ENDBRANCH   1   5
BRANCH   1   8
ATOM      8  O   UNL     1       8.536 -25.416  32.854  1.00  0.00    -0.388 OA
ATOM      9  H   UNL     1       9.332 -25.269  33.428  1.00  0.00     0.211 HD
ENDBRANCH   1   8
TORSDOF 5
ENDMDL
