MODEL 1
REMARK VINA RESULT:    -2.051      0.000      0.000
REMARK INTER + INTRA:          -4.580
REMARK INTER:                  -3.729
REMARK INTRA:                  -0.851
REMARK UNBOUND:                -0.851
REMARK SMILES CCCCCCCCCCCCCC[C@H](C)C(=O)[O-]
REMARK SMILES IDX 9 1 10 2 11 3 12 4 13 5 14 6 15 7 16 8 17 9 18 10 19 11 8 12
REMARK SMILES IDX 7 13 6 14 5 15 4 16 3 17 2 18 1 19
REMARK H PARENT
REMARK Flexibility Score: inf
ROOT
ATOM      1  C   UNL     1       7.146  -4.923  -7.469  1.00  0.00     0.000 C 
ENDROOT
BRANCH   1   2
ATOM      2  C   UNL     1       8.238  -5.703  -8.224  1.00  0.00     0.000 C 
BRANCH   2   3
ATOM      3  C   UNL     1       9.336  -4.791  -8.798  1.00  0.00     0.000 C 
BRANCH   3   4
ATOM      4  C   UNL     1      10.672  -5.524  -9.000  1.00  0.00     0.000 C 
BRANCH   4   5
ATOM      5  C   UNL     1      11.102  -6.318  -7.753  1.00  0.00     0.001 C 
BRANCH   5   6
ATOM      6  C   UNL     1      11.851  -5.445  -6.723  1.00  0.00     0.009 C 
BRANCH   6   7
ATOM      7  C   UNL     1      12.015  -6.123  -5.343  1.00  0.00     0.032 C 
ATOM      8  C   UNL     1      11.287  -7.472  -5.315  1.00  0.00     0.014 C 
BRANCH   7   9
ATOM      9  C   UNL     1      11.514  -5.249  -4.227  1.00  0.00     0.044 C 
ATOM     10  O   UNL     1      11.601  -3.995  -4.308  1.00  0.00    -0.550 OA
ATOM     11  O   UNL     1      10.964  -5.826  -3.089  1.00  0.00    -0.550 OA
ENDBRANCH   7   9
ENDBRANCH   6   7
ENDBRANCH   5   6
ENDBRANCH   4   5
ENDBRANCH   3   4
ENDBRANCH   2   3
ENDBRANCH   1   2
BRANCH   1  12
ATOM     12  C   UNL     1       6.617  -3.674  -8.197  1.00  0.00     0.000 C 
BRANCH  12  13
ATOM     13  C   UNL     1       5.895  -4.008  -9.515  1.00  0.00    -0.000 C 
BRANCH  13  14
ATOM     14  C   UNL     1       4.770  -3.013  -9.839  1.00  0.00    -0.000 C 
BRANCH  14  15
ATOM     15  C   UNL     1       3.373  -3.659  -9.789  1.00  0.00    -0.000 C 
BRANCH  15  16
ATOM     16  C   UNL     1       3.407  -5.161 -10.108  1.00  0.00    -0.000 C 
BRANCH  16  17
ATOM     17  C   UNL     1       2.007  -5.794 -10.125  1.00  0.00    -0.000 C 
BRANCH  17  18
ATOM     18  C   UNL     1       1.812  -6.725  -8.923  1.00  0.00    -0.003 C 
ATOM     19  C   UNL     1       1.235  -8.070  -9.356  1.00  0.00     0.004 C 
ENDBRANCH  17  18
ENDBRANCH  16  17
ENDBRANCH  15  16
ENDBRANCH  14  15
ENDBRANCH  13  14
ENDBRANCH  12  13
ENDBRANCH   1  12
TORSDOF 14
ENDMDL
MODEL 2
REMARK VINA RESULT:    -1.762      3.477      7.742
REMARK INTER + INTRA:          -4.056
REMARK INTER:                  -2.946
REMARK INTRA:                  -1.110
REMARK UNBOUND:                -0.851
REMARK SMILES CCCCCCCCCCCCCC[C@H](C)C(=O)[O-]
REMARK SMILES IDX 9 1 10 2 11 3 12 4 13 5 14 6 15 7 16 8 17 9 18 10 19 11 8 12
REMARK SMILES IDX 7 13 6 14 5 15 4 16 3 17 2 18 1 19
REMARK H PARENT
REMARK Flexibility Score: inf
ROOT
ATOM      1  C   UNL     1      10.990  -7.179  -5.988  1.00  0.00     0.000 C 
ENDROOT
BRANCH   1   2
ATOM      2  C   UNL     1      10.557  -7.883  -7.286  1.00  0.00     0.000 C 
BRANCH   2   3
ATOM      3  C   UNL     1       9.114  -7.544  -7.698  1.00  0.00     0.000 C 
BRANCH   3   4
ATOM      4  C   UNL     1       8.805  -7.932  -9.153  1.00  0.00     0.000 C 
BRANCH   4   5
ATOM      5  C   UNL     1       8.852  -6.726 -10.108  1.00  0.00     0.001 C 
BRANCH   5   6
ATOM      6  C   UNL     1       8.963  -5.380  -9.360  1.00  0.00     0.009 C 
BRANCH   6   7
ATOM      7  C   UNL     1       7.987  -4.301  -9.881  1.00  0.00     0.032 C 
ATOM      8  C   UNL     1       8.657  -2.922  -9.884  1.00  0.00     0.014 C 
BRANCH   7   9
ATOM      9  C   UNL     1       6.721  -4.253  -9.072  1.00  0.00     0.044 C 
ATOM     10  O   UNL     1       6.736  -4.531  -7.843  1.00  0.00    -0.550 OA
ATOM     11  O   UNL     1       5.520  -3.914  -9.682  1.00  0.00    -0.550 OA
ENDBRANCH   7   9
ENDBRANCH   6   7
ENDBRANCH   5   6
ENDBRANCH   4   5
ENDBRANCH   3   4
ENDBRANCH   2   3
ENDBRANCH   1   2
BRANCH   1  12
ATOM     12  C   UNL     1      10.290  -5.835  -5.711  1.00  0.00     0.000 C 
BRANCH  12  13
ATOM     13  C   UNL     1      11.076  -4.627  -6.251  1.00  0.00    -0.000 C 
BRANCH  13  14
ATOM     14  C   UNL     1      11.673  -3.764  -5.129  1.00  0.00    -0.000 C 
BRANCH  14  15
ATOM     15  C   UNL     1      12.118  -4.596  -3.912  1.00  0.00    -0.000 C 
BRANCH  15  16
ATOM     16  C   UNL     1      11.149  -4.470  -2.726  1.00  0.00    -0.000 C 
BRANCH  16  17
ATOM     17  C   UNL     1      10.790  -5.830  -2.108  1.00  0.00    -0.000 C 
BRANCH  17  18
ATOM     18  C   UNL     1      11.610  -6.956  -2.748  1.00  0.00    -0.003 C 
ATOM     19  C   UNL     1      12.125  -7.931  -1.693  1.00  0.00     0.004 C 
ENDBRANCH  17  18
ENDBRANCH  16  17
ENDBRANCH  15  16
ENDBRANCH  14  15
ENDBRANCH  13  14
ENDBRANCH  12  13
ENDBRANCH   1  12
TORSDOF 14
ENDMDL
MODEL 3
REMARK VINA RESULT:    -1.721     13.407     15.488
REMARK INTER + INTRA:          -3.981
REMARK INTER:                  -2.178
REMARK INTRA:                  -1.803
REMARK UNBOUND:                -0.851
REMARK SMILES CCCCCCCCCCCCCC[C@H](C)C(=O)[O-]
REMARK SMILES IDX 9 1 10 2 11 3 12 4 13 5 14 6 15 7 16 8 17 9 18 10 19 11 8 12
REMARK SMILES IDX 7 13 6 14 5 15 4 16 3 17 2 18 1 19
REMARK H PARENT
REMARK Flexibility Score: inf
ROOT
ATOM      1  C   UNL     1      -5.920  -4.286  -4.584  1.00  0.00     0.000 C 
ENDROOT
BRANCH   1   2
ATOM      2  C   UNL     1      -5.716  -5.783  -4.877  1.00  0.00     0.000 C 
BRANCH   2   3
ATOM      3  C   UNL     1      -6.980  -6.621  -4.618  1.00  0.00     0.000 C 
BRANCH   3   4
ATOM      4  C   UNL     1      -7.002  -7.929  -5.424  1.00  0.00     0.000 C 
BRANCH   4   5
ATOM      5  C   UNL     1      -8.123  -7.954  -6.479  1.00  0.00     0.001 C 
BRANCH   5   6
ATOM      6  C   UNL     1      -7.583  -8.125  -7.915  1.00  0.00     0.009 C 
BRANCH   6   7
ATOM      7  C   UNL     1      -7.060  -6.811  -8.538  1.00  0.00     0.032 C 
ATOM      8  C   UNL     1      -7.893  -6.426  -9.766  1.00  0.00     0.014 C 
BRANCH   7   9
ATOM      9  C   UNL     1      -5.608  -6.909  -8.916  1.00  0.00     0.044 C 
ATOM     10  O   UNL     1      -5.246  -6.752 -10.112  1.00  0.00    -0.550 OA
ATOM     11  O   UNL     1      -4.656  -7.191  -7.944  1.00  0.00    -0.550 OA
ENDBRANCH   7   9
ENDBRANCH   6   7
ENDBRANCH   5   6
ENDBRANCH   4   5
ENDBRANCH   3   4
ENDBRANCH   2   3
ENDBRANCH   1   2
BRANCH   1  12
ATOM     12  C   UNL     1      -7.377  -3.866  -4.318  1.00  0.00     0.000 C 
BRANCH  12  13
ATOM     13  C   UNL     1      -8.073  -3.291  -5.565  1.00  0.00    -0.000 C 
BRANCH  13  14
ATOM     14  C   UNL     1      -7.930  -1.764  -5.667  1.00  0.00    -0.000 C 
BRANCH  14  15
ATOM     15  C   UNL     1      -8.052  -1.252  -7.114  1.00  0.00    -0.000 C 
BRANCH  15  16
ATOM     16  C   UNL     1      -8.101  -2.394  -8.142  1.00  0.00    -0.000 C 
BRANCH  16  17
ATOM     17  C   UNL     1      -7.031  -2.251  -9.235  1.00  0.00    -0.000 C 
BRANCH  17  18
ATOM     18  C   UNL     1      -5.820  -3.143  -8.936  1.00  0.00    -0.003 C 
ATOM     19  C   UNL     1      -4.690  -2.888  -9.929  1.00  0.00     0.004 C 
ENDBRANCH  17  18
ENDBRANCH  16  17
ENDBRANCH  15  16
ENDBRANCH  14  15
ENDBRANCH  13  14
ENDBRANCH  12  13
ENDBRANCH   1  12
TORSDOF 14
ENDMDL
MODEL 4
REMARK VINA RESULT:    -1.580     13.861     15.618
REMARK INTER + INTRA:          -3.724
REMARK INTER:                  -3.777
REMARK INTRA:                   0.053
REMARK UNBOUND:                -0.851
REMARK SMILES CCCCCCCCCCCCCC[C@H](C)C(=O)[O-]
REMARK SMILES IDX 9 1 10 2 11 3 12 4 13 5 14 6 15 7 16 8 17 9 18 10 19 11 8 12
REMARK SMILES IDX 7 13 6 14 5 15 4 16 3 17 2 18 1 19
REMARK H PARENT
REMARK Flexibility Score: inf
ROOT
ATOM      1  C   UNL     1      -5.406  -5.353  -5.069  1.00  0.00     0.000 C 
ENDROOT
BRANCH   1   2
ATOM      2  C   UNL     1      -6.659  -4.823  -4.349  1.00  0.00     0.000 C 
BRANCH   2   3
ATOM      3  C   UNL     1      -7.617  -4.071  -5.290  1.00  0.00     0.000 C 
BRANCH   3   4
ATOM      4  C   UNL     1      -7.360  -2.556  -5.310  1.00  0.00     0.000 C 
BRANCH   4   5
ATOM      5  C   UNL     1      -8.124  -1.844  -6.442  1.00  0.00     0.001 C 
BRANCH   5   6
ATOM      6  C   UNL     1      -8.051  -2.610  -7.780  1.00  0.00     0.009 C 
BRANCH   6   7
ATOM      7  C   UNL     1      -7.056  -1.993  -8.790  1.00  0.00     0.032 C 
ATOM      8  C   UNL     1      -7.756  -1.688 -10.120  1.00  0.00     0.014 C 
BRANCH   7   9
ATOM      9  C   UNL     1      -5.873  -2.890  -9.030  1.00  0.00     0.044 C 
ATOM     10  O   UNL     1      -5.707  -3.930  -8.337  1.00  0.00    -0.550 OA
ATOM     11  O   UNL     1      -4.946  -2.566 -10.011  1.00  0.00    -0.550 OA
ENDBRANCH   7   9
ENDBRANCH   6   7
ENDBRANCH   5   6
ENDBRANCH   4   5
ENDBRANCH   3   4
ENDBRANCH   2   3
ENDBRANCH   1   2
BRANCH   1  12
ATOM     12  C   UNL     1      -5.146  -6.860  -4.900  1.00  0.00     0.000 C 
BRANCH  12  13
ATOM     13  C   UNL     1      -6.440  -7.680  -4.754  1.00  0.00    -0.000 C 
BRANCH  13  14
ATOM     14  C   UNL     1      -7.505  -7.289  -5.790  1.00  0.00    -0.000 C 
BRANCH  14  15
ATOM     15  C   UNL     1      -7.383  -8.090  -7.099  1.00  0.00    -0.000 C 
BRANCH  15  16
ATOM     16  C   UNL     1      -5.951  -8.090  -7.658  1.00  0.00    -0.000 C 
BRANCH  16  17
ATOM     17  C   UNL     1      -5.901  -7.748  -9.155  1.00  0.00    -0.000 C 
BRANCH  17  18
ATOM     18  C   UNL     1      -7.307  -7.747  -9.765  1.00  0.00    -0.003 C 
ATOM     19  C   UNL     1      -8.020  -6.422  -9.503  1.00  0.00     0.004 C 
ENDBRANCH  17  18
ENDBRANCH  16  17
ENDBRANCH  15  16
ENDBRANCH  14  15
ENDBRANCH  13  14
ENDBRANCH  12  13
ENDBRANCH   1  12
TORSDOF 14
ENDMDL
MODEL 5
REMARK VINA RESULT:    -1.166     13.153     15.493
REMARK INTER + INTRA:          -2.971
REMARK INTER:                  -1.884
REMARK INTRA:                  -1.087
REMARK UNBOUND:                -0.851
REMARK SMILES CCCCCCCCCCCCCC[C@H](C)C(=O)[O-]
REMARK SMILES IDX 9 1 10 2 11 3 12 4 13 5 14 6 15 7 16 8 17 9 18 10 19 11 8 12
REMARK SMILES IDX 7 13 6 14 5 15 4 16 3 17 2 18 1 19
REMARK H PARENT
REMARK Flexibility Score: inf
ROOT
ATOM      1  C   UNL     1      -5.041  -5.878  -5.964  1.00  0.00     0.000 C 
ENDROOT
BRANCH   1   2
ATOM      2  C   UNL     1      -4.578  -6.171  -7.403  1.00  0.00     0.000 C 
BRANCH   2   3
ATOM      3  C   UNL     1      -5.512  -7.141  -8.147  1.00  0.00     0.000 C 
BRANCH   3   4
ATOM      4  C   UNL     1      -5.867  -6.655  -9.562  1.00  0.00     0.000 C 
BRANCH   4   5
ATOM      5  C   UNL     1      -7.350  -6.265  -9.696  1.00  0.00     0.001 C 
BRANCH   5   6
ATOM      6  C   UNL     1      -7.543  -4.771 -10.032  1.00  0.00     0.009 C 
BRANCH   6   7
ATOM      7  C   UNL     1      -6.909  -3.818  -8.993  1.00  0.00     0.032 C 
ATOM      8  C   UNL     1      -7.934  -3.428  -7.922  1.00  0.00     0.014 C 
BRANCH   7   9
ATOM      9  C   UNL     1      -6.347  -2.581  -9.637  1.00  0.00     0.044 C 
ATOM     10  O   UNL     1      -7.114  -1.696 -10.100  1.00  0.00    -0.550 OA
ATOM     11  O   UNL     1      -4.971  -2.416  -9.738  1.00  0.00    -0.550 OA
ENDBRANCH   7   9
ENDBRANCH   6   7
ENDBRANCH   5   6
ENDBRANCH   4   5
ENDBRANCH   3   4
ENDBRANCH   2   3
ENDBRANCH   1   2
BRANCH   1  12
ATOM     12  C   UNL     1      -4.466  -6.820  -4.891  1.00  0.00     0.000 C 
BRANCH  12  13
ATOM     13  C   UNL     1      -5.468  -7.897  -4.438  1.00  0.00    -0.000 C 
BRANCH  13  14
ATOM     14  C   UNL     1      -6.596  -8.119  -5.458  1.00  0.00    -0.000 C 
BRANCH  14  15
ATOM     15  C   UNL     1      -7.995  -7.905  -4.852  1.00  0.00    -0.000 C 
BRANCH  15  16
ATOM     16  C   UNL     1      -8.125  -6.555  -4.129  1.00  0.00    -0.000 C 
BRANCH  16  17
ATOM     17  C   UNL     1      -8.044  -5.360  -5.090  1.00  0.00    -0.000 C 
BRANCH  17  18
ATOM     18  C   UNL     1      -7.819  -4.052  -4.321  1.00  0.00    -0.003 C 
ATOM     19  C   UNL     1      -6.481  -4.068  -3.588  1.00  0.00     0.004 C 
ENDBRANCH  17  18
ENDBRANCH  16  17
ENDBRANCH  15  16
ENDBRANCH  14  15
ENDBRANCH  13  14
ENDBRANCH  12  13
ENDBRANCH   1  12
TORSDOF 14
ENDMDL
