MODEL 1
REMARK VINA RESULT:    -3.849      0.000      0.000
REMARK INTER + INTRA:          -3.985
REMARK INTER:                  -4.749
REMARK INTRA:                   0.763
REMARK UNBOUND:                 0.763
REMARK SMILES CC1=CC=CC(C)(C)CC1=O
REMARK SMILES IDX 1 1 2 2 3 3 10 4 11 5 9 6 4 8 5 9 6 10 7 11 8 12
REMARK H PARENT
REMARK Flexibility Score: 80.00
ROOT
ATOM      1  C   UNL     1      46.084   3.139  18.625  1.00  0.00     0.048 C 
ATOM      2  C   UNL     1      47.565   3.128  18.924  1.00  0.00    -0.008 C 
ATOM      3  C   UNL     1      48.059   4.134  19.677  1.00  0.00     0.007 C 
ENDROOT
BRANCH   2   4
ATOM      4  C   UNL     1      48.372   2.050  18.300  1.00  0.00     0.159 C 
ATOM      5  O   UNL     1      47.836   1.319  17.422  1.00  0.00    -0.295 OA
BRANCH   4   6
ATOM      6  C   UNL     1      49.796   1.767  18.666  1.00  0.00     0.091 CG0
ATOM      7  G   UNL     1      50.733   2.976  18.443  1.00  0.00     0.000 G0
ENDBRANCH   4   6
ENDBRANCH   2   4
BRANCH   3   8
ATOM      8  C   UNL     1      49.451   4.405  20.109  1.00  0.00    -0.003 C 
ATOM      9  C   UNL     1      50.598   3.939  19.599  1.00  0.00    -0.020 C 
BRANCH   9  10
ATOM     10  C   UNL     1      50.742   2.977  18.444  1.00  0.00    -0.010 CG0
ATOM     11  C   UNL     1      52.198   2.459  18.423  1.00  0.00     0.016 C 
ATOM     12  C   UNL     1      50.476   3.710  17.109  1.00  0.00     0.016 C 
ATOM     13  G   UNL     1      49.804   1.766  18.656  1.00  0.00     0.000 G0
ENDBRANCH   9  10
ENDBRANCH   3   8
TORSDOF 0
ENDMDL
MODEL 2
REMARK VINA RESULT:    -3.813      1.512      2.442
REMARK INTER + INTRA:          -3.941
REMARK INTER:                  -4.958
REMARK INTRA:                   1.017
REMARK UNBOUND:                 0.763
REMARK SMILES CC1=CC=CC(C)(C)CC1=O
REMARK SMILES IDX 1 1 2 2 3 3 10 4 11 5 9 6 4 8 5 9 6 10 7 11 8 12
REMARK H PARENT
REMARK Flexibility Score: 80.00
ROOT
ATOM      1  C   UNL     1      45.757   3.266  18.557  1.00  0.00     0.048 C 
ATOM      2  C   UNL     1      47.226   3.007  18.788  1.00  0.00    -0.008 C 
ATOM      3  C   UNL     1      47.687   1.760  18.551  1.00  0.00     0.007 C 
ENDROOT
BRANCH   2   4
ATOM      4  C   UNL     1      48.033   4.128  19.332  1.00  0.00     0.159 C 
ATOM      5  O   UNL     1      47.551   5.294  19.303  1.00  0.00    -0.295 OA
BRANCH   4   6
ATOM      6  C   UNL     1      49.405   3.956  19.906  1.00  0.00     0.091 CG0
ATOM      7  G   UNL     1      50.413   3.347  18.905  1.00  0.00     0.000 G0
ENDBRANCH   4   6
ENDBRANCH   2   4
BRANCH   3   8
ATOM      8  C   UNL     1      49.051   1.203  18.710  1.00  0.00    -0.003 C 
ATOM      9  C   UNL     1      50.212   1.849  18.876  1.00  0.00    -0.020 C 
BRANCH   9  10
ATOM     10  C   UNL     1      50.409   3.346  18.914  1.00  0.00    -0.010 CG0
ATOM     11  C   UNL     1      50.136   3.907  17.501  1.00  0.00     0.016 C 
ATOM     12  C   UNL     1      51.873   3.677  19.285  1.00  0.00     0.016 C 
ATOM     13  G   UNL     1      49.390   3.979  19.889  1.00  0.00     0.000 G0
ENDBRANCH   9  10
ENDBRANCH   3   8
TORSDOF 0
ENDMDL
MODEL 3
REMARK VINA RESULT:    -3.102      1.729      3.180
REMARK INTER + INTRA:          -3.064
REMARK INTER:                  -3.811
REMARK INTRA:                   0.747
REMARK UNBOUND:                 0.763
REMARK SMILES CC1=CC=CC(C)(C)CC1=O
REMARK SMILES IDX 1 1 2 2 3 3 10 4 11 5 9 6 4 8 5 9 6 10 7 11 8 12
REMARK H PARENT
REMARK Flexibility Score: 80.00
ROOT
ATOM      1  C   UNL     1      49.967   4.942  21.295  1.00  0.00     0.048 C 
ATOM      2  C   UNL     1      49.273   4.328  20.103  1.00  0.00    -0.008 C 
ATOM      3  C   UNL     1      47.923   4.350  20.083  1.00  0.00     0.007 C 
ENDROOT
BRANCH   2   4
ATOM      4  C   UNL     1      50.133   3.679  19.081  1.00  0.00     0.159 C 
ATOM      5  O   UNL     1      51.354   3.494  19.342  1.00  0.00    -0.295 OA
BRANCH   4   6
ATOM      6  C   UNL     1      49.634   3.239  17.740  1.00  0.00     0.091 CG0
ATOM      7  G   UNL     1      48.498   2.195  17.825  1.00  0.00     0.000 G0
ENDBRANCH   4   6
ENDBRANCH   2   4
BRANCH   3   8
ATOM      8  C   UNL     1      46.977   3.811  19.079  1.00  0.00    -0.003 C 
ATOM      9  C   UNL     1      47.189   2.895  18.125  1.00  0.00    -0.020 C 
BRANCH   9  10
ATOM     10  C   UNL     1      48.495   2.196  17.826  1.00  0.00    -0.010 CG0
ATOM     11  C   UNL     1      48.377   1.523  16.440  1.00  0.00     0.016 C 
ATOM     12  C   UNL     1      48.754   1.090  18.874  1.00  0.00     0.016 C 
ATOM     13  G   UNL     1      49.637   3.235  17.762  1.00  0.00     0.000 G0
ENDBRANCH   9  10
ENDBRANCH   3   8
TORSDOF 0
ENDMDL
MODEL 4
REMARK VINA RESULT:    -3.051      2.051      2.936
REMARK INTER + INTRA:          -3.002
REMARK INTER:                  -3.761
REMARK INTRA:                   0.760
REMARK UNBOUND:                 0.763
REMARK SMILES CC1=CC=CC(C)(C)CC1=O
REMARK SMILES IDX 1 1 2 2 3 3 10 4 11 5 9 6 4 8 5 9 6 10 7 11 8 12
REMARK H PARENT
REMARK Flexibility Score: 80.00
ROOT
ATOM      1  C   UNL     1      48.191   2.757  14.818  1.00  0.00     0.048 C 
ATOM      2  C   UNL     1      49.052   2.646  16.054  1.00  0.00    -0.008 C 
ATOM      3  C   UNL     1      48.664   1.777  17.012  1.00  0.00     0.007 C 
ENDROOT
BRANCH   2   4
ATOM      4  C   UNL     1      50.219   3.559  16.150  1.00  0.00     0.159 C 
ATOM      5  O   UNL     1      50.343   4.479  15.294  1.00  0.00    -0.295 OA
BRANCH   4   6
ATOM      6  C   UNL     1      51.275   3.442  17.204  1.00  0.00     0.091 CG0
ATOM      7  G   UNL     1      50.714   3.539  18.641  1.00  0.00     0.000 G0
ENDBRANCH   4   6
ENDBRANCH   2   4
BRANCH   3   8
ATOM      8  C   UNL     1      49.277   1.471  18.326  1.00  0.00    -0.003 C 
ATOM      9  C   UNL     1      50.142   2.200  19.043  1.00  0.00    -0.020 C 
BRANCH   9  10
ATOM     10  C   UNL     1      50.732   3.535  18.652  1.00  0.00    -0.010 CG0
ATOM     11  C   UNL     1      51.917   3.835  19.597  1.00  0.00     0.016 C 
ATOM     12  C   UNL     1      49.679   4.652  18.837  1.00  0.00     0.016 C 
ATOM     13  G   UNL     1      51.275   3.460  17.207  1.00  0.00     0.000 G0
ENDBRANCH   9  10
ENDBRANCH   3   8
TORSDOF 0
ENDMDL
MODEL 5
REMARK VINA RESULT:    -3.033     11.345     12.512
REMARK INTER + INTRA:          -2.979
REMARK INTER:                  -3.722
REMARK INTRA:                   0.743
REMARK UNBOUND:                 0.763
REMARK SMILES CC1=CC=CC(C)(C)CC1=O
REMARK SMILES IDX 1 1 2 2 3 3 10 4 11 5 9 6 4 8 5 9 6 10 7 11 8 12
REMARK H PARENT
REMARK Flexibility Score: 80.00
ROOT
ATOM      1  C   UNL     1      40.167   9.126  22.003  1.00  0.00     0.048 C 
ATOM      2  C   UNL     1      40.032  10.175  20.925  1.00  0.00    -0.008 C 
ATOM      3  C   UNL     1      38.850  10.819  20.822  1.00  0.00     0.007 C 
ENDROOT
BRANCH   2   4
ATOM      4  C   UNL     1      41.190  10.359  20.013  1.00  0.00     0.159 C 
ATOM      5  O   UNL     1      42.144   9.536  20.068  1.00  0.00    -0.295 OA
BRANCH   4   6
ATOM      6  C   UNL     1      41.297  11.486  19.033  1.00  0.00     0.091 CG0
ATOM      7  G   UNL     1      40.130  11.526  18.021  1.00  0.00     0.000 G0
ENDBRANCH   4   6
ENDBRANCH   2   4
BRANCH   3   8
ATOM      8  C   UNL     1      38.414  11.861  19.863  1.00  0.00    -0.003 C 
ATOM      9  C   UNL     1      38.933  12.180  18.670  1.00  0.00    -0.020 C 
BRANCH   9  10
ATOM     10  C   UNL     1      40.139  11.547  18.017  1.00  0.00    -0.010 CG0
ATOM     11  C   UNL     1      40.592  12.456  16.852  1.00  0.00     0.016 C 
ATOM     12  C   UNL     1      39.758  10.170  17.427  1.00  0.00     0.016 C 
ATOM     13  G   UNL     1      41.296  11.460  19.037  1.00  0.00     0.000 G0
ENDBRANCH   9  10
ENDBRANCH   3   8
TORSDOF 0
ENDMDL
MODEL 6
REMARK VINA RESULT:    -3.025      2.738      4.055
REMARK INTER + INTRA:          -2.970
REMARK INTER:                  -3.726
REMARK INTRA:                   0.756
REMARK UNBOUND:                 0.763
REMARK SMILES CC1=CC=CC(C)(C)CC1=O
REMARK SMILES IDX 1 1 2 2 3 3 10 4 11 5 9 6 4 8 5 9 6 10 7 11 8 12
REMARK H PARENT
REMARK Flexibility Score: 80.00
ROOT
ATOM      1  C   UNL     1      48.719   1.526  16.704  1.00  0.00     0.048 C 
ATOM      2  C   UNL     1      49.445   2.748  16.192  1.00  0.00    -0.008 C 
ATOM      3  C   UNL     1      49.285   3.072  14.891  1.00  0.00     0.007 C 
ENDROOT
BRANCH   2   4
ATOM      4  C   UNL     1      50.338   3.452  17.146  1.00  0.00     0.159 C 
ATOM      5  O   UNL     1      50.619   2.893  18.242  1.00  0.00    -0.295 OA
BRANCH   4   6
ATOM      6  C   UNL     1      50.918   4.808  16.887  1.00  0.00     0.091 CG0
ATOM      7  G   UNL     1      51.804   4.859  15.621  1.00  0.00     0.000 G0
ENDBRANCH   4   6
ENDBRANCH   2   4
BRANCH   3   8
ATOM      8  C   UNL     1      49.880   4.180  14.106  1.00  0.00    -0.003 C 
ATOM      9  C   UNL     1      50.950   4.933  14.387  1.00  0.00    -0.020 C 
BRANCH   9  10
ATOM     10  C   UNL     1      51.813   4.842  15.624  1.00  0.00    -0.010 CG0
ATOM     11  C   UNL     1      52.685   6.115  15.700  1.00  0.00     0.016 C 
ATOM     12  C   UNL     1      52.756   3.621  15.522  1.00  0.00     0.016 C 
ATOM     13  G   UNL     1      50.915   4.798  16.881  1.00  0.00     0.000 G0
ENDBRANCH   9  10
ENDBRANCH   3   8
TORSDOF 0
ENDMDL
MODEL 7
REMARK VINA RESULT:    -2.893      9.939     11.402
REMARK INTER + INTRA:          -2.806
REMARK INTER:                  -3.550
REMARK INTRA:                   0.743
REMARK UNBOUND:                 0.763
REMARK SMILES CC1=CC=CC(C)(C)CC1=O
REMARK SMILES IDX 1 1 2 2 3 3 10 4 11 5 9 6 4 8 5 9 6 10 7 11 8 12
REMARK H PARENT
REMARK Flexibility Score: 80.00
ROOT
ATOM      1  C   UNL     1      38.318  11.686  18.724  1.00  0.00     0.048 C 
ATOM      2  C   UNL     1      39.511  11.037  19.386  1.00  0.00    -0.008 C 
ATOM      3  C   UNL     1      39.397  10.697  20.688  1.00  0.00     0.007 C 
ENDROOT
BRANCH   2   4
ATOM      4  C   UNL     1      40.742  10.893  18.569  1.00  0.00     0.159 C 
ATOM      5  O   UNL     1      40.812  11.499  17.463  1.00  0.00    -0.295 OA
BRANCH   4   6
ATOM      6  C   UNL     1      41.911  10.052  18.977  1.00  0.00     0.091 CG0
ATOM      7  G   UNL     1      42.544  10.498  20.315  1.00  0.00     0.000 G0
ENDBRANCH   4   6
ENDBRANCH   2   4
BRANCH   3   8
ATOM      8  C   UNL     1      40.387  10.080  21.601  1.00  0.00    -0.003 C 
ATOM      9  C   UNL     1      41.718   9.998  21.471  1.00  0.00    -0.020 C 
BRANCH   9  10
ATOM     10  C   UNL     1      42.540  10.510  20.312  1.00  0.00    -0.010 CG0
ATOM     11  C   UNL     1      43.946   9.875  20.399  1.00  0.00     0.016 C 
ATOM     12  C   UNL     1      42.702  12.044  20.415  1.00  0.00     0.016 C 
ATOM     13  G   UNL     1      41.894  10.066  18.981  1.00  0.00     0.000 G0
ENDBRANCH   9  10
ENDBRANCH   3   8
TORSDOF 0
ENDMDL
MODEL 8
REMARK VINA RESULT:    -2.782     10.216     11.842
REMARK INTER + INTRA:          -2.670
REMARK INTER:                  -3.423
REMARK INTRA:                   0.753
REMARK UNBOUND:                 0.763
REMARK SMILES CC1=CC=CC(C)(C)CC1=O
REMARK SMILES IDX 1 1 2 2 3 3 10 4 11 5 9 6 4 8 5 9 6 10 7 11 8 12
REMARK H PARENT
REMARK Flexibility Score: 80.00
ROOT
ATOM      1  C   UNL     1      44.068   9.797  20.329  1.00  0.00     0.048 C 
ATOM      2  C   UNL     1      43.159  10.432  19.303  1.00  0.00    -0.008 C 
ATOM      3  C   UNL     1      43.720  11.258  18.395  1.00  0.00     0.007 C 
ENDROOT
BRANCH   2   4
ATOM      4  C   UNL     1      41.706  10.154  19.425  1.00  0.00     0.159 C 
ATOM      5  O   UNL     1      41.283   9.568  20.460  1.00  0.00    -0.295 OA
BRANCH   4   6
ATOM      6  C   UNL     1      40.704  10.519  18.374  1.00  0.00     0.091 CG0
ATOM      7  G   UNL     1      40.681  12.031  18.055  1.00  0.00     0.000 G0
ENDBRANCH   4   6
ENDBRANCH   2   4
BRANCH   3   8
ATOM      8  C   UNL     1      43.093  12.036  17.300  1.00  0.00    -0.003 C 
ATOM      9  C   UNL     1      41.810  12.386  17.141  1.00  0.00    -0.020 C 
BRANCH   9  10
ATOM     10  C   UNL     1      40.663  12.034  18.059  1.00  0.00    -0.010 CG0
ATOM     11  C   UNL     1      39.341  12.333  17.318  1.00  0.00     0.016 C 
ATOM     12  C   UNL     1      40.711  12.917  19.327  1.00  0.00     0.016 C 
ATOM     13  G   UNL     1      40.702  10.523  18.383  1.00  0.00     0.000 G0
ENDBRANCH   9  10
ENDBRANCH   3   8
TORSDOF 0
ENDMDL
