MODEL 1
REMARK VINA RESULT:    -3.703      0.000      0.000
REMARK INTER + INTRA:          -6.263
REMARK INTER:                  -5.435
REMARK INTRA:                  -0.828
REMARK UNBOUND:                -0.828
REMARK SMILES O=C([O-])CCCCCCCC(=O)[O-]
REMARK SMILES IDX 7 1 6 2 5 3 4 4 2 5 1 6 3 7 8 8 9 9 10 10 11 11 12 12 13 13
REMARK H PARENT
REMARK Flexibility Score: inf
ROOT
ATOM      1  C   UNL     1     163.360 177.923 187.489  1.00  0.00     0.000 C 
ENDROOT
BRANCH   1   2
ATOM      2  C   UNL     1     164.069 176.698 186.885  1.00  0.00     0.000 C 
BRANCH   2   3
ATOM      3  C   UNL     1     163.803 176.546 185.379  1.00  0.00     0.006 C 
BRANCH   3   4
ATOM      4  C   UNL     1     163.918 177.876 184.623  1.00  0.00     0.053 C 
BRANCH   4   5
ATOM      5  C   UNL     1     163.426 177.722 183.218  1.00  0.00     0.041 C 
ATOM      6  O   UNL     1     163.419 178.711 182.438  1.00  0.00    -0.550 OA
ATOM      7  O   UNL     1     163.023 176.477 182.754  1.00  0.00    -0.550 OA
ENDBRANCH   4   5
ENDBRANCH   3   4
ENDBRANCH   2   3
ENDBRANCH   1   2
BRANCH   1   8
ATOM      8  C   UNL     1     162.115 177.541 188.304  1.00  0.00     0.000 C 
BRANCH   8   9
ATOM      9  C   UNL     1     160.942 177.091 187.416  1.00  0.00     0.006 C 
BRANCH   9  10
ATOM     10  C   UNL     1     160.429 178.223 186.517  1.00  0.00     0.053 C 
BRANCH  10  11
ATOM     11  C   UNL     1     160.250 177.770 185.101  1.00  0.00     0.041 C 
ATOM     12  O   UNL     1     160.160 178.615 184.172  1.00  0.00    -0.550 OA
ATOM     13  O   UNL     1     160.219 176.413 184.802  1.00  0.00    -0.550 OA
ENDBRANCH  10  11
ENDBRANCH   9  10
ENDBRANCH   8   9
ENDBRANCH   1   8
TORSDOF 8
ENDMDL
MODEL 2
REMARK VINA RESULT:    -3.595      3.263      4.852
REMARK INTER + INTRA:          -6.104
REMARK INTER:                  -5.471
REMARK INTRA:                  -0.633
REMARK UNBOUND:                -0.828
REMARK SMILES O=C([O-])CCCCCCCC(=O)[O-]
REMARK SMILES IDX 7 1 6 2 5 3 4 4 2 5 1 6 3 7 8 8 9 9 10 10 11 11 12 12 13 13
REMARK H PARENT
REMARK Flexibility Score: inf
ROOT
ATOM      1  C   UNL     1     160.613 176.305 187.836  1.00  0.00     0.000 C 
ENDROOT
BRANCH   1   2
ATOM      2  C   UNL     1     160.249 174.845 187.513  1.00  0.00     0.000 C 
BRANCH   2   3
ATOM      3  C   UNL     1     161.403 174.085 186.840  1.00  0.00     0.006 C 
BRANCH   3   4
ATOM      4  C   UNL     1     161.842 172.851 187.640  1.00  0.00     0.053 C 
BRANCH   4   5
ATOM      5  C   UNL     1     160.860 171.735 187.460  1.00  0.00     0.041 C 
ATOM      6  O   UNL     1     160.463 171.076 188.457  1.00  0.00    -0.550 OA
ATOM      7  O   UNL     1     160.345 171.457 186.201  1.00  0.00    -0.550 OA
ENDBRANCH   4   5
ENDBRANCH   3   4
ENDBRANCH   2   3
ENDBRANCH   1   2
BRANCH   1   8
ATOM      8  C   UNL     1     162.008 176.693 187.322  1.00  0.00     0.000 C 
BRANCH   8   9
ATOM      9  C   UNL     1     161.972 177.896 186.363  1.00  0.00     0.006 C 
BRANCH   9  10
ATOM     10  C   UNL     1     160.571 178.137 185.789  1.00  0.00     0.053 C 
BRANCH  10  11
ATOM     11  C   UNL     1     160.424 177.550 184.418  1.00  0.00     0.041 C 
ATOM     12  O   UNL     1     160.008 176.370 184.277  1.00  0.00    -0.550 OA
ATOM     13  O   UNL     1     160.712 178.317 183.297  1.00  0.00    -0.550 OA
ENDBRANCH  10  11
ENDBRANCH   9  10
ENDBRANCH   8   9
ENDBRANCH   1   8
TORSDOF 8
ENDMDL
MODEL 3
REMARK VINA RESULT:    -3.584      3.715      5.153
REMARK INTER + INTRA:          -6.088
REMARK INTER:                  -5.456
REMARK INTRA:                  -0.633
REMARK UNBOUND:                -0.828
REMARK SMILES O=C([O-])CCCCCCCC(=O)[O-]
REMARK SMILES IDX 7 1 6 2 5 3 4 4 2 5 1 6 3 7 8 8 9 9 10 10 11 11 12 12 13 13
REMARK H PARENT
REMARK Flexibility Score: inf
ROOT
ATOM      1  C   UNL     1     161.780 174.889 187.520  1.00  0.00     0.000 C 
ENDROOT
BRANCH   1   2
ATOM      2  C   UNL     1     160.281 174.547 187.458  1.00  0.00     0.000 C 
BRANCH   2   3
ATOM      3  C   UNL     1     159.979 173.388 186.496  1.00  0.00     0.006 C 
BRANCH   3   4
ATOM      4  C   UNL     1     161.117 172.361 186.435  1.00  0.00     0.053 C 
BRANCH   4   5
ATOM      5  C   UNL     1     160.748 171.126 187.197  1.00  0.00     0.041 C 
ATOM      6  O   UNL     1     160.392 170.086 186.582  1.00  0.00    -0.550 OA
ATOM      7  O   UNL     1     160.846 171.108 188.582  1.00  0.00    -0.550 OA
ENDBRANCH   4   5
ENDBRANCH   3   4
ENDBRANCH   2   3
ENDBRANCH   1   2
BRANCH   1   8
ATOM      8  C   UNL     1     162.040 176.403 187.535  1.00  0.00     0.000 C 
BRANCH   8   9
ATOM      9  C   UNL     1     160.740 177.226 187.542  1.00  0.00     0.006 C 
BRANCH   9  10
ATOM     10  C   UNL     1     160.680 178.225 186.380  1.00  0.00     0.053 C 
BRANCH  10  11
ATOM     11  C   UNL     1     160.901 177.554 185.059  1.00  0.00     0.041 C 
ATOM     12  O   UNL     1     160.079 176.698 184.639  1.00  0.00    -0.550 OA
ATOM     13  O   UNL     1     161.995 177.900 184.276  1.00  0.00    -0.550 OA
ENDBRANCH  10  11
ENDBRANCH   9  10
ENDBRANCH   8   9
ENDBRANCH   1   8
TORSDOF 8
ENDMDL
MODEL 4
REMARK VINA RESULT:    -3.569      1.443      2.032
REMARK INTER + INTRA:          -6.066
REMARK INTER:                  -5.525
REMARK INTRA:                  -0.540
REMARK UNBOUND:                -0.828
REMARK SMILES O=C([O-])CCCCCCCC(=O)[O-]
REMARK SMILES IDX 7 1 6 2 5 3 4 4 2 5 1 6 3 7 8 8 9 9 10 10 11 11 12 12 13 13
REMARK H PARENT
REMARK Flexibility Score: inf
ROOT
ATOM      1  C   UNL     1     163.170 177.441 187.705  1.00  0.00     0.000 C 
ENDROOT
BRANCH   1   2
ATOM      2  C   UNL     1     163.893 178.614 187.019  1.00  0.00     0.000 C 
BRANCH   2   3
ATOM      3  C   UNL     1     164.422 178.247 185.624  1.00  0.00     0.006 C 
BRANCH   3   4
ATOM      4  C   UNL     1     163.302 177.840 184.657  1.00  0.00     0.053 C 
BRANCH   4   5
ATOM      5  C   UNL     1     163.799 177.854 183.246  1.00  0.00     0.041 C 
ATOM      6  O   UNL     1     164.683 177.035 182.878  1.00  0.00    -0.550 OA
ATOM      7  O   UNL     1     163.251 178.736 182.323  1.00  0.00    -0.550 OA
ENDBRANCH   4   5
ENDBRANCH   3   4
ENDBRANCH   2   3
ENDBRANCH   1   2
BRANCH   1   8
ATOM      8  C   UNL     1     161.764 177.821 188.194  1.00  0.00     0.000 C 
BRANCH   8   9
ATOM      9  C   UNL     1     160.653 177.069 187.442  1.00  0.00     0.006 C 
BRANCH   9  10
ATOM     10  C   UNL     1     160.894 175.554 187.415  1.00  0.00     0.053 C 
BRANCH  10  11
ATOM     11  C   UNL     1     160.710 174.986 186.042  1.00  0.00     0.041 C 
ATOM     12  O   UNL     1     160.261 175.709 185.113  1.00  0.00    -0.550 OA
ATOM     13  O   UNL     1     161.065 173.669 185.778  1.00  0.00    -0.550 OA
ENDBRANCH  10  11
ENDBRANCH   9  10
ENDBRANCH   8   9
ENDBRANCH   1   8
TORSDOF 8
ENDMDL
MODEL 5
REMARK VINA RESULT:    -3.557      0.785      3.599
REMARK INTER + INTRA:          -6.049
REMARK INTER:                  -5.332
REMARK INTRA:                  -0.717
REMARK UNBOUND:                -0.828
REMARK SMILES O=C([O-])CCCCCCCC(=O)[O-]
REMARK SMILES IDX 7 1 6 2 5 3 4 4 2 5 1 6 3 7 8 8 9 9 10 10 11 11 12 12 13 13
REMARK H PARENT
REMARK Flexibility Score: inf
ROOT
ATOM      1  C   UNL     1     163.441 178.180 187.139  1.00  0.00     0.000 C 
ENDROOT
BRANCH   1   2
ATOM      2  C   UNL     1     162.568 177.392 188.132  1.00  0.00     0.000 C 
BRANCH   2   3
ATOM      3  C   UNL     1     161.116 177.243 187.652  1.00  0.00     0.006 C 
BRANCH   3   4
ATOM      4  C   UNL     1     160.726 178.304 186.615  1.00  0.00     0.053 C 
BRANCH   4   5
ATOM      5  C   UNL     1     160.365 177.657 185.315  1.00  0.00     0.041 C 
ATOM      6  O   UNL     1     160.149 178.363 184.295  1.00  0.00    -0.550 OA
ATOM      7  O   UNL     1     160.318 176.272 185.216  1.00  0.00    -0.550 OA
ENDBRANCH   4   5
ENDBRANCH   3   4
ENDBRANCH   2   3
ENDBRANCH   1   2
BRANCH   1   8
ATOM      8  C   UNL     1     164.863 177.611 187.023  1.00  0.00     0.000 C 
BRANCH   8   9
ATOM      9  C   UNL     1     165.172 177.071 185.616  1.00  0.00     0.006 C 
BRANCH   9  10
ATOM     10  C   UNL     1     163.905 176.628 184.875  1.00  0.00     0.053 C 
BRANCH  10  11
ATOM     11  C   UNL     1     163.788 177.285 183.534  1.00  0.00     0.041 C 
ATOM     12  O   UNL     1     163.347 178.460 183.440  1.00  0.00    -0.550 OA
ATOM     13  O   UNL     1     164.199 176.611 182.390  1.00  0.00    -0.550 OA
ENDBRANCH  10  11
ENDBRANCH   9  10
ENDBRANCH   8   9
ENDBRANCH   1   8
TORSDOF 8
ENDMDL
MODEL 6
REMARK VINA RESULT:    -3.546      2.870      4.808
REMARK INTER + INTRA:          -6.032
REMARK INTER:                  -5.580
REMARK INTRA:                  -0.452
REMARK UNBOUND:                -0.828
REMARK SMILES O=C([O-])CCCCCCCC(=O)[O-]
REMARK SMILES IDX 7 1 6 2 5 3 4 4 2 5 1 6 3 7 8 8 9 9 10 10 11 11 12 12 13 13
REMARK H PARENT
REMARK Flexibility Score: inf
ROOT
ATOM      1  C   UNL     1     163.179 177.828 187.840  1.00  0.00     0.000 C 
ENDROOT
BRANCH   1   2
ATOM      2  C   UNL     1     161.657 177.733 188.044  1.00  0.00     0.000 C 
BRANCH   2   3
ATOM      3  C   UNL     1     160.868 178.077 186.771  1.00  0.00     0.006 C 
BRANCH   3   4
ATOM      4  C   UNL     1     160.506 176.834 185.948  1.00  0.00     0.053 C 
BRANCH   4   5
ATOM      5  C   UNL     1     160.463 177.167 184.490  1.00  0.00     0.041 C 
ATOM      6  O   UNL     1     160.999 178.225 184.066  1.00  0.00    -0.550 OA
ATOM      7  O   UNL     1     159.876 176.285 183.591  1.00  0.00    -0.550 OA
ENDBRANCH   4   5
ENDBRANCH   3   4
ENDBRANCH   2   3
ENDBRANCH   1   2
BRANCH   1   8
ATOM      8  C   UNL     1     163.558 178.666 186.610  1.00  0.00     0.000 C 
BRANCH   8   9
ATOM      9  C   UNL     1     164.849 178.175 185.934  1.00  0.00     0.006 C 
BRANCH   9  10
ATOM     10  C   UNL     1     165.710 177.326 186.877  1.00  0.00     0.053 C 
BRANCH  10  11
ATOM     11  C   UNL     1     167.106 177.858 186.986  1.00  0.00     0.041 C 
ATOM     12  O   UNL     1     167.675 178.353 185.978  1.00  0.00    -0.550 OA
ATOM     13  O   UNL     1     167.765 177.840 188.209  1.00  0.00    -0.550 OA
ENDBRANCH  10  11
ENDBRANCH   9  10
ENDBRANCH   8   9
ENDBRANCH   1   8
TORSDOF 8
ENDMDL
MODEL 7
REMARK VINA RESULT:    -3.513      9.943     11.850
REMARK INTER + INTRA:          -5.984
REMARK INTER:                  -5.545
REMARK INTRA:                  -0.439
REMARK UNBOUND:                -0.828
REMARK SMILES O=C([O-])CCCCCCCC(=O)[O-]
REMARK SMILES IDX 7 1 6 2 5 3 4 4 2 5 1 6 3 7 8 8 9 9 10 10 11 11 12 12 13 13
REMARK H PARENT
REMARK Flexibility Score: inf
ROOT
ATOM      1  C   UNL     1     172.790 178.497 186.957  1.00  0.00     0.000 C 
ENDROOT
BRANCH   1   2
ATOM      2  C   UNL     1     172.246 179.840 187.479  1.00  0.00     0.000 C 
BRANCH   2   3
ATOM      3  C   UNL     1     170.747 180.018 187.197  1.00  0.00     0.006 C 
BRANCH   3   4
ATOM      4  C   UNL     1     170.065 178.709 186.779  1.00  0.00     0.053 C 
BRANCH   4   5
ATOM      5  C   UNL     1     169.410 178.864 185.442  1.00  0.00     0.041 C 
ATOM      6  O   UNL     1     168.931 177.861 184.851  1.00  0.00    -0.550 OA
ATOM      7  O   UNL     1     169.282 180.125 184.872  1.00  0.00    -0.550 OA
ENDBRANCH   4   5
ENDBRANCH   3   4
ENDBRANCH   2   3
ENDBRANCH   1   2
BRANCH   1   8
ATOM      8  C   UNL     1     173.817 177.867 187.911  1.00  0.00     0.000 C 
BRANCH   8   9
ATOM      9  C   UNL     1     175.113 178.689 188.012  1.00  0.00     0.006 C 
BRANCH   9  10
ATOM     10  C   UNL     1     175.759 178.923 186.641  1.00  0.00     0.053 C 
BRANCH  10  11
ATOM     11  C   UNL     1     176.596 177.756 186.215  1.00  0.00     0.041 C 
ATOM     12  O   UNL     1     177.482 177.299 186.984  1.00  0.00    -0.550 OA
ATOM     13  O   UNL     1     176.373 177.151 184.985  1.00  0.00    -0.550 OA
ENDBRANCH  10  11
ENDBRANCH   9  10
ENDBRANCH   8   9
ENDBRANCH   1   8
TORSDOF 8
ENDMDL
MODEL 8
REMARK VINA RESULT:    -3.513      2.086      3.487
REMARK INTER + INTRA:          -5.984
REMARK INTER:                  -5.256
REMARK INTRA:                  -0.728
REMARK UNBOUND:                -0.828
REMARK SMILES O=C([O-])CCCCCCCC(=O)[O-]
REMARK SMILES IDX 7 1 6 2 5 3 4 4 2 5 1 6 3 7 8 8 9 9 10 10 11 11 12 12 13 13
REMARK H PARENT
REMARK Flexibility Score: inf
ROOT
ATOM      1  C   UNL     1     161.306 175.257 187.479  1.00  0.00     0.000 C 
ENDROOT
BRANCH   1   2
ATOM      2  C   UNL     1     160.558 175.045 186.151  1.00  0.00     0.000 C 
BRANCH   2   3
ATOM      3  C   UNL     1     161.389 175.472 184.931  1.00  0.00     0.006 C 
BRANCH   3   4
ATOM      4  C   UNL     1     160.527 176.064 183.808  1.00  0.00     0.053 C 
BRANCH   4   5
ATOM      5  C   UNL     1     160.674 177.552 183.766  1.00  0.00     0.041 C 
ATOM      6  O   UNL     1     161.313 178.099 182.828  1.00  0.00    -0.550 OA
ATOM      7  O   UNL     1     160.062 178.340 184.733  1.00  0.00    -0.550 OA
ENDBRANCH   4   5
ENDBRANCH   3   4
ENDBRANCH   2   3
ENDBRANCH   1   2
BRANCH   1   8
ATOM      8  C   UNL     1     161.432 176.741 187.854  1.00  0.00     0.000 C 
BRANCH   8   9
ATOM      9  C   UNL     1     162.873 177.263 187.727  1.00  0.00     0.006 C 
BRANCH   9  10
ATOM     10  C   UNL     1     162.985 178.417 186.723  1.00  0.00     0.053 C 
BRANCH  10  11
ATOM     11  C   UNL     1     164.213 178.298 185.874  1.00  0.00     0.041 C 
ATOM     12  O   UNL     1     164.117 177.952 184.667  1.00  0.00    -0.550 OA
ATOM     13  O   UNL     1     165.460 178.602 186.405  1.00  0.00    -0.550 OA
ENDBRANCH  10  11
ENDBRANCH   9  10
ENDBRANCH   8   9
ENDBRANCH   1   8
TORSDOF 8
ENDMDL
MODEL 9
REMARK VINA RESULT:    -3.501      3.440      4.562
REMARK INTER + INTRA:          -5.966
REMARK INTER:                  -5.565
REMARK INTRA:                  -0.401
REMARK UNBOUND:                -0.828
REMARK SMILES O=C([O-])CCCCCCCC(=O)[O-]
REMARK SMILES IDX 7 1 6 2 5 3 4 4 2 5 1 6 3 7 8 8 9 9 10 10 11 11 12 12 13 13
REMARK H PARENT
REMARK Flexibility Score: inf
ROOT
ATOM      1  C   UNL     1     161.479 175.774 187.661  1.00  0.00     0.000 C 
ENDROOT
BRANCH   1   2
ATOM      2  C   UNL     1     161.171 177.237 188.027  1.00  0.00     0.000 C 
BRANCH   2   3
ATOM      3  C   UNL     1     160.698 178.060 186.819  1.00  0.00     0.006 C 
BRANCH   3   4
ATOM      4  C   UNL     1     161.551 177.813 185.567  1.00  0.00     0.053 C 
BRANCH   4   5
ATOM      5  C   UNL     1     160.677 177.524 184.387  1.00  0.00     0.041 C 
ATOM      6  O   UNL     1     160.583 178.359 183.449  1.00  0.00    -0.550 OA
ATOM      7  O   UNL     1     160.006 176.311 184.299  1.00  0.00    -0.550 OA
ENDBRANCH   4   5
ENDBRANCH   3   4
ENDBRANCH   2   3
ENDBRANCH   1   2
BRANCH   1   8
ATOM      8  C   UNL     1     160.207 174.930 187.485  1.00  0.00     0.000 C 
BRANCH   8   9
ATOM      9  C   UNL     1     160.485 173.418 187.561  1.00  0.00     0.006 C 
BRANCH   9  10
ATOM     10  C   UNL     1     160.217 172.712 186.226  1.00  0.00     0.053 C 
BRANCH  10  11
ATOM     11  C   UNL     1     160.818 171.341 186.193  1.00  0.00     0.041 C 
ATOM     12  O   UNL     1     161.905 171.111 186.785  1.00  0.00    -0.550 OA
ATOM     13  O   UNL     1     160.160 170.307 185.537  1.00  0.00    -0.550 OA
ENDBRANCH  10  11
ENDBRANCH   9  10
ENDBRANCH   8   9
ENDBRANCH   1   8
TORSDOF 8
ENDMDL
