MODEL 1
REMARK VINA RESULT:    -5.412      0.000      0.000
REMARK INTER + INTRA:          -8.041
REMARK INTER:                  -7.311
REMARK INTRA:                  -0.731
REMARK UNBOUND:                -0.731
REMARK SMILES CC(=O)CCC=C(C)CCC=C(C)C
REMARK SMILES IDX 7 1 6 2 8 3 9 4 10 5 11 6 13 7 12 8 14 9 5 10 4 11 2 12 3 13
REMARK SMILES IDX 1 14
REMARK H PARENT
REMARK Flexibility Score: inf
ROOT
ATOM      1  C   UNL     1      14.260 -32.478  21.413  1.00  0.00    -0.077 C 
ATOM      2  C   UNL     1      14.779 -33.624  20.917  1.00  0.00    -0.028 C 
ATOM      3  C   UNL     1      13.268 -31.721  20.568  1.00  0.00     0.039 C 
ENDROOT
BRANCH   1   4
ATOM      4  C   UNL     1      14.590 -31.951  22.796  1.00  0.00     0.034 C 
BRANCH   4   5
ATOM      5  C   UNL     1      13.318 -31.506  23.525  1.00  0.00     0.032 C 
BRANCH   5   6
ATOM      6  C   UNL     1      13.398 -30.051  23.914  1.00  0.00    -0.028 C 
ATOM      7  C   UNL     1      11.291 -29.432  22.705  1.00  0.00     0.039 C 
ATOM      8  C   UNL     1      12.490 -29.111  23.566  1.00  0.00    -0.080 C 
ATOM      9  C   UNL     1      12.703 -27.697  24.044  1.00  0.00     0.039 C 
ENDBRANCH   5   6
ENDBRANCH   4   5
ENDBRANCH   1   4
BRANCH   2  10
ATOM     10  C   UNL     1      15.803 -34.485  21.617  1.00  0.00     0.035 C 
BRANCH  10  11
ATOM     11  C   UNL     1      17.218 -34.239  21.075  1.00  0.00     0.079 C 
BRANCH  11  12
ATOM     12  C   UNL     1      17.424 -34.910  19.741  1.00  0.00     0.130 C 
ATOM     13  O   UNL     1      17.925 -34.279  18.822  1.00  0.00    -0.300 OA
ATOM     14  C   UNL     1      17.027 -36.338  19.516  1.00  0.00     0.087 C 
ENDBRANCH  11  12
ENDBRANCH  10  11
ENDBRANCH   2  10
TORSDOF 6
ENDMDL
MODEL 2
REMARK VINA RESULT:    -5.334      1.454      1.916
REMARK INTER + INTRA:          -7.935
REMARK INTER:                  -7.135
REMARK INTRA:                  -0.801
REMARK UNBOUND:                -0.731
REMARK SMILES CC(=O)CCC=C(C)CCC=C(C)C
REMARK SMILES IDX 7 1 6 2 8 3 9 4 10 5 11 6 13 7 12 8 14 9 5 10 4 11 2 12 3 13
REMARK SMILES IDX 1 14
REMARK H PARENT
REMARK Flexibility Score: inf
ROOT
ATOM      1  C   UNL     1      14.951 -32.709  23.169  1.00  0.00    -0.077 C 
ATOM      2  C   UNL     1      15.018 -33.742  22.298  1.00  0.00    -0.028 C 
ATOM      3  C   UNL     1      14.049 -32.847  24.369  1.00  0.00     0.039 C 
ENDROOT
BRANCH   1   4
ATOM      4  C   UNL     1      15.779 -31.448  23.022  1.00  0.00     0.034 C 
BRANCH   4   5
ATOM      5  C   UNL     1      15.042 -30.410  22.168  1.00  0.00     0.032 C 
BRANCH   5   6
ATOM      6  C   UNL     1      14.180 -29.517  23.026  1.00  0.00    -0.028 C 
ATOM      7  C   UNL     1      12.032 -30.537  22.232  1.00  0.00     0.039 C 
ATOM      8  C   UNL     1      12.830 -29.570  23.076  1.00  0.00    -0.080 C 
ATOM      9  C   UNL     1      12.109 -28.617  23.994  1.00  0.00     0.039 C 
ENDBRANCH   5   6
ENDBRANCH   4   5
ENDBRANCH   1   4
BRANCH   2  10
ATOM     10  C   UNL     1      15.845 -33.756  21.034  1.00  0.00     0.035 C 
BRANCH  10  11
ATOM     11  C   UNL     1      15.678 -35.071  20.261  1.00  0.00     0.079 C 
BRANCH  11  12
ATOM     12  C   UNL     1      16.963 -35.486  19.589  1.00  0.00     0.130 C 
ATOM     13  O   UNL     1      17.174 -36.671  19.375  1.00  0.00    -0.300 OA
ATOM     14  C   UNL     1      17.990 -34.474  19.179  1.00  0.00     0.087 C 
ENDBRANCH  11  12
ENDBRANCH  10  11
ENDBRANCH   2  10
TORSDOF 6
ENDMDL
MODEL 3
REMARK VINA RESULT:    -5.304      2.507      4.476
REMARK INTER + INTRA:          -7.895
REMARK INTER:                  -6.216
REMARK INTRA:                  -1.679
REMARK UNBOUND:                -0.731
REMARK SMILES CC(=O)CCC=C(C)CCC=C(C)C
REMARK SMILES IDX 7 1 6 2 8 3 9 4 10 5 11 6 13 7 12 8 14 9 5 10 4 11 2 12 3 13
REMARK SMILES IDX 1 14
REMARK H PARENT
REMARK Flexibility Score: inf
ROOT
ATOM      1  C   UNL     1      14.018 -30.913  22.370  1.00  0.00    -0.077 C 
ATOM      2  C   UNL     1      15.091 -30.264  21.863  1.00  0.00    -0.028 C 
ATOM      3  C   UNL     1      12.943 -31.367  21.417  1.00  0.00     0.039 C 
ENDROOT
BRANCH   1   4
ATOM      4  C   UNL     1      13.876 -31.250  23.842  1.00  0.00     0.034 C 
BRANCH   4   5
ATOM      5  C   UNL     1      13.846 -32.768  24.050  1.00  0.00     0.032 C 
BRANCH   5   6
ATOM      6  C   UNL     1      15.242 -33.323  24.187  1.00  0.00    -0.028 C 
ATOM      7  C   UNL     1      15.261 -34.312  21.883  1.00  0.00     0.039 C 
ATOM      8  C   UNL     1      15.896 -34.006  23.220  1.00  0.00    -0.080 C 
ATOM      9  C   UNL     1      17.295 -34.488  23.504  1.00  0.00     0.039 C 
ENDBRANCH   5   6
ENDBRANCH   4   5
ENDBRANCH   1   4
BRANCH   2  10
ATOM     10  C   UNL     1      16.238 -29.718  22.678  1.00  0.00     0.035 C 
BRANCH  10  11
ATOM     11  C   UNL     1      17.427 -30.687  22.707  1.00  0.00     0.079 C 
BRANCH  11  12
ATOM     12  C   UNL     1      18.043 -30.849  21.340  1.00  0.00     0.130 C 
ATOM     13  O   UNL     1      18.566 -29.887  20.798  1.00  0.00    -0.300 OA
ATOM     14  C   UNL     1      18.027 -32.170  20.629  1.00  0.00     0.087 C 
ENDBRANCH  11  12
ENDBRANCH  10  11
ENDBRANCH   2  10
TORSDOF 6
ENDMDL
MODEL 4
REMARK VINA RESULT:    -5.261      2.533      3.610
REMARK INTER + INTRA:          -7.837
REMARK INTER:                  -6.425
REMARK INTRA:                  -1.412
REMARK UNBOUND:                -0.731
REMARK SMILES CC(=O)CCC=C(C)CCC=C(C)C
REMARK SMILES IDX 7 1 6 2 8 3 9 4 10 5 11 6 13 7 12 8 14 9 5 10 4 11 2 12 3 13
REMARK SMILES IDX 1 14
REMARK H PARENT
REMARK Flexibility Score: inf
ROOT
ATOM      1  C   UNL     1      18.025 -30.341  21.614  1.00  0.00    -0.077 C 
ATOM      2  C   UNL     1      18.328 -31.475  20.942  1.00  0.00    -0.028 C 
ATOM      3  C   UNL     1      18.510 -29.029  21.054  1.00  0.00     0.039 C 
ENDROOT
BRANCH   1   4
ATOM      4  C   UNL     1      17.177 -30.327  22.872  1.00  0.00     0.034 C 
BRANCH   4   5
ATOM      5  C   UNL     1      15.864 -29.574  22.632  1.00  0.00     0.032 C 
BRANCH   5   6
ATOM      6  C   UNL     1      15.021 -30.272  21.595  1.00  0.00    -0.028 C 
ATOM      7  C   UNL     1      13.603 -31.452  23.292  1.00  0.00     0.039 C 
ATOM      8  C   UNL     1      13.994 -31.107  21.875  1.00  0.00    -0.080 C 
ATOM      9  C   UNL     1      13.237 -31.721  20.725  1.00  0.00     0.039 C 
ENDBRANCH   5   6
ENDBRANCH   4   5
ENDBRANCH   1   4
BRANCH   2  10
ATOM     10  C   UNL     1      17.947 -32.869  21.379  1.00  0.00     0.035 C 
BRANCH  10  11
ATOM     11  C   UNL     1      17.098 -33.585  20.320  1.00  0.00     0.079 C 
BRANCH  11  12
ATOM     12  C   UNL     1      15.913 -34.283  20.938  1.00  0.00     0.130 C 
ATOM     13  O   UNL     1      15.072 -34.794  20.214  1.00  0.00    -0.300 OA
ATOM     14  C   UNL     1      15.743 -34.361  22.426  1.00  0.00     0.087 C 
ENDBRANCH  11  12
ENDBRANCH  10  11
ENDBRANCH   2  10
TORSDOF 6
ENDMDL
MODEL 5
REMARK VINA RESULT:    -5.255      1.460      2.658
REMARK INTER + INTRA:          -7.829
REMARK INTER:                  -6.978
REMARK INTRA:                  -0.851
REMARK UNBOUND:                -0.731
REMARK SMILES CC(=O)CCC=C(C)CCC=C(C)C
REMARK SMILES IDX 7 1 6 2 8 3 9 4 10 5 11 6 13 7 12 8 14 9 5 10 4 11 2 12 3 13
REMARK SMILES IDX 1 14
REMARK H PARENT
REMARK Flexibility Score: inf
ROOT
ATOM      1  C   UNL     1      15.970 -34.119  23.874  1.00  0.00    -0.077 C 
ATOM      2  C   UNL     1      16.467 -34.639  22.728  1.00  0.00    -0.028 C 
ATOM      3  C   UNL     1      16.801 -34.233  25.126  1.00  0.00     0.039 C 
ENDROOT
BRANCH   1   4
ATOM      4  C   UNL     1      14.646 -33.383  23.942  1.00  0.00     0.034 C 
BRANCH   4   5
ATOM      5  C   UNL     1      14.837 -31.893  23.635  1.00  0.00     0.032 C 
BRANCH   5   6
ATOM      6  C   UNL     1      13.511 -31.217  23.389  1.00  0.00    -0.028 C 
ATOM      7  C   UNL     1      13.575 -31.611  20.914  1.00  0.00     0.039 C 
ATOM      8  C   UNL     1      12.925 -31.094  22.176  1.00  0.00    -0.080 C 
ATOM      9  C   UNL     1      11.589 -30.401  22.094  1.00  0.00     0.039 C 
ENDBRANCH   5   6
ENDBRANCH   4   5
ENDBRANCH   1   4
BRANCH   2  10
ATOM     10  C   UNL     1      15.755 -34.637  21.396  1.00  0.00     0.035 C 
BRANCH  10  11
ATOM     11  C   UNL     1      16.547 -33.870  20.330  1.00  0.00     0.079 C 
BRANCH  11  12
ATOM     12  C   UNL     1      17.381 -34.798  19.484  1.00  0.00     0.130 C 
ATOM     13  O   UNL     1      18.297 -34.342  18.815  1.00  0.00    -0.300 OA
ATOM     14  C   UNL     1      17.110 -36.272  19.444  1.00  0.00     0.087 C 
ENDBRANCH  11  12
ENDBRANCH  10  11
ENDBRANCH   2  10
TORSDOF 6
ENDMDL
MODEL 6
REMARK VINA RESULT:    -5.239      2.747      6.925
REMARK INTER + INTRA:          -7.808
REMARK INTER:                  -7.015
REMARK INTRA:                  -0.793
REMARK UNBOUND:                -0.731
REMARK SMILES CC(=O)CCC=C(C)CCC=C(C)C
REMARK SMILES IDX 7 1 6 2 8 3 9 4 10 5 11 6 13 7 12 8 14 9 5 10 4 11 2 12 3 13
REMARK SMILES IDX 1 14
REMARK H PARENT
REMARK Flexibility Score: inf
ROOT
ATOM      1  C   UNL     1      15.735 -32.549  23.220  1.00  0.00    -0.077 C 
ATOM      2  C   UNL     1      15.003 -31.503  23.664  1.00  0.00    -0.028 C 
ATOM      3  C   UNL     1      17.236 -32.468  23.333  1.00  0.00     0.039 C 
ENDROOT
BRANCH   1   4
ATOM      4  C   UNL     1      15.114 -33.817  22.665  1.00  0.00     0.034 C 
BRANCH   4   5
ATOM      5  C   UNL     1      15.032 -33.758  21.136  1.00  0.00     0.032 C 
BRANCH   5   6
ATOM      6  C   UNL     1      15.537 -35.037  20.517  1.00  0.00    -0.028 C 
ATOM      7  C   UNL     1      17.738 -34.045  19.841  1.00  0.00     0.039 C 
ATOM      8  C   UNL     1      16.753 -35.186  19.944  1.00  0.00    -0.080 C 
ATOM      9  C   UNL     1      17.117 -36.535  19.378  1.00  0.00     0.039 C 
ENDBRANCH   5   6
ENDBRANCH   4   5
ENDBRANCH   1   4
BRANCH   2  10
ATOM     10  C   UNL     1      13.497 -31.409  23.598  1.00  0.00     0.035 C 
BRANCH  10  11
ATOM     11  C   UNL     1      13.035 -30.446  22.496  1.00  0.00     0.079 C 
BRANCH  11  12
ATOM     12  C   UNL     1      12.011 -29.467  23.009  1.00  0.00     0.130 C 
ATOM     13  O   UNL     1      10.910 -29.417  22.481  1.00  0.00    -0.300 OA
ATOM     14  C   UNL     1      12.315 -28.549  24.156  1.00  0.00     0.087 C 
ENDBRANCH  11  12
ENDBRANCH  10  11
ENDBRANCH   2  10
TORSDOF 6
ENDMDL
MODEL 7
REMARK VINA RESULT:    -5.181      2.242      4.616
REMARK INTER + INTRA:          -7.729
REMARK INTER:                  -6.008
REMARK INTRA:                  -1.721
REMARK UNBOUND:                -0.731
REMARK SMILES CC(=O)CCC=C(C)CCC=C(C)C
REMARK SMILES IDX 7 1 6 2 8 3 9 4 10 5 11 6 13 7 12 8 14 9 5 10 4 11 2 12 3 13
REMARK SMILES IDX 1 14
REMARK H PARENT
REMARK Flexibility Score: inf
ROOT
ATOM      1  C   UNL     1      14.574 -30.223  22.734  1.00  0.00    -0.077 C 
ATOM      2  C   UNL     1      15.781 -29.902  23.252  1.00  0.00    -0.028 C 
ATOM      3  C   UNL     1      13.353 -30.030  23.597  1.00  0.00     0.039 C 
ENDROOT
BRANCH   1   4
ATOM      4  C   UNL     1      14.390 -30.713  21.311  1.00  0.00     0.034 C 
BRANCH   4   5
ATOM      5  C   UNL     1      13.743 -32.102  21.295  1.00  0.00     0.032 C 
BRANCH   5   6
ATOM      6  C   UNL     1      14.773 -33.176  21.049  1.00  0.00    -0.028 C 
ATOM      7  C   UNL     1      15.017 -33.740  23.480  1.00  0.00     0.039 C 
ATOM      8  C   UNL     1      15.344 -33.929  22.017  1.00  0.00    -0.080 C 
ATOM      9  C   UNL     1      16.351 -34.974  21.610  1.00  0.00     0.039 C 
ENDBRANCH   5   6
ENDBRANCH   4   5
ENDBRANCH   1   4
BRANCH   2  10
ATOM     10  C   UNL     1      17.101 -30.060  22.537  1.00  0.00     0.035 C 
BRANCH  10  11
ATOM     11  C   UNL     1      17.959 -31.166  23.166  1.00  0.00     0.079 C 
BRANCH  11  12
ATOM     12  C   UNL     1      18.547 -32.076  22.117  1.00  0.00     0.130 C 
ATOM     13  O   UNL     1      19.275 -32.996  22.458  1.00  0.00    -0.300 OA
ATOM     14  C   UNL     1      18.258 -31.874  20.659  1.00  0.00     0.087 C 
ENDBRANCH  11  12
ENDBRANCH  10  11
ENDBRANCH   2  10
TORSDOF 6
ENDMDL
MODEL 8
REMARK VINA RESULT:    -5.108      2.353      5.307
REMARK INTER + INTRA:          -7.630
REMARK INTER:                  -6.320
REMARK INTRA:                  -1.310
REMARK UNBOUND:                -0.731
REMARK SMILES CC(=O)CCC=C(C)CCC=C(C)C
REMARK SMILES IDX 7 1 6 2 8 3 9 4 10 5 11 6 13 7 12 8 14 9 5 10 4 11 2 12 3 13
REMARK SMILES IDX 1 14
REMARK H PARENT
REMARK Flexibility Score: inf
ROOT
ATOM      1  C   UNL     1      16.671 -35.157  19.812  1.00  0.00    -0.077 C 
ATOM      2  C   UNL     1      15.408 -34.969  20.258  1.00  0.00    -0.028 C 
ATOM      3  C   UNL     1      17.202 -36.566  19.750  1.00  0.00     0.039 C 
ENDROOT
BRANCH   1   4
ATOM      4  C   UNL     1      17.552 -34.024  19.323  1.00  0.00     0.034 C 
BRANCH   4   5
ATOM      5  C   UNL     1      18.331 -33.401  20.487  1.00  0.00     0.032 C 
BRANCH   5   6
ATOM      6  C   UNL     1      18.009 -31.935  20.630  1.00  0.00    -0.028 C 
ATOM      7  C   UNL     1      17.882 -32.029  23.132  1.00  0.00     0.039 C 
ATOM      8  C   UNL     1      17.818 -31.301  21.809  1.00  0.00    -0.080 C 
ATOM      9  C   UNL     1      17.514 -29.825  21.789  1.00  0.00     0.039 C 
ENDBRANCH   5   6
ENDBRANCH   4   5
ENDBRANCH   1   4
BRANCH   2  10
ATOM     10  C   UNL     1      14.734 -33.626  20.410  1.00  0.00     0.035 C 
BRANCH  10  11
ATOM     11  C   UNL     1      14.635 -33.204  21.882  1.00  0.00     0.079 C 
BRANCH  11  12
ATOM     12  C   UNL     1      14.186 -31.771  22.019  1.00  0.00     0.130 C 
ATOM     13  O   UNL     1      14.128 -31.062  21.025  1.00  0.00    -0.300 OA
ATOM     14  C   UNL     1      13.811 -31.195  23.352  1.00  0.00     0.087 C 
ENDBRANCH  11  12
ENDBRANCH  10  11
ENDBRANCH   2  10
TORSDOF 6
ENDMDL
MODEL 9
REMARK VINA RESULT:    -4.324      1.536      2.524
REMARK INTER + INTRA:          -6.571
REMARK INTER:                  -5.589
REMARK INTRA:                  -0.981
REMARK UNBOUND:                -0.731
REMARK SMILES CC(=O)CCC=C(C)CCC=C(C)C
REMARK SMILES IDX 7 1 6 2 8 3 9 4 10 5 11 6 13 7 12 8 14 9 5 10 4 11 2 12 3 13
REMARK SMILES IDX 1 14
REMARK H PARENT
REMARK Flexibility Score: inf
ROOT
ATOM      1  C   UNL     1      15.242 -33.663  22.973  1.00  0.00    -0.077 C 
ATOM      2  C   UNL     1      16.341 -34.440  23.105  1.00  0.00    -0.028 C 
ATOM      3  C   UNL     1      14.585 -33.139  24.225  1.00  0.00     0.039 C 
ENDROOT
BRANCH   1   4
ATOM      4  C   UNL     1      14.676 -33.252  21.628  1.00  0.00     0.034 C 
BRANCH   4   5
ATOM      5  C   UNL     1      14.487 -31.733  21.559  1.00  0.00     0.032 C 
BRANCH   5   6
ATOM      6  C   UNL     1      13.041 -31.377  21.324  1.00  0.00    -0.028 C 
ATOM      7  C   UNL     1      12.880 -29.945  23.375  1.00  0.00     0.039 C 
ATOM      8  C   UNL     1      12.309 -30.566  22.121  1.00  0.00    -0.080 C 
ATOM      9  C   UNL     1      10.875 -30.295  21.745  1.00  0.00     0.039 C 
ENDBRANCH   5   6
ENDBRANCH   4   5
ENDBRANCH   1   4
BRANCH   2  10
ATOM     10  C   UNL     1      17.099 -35.069  21.960  1.00  0.00     0.035 C 
BRANCH  10  11
ATOM     11  C   UNL     1      18.301 -34.213  21.537  1.00  0.00     0.079 C 
BRANCH  11  12
ATOM     12  C   UNL     1      17.986 -33.377  20.323  1.00  0.00     0.130 C 
ATOM     13  O   UNL     1      18.026 -32.159  20.404  1.00  0.00    -0.300 OA
ATOM     14  C   UNL     1      17.621 -34.011  19.013  1.00  0.00     0.087 C 
ENDBRANCH  11  12
ENDBRANCH  10  11
ENDBRANCH   2  10
TORSDOF 6
ENDMDL
