MODEL 1
REMARK VINA RESULT:    -6.107      0.000      0.000
REMARK INTER + INTRA:          -6.762
REMARK INTER:                  -6.643
REMARK INTRA:                  -0.120
REMARK UNBOUND:                -0.120
REMARK SMILES Cc1ccc(C(C)C)cc1O
REMARK SMILES IDX 1 1 2 2 10 3 9 4 5 5 4 6 3 7 11 8 6 10 7 11 8 12
REMARK H PARENT 11 9
REMARK Flexibility Score: inf
ROOT
ATOM      1  C   UNL     1     -10.650  61.485  40.235  1.00  0.00     0.048 C 
ATOM      2  C   UNL     1     -12.039  61.371  39.676  1.00  0.00    -0.009 A 
ATOM      3  C   UNL     1     -12.771  62.528  39.354  1.00  0.00     0.118 A 
ATOM      4  C   UNL     1     -14.068  62.414  38.833  1.00  0.00     0.050 A 
ATOM      5  C   UNL     1     -14.651  61.152  38.627  1.00  0.00    -0.042 A 
ATOM      6  C   UNL     1     -13.911  60.000  38.952  1.00  0.00     0.004 A 
ATOM      7  C   UNL     1     -12.619  60.110  39.471  1.00  0.00     0.007 A 
ENDROOT
BRANCH   3   8
ATOM      8  O   UNL     1     -12.207  63.788  39.553  1.00  0.00    -0.508 OA
ATOM      9  H   UNL     1     -12.654  64.631  39.211  1.00  0.00     0.293 HD
ENDBRANCH   3   8
BRANCH   5  10
ATOM     10  C   UNL     1     -16.055  61.047  38.063  1.00  0.00     0.013 C 
ATOM     11  C   UNL     1     -16.939  60.155  38.943  1.00  0.00     0.012 C 
ATOM     12  C   UNL     1     -16.682  62.434  37.878  1.00  0.00     0.012 C 
ENDBRANCH   5  10
TORSDOF 2
ENDMDL
MODEL 2
REMARK VINA RESULT:    -5.936      1.353      1.980
REMARK INTER + INTRA:          -6.576
REMARK INTER:                  -6.449
REMARK INTRA:                  -0.127
REMARK UNBOUND:                -0.120
REMARK SMILES Cc1ccc(C(C)C)cc1O
REMARK SMILES IDX 1 1 2 2 10 3 9 4 5 5 4 6 3 7 11 8 6 10 7 11 8 12
REMARK H PARENT 11 9
REMARK Flexibility Score: inf
ROOT
ATOM      1  C   UNL     1     -10.750  62.250  40.015  1.00  0.00     0.048 C 
ATOM      2  C   UNL     1     -12.139  61.934  39.538  1.00  0.00    -0.009 A 
ATOM      3  C   UNL     1     -12.630  60.619  39.606  1.00  0.00     0.118 A 
ATOM      4  C   UNL     1     -13.928  60.332  39.159  1.00  0.00     0.050 A 
ATOM      5  C   UNL     1     -14.750  61.347  38.639  1.00  0.00    -0.042 A 
ATOM      6  C   UNL     1     -14.249  62.660  38.574  1.00  0.00     0.004 A 
ATOM      7  C   UNL     1     -12.957  62.950  39.019  1.00  0.00     0.007 A 
ENDROOT
BRANCH   3   8
ATOM      8  O   UNL     1     -11.828  59.600  40.118  1.00  0.00    -0.508 OA
ATOM      9  H   UNL     1     -11.775  58.691  39.675  1.00  0.00     0.293 HD
ENDBRANCH   3   8
BRANCH   5  10
ATOM     10  C   UNL     1     -16.150  61.018  38.159  1.00  0.00     0.013 C 
ATOM     11  C   UNL     1     -16.864  60.077  39.137  1.00  0.00     0.012 C 
ATOM     12  C   UNL     1     -16.969  62.294  37.925  1.00  0.00     0.012 C 
ENDBRANCH   5  10
TORSDOF 2
ENDMDL
MODEL 3
REMARK VINA RESULT:    -5.918     14.015     16.237
REMARK INTER + INTRA:          -6.557
REMARK INTER:                  -6.457
REMARK INTRA:                  -0.100
REMARK UNBOUND:                -0.120
REMARK SMILES Cc1ccc(C(C)C)cc1O
REMARK SMILES IDX 1 1 2 2 10 3 9 4 5 5 4 6 3 7 11 8 6 10 7 11 8 12
REMARK H PARENT 11 9
REMARK Flexibility Score: inf
ROOT
ATOM      1  C   UNL     1      -6.597  60.757  55.672  1.00  0.00     0.048 C 
ATOM      2  C   UNL     1      -6.822  61.859  54.676  1.00  0.00    -0.009 A 
ATOM      3  C   UNL     1      -5.871  62.112  53.672  1.00  0.00     0.118 A 
ATOM      4  C   UNL     1      -6.088  63.143  52.746  1.00  0.00     0.050 A 
ATOM      5  C   UNL     1      -7.250  63.931  52.807  1.00  0.00    -0.042 A 
ATOM      6  C   UNL     1      -8.195  63.670  53.816  1.00  0.00     0.004 A 
ATOM      7  C   UNL     1      -7.983  62.645  54.740  1.00  0.00     0.007 A 
ENDROOT
BRANCH   3   8
ATOM      8  O   UNL     1      -4.712  61.340  53.597  1.00  0.00    -0.508 OA
ATOM      9  H   UNL     1      -4.532  60.726  52.811  1.00  0.00     0.293 HD
ENDBRANCH   3   8
BRANCH   5  10
ATOM     10  C   UNL     1      -7.468  65.042  51.798  1.00  0.00     0.013 C 
ATOM     11  C   UNL     1      -6.260  65.985  51.743  1.00  0.00     0.012 C 
ATOM     12  C   UNL     1      -7.787  64.473  50.410  1.00  0.00     0.012 C 
ENDBRANCH   5  10
TORSDOF 2
ENDMDL
MODEL 4
REMARK VINA RESULT:    -5.879      1.404      4.475
REMARK INTER + INTRA:          -6.515
REMARK INTER:                  -6.403
REMARK INTRA:                  -0.111
REMARK UNBOUND:                -0.120
REMARK SMILES Cc1ccc(C(C)C)cc1O
REMARK SMILES IDX 1 1 2 2 10 3 9 4 5 5 4 6 3 7 11 8 6 10 7 11 8 12
REMARK H PARENT 11 9
REMARK Flexibility Score: inf
ROOT
ATOM      1  C   UNL     1     -15.873  61.080  39.239  1.00  0.00     0.048 C 
ATOM      2  C   UNL     1     -14.396  61.342  39.303  1.00  0.00    -0.009 A 
ATOM      3  C   UNL     1     -13.882  62.598  38.936  1.00  0.00     0.118 A 
ATOM      4  C   UNL     1     -12.500  62.835  38.999  1.00  0.00     0.050 A 
ATOM      5  C   UNL     1     -11.618  61.829  39.426  1.00  0.00    -0.042 A 
ATOM      6  C   UNL     1     -12.142  60.575  39.792  1.00  0.00     0.004 A 
ATOM      7  C   UNL     1     -13.516  60.336  39.731  1.00  0.00     0.007 A 
ENDROOT
BRANCH   3   8
ATOM      8  O   UNL     1     -14.744  63.607  38.509  1.00  0.00    -0.508 OA
ATOM      9  H   UNL     1     -14.783  63.898  37.539  1.00  0.00     0.293 HD
ENDBRANCH   3   8
BRANCH   5  10
ATOM     10  C   UNL     1     -10.127  62.102  39.488  1.00  0.00     0.013 C 
ATOM     11  C   UNL     1      -9.764  63.368  38.702  1.00  0.00     0.012 C 
ATOM     12  C   UNL     1      -9.641  62.196  40.940  1.00  0.00     0.012 C 
ENDBRANCH   5  10
TORSDOF 2
ENDMDL
MODEL 5
REMARK VINA RESULT:    -5.865      2.180      3.545
REMARK INTER + INTRA:          -6.499
REMARK INTER:                  -6.378
REMARK INTRA:                  -0.121
REMARK UNBOUND:                -0.120
REMARK SMILES Cc1ccc(C(C)C)cc1O
REMARK SMILES IDX 1 1 2 2 10 3 9 4 5 5 4 6 3 7 11 8 6 10 7 11 8 12
REMARK H PARENT 11 9
REMARK Flexibility Score: inf
ROOT
ATOM      1  C   UNL     1      -8.477  64.283  40.071  1.00  0.00     0.048 C 
ATOM      2  C   UNL     1      -9.530  63.212  40.049  1.00  0.00    -0.009 A 
ATOM      3  C   UNL     1     -10.400  63.095  38.951  1.00  0.00     0.118 A 
ATOM      4  C   UNL     1     -11.380  62.091  38.938  1.00  0.00     0.050 A 
ATOM      5  C   UNL     1     -11.506  61.196  40.014  1.00  0.00    -0.042 A 
ATOM      6  C   UNL     1     -10.631  61.321  41.108  1.00  0.00     0.004 A 
ATOM      7  C   UNL     1      -9.653  62.318  41.124  1.00  0.00     0.007 A 
ENDROOT
BRANCH   3   8
ATOM      8  O   UNL     1     -10.289  63.976  37.876  1.00  0.00    -0.508 OA
ATOM      9  H   UNL     1      -9.396  64.170  37.437  1.00  0.00     0.293 HD
ENDBRANCH   3   8
BRANCH   5  10
ATOM     10  C   UNL     1     -12.572  60.118  39.983  1.00  0.00     0.013 C 
ATOM     11  C   UNL     1     -13.361  60.083  41.297  1.00  0.00     0.012 C 
ATOM     12  C   UNL     1     -13.508  60.299  38.782  1.00  0.00     0.012 C 
ENDBRANCH   5  10
TORSDOF 2
ENDMDL
MODEL 6
REMARK VINA RESULT:    -5.703      2.143      5.257
REMARK INTER + INTRA:          -6.323
REMARK INTER:                  -6.223
REMARK INTRA:                  -0.100
REMARK UNBOUND:                -0.120
REMARK SMILES Cc1ccc(C(C)C)cc1O
REMARK SMILES IDX 1 1 2 2 10 3 9 4 5 5 4 6 3 7 11 8 6 10 7 11 8 12
REMARK H PARENT 11 9
REMARK Flexibility Score: inf
ROOT
ATOM      1  C   UNL     1     -13.383  60.321  39.166  1.00  0.00     0.048 C 
ATOM      2  C   UNL     1     -12.231  61.226  39.498  1.00  0.00    -0.009 A 
ATOM      3  C   UNL     1     -12.222  62.556  39.044  1.00  0.00     0.118 A 
ATOM      4  C   UNL     1     -11.142  63.396  39.358  1.00  0.00     0.050 A 
ATOM      5  C   UNL     1     -10.063  62.922  40.124  1.00  0.00    -0.042 A 
ATOM      6  C   UNL     1     -10.082  61.590  40.574  1.00  0.00     0.004 A 
ATOM      7  C   UNL     1     -11.155  60.751  40.264  1.00  0.00     0.007 A 
ENDROOT
BRANCH   3   8
ATOM      8  O   UNL     1     -13.284  63.042  38.282  1.00  0.00    -0.508 OA
ATOM      9  H   UNL     1     -14.148  62.521  38.182  1.00  0.00     0.293 HD
ENDBRANCH   3   8
BRANCH   5  10
ATOM     10  C   UNL     1      -8.904  63.844  40.454  1.00  0.00     0.013 C 
ATOM     11  C   UNL     1      -8.378  64.542  39.195  1.00  0.00     0.012 C 
ATOM     12  C   UNL     1      -9.298  64.866  41.528  1.00  0.00     0.012 C 
ENDBRANCH   5  10
TORSDOF 2
ENDMDL
MODEL 7
REMARK VINA RESULT:    -5.652      3.209      5.877
REMARK INTER + INTRA:          -6.267
REMARK INTER:                  -6.141
REMARK INTRA:                  -0.126
REMARK UNBOUND:                -0.120
REMARK SMILES Cc1ccc(C(C)C)cc1O
REMARK SMILES IDX 1 1 2 2 10 3 9 4 5 5 4 6 3 7 11 8 6 10 7 11 8 12
REMARK H PARENT 11 9
REMARK Flexibility Score: inf
ROOT
ATOM      1  C   UNL     1     -12.295  60.394  40.142  1.00  0.00     0.048 C 
ATOM      2  C   UNL     1     -11.278  61.481  39.948  1.00  0.00    -0.009 A 
ATOM      3  C   UNL     1     -10.348  61.772  40.962  1.00  0.00     0.118 A 
ATOM      4  C   UNL     1      -9.401  62.789  40.773  1.00  0.00     0.050 A 
ATOM      5  C   UNL     1      -9.368  63.527  39.577  1.00  0.00    -0.042 A 
ATOM      6  C   UNL     1     -10.302  63.228  38.568  1.00  0.00     0.004 A 
ATOM      7  C   UNL     1     -11.246  62.216  38.753  1.00  0.00     0.007 A 
ENDROOT
BRANCH   3   8
ATOM      8  O   UNL     1     -10.368  61.050  42.155  1.00  0.00    -0.508 OA
ATOM      9  H   UNL     1     -10.671  61.471  43.026  1.00  0.00     0.293 HD
ENDBRANCH   3   8
BRANCH   5  10
ATOM     10  C   UNL     1      -8.337  64.624  39.390  1.00  0.00     0.013 C 
ATOM     11  C   UNL     1      -8.434  65.240  37.989  1.00  0.00     0.012 C 
ATOM     12  C   UNL     1      -8.470  65.699  40.476  1.00  0.00     0.012 C 
ENDBRANCH   5  10
TORSDOF 2
ENDMDL
MODEL 8
REMARK VINA RESULT:    -5.625      2.130      4.749
REMARK INTER + INTRA:          -6.238
REMARK INTER:                  -6.112
REMARK INTRA:                  -0.127
REMARK UNBOUND:                -0.120
REMARK SMILES Cc1ccc(C(C)C)cc1O
REMARK SMILES IDX 1 1 2 2 10 3 9 4 5 5 4 6 3 7 11 8 6 10 7 11 8 12
REMARK H PARENT 11 9
REMARK Flexibility Score: inf
ROOT
ATOM      1  C   UNL     1     -17.804  62.296  37.875  1.00  0.00     0.048 C 
ATOM      2  C   UNL     1     -16.382  61.968  38.230  1.00  0.00    -0.009 A 
ATOM      3  C   UNL     1     -16.003  60.638  38.482  1.00  0.00     0.118 A 
ATOM      4  C   UNL     1     -14.672  60.340  38.813  1.00  0.00     0.050 A 
ATOM      5  C   UNL     1     -13.707  61.358  38.896  1.00  0.00    -0.042 A 
ATOM      6  C   UNL     1     -14.096  62.686  38.641  1.00  0.00     0.004 A 
ATOM      7  C   UNL     1     -15.420  62.987  38.312  1.00  0.00     0.007 A 
ENDROOT
BRANCH   3   8
ATOM      8  O   UNL     1     -16.948  59.616  38.405  1.00  0.00    -0.508 OA
ATOM      9  H   UNL     1     -17.495  59.336  39.211  1.00  0.00     0.293 HD
ENDBRANCH   3   8
BRANCH   5  10
ATOM     10  C   UNL     1     -12.273  61.018  39.255  1.00  0.00     0.013 C 
ATOM     11  C   UNL     1     -11.442  62.287  39.475  1.00  0.00     0.012 C 
ATOM     12  C   UNL     1     -12.214  60.100  40.482  1.00  0.00     0.012 C 
ENDBRANCH   5  10
TORSDOF 2
ENDMDL
MODEL 9
REMARK VINA RESULT:    -5.587      2.197      5.249
REMARK INTER + INTRA:          -6.197
REMARK INTER:                  -6.072
REMARK INTRA:                  -0.125
REMARK UNBOUND:                -0.120
REMARK SMILES Cc1ccc(C(C)C)cc1O
REMARK SMILES IDX 1 1 2 2 10 3 9 4 5 5 4 6 3 7 11 8 6 10 7 11 8 12
REMARK H PARENT 11 9
REMARK Flexibility Score: inf
ROOT
ATOM      1  C   UNL     1     -14.377  60.657  38.822  1.00  0.00     0.048 C 
ATOM      2  C   UNL     1     -13.099  61.339  39.221  1.00  0.00    -0.009 A 
ATOM      3  C   UNL     1     -12.061  60.605  39.820  1.00  0.00     0.118 A 
ATOM      4  C   UNL     1     -10.871  61.249  40.189  1.00  0.00     0.050 A 
ATOM      5  C   UNL     1     -10.701  62.626  39.968  1.00  0.00    -0.042 A 
ATOM      6  C   UNL     1     -11.746  63.352  39.368  1.00  0.00     0.004 A 
ATOM      7  C   UNL     1     -12.932  62.715  38.999  1.00  0.00     0.007 A 
ENDROOT
BRANCH   3   8
ATOM      8  O   UNL     1     -12.214  59.237  40.046  1.00  0.00    -0.508 OA
ATOM      9  H   UNL     1     -11.532  58.707  40.577  1.00  0.00     0.293 HD
ENDBRANCH   3   8
BRANCH   5  10
ATOM     10  C   UNL     1      -9.407  63.306  40.375  1.00  0.00     0.013 C 
ATOM     11  C   UNL     1      -8.858  64.174  39.236  1.00  0.00     0.012 C 
ATOM     12  C   UNL     1      -9.594  64.129  41.655  1.00  0.00     0.012 C 
ENDBRANCH   5  10
TORSDOF 2
ENDMDL
