MODEL 1
REMARK VINA RESULT:    -3.747      0.000      0.000
REMARK INTER + INTRA:          -3.857
REMARK INTER:                  -3.857
REMARK INTRA:                   0.000
REMARK UNBOUND:                 0.000
REMARK SMILES Oc1ccc2[nH]ccc2c1
REMARK SMILES IDX 3 1 4 2 5 3 9 4 8 5 7 6 6 7 10 8 2 9 1 11
REMARK H PARENT 6 10 1 12
REMARK Flexibility Score: inf
ROOT
ATOM      1  C   UNL     1       6.110  24.728   5.880  1.00  0.00     0.048 A 
ATOM      2  C   UNL     1       6.387  23.645   5.026  1.00  0.00     0.030 A 
ATOM      3  C   UNL     1       5.335  22.795   4.690  1.00  0.00     0.046 A 
ATOM      4  C   UNL     1       4.067  22.995   5.170  1.00  0.00     0.003 A 
ATOM      5  C   UNL     1       3.271  21.994   4.658  1.00  0.00     0.028 A 
ATOM      6  C   UNL     1       4.120  21.218   3.875  1.00  0.00     0.083 A 
ATOM      7  N   UNL     1       5.380  21.711   3.898  1.00  0.00    -0.361 N 
ATOM      8  C   UNL     1       3.759  24.057   6.016  1.00  0.00     0.056 A 
ATOM      9  C   UNL     1       4.802  24.938   6.375  1.00  0.00     0.116 A 
ATOM     10  H   UNL     1       6.214  21.326   3.401  1.00  0.00     0.166 HD
ENDROOT
BRANCH   9  11
ATOM     11  O   UNL     1       4.554  26.018   7.219  1.00  0.00    -0.508 OA
ATOM     12  H   UNL     1       3.643  26.461   7.258  1.00  0.00     0.293 HD
ENDBRANCH   9  11
TORSDOF 1
ENDMDL
MODEL 2
REMARK VINA RESULT:    -3.311     13.378     14.429
REMARK INTER + INTRA:          -3.408
REMARK INTER:                  -3.408
REMARK INTRA:                   0.000
REMARK UNBOUND:                 0.000
REMARK SMILES Oc1ccc2[nH]ccc2c1
REMARK SMILES IDX 3 1 4 2 5 3 9 4 8 5 7 6 6 7 10 8 2 9 1 11
REMARK H PARENT 6 10 1 12
REMARK Flexibility Score: inf
ROOT
ATOM      1  C   UNL     1      -9.491  20.953  11.964  1.00  0.00     0.048 A 
ATOM      2  C   UNL     1      -9.352  21.664  10.757  1.00  0.00     0.030 A 
ATOM      3  C   UNL     1      -8.098  22.193  10.454  1.00  0.00     0.046 A 
ATOM      4  C   UNL     1      -7.028  22.034  11.293  1.00  0.00     0.003 A 
ATOM      5  C   UNL     1      -5.951  22.667  10.712  1.00  0.00     0.028 A 
ATOM      6  C   UNL     1      -6.438  23.192   9.519  1.00  0.00     0.083 A 
ATOM      7  N   UNL     1      -7.751  22.899   9.366  1.00  0.00    -0.361 N 
ATOM      8  C   UNL     1      -7.131  21.336  12.494  1.00  0.00     0.056 A 
ATOM      9  C   UNL     1      -8.386  20.786  12.832  1.00  0.00     0.116 A 
ATOM     10  H   UNL     1      -8.364  23.169   8.564  1.00  0.00     0.166 HD
ENDROOT
BRANCH   9  11
ATOM     11  O   UNL     1      -8.550  20.079  14.020  1.00  0.00    -0.508 OA
ATOM     12  H   UNL     1      -9.443  20.050  14.499  1.00  0.00     0.293 HD
ENDBRANCH   9  11
TORSDOF 1
ENDMDL
MODEL 3
REMARK VINA RESULT:    -3.266     14.507     15.491
REMARK INTER + INTRA:          -3.362
REMARK INTER:                  -3.362
REMARK INTRA:                   0.000
REMARK UNBOUND:                 0.000
REMARK SMILES Oc1ccc2[nH]ccc2c1
REMARK SMILES IDX 3 1 4 2 5 3 9 4 8 5 7 6 6 7 10 8 2 9 1 11
REMARK H PARENT 6 10 1 12
REMARK Flexibility Score: inf
ROOT
ATOM      1  C   UNL     1      -8.943  22.702  15.142  1.00  0.00     0.048 A 
ATOM      2  C   UNL     1      -8.191  23.586  14.346  1.00  0.00     0.030 A 
ATOM      3  C   UNL     1      -7.555  23.066  13.220  1.00  0.00     0.046 A 
ATOM      4  C   UNL     1      -7.650  21.741  12.886  1.00  0.00     0.003 A 
ATOM      5  C   UNL     1      -6.918  21.553  11.735  1.00  0.00     0.028 A 
ATOM      6  C   UNL     1      -6.402  22.806  11.422  1.00  0.00     0.083 A 
ATOM      7  N   UNL     1      -6.794  23.728  12.333  1.00  0.00    -0.361 N 
ATOM      8  C   UNL     1      -8.387  20.840  13.651  1.00  0.00     0.056 A 
ATOM      9  C   UNL     1      -9.044  21.333  14.799  1.00  0.00     0.116 A 
ATOM     10  H   UNL     1      -6.553  24.744  12.340  1.00  0.00     0.166 HD
ENDROOT
BRANCH   9  11
ATOM     11  O   UNL     1      -9.795  20.480  15.604  1.00  0.00    -0.508 OA
ATOM     12  H   UNL     1     -10.509  20.835  16.229  1.00  0.00     0.293 HD
ENDBRANCH   9  11
TORSDOF 1
ENDMDL
MODEL 4
REMARK VINA RESULT:    -3.247     13.752     14.703
REMARK INTER + INTRA:          -3.342
REMARK INTER:                  -3.342
REMARK INTRA:                   0.000
REMARK UNBOUND:                 0.000
REMARK SMILES Oc1ccc2[nH]ccc2c1
REMARK SMILES IDX 3 1 4 2 5 3 9 4 8 5 7 6 6 7 10 8 2 9 1 11
REMARK H PARENT 6 10 1 12
REMARK Flexibility Score: inf
ROOT
ATOM      1  C   UNL     1      -7.317  22.585  10.263  1.00  0.00     0.048 A 
ATOM      2  C   UNL     1      -8.630  22.091  10.378  1.00  0.00     0.030 A 
ATOM      3  C   UNL     1      -8.959  21.382  11.532  1.00  0.00     0.046 A 
ATOM      4  C   UNL     1      -8.046  21.166  12.529  1.00  0.00     0.003 A 
ATOM      5  C   UNL     1      -8.678  20.444  13.517  1.00  0.00     0.028 A 
ATOM      6  C   UNL     1      -9.977  20.253  13.055  1.00  0.00     0.083 A 
ATOM      7  N   UNL     1     -10.144  20.829  11.841  1.00  0.00    -0.361 N 
ATOM      8  C   UNL     1      -6.739  21.641  12.447  1.00  0.00     0.056 A 
ATOM      9  C   UNL     1      -6.372  22.364  11.292  1.00  0.00     0.116 A 
ATOM     10  H   UNL     1     -11.015  20.839  11.267  1.00  0.00     0.166 HD
ENDROOT
BRANCH   9  11
ATOM     11  O   UNL     1      -5.079  22.863  11.153  1.00  0.00    -0.508 OA
ATOM     12  H   UNL     1      -4.559  23.213  11.950  1.00  0.00     0.293 HD
ENDBRANCH   9  11
TORSDOF 1
ENDMDL
MODEL 5
REMARK VINA RESULT:    -3.192      9.837     10.814
REMARK INTER + INTRA:          -3.285
REMARK INTER:                  -3.285
REMARK INTRA:                   0.000
REMARK UNBOUND:                 0.000
REMARK SMILES Oc1ccc2[nH]ccc2c1
REMARK SMILES IDX 3 1 4 2 5 3 9 4 8 5 7 6 6 7 10 8 2 9 1 11
REMARK H PARENT 6 10 1 12
REMARK Flexibility Score: inf
ROOT
ATOM      1  C   UNL     1      -3.326  24.387   8.852  1.00  0.00     0.048 A 
ATOM      2  C   UNL     1      -4.564  23.826   8.487  1.00  0.00     0.030 A 
ATOM      3  C   UNL     1      -5.371  23.316   9.502  1.00  0.00     0.046 A 
ATOM      4  C   UNL     1      -4.985  23.351  10.815  1.00  0.00     0.003 A 
ATOM      5  C   UNL     1      -5.993  22.775  11.556  1.00  0.00     0.028 A 
ATOM      6  C   UNL     1      -6.963  22.408  10.628  1.00  0.00     0.083 A 
ATOM      7  N   UNL     1      -6.579  22.741   9.374  1.00  0.00    -0.361 N 
ATOM      8  C   UNL     1      -3.768  23.900  11.210  1.00  0.00     0.056 A 
ATOM      9  C   UNL     1      -2.926  24.427  10.208  1.00  0.00     0.116 A 
ATOM     10  H   UNL     1      -7.114  22.582   8.492  1.00  0.00     0.166 HD
ENDROOT
BRANCH   9  11
ATOM     11  O   UNL     1      -1.696  24.988  10.542  1.00  0.00    -0.508 OA
ATOM     12  H   UNL     1      -1.100  24.572  11.250  1.00  0.00     0.293 HD
ENDBRANCH   9  11
TORSDOF 1
ENDMDL
MODEL 6
REMARK VINA RESULT:    -3.169      9.880     10.829
REMARK INTER + INTRA:          -3.261
REMARK INTER:                  -3.261
REMARK INTRA:                   0.000
REMARK UNBOUND:                 0.000
REMARK SMILES Oc1ccc2[nH]ccc2c1
REMARK SMILES IDX 3 1 4 2 5 3 9 4 8 5 7 6 6 7 10 8 2 9 1 11
REMARK H PARENT 6 10 1 12
REMARK Flexibility Score: inf
ROOT
ATOM      1  C   UNL     1      -2.980  24.364  10.013  1.00  0.00     0.048 A 
ATOM      2  C   UNL     1      -3.747  23.846  11.073  1.00  0.00     0.030 A 
ATOM      3  C   UNL     1      -4.960  23.236  10.761  1.00  0.00     0.046 A 
ATOM      4  C   UNL     1      -5.405  23.137   9.469  1.00  0.00     0.003 A 
ATOM      5  C   UNL     1      -6.620  22.490   9.501  1.00  0.00     0.028 A 
ATOM      6  C   UNL     1      -6.857  22.223  10.846  1.00  0.00     0.083 A 
ATOM      7  N   UNL     1      -5.839  22.681  11.612  1.00  0.00    -0.361 N 
ATOM      8  C   UNL     1      -4.671  23.639   8.398  1.00  0.00     0.056 A 
ATOM      9  C   UNL     1      -3.436  24.262   8.678  1.00  0.00     0.116 A 
ATOM     10  H   UNL     1      -5.758  22.615  12.651  1.00  0.00     0.166 HD
ENDROOT
BRANCH   9  11
ATOM     11  O   UNL     1      -2.658  24.783   7.648  1.00  0.00    -0.508 OA
ATOM     12  H   UNL     1      -2.306  24.195   6.901  1.00  0.00     0.293 HD
ENDBRANCH   9  11
TORSDOF 1
ENDMDL
MODEL 7
REMARK VINA RESULT:    -3.146     14.258     15.176
REMARK INTER + INTRA:          -3.238
REMARK INTER:                  -3.238
REMARK INTRA:                   0.000
REMARK UNBOUND:                 0.000
REMARK SMILES Oc1ccc2[nH]ccc2c1
REMARK SMILES IDX 3 1 4 2 5 3 9 4 8 5 7 6 6 7 10 8 2 9 1 11
REMARK H PARENT 6 10 1 12
REMARK Flexibility Score: inf
ROOT
ATOM      1  C   UNL     1      -6.724  21.997  11.301  1.00  0.00     0.048 A 
ATOM      2  C   UNL     1      -6.953  21.346  12.527  1.00  0.00     0.030 A 
ATOM      3  C   UNL     1      -8.247  20.905  12.798  1.00  0.00     0.046 A 
ATOM      4  C   UNL     1      -9.272  21.093  11.909  1.00  0.00     0.003 A 
ATOM      5  C   UNL     1     -10.407  20.549  12.470  1.00  0.00     0.028 A 
ATOM      6  C   UNL     1     -10.001  20.049  13.703  1.00  0.00     0.083 A 
ATOM      7  N   UNL     1      -8.680  20.269  13.899  1.00  0.00    -0.361 N 
ATOM      8  C   UNL     1      -9.080  21.731  10.687  1.00  0.00     0.056 A 
ATOM      9  C   UNL     1      -7.781  22.190  10.380  1.00  0.00     0.116 A 
ATOM     10  H   UNL     1      -8.117  19.997  14.735  1.00  0.00     0.166 HD
ENDROOT
BRANCH   9  11
ATOM     11  O   UNL     1      -7.527  22.837   9.173  1.00  0.00    -0.508 OA
ATOM     12  H   UNL     1      -8.257  23.338   8.678  1.00  0.00     0.293 HD
ENDBRANCH   9  11
TORSDOF 1
ENDMDL
MODEL 8
REMARK VINA RESULT:    -3.099     14.671     15.740
REMARK INTER + INTRA:          -3.190
REMARK INTER:                  -3.190
REMARK INTRA:                   0.000
REMARK UNBOUND:                 0.000
REMARK SMILES Oc1ccc2[nH]ccc2c1
REMARK SMILES IDX 3 1 4 2 5 3 9 4 8 5 7 6 6 7 10 8 2 9 1 11
REMARK H PARENT 6 10 1 12
REMARK Flexibility Score: inf
ROOT
ATOM      1  C   UNL     1      -8.612  20.554  13.613  1.00  0.00     0.048 A 
ATOM      2  C   UNL     1      -7.880  21.221  12.613  1.00  0.00     0.030 A 
ATOM      3  C   UNL     1      -7.614  22.577  12.795  1.00  0.00     0.046 A 
ATOM      4  C   UNL     1      -8.045  23.252  13.906  1.00  0.00     0.003 A 
ATOM      5  C   UNL     1      -7.625  24.557  13.784  1.00  0.00     0.028 A 
ATOM      6  C   UNL     1      -6.944  24.609  12.572  1.00  0.00     0.083 A 
ATOM      7  N   UNL     1      -6.940  23.396  11.971  1.00  0.00    -0.361 N 
ATOM      8  C   UNL     1      -8.771  22.622  14.915  1.00  0.00     0.056 A 
ATOM      9  C   UNL     1      -9.057  21.249  14.763  1.00  0.00     0.116 A 
ATOM     10  H   UNL     1      -6.502  23.151  11.056  1.00  0.00     0.166 HD
ENDROOT
BRANCH   9  11
ATOM     11  O   UNL     1      -9.779  20.566  15.738  1.00  0.00    -0.508 OA
ATOM     12  H   UNL     1     -10.245  19.689  15.533  1.00  0.00     0.293 HD
ENDBRANCH   9  11
TORSDOF 1
ENDMDL
