MODEL 1
REMARK VINA RESULT:    -4.800      0.000      0.000
REMARK INTER + INTRA:          -5.780
REMARK INTER:                  -5.502
REMARK INTRA:                  -0.277
REMARK UNBOUND:                -0.277
REMARK SMILES O=C([O-])C=Cc1ccc(O)cc1
REMARK SMILES IDX 6 1 7 2 12 3 8 4 11 5 9 6 5 7 4 8 2 9 1 10 3 11 10 12
REMARK H PARENT 10 13
REMARK Flexibility Score: inf
ROOT
ATOM      1  C   UNL     1      21.703  33.121  23.027  1.00  0.00    -0.025 A 
ATOM      2  C   UNL     1      21.587  31.924  22.303  1.00  0.00     0.012 A 
ATOM      3  C   UNL     1      21.776  33.071  24.429  1.00  0.00     0.012 A 
ATOM      4  C   UNL     1      21.493  30.700  22.974  1.00  0.00     0.047 A 
ATOM      5  C   UNL     1      21.682  31.847  25.098  1.00  0.00     0.047 A 
ATOM      6  C   UNL     1      21.536  30.658  24.371  1.00  0.00     0.115 A 
ENDROOT
BRANCH   1   7
ATOM      7  C   UNL     1      21.854  34.396  22.295  1.00  0.00     0.010 C 
ATOM      8  C   UNL     1      22.993  34.846  21.748  1.00  0.00     0.025 C 
BRANCH   8   9
ATOM      9  C   UNL     1      24.328  34.249  21.941  1.00  0.00     0.064 C 
ATOM     10  O   UNL     1      24.964  34.491  23.000  1.00  0.00    -0.545 OA
ATOM     11  O   UNL     1      24.871  33.369  21.013  1.00  0.00    -0.545 OA
ENDBRANCH   8   9
ENDBRANCH   1   7
BRANCH   6  12
ATOM     12  O   UNL     1      21.439  29.432  25.026  1.00  0.00    -0.508 OA
ATOM     13  H   UNL     1      22.256  28.855  25.193  1.00  0.00     0.293 HD
ENDBRANCH   6  12
TORSDOF 3
ENDMDL
MODEL 2
REMARK VINA RESULT:    -4.650      1.076      1.858
REMARK INTER + INTRA:          -5.607
REMARK INTER:                  -5.358
REMARK INTRA:                  -0.249
REMARK UNBOUND:                -0.277
REMARK SMILES O=C([O-])C=Cc1ccc(O)cc1
REMARK SMILES IDX 6 1 7 2 12 3 8 4 11 5 9 6 5 7 4 8 2 9 1 10 3 11 10 12
REMARK H PARENT 10 13
REMARK Flexibility Score: inf
ROOT
ATOM      1  C   UNL     1      22.105  33.438  22.322  1.00  0.00    -0.025 A 
ATOM      2  C   UNL     1      21.922  32.927  23.615  1.00  0.00     0.012 A 
ATOM      3  C   UNL     1      21.712  32.666  21.215  1.00  0.00     0.012 A 
ATOM      4  C   UNL     1      21.402  31.641  23.798  1.00  0.00     0.047 A 
ATOM      5  C   UNL     1      21.193  31.381  21.400  1.00  0.00     0.047 A 
ATOM      6  C   UNL     1      21.041  30.864  22.694  1.00  0.00     0.115 A 
ENDROOT
BRANCH   1   7
ATOM      7  C   UNL     1      22.605  34.819  22.155  1.00  0.00     0.010 C 
ATOM      8  C   UNL     1      23.879  35.159  21.905  1.00  0.00     0.025 C 
BRANCH   8   9
ATOM      9  C   UNL     1      25.032  34.239  21.941  1.00  0.00     0.064 C 
ATOM     10  O   UNL     1      25.830  34.292  22.914  1.00  0.00    -0.545 OA
ATOM     11  O   UNL     1      25.218  33.268  20.965  1.00  0.00    -0.545 OA
ENDBRANCH   8   9
ENDBRANCH   1   7
BRANCH   6  12
ATOM     12  O   UNL     1      20.527  29.584  22.891  1.00  0.00    -0.508 OA
ATOM     13  H   UNL     1      20.997  28.763  22.526  1.00  0.00     0.293 HD
ENDBRANCH   6  12
TORSDOF 3
ENDMDL
MODEL 3
REMARK VINA RESULT:    -4.599     11.833     13.320
REMARK INTER + INTRA:          -5.549
REMARK INTER:                  -5.306
REMARK INTRA:                  -0.243
REMARK UNBOUND:                -0.277
REMARK SMILES O=C([O-])C=Cc1ccc(O)cc1
REMARK SMILES IDX 6 1 7 2 12 3 8 4 11 5 9 6 5 7 4 8 2 9 1 10 3 11 10 12
REMARK H PARENT 10 13
REMARK Flexibility Score: inf
ROOT
ATOM      1  C   UNL     1      33.480  26.364  18.724  1.00  0.00    -0.025 A 
ATOM      2  C   UNL     1      33.373  27.763  18.721  1.00  0.00     0.012 A 
ATOM      3  C   UNL     1      32.481  25.596  18.099  1.00  0.00     0.012 A 
ATOM      4  C   UNL     1      32.258  28.384  18.148  1.00  0.00     0.047 A 
ATOM      5  C   UNL     1      31.368  26.219  17.527  1.00  0.00     0.047 A 
ATOM      6  C   UNL     1      31.252  27.616  17.554  1.00  0.00     0.115 A 
ENDROOT
BRANCH   1   7
ATOM      7  C   UNL     1      34.691  25.733  19.288  1.00  0.00     0.010 C 
ATOM      8  C   UNL     1      34.893  25.461  20.586  1.00  0.00     0.025 C 
BRANCH   8   9
ATOM      9  C   UNL     1      34.033  25.910  21.697  1.00  0.00     0.064 C 
ATOM     10  O   UNL     1      33.081  25.178  22.073  1.00  0.00    -0.545 OA
ATOM     11  O   UNL     1      34.294  27.089  22.386  1.00  0.00    -0.545 OA
ENDBRANCH   8   9
ENDBRANCH   1   7
BRANCH   6  12
ATOM     12  O   UNL     1      30.147  28.248  16.989  1.00  0.00    -0.508 OA
ATOM     13  H   UNL     1      29.205  27.902  17.138  1.00  0.00     0.293 HD
ENDBRANCH   6  12
TORSDOF 3
ENDMDL
MODEL 4
REMARK VINA RESULT:    -4.511     12.393     13.261
REMARK INTER + INTRA:          -5.448
REMARK INTER:                  -5.233
REMARK INTRA:                  -0.215
REMARK UNBOUND:                -0.277
REMARK SMILES O=C([O-])C=Cc1ccc(O)cc1
REMARK SMILES IDX 6 1 7 2 12 3 8 4 11 5 9 6 5 7 4 8 2 9 1 10 3 11 10 12
REMARK H PARENT 10 13
REMARK Flexibility Score: inf
ROOT
ATOM      1  C   UNL     1      34.712  26.971  20.701  1.00  0.00    -0.025 A 
ATOM      2  C   UNL     1      34.222  25.753  21.197  1.00  0.00     0.012 A 
ATOM      3  C   UNL     1      35.004  28.011  21.599  1.00  0.00     0.012 A 
ATOM      4  C   UNL     1      33.977  25.596  22.565  1.00  0.00     0.047 A 
ATOM      5  C   UNL     1      34.758  27.852  22.967  1.00  0.00     0.047 A 
ATOM      6  C   UNL     1      34.239  26.644  23.452  1.00  0.00     0.115 A 
ENDROOT
BRANCH   1   7
ATOM      7  C   UNL     1      35.013  27.095  19.260  1.00  0.00     0.010 C 
ATOM      8  C   UNL     1      34.111  27.327  18.295  1.00  0.00     0.025 C 
BRANCH   8   9
ATOM      9  C   UNL     1      32.647  27.310  18.472  1.00  0.00     0.064 C 
ATOM     10  O   UNL     1      32.034  28.398  18.633  1.00  0.00    -0.545 OA
ATOM     11  O   UNL     1      31.919  26.129  18.393  1.00  0.00    -0.545 OA
ENDBRANCH   8   9
ENDBRANCH   1   7
BRANCH   6  12
ATOM     12  O   UNL     1      33.989  26.474  24.812  1.00  0.00    -0.508 OA
ATOM     13  H   UNL     1      34.707  26.640  25.508  1.00  0.00     0.293 HD
ENDBRANCH   6  12
TORSDOF 3
ENDMDL
MODEL 5
REMARK VINA RESULT:    -4.502      5.550      7.615
REMARK INTER + INTRA:          -5.437
REMARK INTER:                  -5.149
REMARK INTRA:                  -0.288
REMARK UNBOUND:                -0.277
REMARK SMILES O=C([O-])C=Cc1ccc(O)cc1
REMARK SMILES IDX 6 1 7 2 12 3 8 4 11 5 9 6 5 7 4 8 2 9 1 10 3 11 10 12
REMARK H PARENT 10 13
REMARK Flexibility Score: inf
ROOT
ATOM      1  C   UNL     1      21.137  32.705  29.852  1.00  0.00    -0.025 A 
ATOM      2  C   UNL     1      20.995  31.377  29.422  1.00  0.00     0.012 A 
ATOM      3  C   UNL     1      21.483  33.697  28.918  1.00  0.00     0.012 A 
ATOM      4  C   UNL     1      21.248  31.037  28.089  1.00  0.00     0.047 A 
ATOM      5  C   UNL     1      21.736  33.355  27.586  1.00  0.00     0.047 A 
ATOM      6  C   UNL     1      21.623  32.022  27.169  1.00  0.00     0.115 A 
ENDROOT
BRANCH   1   7
ATOM      7  C   UNL     1      20.812  33.050  31.252  1.00  0.00     0.010 C 
ATOM      8  C   UNL     1      21.694  33.107  32.262  1.00  0.00     0.025 C 
BRANCH   8   9
ATOM      9  C   UNL     1      23.096  32.656  32.199  1.00  0.00     0.064 C 
ATOM     10  O   UNL     1      24.013  33.511  32.088  1.00  0.00    -0.545 OA
ATOM     11  O   UNL     1      23.434  31.315  32.331  1.00  0.00    -0.545 OA
ENDBRANCH   8   9
ENDBRANCH   1   7
BRANCH   6  12
ATOM     12  O   UNL     1      21.873  31.668  25.846  1.00  0.00    -0.508 OA
ATOM     13  H   UNL     1      22.819  31.549  25.499  1.00  0.00     0.293 HD
ENDBRANCH   6  12
TORSDOF 3
ENDMDL
MODEL 6
REMARK VINA RESULT:    -4.462     15.154     16.354
REMARK INTER + INTRA:          -5.392
REMARK INTER:                  -5.155
REMARK INTRA:                  -0.237
REMARK UNBOUND:                -0.277
REMARK SMILES O=C([O-])C=Cc1ccc(O)cc1
REMARK SMILES IDX 6 1 7 2 12 3 8 4 11 5 9 6 5 7 4 8 2 9 1 10 3 11 10 12
REMARK H PARENT 10 13
REMARK Flexibility Score: inf
ROOT
ATOM      1  C   UNL     1      19.791  17.626  29.522  1.00  0.00    -0.025 A 
ATOM      2  C   UNL     1      21.089  18.155  29.581  1.00  0.00     0.012 A 
ATOM      3  C   UNL     1      19.223  17.336  28.269  1.00  0.00     0.012 A 
ATOM      4  C   UNL     1      21.789  18.440  28.404  1.00  0.00     0.047 A 
ATOM      5  C   UNL     1      19.925  17.622  27.094  1.00  0.00     0.047 A 
ATOM      6  C   UNL     1      21.209  18.179  27.159  1.00  0.00     0.115 A 
ENDROOT
BRANCH   1   7
ATOM      7  C   UNL     1      19.093  17.283  30.778  1.00  0.00     0.010 C 
ATOM      8  C   UNL     1      18.426  18.149  31.557  1.00  0.00     0.025 C 
BRANCH   8   9
ATOM      9  C   UNL     1      18.432  19.616  31.404  1.00  0.00     0.064 C 
ATOM     10  O   UNL     1      19.243  20.302  32.079  1.00  0.00    -0.545 OA
ATOM     11  O   UNL     1      17.612  20.253  30.480  1.00  0.00    -0.545 OA
ENDBRANCH   8   9
ENDBRANCH   1   7
BRANCH   6  12
ATOM     12  O   UNL     1      21.917  18.470  25.995  1.00  0.00    -0.508 OA
ATOM     13  H   UNL     1      22.498  19.298  25.922  1.00  0.00     0.293 HD
ENDBRANCH   6  12
TORSDOF 3
ENDMDL
MODEL 7
REMARK VINA RESULT:    -4.419      9.481     11.293
REMARK INTER + INTRA:          -5.343
REMARK INTER:                  -5.172
REMARK INTRA:                  -0.171
REMARK UNBOUND:                -0.277
REMARK SMILES O=C([O-])C=Cc1ccc(O)cc1
REMARK SMILES IDX 6 1 7 2 12 3 8 4 11 5 9 6 5 7 4 8 2 9 1 10 3 11 10 12
REMARK H PARENT 10 13
REMARK Flexibility Score: inf
ROOT
ATOM      1  C   UNL     1      21.153  23.758  16.698  1.00  0.00    -0.025 A 
ATOM      2  C   UNL     1      21.251  25.151  16.556  1.00  0.00     0.012 A 
ATOM      3  C   UNL     1      22.277  23.030  17.124  1.00  0.00     0.012 A 
ATOM      4  C   UNL     1      22.469  25.799  16.785  1.00  0.00     0.047 A 
ATOM      5  C   UNL     1      23.494  23.680  17.352  1.00  0.00     0.047 A 
ATOM      6  C   UNL     1      23.594  25.067  17.178  1.00  0.00     0.115 A 
ENDROOT
BRANCH   1   7
ATOM      7  C   UNL     1      19.843  23.102  16.504  1.00  0.00     0.010 C 
ATOM      8  C   UNL     1      18.899  22.958  17.446  1.00  0.00     0.025 C 
BRANCH   8   9
ATOM      9  C   UNL     1      19.072  23.253  18.881  1.00  0.00     0.064 C 
ATOM     10  O   UNL     1      19.056  22.306  19.710  1.00  0.00    -0.545 OA
ATOM     11  O   UNL     1      19.325  24.543  19.332  1.00  0.00    -0.545 OA
ENDBRANCH   8   9
ENDBRANCH   1   7
BRANCH   6  12
ATOM     12  O   UNL     1      24.801  25.726  17.400  1.00  0.00    -0.508 OA
ATOM     13  H   UNL     1      25.374  26.054  16.631  1.00  0.00     0.293 HD
ENDBRANCH   6  12
TORSDOF 3
ENDMDL
MODEL 8
REMARK VINA RESULT:    -4.370     15.537     16.623
REMARK INTER + INTRA:          -5.287
REMARK INTER:                  -5.009
REMARK INTRA:                  -0.277
REMARK UNBOUND:                -0.277
REMARK SMILES O=C([O-])C=Cc1ccc(O)cc1
REMARK SMILES IDX 6 1 7 2 12 3 8 4 11 5 9 6 5 7 4 8 2 9 1 10 3 11 10 12
REMARK H PARENT 10 13
REMARK Flexibility Score: inf
ROOT
ATOM      1  C   UNL     1      20.213  18.847  29.317  1.00  0.00    -0.025 A 
ATOM      2  C   UNL     1      19.281  18.512  28.322  1.00  0.00     0.012 A 
ATOM      3  C   UNL     1      21.584  18.678  29.059  1.00  0.00     0.012 A 
ATOM      4  C   UNL     1      19.711  17.967  27.107  1.00  0.00     0.047 A 
ATOM      5  C   UNL     1      22.012  18.132  27.845  1.00  0.00     0.047 A 
ATOM      6  C   UNL     1      21.075  17.772  26.867  1.00  0.00     0.115 A 
ENDROOT
BRANCH   1   7
ATOM      7  C   UNL     1      19.739  19.470  30.569  1.00  0.00     0.010 C 
ATOM      8  C   UNL     1      19.621  18.846  31.751  1.00  0.00     0.025 C 
BRANCH   8   9
ATOM      9  C   UNL     1      19.758  17.394  31.968  1.00  0.00     0.064 C 
ATOM     10  O   UNL     1      20.869  16.930  32.337  1.00  0.00    -0.545 OA
ATOM     11  O   UNL     1      18.673  16.535  31.846  1.00  0.00    -0.545 OA
ENDBRANCH   8   9
ENDBRANCH   1   7
BRANCH   6  12
ATOM     12  O   UNL     1      21.489  17.226  25.654  1.00  0.00    -0.508 OA
ATOM     13  H   UNL     1      21.822  16.271  25.589  1.00  0.00     0.293 HD
ENDBRANCH   6  12
TORSDOF 3
ENDMDL
MODEL 9
REMARK VINA RESULT:    -4.335     12.022     13.458
REMARK INTER + INTRA:          -5.246
REMARK INTER:                  -5.014
REMARK INTRA:                  -0.232
REMARK UNBOUND:                -0.277
REMARK SMILES O=C([O-])C=Cc1ccc(O)cc1
REMARK SMILES IDX 6 1 7 2 12 3 8 4 11 5 9 6 5 7 4 8 2 9 1 10 3 11 10 12
REMARK H PARENT 10 13
REMARK Flexibility Score: inf
ROOT
ATOM      1  C   UNL     1      33.999  26.498  19.081  1.00  0.00    -0.025 A 
ATOM      2  C   UNL     1      33.149  25.553  18.486  1.00  0.00     0.012 A 
ATOM      3  C   UNL     1      33.654  27.859  19.034  1.00  0.00     0.012 A 
ATOM      4  C   UNL     1      31.998  25.969  17.807  1.00  0.00     0.047 A 
ATOM      5  C   UNL     1      32.503  28.273  18.355  1.00  0.00     0.047 A 
ATOM      6  C   UNL     1      31.675  27.327  17.736  1.00  0.00     0.115 A 
ENDROOT
BRANCH   1   7
ATOM      7  C   UNL     1      35.179  26.032  19.838  1.00  0.00     0.010 C 
ATOM      8  C   UNL     1      35.190  25.714  21.141  1.00  0.00     0.025 C 
BRANCH   8   9
ATOM      9  C   UNL     1      34.085  25.954  22.088  1.00  0.00     0.064 C 
ATOM     10  O   UNL     1      33.095  25.177  22.087  1.00  0.00    -0.545 OA
ATOM     11  O   UNL     1      34.144  26.974  23.031  1.00  0.00    -0.545 OA
ENDBRANCH   8   9
ENDBRANCH   1   7
BRANCH   6  12
ATOM     12  O   UNL     1      30.527  27.726  17.055  1.00  0.00    -0.508 OA
ATOM     13  H   UNL     1      30.277  28.705  16.967  1.00  0.00     0.293 HD
ENDBRANCH   6  12
TORSDOF 3
ENDMDL
