MODEL 1
REMARK VINA RESULT:    -3.702      0.000      0.000
REMARK INTER + INTRA:          -4.754
REMARK INTER:                  -4.459
REMARK INTRA:                  -0.295
REMARK UNBOUND:                -0.295
REMARK SMILES O=c1ccn([C@H]2O[C@H](CO)[C@H](O)[C@H]2O)c(=O)[nH]1
REMARK SMILES IDX 6 1 13 2 11 3 8 4 7 5 5 6 3 7 4 8 2 9 17 10 1 11 15 12 16 14
REMARK SMILES IDX 14 15 12 17 9 19 10 20
REMARK H PARENT 17 13 14 16 12 18 10 21
REMARK Flexibility Score: inf
ROOT
ATOM      1  C   UNL     1     175.977 163.861 163.693  1.00  0.00     0.255 C 
ATOM      2  C   UNL     1     177.290 163.598 162.952  1.00  0.00     0.196 C 
ATOM      3  C   UNL     1     178.125 164.786 163.359  1.00  0.00     0.179 C 
ATOM      4  C   UNL     1     177.580 165.087 164.756  1.00  0.00     0.178 C 
ATOM      5  O   UNL     1     176.228 164.689 164.813  1.00  0.00    -0.347 OA
ENDROOT
BRANCH   1   6
ATOM      6  N   UNL     1     175.304 162.607 164.092  1.00  0.00    -0.271 N 
ATOM      7  C   UNL     1     174.853 160.925 165.745  1.00  0.00     0.090 A 
ATOM      8  C   UNL     1     175.459 162.119 165.364  1.00  0.00     0.099 A 
ATOM      9  C   UNL     1     174.101 160.229 164.804  1.00  0.00     0.253 A 
ATOM     10  N   UNL     1     173.976 160.718 163.544  1.00  0.00    -0.274 N 
ATOM     11  O   UNL     1     173.541 159.146 165.123  1.00  0.00    -0.269 OA
ATOM     12  C   UNL     1     174.574 161.886 163.179  1.00  0.00     0.330 A 
ATOM     13  H   UNL     1     173.417 160.183 162.840  1.00  0.00     0.175 HD
ATOM     14  O   UNL     1     174.450 162.295 161.991  1.00  0.00    -0.248 OA
ENDBRANCH   1   6
BRANCH   2  15
ATOM     15  O   UNL     1     177.892 162.409 163.400  1.00  0.00    -0.386 OA
ATOM     16  H   UNL     1     178.872 162.546 163.336  1.00  0.00     0.211 HD
ENDBRANCH   2  15
BRANCH   3  17
ATOM     17  O   UNL     1     177.892 165.859 162.480  1.00  0.00    -0.387 OA
ATOM     18  H   UNL     1     178.518 165.742 161.719  1.00  0.00     0.211 HD
ENDBRANCH   3  17
BRANCH   4  19
ATOM     19  C   UNL     1     177.719 166.558 165.164  1.00  0.00     0.191 C 
BRANCH  19  20
ATOM     20  O   UNL     1     176.625 167.286 164.678  1.00  0.00    -0.394 OA
ATOM     21  H   UNL     1     175.833 166.960 165.178  1.00  0.00     0.210 HD
ENDBRANCH  19  20
ENDBRANCH   4  19
TORSDOF 5
ENDMDL
MODEL 2
REMARK VINA RESULT:    -3.696     11.142     13.723
REMARK INTER + INTRA:          -4.748
REMARK INTER:                  -4.455
REMARK INTRA:                  -0.293
REMARK UNBOUND:                -0.295
REMARK SMILES O=c1ccn([C@H]2O[C@H](CO)[C@H](O)[C@H]2O)c(=O)[nH]1
REMARK SMILES IDX 6 1 13 2 11 3 8 4 7 5 5 6 3 7 4 8 2 9 17 10 1 11 15 12 16 14
REMARK SMILES IDX 14 15 12 17 9 19 10 20
REMARK H PARENT 17 13 14 16 12 18 10 21
REMARK Flexibility Score: inf
ROOT
ATOM      1  C   UNL     1     163.868 160.024 163.622  1.00  0.00     0.255 C 
ATOM      2  C   UNL     1     163.598 158.724 162.861  1.00  0.00     0.196 C 
ATOM      3  C   UNL     1     164.780 157.875 163.258  1.00  0.00     0.179 C 
ATOM      4  C   UNL     1     165.079 158.396 164.664  1.00  0.00     0.178 C 
ATOM      5  O   UNL     1     164.690 159.751 164.742  1.00  0.00    -0.347 OA
ENDROOT
BRANCH   1   6
ATOM      6  N   UNL     1     162.617 160.699 164.028  1.00  0.00    -0.271 N 
ATOM      7  C   UNL     1     160.941 161.150 165.687  1.00  0.00     0.090 A 
ATOM      8  C   UNL     1     162.133 160.543 165.300  1.00  0.00     0.099 A 
ATOM      9  C   UNL     1     160.245 161.907 164.751  1.00  0.00     0.253 A 
ATOM     10  N   UNL     1     160.730 162.034 163.489  1.00  0.00    -0.274 N 
ATOM     11  O   UNL     1     159.164 162.469 165.074  1.00  0.00    -0.269 OA
ATOM     12  C   UNL     1     161.895 161.434 163.119  1.00  0.00     0.330 A 
ATOM     13  H   UNL     1     160.195 162.596 162.789  1.00  0.00     0.175 HD
ATOM     14  O   UNL     1     162.300 161.560 161.930  1.00  0.00    -0.248 OA
ENDBRANCH   1   6
BRANCH   2  15
ATOM     15  O   UNL     1     162.404 158.124 163.295  1.00  0.00    -0.386 OA
ATOM     16  H   UNL     1     161.759 158.860 163.455  1.00  0.00     0.211 HD
ENDBRANCH   2  15
BRANCH   3  17
ATOM     17  O   UNL     1     165.857 158.114 162.387  1.00  0.00    -0.387 OA
ATOM     18  H   UNL     1     166.119 157.233 162.013  1.00  0.00     0.211 HD
ENDBRANCH   3  17
BRANCH   4  19
ATOM     19  C   UNL     1     166.547 158.242 165.076  1.00  0.00     0.191 C 
BRANCH  19  20
ATOM     20  O   UNL     1     167.276 159.360 164.650  1.00  0.00    -0.394 OA
ATOM     21  H   UNL     1     167.357 159.953 165.441  1.00  0.00     0.210 HD
ENDBRANCH  19  20
ENDBRANCH   4  19
TORSDOF 5
ENDMDL
MODEL 3
REMARK VINA RESULT:    -3.678     18.128     19.404
REMARK INTER + INTRA:          -4.726
REMARK INTER:                  -4.436
REMARK INTRA:                  -0.290
REMARK UNBOUND:                -0.295
REMARK SMILES O=c1ccn([C@H]2O[C@H](CO)[C@H](O)[C@H]2O)c(=O)[nH]1
REMARK SMILES IDX 6 1 13 2 11 3 8 4 7 5 5 6 3 7 4 8 2 9 17 10 1 11 15 12 16 14
REMARK SMILES IDX 14 15 12 17 9 19 10 20
REMARK H PARENT 17 13 14 16 12 18 10 21
REMARK Flexibility Score: inf
ROOT
ATOM      1  C   UNL     1     160.028 172.127 163.676  1.00  0.00     0.255 C 
ATOM      2  C   UNL     1     158.722 172.387 162.922  1.00  0.00     0.196 C 
ATOM      3  C   UNL     1     157.875 171.213 163.345  1.00  0.00     0.179 C 
ATOM      4  C   UNL     1     158.408 170.935 164.751  1.00  0.00     0.178 C 
ATOM      5  O   UNL     1     159.763 171.323 164.811  1.00  0.00    -0.347 OA
ENDROOT
BRANCH   1   6
ATOM      6  N   UNL     1     160.708 173.384 164.057  1.00  0.00    -0.271 N 
ATOM      7  C   UNL     1     161.179 175.082 165.688  1.00  0.00     0.090 A 
ATOM      8  C   UNL     1     160.567 173.885 165.324  1.00  0.00     0.099 A 
ATOM      9  C   UNL     1     161.925 175.765 164.733  1.00  0.00     0.253 A 
ATOM     10  N   UNL     1     162.036 175.263 163.477  1.00  0.00    -0.274 N 
ATOM     11  O   UNL     1     162.490 176.850 165.035  1.00  0.00    -0.269 OA
ATOM     12  C   UNL     1     161.433 174.093 163.130  1.00  0.00     0.330 A 
ATOM     13  H   UNL     1     162.591 175.788 162.762  1.00  0.00     0.175 HD
ATOM     14  O   UNL     1     161.545 173.671 161.945  1.00  0.00    -0.248 OA
ENDBRANCH   1   6
BRANCH   2  15
ATOM     15  O   UNL     1     158.127 173.588 163.343  1.00  0.00    -0.386 OA
ATOM     16  H   UNL     1     158.759 174.316 163.106  1.00  0.00     0.211 HD
ENDBRANCH   2  15
BRANCH   3  17
ATOM     17  O   UNL     1     158.105 170.122 162.489  1.00  0.00    -0.387 OA
ATOM     18  H   UNL     1     158.934 170.328 161.983  1.00  0.00     0.211 HD
ENDBRANCH   3  17
BRANCH   4  19
ATOM     19  C   UNL     1     158.255 169.473 165.187  1.00  0.00     0.191 C 
BRANCH  19  20
ATOM     20  O   UNL     1     159.327 168.720 164.692  1.00  0.00    -0.394 OA
ATOM     21  H   UNL     1     159.517 168.028 165.377  1.00  0.00     0.210 HD
ENDBRANCH  19  20
ENDBRANCH   4  19
TORSDOF 5
ENDMDL
MODEL 4
REMARK VINA RESULT:    -3.675      7.454     10.601
REMARK INTER + INTRA:          -4.722
REMARK INTER:                  -4.434
REMARK INTRA:                  -0.288
REMARK UNBOUND:                -0.295
REMARK SMILES O=c1ccn([C@H]2O[C@H](CO)[C@H](O)[C@H]2O)c(=O)[nH]1
REMARK SMILES IDX 6 1 13 2 11 3 8 4 7 5 5 6 3 7 4 8 2 9 17 10 1 11 15 12 16 14
REMARK SMILES IDX 14 15 12 17 9 19 10 20
REMARK H PARENT 17 13 14 16 12 18 10 21
REMARK Flexibility Score: inf
ROOT
ATOM      1  C   UNL     1     172.128 160.024 172.320  1.00  0.00     0.255 C 
ATOM      2  C   UNL     1     172.388 158.721 173.079  1.00  0.00     0.196 C 
ATOM      3  C   UNL     1     171.210 157.876 172.665  1.00  0.00     0.179 C 
ATOM      4  C   UNL     1     170.926 158.403 171.259  1.00  0.00     0.178 C 
ATOM      5  O   UNL     1     171.318 159.757 171.191  1.00  0.00    -0.347 OA
ENDROOT
BRANCH   1   6
ATOM      6  N   UNL     1     173.385 160.699 171.931  1.00  0.00    -0.271 N 
ATOM      7  C   UNL     1     175.074 161.161 170.289  1.00  0.00     0.090 A 
ATOM      8  C   UNL     1     173.878 160.554 170.661  1.00  0.00     0.099 A 
ATOM      9  C   UNL     1     175.767 161.907 171.237  1.00  0.00     0.253 A 
ATOM     10  N   UNL     1     175.273 162.022 172.497  1.00  0.00    -0.274 N 
ATOM     11  O   UNL     1     176.851 162.468 170.928  1.00  0.00    -0.269 OA
ATOM     12  C   UNL     1     174.102 161.423 172.852  1.00  0.00     0.330 A 
ATOM     13  H   UNL     1     175.804 162.576 173.207  1.00  0.00     0.175 HD
ATOM     14  O   UNL     1     173.689 161.539 174.040  1.00  0.00    -0.248 OA
ENDBRANCH   1   6
BRANCH   2  15
ATOM     15  O   UNL     1     173.586 158.121 172.655  1.00  0.00    -0.386 OA
ATOM     16  H   UNL     1     174.308 158.782 172.818  1.00  0.00     0.211 HD
ENDBRANCH   2  15
BRANCH   3  17
ATOM     17  O   UNL     1     170.124 158.112 173.526  1.00  0.00    -0.387 OA
ATOM     18  H   UNL     1     170.381 158.879 174.102  1.00  0.00     0.211 HD
ENDBRANCH   3  17
BRANCH   4  19
ATOM     19  C   UNL     1     169.462 158.252 170.831  1.00  0.00     0.191 C 
BRANCH  19  20
ATOM     20  O   UNL     1     168.713 159.325 171.331  1.00  0.00    -0.394 OA
ATOM     21  H   UNL     1     168.755 159.252 172.320  1.00  0.00     0.210 HD
ENDBRANCH  19  20
ENDBRANCH   4  19
TORSDOF 5
ENDMDL
MODEL 5
REMARK VINA RESULT:    -3.672     16.255     18.174
REMARK INTER + INTRA:          -4.718
REMARK INTER:                  -4.431
REMARK INTRA:                  -0.287
REMARK UNBOUND:                -0.295
REMARK SMILES O=c1ccn([C@H]2O[C@H](CO)[C@H](O)[C@H]2O)c(=O)[nH]1
REMARK SMILES IDX 6 1 13 2 11 3 8 4 7 5 5 6 3 7 4 8 2 9 17 10 1 11 15 12 16 14
REMARK SMILES IDX 14 15 12 17 9 19 10 20
REMARK H PARENT 17 13 14 16 12 18 10 21
REMARK Flexibility Score: inf
ROOT
ATOM      1  C   UNL     1     160.030 163.886 172.318  1.00  0.00     0.255 C 
ATOM      2  C   UNL     1     158.716 163.629 173.059  1.00  0.00     0.196 C 
ATOM      3  C   UNL     1     157.877 164.805 172.629  1.00  0.00     0.179 C 
ATOM      4  C   UNL     1     158.424 165.084 171.228  1.00  0.00     0.178 C 
ATOM      5  O   UNL     1     159.779 164.692 171.182  1.00  0.00    -0.347 OA
ENDROOT
BRANCH   1   6
ATOM      6  N   UNL     1     160.711 162.628 171.942  1.00  0.00    -0.271 N 
ATOM      7  C   UNL     1     161.200 160.935 170.312  1.00  0.00     0.090 A 
ATOM      8  C   UNL     1     160.587 162.133 170.671  1.00  0.00     0.099 A 
ATOM      9  C   UNL     1     161.928 160.244 171.275  1.00  0.00     0.253 A 
ATOM     10  N   UNL     1     162.022 160.741 172.536  1.00  0.00    -0.274 N 
ATOM     11  O   UNL     1     162.494 159.159 170.978  1.00  0.00    -0.269 OA
ATOM     12  C   UNL     1     161.418 161.912 172.878  1.00  0.00     0.330 A 
ATOM     13  H   UNL     1     162.563 160.211 173.257  1.00  0.00     0.175 HD
ATOM     14  O   UNL     1     161.513 162.328 174.066  1.00  0.00    -0.248 OA
ENDBRANCH   1   6
BRANCH   2  15
ATOM     15  O   UNL     1     158.123 162.429 172.631  1.00  0.00    -0.386 OA
ATOM     16  H   UNL     1     158.668 161.692 173.010  1.00  0.00     0.211 HD
ENDBRANCH   2  15
BRANCH   3  17
ATOM     17  O   UNL     1     158.101 165.895 173.488  1.00  0.00    -0.387 OA
ATOM     18  H   UNL     1     158.108 165.530 174.411  1.00  0.00     0.211 HD
ENDBRANCH   3  17
BRANCH   4  19
ATOM     19  C   UNL     1     158.279 166.546 170.793  1.00  0.00     0.191 C 
BRANCH  19  20
ATOM     20  O   UNL     1     159.336 167.300 171.317  1.00  0.00    -0.394 OA
ATOM     21  H   UNL     1     160.083 167.215 170.669  1.00  0.00     0.210 HD
ENDBRANCH  19  20
ENDBRANCH   4  19
TORSDOF 5
ENDMDL
MODEL 6
REMARK VINA RESULT:    -3.670     10.274     13.384
REMARK INTER + INTRA:          -4.716
REMARK INTER:                  -4.423
REMARK INTRA:                  -0.294
REMARK UNBOUND:                -0.295
REMARK SMILES O=c1ccn([C@H]2O[C@H](CO)[C@H](O)[C@H]2O)c(=O)[nH]1
REMARK SMILES IDX 6 1 13 2 11 3 8 4 7 5 5 6 3 7 4 8 2 9 17 10 1 11 15 12 16 14
REMARK SMILES IDX 14 15 12 17 9 19 10 20
REMARK H PARENT 17 13 14 16 12 18 10 21
REMARK Flexibility Score: inf
ROOT
ATOM      1  C   UNL     1     175.994 172.091 172.363  1.00  0.00     0.255 C 
ATOM      2  C   UNL     1     177.299 172.350 173.119  1.00  0.00     0.196 C 
ATOM      3  C   UNL     1     178.125 171.146 172.743  1.00  0.00     0.179 C 
ATOM      4  C   UNL     1     177.598 170.831 171.343  1.00  0.00     0.178 C 
ATOM      5  O   UNL     1     176.251 171.244 171.259  1.00  0.00    -0.347 OA
ENDROOT
BRANCH   1   6
ATOM      6  N   UNL     1     175.343 173.348 171.934  1.00  0.00    -0.271 N 
ATOM      7  C   UNL     1     174.937 175.010 170.251  1.00  0.00     0.090 A 
ATOM      8  C   UNL     1     175.522 173.814 170.659  1.00  0.00     0.099 A 
ATOM      9  C   UNL     1     174.179 175.729 171.169  1.00  0.00     0.253 A 
ATOM     10  N   UNL     1     174.030 175.261 172.435  1.00  0.00    -0.274 N 
ATOM     11  O   UNL     1     173.638 176.814 170.827  1.00  0.00    -0.269 OA
ATOM     12  C   UNL     1     174.607 174.091 172.826  1.00  0.00     0.330 A 
ATOM     13  H   UNL     1     173.467 175.812 173.123  1.00  0.00     0.175 HD
ATOM     14  O   UNL     1     174.461 173.702 174.018  1.00  0.00    -0.248 OA
ENDBRANCH   1   6
BRANCH   2  15
ATOM     15  O   UNL     1     177.922 173.524 172.663  1.00  0.00    -0.386 OA
ATOM     16  H   UNL     1     177.585 173.685 171.744  1.00  0.00     0.211 HD
ENDBRANCH   2  15
BRANCH   3  17
ATOM     17  O   UNL     1     177.866 170.089 173.634  1.00  0.00    -0.387 OA
ATOM     18  H   UNL     1     178.474 170.216 174.407  1.00  0.00     0.211 HD
ENDBRANCH   3  17
BRANCH   4  19
ATOM     19  C   UNL     1     177.724 169.352 170.958  1.00  0.00     0.191 C 
BRANCH  19  20
ATOM     20  O   UNL     1     176.578 168.660 171.368  1.00  0.00    -0.394 OA
ATOM     21  H   UNL     1     175.807 169.155 170.987  1.00  0.00     0.210 HD
ENDBRANCH  19  20
ENDBRANCH   4  19
TORSDOF 5
ENDMDL
MODEL 7
REMARK VINA RESULT:    -3.622     18.756     19.956
REMARK INTER + INTRA:          -4.658
REMARK INTER:                  -4.367
REMARK INTRA:                  -0.290
REMARK UNBOUND:                -0.295
REMARK SMILES O=c1ccn([C@H]2O[C@H](CO)[C@H](O)[C@H]2O)c(=O)[nH]1
REMARK SMILES IDX 6 1 13 2 11 3 8 4 7 5 5 6 3 7 4 8 2 9 17 10 1 11 15 12 16 14
REMARK SMILES IDX 14 15 12 17 9 19 10 20
REMARK H PARENT 17 13 14 16 12 18 10 21
REMARK Flexibility Score: inf
ROOT
ATOM      1  C   UNL     1     163.896 175.968 172.380  1.00  0.00     0.255 C 
ATOM      2  C   UNL     1     163.612 177.211 173.226  1.00  0.00     0.196 C 
ATOM      3  C   UNL     1     164.744 178.125 172.832  1.00  0.00     0.179 C 
ATOM      4  C   UNL     1     165.003 177.697 171.387  1.00  0.00     0.178 C 
ATOM      5  O   UNL     1     164.660 176.335 171.246  1.00  0.00    -0.347 OA
ENDROOT
BRANCH   1   6
ATOM      6  N   UNL     1     162.653 175.270 171.985  1.00  0.00    -0.271 N 
ATOM      7  C   UNL     1     160.924 174.855 170.373  1.00  0.00     0.090 A 
ATOM      8  C   UNL     1     162.108 175.484 170.746  1.00  0.00     0.099 A 
ATOM      9  C   UNL     1     160.297 174.015 171.288  1.00  0.00     0.253 A 
ATOM     10  N   UNL     1     160.841 173.832 172.519  1.00  0.00    -0.274 N 
ATOM     11  O   UNL     1     159.225 173.432 170.976  1.00  0.00    -0.269 OA
ATOM     12  C   UNL     1     161.999 174.453 172.876  1.00  0.00     0.330 A 
ATOM     13  H   UNL     1     160.359 173.208 173.205  1.00  0.00     0.175 HD
ATOM     14  O   UNL     1     162.461 174.271 174.037  1.00  0.00    -0.248 OA
ENDBRANCH   1   6
BRANCH   2  15
ATOM     15  O   UNL     1     162.380 177.789 172.875  1.00  0.00    -0.386 OA
ATOM     16  H   UNL     1     162.022 178.214 173.697  1.00  0.00     0.211 HD
ENDBRANCH   2  15
BRANCH   3  17
ATOM     17  O   UNL     1     165.865 177.878 173.644  1.00  0.00    -0.387 OA
ATOM     18  H   UNL     1     166.066 176.910 173.563  1.00  0.00     0.211 HD
ENDBRANCH   3  17
BRANCH   4  19
ATOM     19  C   UNL     1     166.446 177.930 170.927  1.00  0.00     0.191 C 
BRANCH  19  20
ATOM     20  O   UNL     1     167.247 176.852 171.325  1.00  0.00    -0.394 OA
ATOM     21  H   UNL     1     168.179 177.193 171.343  1.00  0.00     0.210 HD
ENDBRANCH  19  20
ENDBRANCH   4  19
TORSDOF 5
ENDMDL
MODEL 8
REMARK VINA RESULT:    -3.588     12.099     13.925
REMARK INTER + INTRA:          -4.618
REMARK INTER:                  -4.333
REMARK INTRA:                  -0.285
REMARK UNBOUND:                -0.295
REMARK SMILES O=c1ccn([C@H]2O[C@H](CO)[C@H](O)[C@H]2O)c(=O)[nH]1
REMARK SMILES IDX 6 1 13 2 11 3 8 4 7 5 5 6 3 7 4 8 2 9 17 10 1 11 15 12 16 14
REMARK SMILES IDX 14 15 12 17 9 19 10 20
REMARK H PARENT 17 13 14 16 12 18 10 21
REMARK Flexibility Score: inf
ROOT
ATOM      1  C   UNL     1     162.340 162.247 163.128  1.00  0.00     0.255 C 
ATOM      2  C   UNL     1     162.969 162.971 164.321  1.00  0.00     0.196 C 
ATOM      3  C   UNL     1     161.755 163.500 165.043  1.00  0.00     0.179 C 
ATOM      4  C   UNL     1     160.705 162.442 164.706  1.00  0.00     0.178 C 
ATOM      5  O   UNL     1     161.012 161.878 163.449  1.00  0.00    -0.347 OA
ENDROOT
BRANCH   1   6
ATOM      6  N   UNL     1     163.137 161.074 162.709  1.00  0.00    -0.271 N 
ATOM      7  C   UNL     1     163.539 158.708 162.763  1.00  0.00     0.090 A 
ATOM      8  C   UNL     1     162.783 159.818 163.127  1.00  0.00     0.099 A 
ATOM      9  C   UNL     1     164.671 158.901 161.977  1.00  0.00     0.253 A 
ATOM     10  N   UNL     1     165.018 160.156 161.589  1.00  0.00    -0.274 N 
ATOM     11  O   UNL     1     165.374 157.915 161.632  1.00  0.00    -0.269 OA
ATOM     12  C   UNL     1     164.272 161.236 161.952  1.00  0.00     0.330 A 
ATOM     13  H   UNL     1     165.875 160.294 161.008  1.00  0.00     0.175 HD
ATOM     14  O   UNL     1     164.641 162.387 161.588  1.00  0.00    -0.248 OA
ENDBRANCH   1   6
BRANCH   2  15
ATOM     15  O   UNL     1     163.667 162.072 165.145  1.00  0.00    -0.386 OA
ATOM     16  H   UNL     1     163.163 162.019 165.997  1.00  0.00     0.211 HD
ENDBRANCH   2  15
BRANCH   3  17
ATOM     17  O   UNL     1     161.397 164.756 164.522  1.00  0.00    -0.387 OA
ATOM     18  H   UNL     1     162.172 165.074 163.990  1.00  0.00     0.211 HD
ENDBRANCH   3  17
BRANCH   4  19
ATOM     19  C   UNL     1     159.269 162.978 164.710  1.00  0.00     0.191 C 
BRANCH  19  20
ATOM     20  O   UNL     1     159.008 163.633 163.499  1.00  0.00    -0.394 OA
ATOM     21  H   UNL     1     158.021 163.666 163.411  1.00  0.00     0.210 HD
ENDBRANCH  19  20
ENDBRANCH   4  19
TORSDOF 5
ENDMDL
MODEL 9
REMARK VINA RESULT:    -3.563      8.056      9.426
REMARK INTER + INTRA:          -4.588
REMARK INTER:                  -4.303
REMARK INTRA:                  -0.285
REMARK UNBOUND:                -0.295
REMARK SMILES O=c1ccn([C@H]2O[C@H](CO)[C@H](O)[C@H]2O)c(=O)[nH]1
REMARK SMILES IDX 6 1 13 2 11 3 8 4 7 5 5 6 3 7 4 8 2 9 17 10 1 11 15 12 16 14
REMARK SMILES IDX 14 15 12 17 9 19 10 20
REMARK H PARENT 17 13 14 16 12 18 10 21
REMARK Flexibility Score: inf
ROOT
ATOM      1  C   UNL     1     173.719 162.184 172.805  1.00  0.00     0.255 C 
ATOM      2  C   UNL     1     173.072 162.901 171.618  1.00  0.00     0.196 C 
ATOM      3  C   UNL     1     174.273 163.420 170.870  1.00  0.00     0.179 C 
ATOM      4  C   UNL     1     175.326 162.360 171.196  1.00  0.00     0.178 C 
ATOM      5  O   UNL     1     175.040 161.808 172.463  1.00  0.00    -0.347 OA
ENDROOT
BRANCH   1   6
ATOM      6  N   UNL     1     172.927 161.017 173.248  1.00  0.00    -0.271 N 
ATOM      7  C   UNL     1     172.506 158.654 173.209  1.00  0.00     0.090 A 
ATOM      8  C   UNL     1     173.260 159.758 172.822  1.00  0.00     0.099 A 
ATOM      9  C   UNL     1     171.398 158.856 174.026  1.00  0.00     0.253 A 
ATOM     10  N   UNL     1     171.072 160.114 174.422  1.00  0.00    -0.274 N 
ATOM     11  O   UNL     1     170.699 157.875 174.393  1.00  0.00    -0.269 OA
ATOM     12  C   UNL     1     171.815 161.188 174.036  1.00  0.00     0.330 A 
ATOM     13  H   UNL     1     170.232 160.259 175.027  1.00  0.00     0.175 HD
ATOM     14  O   UNL     1     171.464 162.343 174.409  1.00  0.00    -0.248 OA
ENDBRANCH   1   6
BRANCH   2  15
ATOM     15  O   UNL     1     172.355 161.998 170.815  1.00  0.00    -0.386 OA
ATOM     16  H   UNL     1     172.526 162.260 169.873  1.00  0.00     0.211 HD
ENDBRANCH   2  15
BRANCH   3  17
ATOM     17  O   UNL     1     174.645 164.678 171.374  1.00  0.00    -0.387 OA
ATOM     18  H   UNL     1     175.562 164.577 171.741  1.00  0.00     0.211 HD
ENDBRANCH   3  17
BRANCH   4  19
ATOM     19  C   UNL     1     176.763 162.892 171.161  1.00  0.00     0.191 C 
BRANCH  19  20
ATOM     20  O   UNL     1     177.047 163.558 172.359  1.00  0.00    -0.394 OA
ATOM     21  H   UNL     1     177.431 162.877 172.969  1.00  0.00     0.210 HD
ENDBRANCH  19  20
ENDBRANCH   4  19
TORSDOF 5
ENDMDL
