MODEL 1
REMARK VINA RESULT:    -3.934      0.000      0.000
REMARK INTER + INTRA:          -9.536
REMARK INTER:                  -7.384
REMARK INTRA:                  -2.151
REMARK UNBOUND:                -2.151
REMARK SMILES O=C([O-])CCCCCCCCCCCCCCC(=O)[O-]
REMARK SMILES IDX 10 1 9 2 8 3 7 4 6 5 5 6 4 7 2 8 1 9 3 10 11 11 12 12 13 13
REMARK SMILES IDX 14 14 15 15 16 16 17 17 18 18 19 19 20 20
REMARK H PARENT
REMARK Flexibility Score: inf
ROOT
ATOM      1  C   UNL     1      -9.536  -5.018   5.967  1.00  0.00     0.000 C 
ENDROOT
BRANCH   1   2
ATOM      2  C   UNL     1      -9.283  -3.529   6.269  1.00  0.00     0.000 C 
BRANCH   2   3
ATOM      3  C   UNL     1      -8.462  -3.257   7.543  1.00  0.00     0.000 C 
BRANCH   3   4
ATOM      4  C   UNL     1      -6.985  -2.892   7.300  1.00  0.00     0.000 C 
BRANCH   4   5
ATOM      5  C   UNL     1      -6.658  -2.575   5.824  1.00  0.00     0.000 C 
BRANCH   5   6
ATOM      6  C   UNL     1      -6.250  -1.106   5.616  1.00  0.00     0.006 C 
BRANCH   6   7
ATOM      7  C   UNL     1      -5.246  -0.628   6.673  1.00  0.00     0.053 C 
BRANCH   7   8
ATOM      8  C   UNL     1      -5.586   0.740   7.181  1.00  0.00     0.041 C 
ATOM      9  O   UNL     1      -4.679   1.599   7.342  1.00  0.00    -0.550 OA
ATOM     10  O   UNL     1      -6.908   1.076   7.443  1.00  0.00    -0.550 OA
ENDBRANCH   7   8
ENDBRANCH   6   7
ENDBRANCH   5   6
ENDBRANCH   4   5
ENDBRANCH   3   4
ENDBRANCH   2   3
ENDBRANCH   1   2
BRANCH   1  11
ATOM     11  C   UNL     1      -8.539  -5.599   4.952  1.00  0.00     0.000 C 
BRANCH  11  12
ATOM     12  C   UNL     1      -7.932  -6.911   5.469  1.00  0.00     0.000 C 
BRANCH  12  13
ATOM     13  C   UNL     1      -7.170  -6.738   6.796  1.00  0.00     0.000 C 
BRANCH  13  14
ATOM     14  C   UNL     1      -5.644  -6.915   6.697  1.00  0.00     0.000 C 
BRANCH  14  15
ATOM     15  C   UNL     1      -4.866  -5.852   7.486  1.00  0.00     0.000 C 
BRANCH  15  16
ATOM     16  C   UNL     1      -3.775  -5.209   6.615  1.00  0.00     0.006 C 
BRANCH  16  17
ATOM     17  C   UNL     1      -3.365  -3.823   7.129  1.00  0.00     0.053 C 
BRANCH  17  18
ATOM     18  C   UNL     1      -2.613  -3.047   6.090  1.00  0.00     0.041 C 
ATOM     19  O   UNL     1      -1.552  -2.443   6.395  1.00  0.00    -0.550 OA
ATOM     20  O   UNL     1      -3.070  -3.017   4.779  1.00  0.00    -0.550 OA
ENDBRANCH  17  18
ENDBRANCH  16  17
ENDBRANCH  15  16
ENDBRANCH  14  15
ENDBRANCH  13  14
ENDBRANCH  12  13
ENDBRANCH  11  12
ENDBRANCH   1  11
TORSDOF 15
ENDMDL
MODEL 2
REMARK VINA RESULT:    -3.910      1.004      4.376
REMARK INTER + INTRA:          -9.490
REMARK INTER:                  -7.457
REMARK INTRA:                  -2.033
REMARK UNBOUND:                -2.151
REMARK SMILES O=C([O-])CCCCCCCCCCCCCCC(=O)[O-]
REMARK SMILES IDX 10 1 9 2 8 3 7 4 6 5 5 6 4 7 2 8 1 9 3 10 11 11 12 12 13 13
REMARK SMILES IDX 14 14 15 15 16 16 17 17 18 18 19 19 20 20
REMARK H PARENT
REMARK Flexibility Score: inf
ROOT
ATOM      1  C   UNL     1      -7.885  -6.909   5.813  1.00  0.00     0.000 C 
ENDROOT
BRANCH   1   2
ATOM      2  C   UNL     1      -6.419  -7.205   6.183  1.00  0.00     0.000 C 
BRANCH   2   3
ATOM      3  C   UNL     1      -5.971  -6.655   7.549  1.00  0.00     0.000 C 
BRANCH   3   4
ATOM      4  C   UNL     1      -5.203  -5.321   7.494  1.00  0.00     0.000 C 
BRANCH   4   5
ATOM      5  C   UNL     1      -4.390  -5.126   6.195  1.00  0.00     0.000 C 
BRANCH   5   6
ATOM      6  C   UNL     1      -4.974  -4.022   5.296  1.00  0.00     0.006 C 
BRANCH   6   7
ATOM      7  C   UNL     1      -3.918  -2.986   4.890  1.00  0.00     0.053 C 
BRANCH   7   8
ATOM      8  C   UNL     1      -2.824  -2.882   5.907  1.00  0.00     0.041 C 
ATOM      9  O   UNL     1      -1.704  -3.417   5.691  1.00  0.00    -0.550 OA
ATOM     10  O   UNL     1      -3.029  -2.165   7.079  1.00  0.00    -0.550 OA
ENDBRANCH   7   8
ENDBRANCH   6   7
ENDBRANCH   5   6
ENDBRANCH   4   5
ENDBRANCH   3   4
ENDBRANCH   2   3
ENDBRANCH   1   2
BRANCH   1  11
ATOM     11  C   UNL     1      -8.065  -5.537   5.145  1.00  0.00     0.000 C 
BRANCH  11  12
ATOM     12  C   UNL     1      -9.356  -4.859   5.627  1.00  0.00     0.000 C 
BRANCH  12  13
ATOM     13  C   UNL     1      -9.107  -3.477   6.260  1.00  0.00     0.000 C 
BRANCH  13  14
ATOM     14  C   UNL     1      -8.331  -3.501   7.589  1.00  0.00     0.000 C 
BRANCH  14  15
ATOM     15  C   UNL     1      -7.357  -2.323   7.734  1.00  0.00     0.000 C 
BRANCH  15  16
ATOM     16  C   UNL     1      -7.537  -1.316   6.589  1.00  0.00     0.006 C 
BRANCH  16  17
ATOM     17  C   UNL     1      -6.235  -0.571   6.261  1.00  0.00     0.053 C 
BRANCH  17  18
ATOM     18  C   UNL     1      -6.151   0.741   6.979  1.00  0.00     0.041 C 
ATOM     19  O   UNL     1      -7.173   1.229   7.529  1.00  0.00    -0.550 OA
ATOM     20  O   UNL     1      -4.937   1.409   7.066  1.00  0.00    -0.550 OA
ENDBRANCH  17  18
ENDBRANCH  16  17
ENDBRANCH  15  16
ENDBRANCH  14  15
ENDBRANCH  13  14
ENDBRANCH  12  13
ENDBRANCH  11  12
ENDBRANCH   1  11
TORSDOF 15
ENDMDL
MODEL 3
REMARK VINA RESULT:    -3.748      2.802      5.822
REMARK INTER + INTRA:          -9.185
REMARK INTER:                  -7.469
REMARK INTRA:                  -1.716
REMARK UNBOUND:                -2.151
REMARK SMILES O=C([O-])CCCCCCCCCCCCCCC(=O)[O-]
REMARK SMILES IDX 10 1 9 2 8 3 7 4 6 5 5 6 4 7 2 8 1 9 3 10 11 11 12 12 13 13
REMARK SMILES IDX 14 14 15 15 16 16 17 17 18 18 19 19 20 20
REMARK H PARENT
REMARK Flexibility Score: inf
ROOT
ATOM      1  C   UNL     1      -9.042  -3.877   6.391  1.00  0.00     0.000 C 
ENDROOT
BRANCH   1   2
ATOM      2  C   UNL     1      -7.622  -4.474   6.367  1.00  0.00     0.000 C 
BRANCH   2   3
ATOM      3  C   UNL     1      -7.383  -5.537   5.279  1.00  0.00     0.000 C 
BRANCH   3   4
ATOM      4  C   UNL     1      -8.620  -6.377   4.906  1.00  0.00     0.000 C 
BRANCH   4   5
ATOM      5  C   UNL     1      -8.302  -7.864   4.636  1.00  0.00     0.000 C 
BRANCH   5   6
ATOM      6  C   UNL     1      -7.405  -8.480   5.723  1.00  0.00     0.006 C 
BRANCH   6   7
ATOM      7  C   UNL     1      -6.188  -9.201   5.131  1.00  0.00     0.053 C 
BRANCH   7   8
ATOM      8  C   UNL     1      -4.919  -8.806   5.822  1.00  0.00     0.041 C 
ATOM      9  O   UNL     1      -4.954  -8.051   6.830  1.00  0.00    -0.550 OA
ATOM     10  O   UNL     1      -3.700  -9.300   5.374  1.00  0.00    -0.550 OA
ENDBRANCH   7   8
ENDBRANCH   6   7
ENDBRANCH   5   6
ENDBRANCH   4   5
ENDBRANCH   3   4
ENDBRANCH   2   3
ENDBRANCH   1   2
BRANCH   1  11
ATOM     11  C   UNL     1      -9.042  -2.343   6.464  1.00  0.00     0.000 C 
BRANCH  11  12
ATOM     12  C   UNL     1      -7.732  -1.823   7.072  1.00  0.00     0.000 C 
BRANCH  12  13
ATOM     13  C   UNL     1      -7.082  -0.707   6.233  1.00  0.00     0.000 C 
BRANCH  13  14
ATOM     14  C   UNL     1      -5.713  -1.063   5.626  1.00  0.00     0.000 C 
BRANCH  14  15
ATOM     15  C   UNL     1      -4.845  -1.914   6.563  1.00  0.00     0.000 C 
BRANCH  15  16
ATOM     16  C   UNL     1      -3.690  -2.574   5.796  1.00  0.00     0.006 C 
BRANCH  16  17
ATOM     17  C   UNL     1      -4.071  -3.957   5.250  1.00  0.00     0.053 C 
BRANCH  17  18
ATOM     18  C   UNL     1      -3.305  -5.051   5.929  1.00  0.00     0.041 C 
ATOM     19  O   UNL     1      -3.370  -5.189   7.178  1.00  0.00    -0.550 OA
ATOM     20  O   UNL     1      -2.543  -5.936   5.177  1.00  0.00    -0.550 OA
ENDBRANCH  17  18
ENDBRANCH  16  17
ENDBRANCH  15  16
ENDBRANCH  14  15
ENDBRANCH  13  14
ENDBRANCH  12  13
ENDBRANCH  11  12
ENDBRANCH   1  11
TORSDOF 15
ENDMDL
MODEL 4
REMARK VINA RESULT:    -3.657      3.074      6.507
REMARK INTER + INTRA:          -9.015
REMARK INTER:                  -7.818
REMARK INTRA:                  -1.197
REMARK UNBOUND:                -2.151
REMARK SMILES O=C([O-])CCCCCCCCCCCCCCC(=O)[O-]
REMARK SMILES IDX 10 1 9 2 8 3 7 4 6 5 5 6 4 7 2 8 1 9 3 10 11 11 12 12 13 13
REMARK SMILES IDX 14 14 15 15 16 16 17 17 18 18 19 19 20 20
REMARK H PARENT
REMARK Flexibility Score: inf
ROOT
ATOM      1  C   UNL     1      -7.223  -5.061   5.273  1.00  0.00     0.000 C 
ENDROOT
BRANCH   1   2
ATOM      2  C   UNL     1      -6.448  -5.985   6.232  1.00  0.00     0.000 C 
BRANCH   2   3
ATOM      3  C   UNL     1      -6.796  -7.480   6.115  1.00  0.00     0.000 C 
BRANCH   3   4
ATOM      4  C   UNL     1      -5.633  -8.445   6.419  1.00  0.00     0.000 C 
BRANCH   4   5
ATOM      5  C   UNL     1      -5.531  -9.625   5.428  1.00  0.00     0.000 C 
BRANCH   5   6
ATOM      6  C   UNL     1      -4.096 -10.167   5.306  1.00  0.00     0.006 C 
BRANCH   6   7
ATOM      7  C   UNL     1      -3.646 -10.290   3.845  1.00  0.00     0.053 C 
BRANCH   7   8
ATOM      8  C   UNL     1      -2.505  -9.370   3.538  1.00  0.00     0.041 C 
ATOM      9  O   UNL     1      -2.035  -8.620   4.435  1.00  0.00    -0.550 OA
ATOM     10  O   UNL     1      -1.936  -9.366   2.270  1.00  0.00    -0.550 OA
ENDBRANCH   7   8
ENDBRANCH   6   7
ENDBRANCH   5   6
ENDBRANCH   4   5
ENDBRANCH   3   4
ENDBRANCH   2   3
ENDBRANCH   1   2
BRANCH   1  11
ATOM     11  C   UNL     1      -8.262  -4.189   5.994  1.00  0.00     0.000 C 
BRANCH  11  12
ATOM     12  C   UNL     1      -7.594  -2.975   6.655  1.00  0.00     0.000 C 
BRANCH  12  13
ATOM     13  C   UNL     1      -6.998  -1.988   5.635  1.00  0.00     0.000 C 
BRANCH  13  14
ATOM     14  C   UNL     1      -5.460  -1.968   5.570  1.00  0.00     0.000 C 
BRANCH  14  15
ATOM     15  C   UNL     1      -4.806  -1.743   6.941  1.00  0.00     0.000 C 
BRANCH  15  16
ATOM     16  C   UNL     1      -3.468  -2.491   7.042  1.00  0.00     0.006 C 
BRANCH  16  17
ATOM     17  C   UNL     1      -3.200  -3.370   5.812  1.00  0.00     0.053 C 
BRANCH  17  18
ATOM     18  C   UNL     1      -2.903  -4.787   6.197  1.00  0.00     0.041 C 
ATOM     19  O   UNL     1      -2.377  -5.573   5.367  1.00  0.00    -0.550 OA
ATOM     20  O   UNL     1      -3.180  -5.230   7.484  1.00  0.00    -0.550 OA
ENDBRANCH  17  18
ENDBRANCH  16  17
ENDBRANCH  15  16
ENDBRANCH  14  15
ENDBRANCH  13  14
ENDBRANCH  12  13
ENDBRANCH  11  12
ENDBRANCH   1  11
TORSDOF 15
ENDMDL
MODEL 5
REMARK VINA RESULT:    -3.646      2.803      6.747
REMARK INTER + INTRA:          -8.994
REMARK INTER:                  -8.066
REMARK INTRA:                  -0.928
REMARK UNBOUND:                -2.151
REMARK SMILES O=C([O-])CCCCCCCCCCCCCCC(=O)[O-]
REMARK SMILES IDX 10 1 9 2 8 3 7 4 6 5 5 6 4 7 2 8 1 9 3 10 11 11 12 12 13 13
REMARK SMILES IDX 14 14 15 15 16 16 17 17 18 18 19 19 20 20
REMARK H PARENT
REMARK Flexibility Score: inf
ROOT
ATOM      1  C   UNL     1      -7.442  -5.939   5.714  1.00  0.00     0.000 C 
ENDROOT
BRANCH   1   2
ATOM      2  C   UNL     1      -6.014  -6.004   6.289  1.00  0.00     0.000 C 
BRANCH   2   3
ATOM      3  C   UNL     1      -5.694  -7.280   7.089  1.00  0.00     0.000 C 
BRANCH   3   4
ATOM      4  C   UNL     1      -5.993  -8.601   6.354  1.00  0.00     0.000 C 
BRANCH   4   5
ATOM      5  C   UNL     1      -4.733  -9.443   6.056  1.00  0.00     0.000 C 
BRANCH   5   6
ATOM      6  C   UNL     1      -4.709  -9.973   4.611  1.00  0.00     0.006 C 
BRANCH   6   7
ATOM      7  C   UNL     1      -3.308 -10.429   4.185  1.00  0.00     0.053 C 
BRANCH   7   8
ATOM      8  C   UNL     1      -2.483  -9.286   3.678  1.00  0.00     0.041 C 
ATOM      9  O   UNL     1      -2.095  -8.384   4.467  1.00  0.00    -0.550 OA
ATOM     10  O   UNL     1      -2.114  -9.234   2.339  1.00  0.00    -0.550 OA
ENDBRANCH   7   8
ENDBRANCH   6   7
ENDBRANCH   5   6
ENDBRANCH   4   5
ENDBRANCH   3   4
ENDBRANCH   2   3
ENDBRANCH   1   2
BRANCH   1  11
ATOM     11  C   UNL     1      -8.440  -5.270   6.672  1.00  0.00     0.000 C 
BRANCH  11  12
ATOM     12  C   UNL     1      -9.123  -4.070   6.001  1.00  0.00     0.000 C 
BRANCH  12  13
ATOM     13  C   UNL     1      -8.779  -2.729   6.674  1.00  0.00     0.000 C 
BRANCH  13  14
ATOM     14  C   UNL     1      -7.277  -2.486   6.909  1.00  0.00     0.000 C 
BRANCH  14  15
ATOM     15  C   UNL     1      -6.492  -2.286   5.606  1.00  0.00     0.000 C 
BRANCH  15  16
ATOM     16  C   UNL     1      -5.410  -1.208   5.775  1.00  0.00     0.006 C 
BRANCH  16  17
ATOM     17  C   UNL     1      -5.329  -0.688   7.217  1.00  0.00     0.053 C 
BRANCH  17  18
ATOM     18  C   UNL     1      -5.639   0.775   7.297  1.00  0.00     0.041 C 
ATOM     19  O   UNL     1      -4.730   1.627   7.119  1.00  0.00    -0.550 OA
ATOM     20  O   UNL     1      -6.940   1.198   7.540  1.00  0.00    -0.550 OA
ENDBRANCH  17  18
ENDBRANCH  16  17
ENDBRANCH  15  16
ENDBRANCH  14  15
ENDBRANCH  13  14
ENDBRANCH  12  13
ENDBRANCH  11  12
ENDBRANCH   1  11
TORSDOF 15
ENDMDL
MODEL 6
REMARK VINA RESULT:    -3.609      2.606      6.351
REMARK INTER + INTRA:          -8.926
REMARK INTER:                  -7.453
REMARK INTRA:                  -1.473
REMARK UNBOUND:                -2.151
REMARK SMILES O=C([O-])CCCCCCCCCCCCCCC(=O)[O-]
REMARK SMILES IDX 10 1 9 2 8 3 7 4 6 5 5 6 4 7 2 8 1 9 3 10 11 11 12 12 13 13
REMARK SMILES IDX 14 14 15 15 16 16 17 17 18 18 19 19 20 20
REMARK H PARENT
REMARK Flexibility Score: inf
ROOT
ATOM      1  C   UNL     1      -7.089  -4.272   5.969  1.00  0.00     0.000 C 
ENDROOT
BRANCH   1   2
ATOM      2  C   UNL     1      -8.421  -4.916   5.541  1.00  0.00     0.000 C 
BRANCH   2   3
ATOM      3  C   UNL     1      -8.283  -6.125   4.597  1.00  0.00     0.000 C 
BRANCH   3   4
ATOM      4  C   UNL     1      -8.961  -7.418   5.092  1.00  0.00     0.000 C 
BRANCH   4   5
ATOM      5  C   UNL     1      -8.217  -8.706   4.676  1.00  0.00     0.000 C 
BRANCH   5   6
ATOM      6  C   UNL     1      -7.096  -9.081   5.661  1.00  0.00     0.006 C 
BRANCH   6   7
ATOM      7  C   UNL     1      -5.849  -9.613   4.943  1.00  0.00     0.053 C 
BRANCH   7   8
ATOM      8  C   UNL     1      -4.592  -9.248   5.671  1.00  0.00     0.041 C 
ATOM      9  O   UNL     1      -4.643  -8.521   6.699  1.00  0.00    -0.550 OA
ATOM     10  O   UNL     1      -3.368  -9.740   5.236  1.00  0.00    -0.550 OA
ENDBRANCH   7   8
ENDBRANCH   6   7
ENDBRANCH   5   6
ENDBRANCH   4   5
ENDBRANCH   3   4
ENDBRANCH   2   3
ENDBRANCH   1   2
BRANCH   1  11
ATOM     11  C   UNL     1      -6.082  -5.293   6.521  1.00  0.00     0.000 C 
BRANCH  11  12
ATOM     12  C   UNL     1      -4.689  -5.071   5.915  1.00  0.00     0.000 C 
BRANCH  12  13
ATOM     13  C   UNL     1      -4.628  -3.852   4.977  1.00  0.00     0.000 C 
BRANCH  13  14
ATOM     14  C   UNL     1      -3.824  -2.655   5.517  1.00  0.00     0.000 C 
BRANCH  14  15
ATOM     15  C   UNL     1      -3.962  -2.477   7.036  1.00  0.00     0.000 C 
BRANCH  15  16
ATOM     16  C   UNL     1      -4.562  -1.105   7.376  1.00  0.00     0.006 C 
BRANCH  16  17
ATOM     17  C   UNL     1      -5.622  -0.666   6.357  1.00  0.00     0.053 C 
BRANCH  17  18
ATOM     18  C   UNL     1      -6.774   0.026   7.018  1.00  0.00     0.041 C 
ATOM     19  O   UNL     1      -7.919  -0.498   7.009  1.00  0.00    -0.550 OA
ATOM     20  O   UNL     1      -6.577   1.237   7.670  1.00  0.00    -0.550 OA
ENDBRANCH  17  18
ENDBRANCH  16  17
ENDBRANCH  15  16
ENDBRANCH  14  15
ENDBRANCH  13  14
ENDBRANCH  12  13
ENDBRANCH  11  12
ENDBRANCH   1  11
TORSDOF 15
ENDMDL
MODEL 7
REMARK VINA RESULT:    -3.604      3.054      4.304
REMARK INTER + INTRA:          -8.916
REMARK INTER:                  -7.916
REMARK INTRA:                  -1.000
REMARK UNBOUND:                -2.151
REMARK SMILES O=C([O-])CCCCCCCCCCCCCCC(=O)[O-]
REMARK SMILES IDX 10 1 9 2 8 3 7 4 6 5 5 6 4 7 2 8 1 9 3 10 11 11 12 12 13 13
REMARK SMILES IDX 14 14 15 15 16 16 17 17 18 18 19 19 20 20
REMARK H PARENT
REMARK Flexibility Score: inf
ROOT
ATOM      1  C   UNL     1      -5.915  -4.276   5.506  1.00  0.00     0.000 C 
ENDROOT
BRANCH   1   2
ATOM      2  C   UNL     1      -4.659  -3.569   4.963  1.00  0.00     0.000 C 
BRANCH   2   3
ATOM      3  C   UNL     1      -3.396  -3.735   5.829  1.00  0.00     0.000 C 
BRANCH   3   4
ATOM      4  C   UNL     1      -3.088  -2.550   6.765  1.00  0.00     0.000 C 
BRANCH   4   5
ATOM      5  C   UNL     1      -4.249  -2.195   7.719  1.00  0.00     0.000 C 
BRANCH   5   6
ATOM      6  C   UNL     1      -4.544  -0.686   7.751  1.00  0.00     0.006 C 
BRANCH   6   7
ATOM      7  C   UNL     1      -5.457  -0.249   6.598  1.00  0.00     0.053 C 
BRANCH   7   8
ATOM      8  C   UNL     1      -6.821   0.132   7.086  1.00  0.00     0.041 C 
ATOM      9  O   UNL     1      -7.059   1.317   7.441  1.00  0.00    -0.550 OA
ATOM     10  O   UNL     1      -7.839  -0.813   7.114  1.00  0.00    -0.550 OA
ENDBRANCH   7   8
ENDBRANCH   6   7
ENDBRANCH   5   6
ENDBRANCH   4   5
ENDBRANCH   3   4
ENDBRANCH   2   3
ENDBRANCH   1   2
BRANCH   1  11
ATOM     11  C   UNL     1      -5.588  -5.370   6.532  1.00  0.00     0.000 C 
BRANCH  11  12
ATOM     12  C   UNL     1      -6.167  -6.723   6.095  1.00  0.00     0.000 C 
BRANCH  12  13
ATOM     13  C   UNL     1      -5.737  -7.885   7.008  1.00  0.00     0.000 C 
BRANCH  13  14
ATOM     14  C   UNL     1      -6.186  -9.281   6.540  1.00  0.00     0.000 C 
BRANCH  14  15
ATOM     15  C   UNL     1      -5.616  -9.665   5.168  1.00  0.00     0.000 C 
BRANCH  15  16
ATOM     16  C   UNL     1      -4.171 -10.172   5.294  1.00  0.00     0.006 C 
BRANCH  16  17
ATOM     17  C   UNL     1      -3.507 -10.377   3.926  1.00  0.00     0.053 C 
BRANCH  17  18
ATOM     18  C   UNL     1      -2.418  -9.377   3.683  1.00  0.00     0.041 C 
ATOM     19  O   UNL     1      -2.249  -8.417   4.480  1.00  0.00    -0.550 OA
ATOM     20  O   UNL     1      -1.572  -9.522   2.591  1.00  0.00    -0.550 OA
ENDBRANCH  17  18
ENDBRANCH  16  17
ENDBRANCH  15  16
ENDBRANCH  14  15
ENDBRANCH  13  14
ENDBRANCH  12  13
ENDBRANCH  11  12
ENDBRANCH   1  11
TORSDOF 15
ENDMDL
MODEL 8
REMARK VINA RESULT:    -3.578      3.012      6.848
REMARK INTER + INTRA:          -8.867
REMARK INTER:                  -7.925
REMARK INTRA:                  -0.942
REMARK UNBOUND:                -2.151
REMARK SMILES O=C([O-])CCCCCCCCCCCCCCC(=O)[O-]
REMARK SMILES IDX 10 1 9 2 8 3 7 4 6 5 5 6 4 7 2 8 1 9 3 10 11 11 12 12 13 13
REMARK SMILES IDX 14 14 15 15 16 16 17 17 18 18 19 19 20 20
REMARK H PARENT
REMARK Flexibility Score: inf
ROOT
ATOM      1  C   UNL     1      -8.296  -7.313   6.373  1.00  0.00     0.000 C 
ENDROOT
BRANCH   1   2
ATOM      2  C   UNL     1      -8.146  -7.523   4.854  1.00  0.00     0.000 C 
BRANCH   2   3
ATOM      3  C   UNL     1      -7.828  -8.967   4.427  1.00  0.00     0.000 C 
BRANCH   3   4
ATOM      4  C   UNL     1      -6.770  -9.683   5.289  1.00  0.00     0.000 C 
BRANCH   4   5
ATOM      5  C   UNL     1      -5.415  -8.944   5.350  1.00  0.00     0.000 C 
BRANCH   5   6
ATOM      6  C   UNL     1      -4.222  -9.911   5.439  1.00  0.00     0.006 C 
BRANCH   6   7
ATOM      7  C   UNL     1      -3.703 -10.321   4.055  1.00  0.00     0.053 C 
BRANCH   7   8
ATOM      8  C   UNL     1      -2.598  -9.424   3.589  1.00  0.00     0.041 C 
ATOM      9  O   UNL     1      -2.144  -9.532   2.419  1.00  0.00    -0.550 OA
ATOM     10  O   UNL     1      -2.093  -8.444   4.436  1.00  0.00    -0.550 OA
ENDBRANCH   7   8
ENDBRANCH   6   7
ENDBRANCH   5   6
ENDBRANCH   4   5
ENDBRANCH   3   4
ENDBRANCH   2   3
ENDBRANCH   1   2
BRANCH   1  11
ATOM     11  C   UNL     1      -7.743  -5.959   6.845  1.00  0.00     0.000 C 
BRANCH  11  12
ATOM     12  C   UNL     1      -6.947  -5.272   5.726  1.00  0.00     0.000 C 
BRANCH  12  13
ATOM     13  C   UNL     1      -6.417  -3.885   6.132  1.00  0.00     0.000 C 
BRANCH  13  14
ATOM     14  C   UNL     1      -5.419  -3.255   5.143  1.00  0.00     0.000 C 
BRANCH  14  15
ATOM     15  C   UNL     1      -4.319  -2.442   5.839  1.00  0.00     0.000 C 
BRANCH  15  16
ATOM     16  C   UNL     1      -4.922  -1.444   6.839  1.00  0.00     0.006 C 
BRANCH  16  17
ATOM     17  C   UNL     1      -5.697  -0.318   6.140  1.00  0.00     0.053 C 
BRANCH  17  18
ATOM     18  C   UNL     1      -6.857   0.150   6.964  1.00  0.00     0.041 C 
ATOM     19  O   UNL     1      -6.817   1.269   7.538  1.00  0.00    -0.550 OA
ATOM     20  O   UNL     1      -7.995  -0.639   7.073  1.00  0.00    -0.550 OA
ENDBRANCH  17  18
ENDBRANCH  16  17
ENDBRANCH  15  16
ENDBRANCH  14  15
ENDBRANCH  13  14
ENDBRANCH  12  13
ENDBRANCH  11  12
ENDBRANCH   1  11
TORSDOF 15
ENDMDL
MODEL 9
REMARK VINA RESULT:    -3.566      2.762      4.703
REMARK INTER + INTRA:          -8.845
REMARK INTER:                  -7.180
REMARK INTRA:                  -1.664
REMARK UNBOUND:                -2.151
REMARK SMILES O=C([O-])CCCCCCCCCCCCCCC(=O)[O-]
REMARK SMILES IDX 10 1 9 2 8 3 7 4 6 5 5 6 4 7 2 8 1 9 3 10 11 11 12 12 13 13
REMARK SMILES IDX 14 14 15 15 16 16 17 17 18 18 19 19 20 20
REMARK H PARENT
REMARK Flexibility Score: inf
ROOT
ATOM      1  C   UNL     1      -9.089  -2.193   6.655  1.00  0.00     0.000 C 
ENDROOT
BRANCH   1   2
ATOM      2  C   UNL     1      -7.974  -1.485   5.863  1.00  0.00     0.000 C 
BRANCH   2   3
ATOM      3  C   UNL     1      -6.971  -0.693   6.721  1.00  0.00     0.000 C 
BRANCH   3   4
ATOM      4  C   UNL     1      -5.546  -0.604   6.142  1.00  0.00     0.000 C 
BRANCH   4   5
ATOM      5  C   UNL     1      -5.128  -1.849   5.329  1.00  0.00     0.000 C 
BRANCH   5   6
ATOM      6  C   UNL     1      -4.212  -2.793   6.128  1.00  0.00     0.006 C 
BRANCH   6   7
ATOM      7  C   UNL     1      -4.196  -4.212   5.548  1.00  0.00     0.053 C 
BRANCH   7   8
ATOM      8  C   UNL     1      -3.058  -5.020   6.092  1.00  0.00     0.041 C 
ATOM      9  O   UNL     1      -2.383  -5.760   5.328  1.00  0.00    -0.550 OA
ATOM     10  O   UNL     1      -2.720  -4.929   7.436  1.00  0.00    -0.550 OA
ENDBRANCH   7   8
ENDBRANCH   6   7
ENDBRANCH   5   6
ENDBRANCH   4   5
ENDBRANCH   3   4
ENDBRANCH   2   3
ENDBRANCH   1   2
BRANCH   1  11
ATOM     11  C   UNL     1      -9.295  -3.652   6.223  1.00  0.00     0.000 C 
BRANCH  11  12
ATOM     12  C   UNL     1      -8.013  -4.471   6.433  1.00  0.00     0.000 C 
BRANCH  12  13
ATOM     13  C   UNL     1      -7.608  -5.282   5.188  1.00  0.00     0.000 C 
BRANCH  13  14
ATOM     14  C   UNL     1      -8.690  -6.237   4.652  1.00  0.00     0.000 C 
BRANCH  14  15
ATOM     15  C   UNL     1      -8.233  -7.702   4.619  1.00  0.00     0.000 C 
BRANCH  15  16
ATOM     16  C   UNL     1      -7.483  -8.074   5.907  1.00  0.00     0.006 C 
BRANCH  16  17
ATOM     17  C   UNL     1      -6.319  -9.038   5.642  1.00  0.00     0.053 C 
BRANCH  17  18
ATOM     18  C   UNL     1      -5.019  -8.489   6.146  1.00  0.00     0.041 C 
ATOM     19  O   UNL     1      -4.997  -7.732   7.151  1.00  0.00    -0.550 OA
ATOM     20  O   UNL     1      -3.828  -8.837   5.520  1.00  0.00    -0.550 OA
ENDBRANCH  17  18
ENDBRANCH  16  17
ENDBRANCH  15  16
ENDBRANCH  14  15
ENDBRANCH  13  14
ENDBRANCH  12  13
ENDBRANCH  11  12
ENDBRANCH   1  11
TORSDOF 15
ENDMDL
