MODEL 1
REMARK VINA RESULT:    -5.611      0.000      0.000
REMARK INTER + INTRA:          -6.038
REMARK INTER:                  -5.939
REMARK INTRA:                  -0.099
REMARK UNBOUND:                -0.099
REMARK SMILES C=C(C)[C@@H]1CC=C(C)C(=O)C1
REMARK SMILES IDX 8 1 7 2 6 3 5 4 4 5 11 6 9 7 10 8 2 9 1 10 3 11
REMARK H PARENT
REMARK Flexibility Score: inf
ROOT
ATOM      1  C   UNL     1      -3.396 -17.154  -6.110  1.00  0.00     0.048 C 
ATOM      2  C   UNL     1      -3.783 -15.860  -6.772  1.00  0.00    -0.012 C 
ATOM      3  C   UNL     1      -3.018 -15.359  -7.758  1.00  0.00    -0.019 C 
ATOM      4  C   UNL     1      -3.368 -14.077  -8.465  1.00  0.00     0.036 C 
ATOM      5  C   UNL     1      -4.079 -13.096  -7.515  1.00  0.00     0.025 C 
ATOM      6  C   UNL     1      -5.310 -13.764  -6.879  1.00  0.00     0.089 C 
ATOM      7  C   UNL     1      -4.934 -15.079  -6.255  1.00  0.00     0.158 C 
ATOM      8  O   UNL     1      -5.631 -15.531  -5.307  1.00  0.00    -0.295 OA
ENDROOT
BRANCH   5   9
ATOM      9  C   UNL     1      -4.454 -11.804  -8.229  1.00  0.00    -0.077 C 
ATOM     10  C   UNL     1      -5.729 -11.380  -8.227  1.00  0.00     0.008 C 
ATOM     11  C   UNL     1      -3.422 -10.974  -8.950  1.00  0.00     0.039 C 
ENDBRANCH   5   9
TORSDOF 1
ENDMDL
MODEL 2
REMARK VINA RESULT:    -5.497      0.550      1.089
REMARK INTER + INTRA:          -5.917
REMARK INTER:                  -5.829
REMARK INTRA:                  -0.089
REMARK UNBOUND:                -0.099
REMARK SMILES C=C(C)[C@@H]1CC=C(C)C(=O)C1
REMARK SMILES IDX 8 1 7 2 6 3 5 4 4 5 11 6 9 7 10 8 2 9 1 10 3 11
REMARK H PARENT
REMARK Flexibility Score: inf
ROOT
ATOM      1  C   UNL     1      -3.503 -17.294  -6.063  1.00  0.00     0.048 C 
ATOM      2  C   UNL     1      -3.706 -15.929  -6.660  1.00  0.00    -0.012 C 
ATOM      3  C   UNL     1      -2.803 -15.436  -7.526  1.00  0.00    -0.019 C 
ATOM      4  C   UNL     1      -2.967 -14.083  -8.166  1.00  0.00     0.036 C 
ATOM      5  C   UNL     1      -3.686 -13.105  -7.219  1.00  0.00     0.025 C 
ATOM      6  C   UNL     1      -5.030 -13.698  -6.758  1.00  0.00     0.089 C 
ATOM      7  C   UNL     1      -4.834 -15.081  -6.200  1.00  0.00     0.158 C 
ATOM      8  O   UNL     1      -5.662 -15.528  -5.362  1.00  0.00    -0.295 OA
ENDROOT
BRANCH   5   9
ATOM      9  C   UNL     1      -3.874 -11.740  -7.866  1.00  0.00    -0.077 C 
ATOM     10  C   UNL     1      -2.893 -10.824  -7.802  1.00  0.00     0.008 C 
ATOM     11  C   UNL     1      -5.149 -11.379  -8.586  1.00  0.00     0.039 C 
ENDBRANCH   5   9
TORSDOF 1
ENDMDL
MODEL 3
REMARK VINA RESULT:    -5.484      1.040      1.052
REMARK INTER + INTRA:          -5.904
REMARK INTER:                  -5.807
REMARK INTRA:                  -0.097
REMARK UNBOUND:                -0.099
REMARK SMILES C=C(C)[C@@H]1CC=C(C)C(=O)C1
REMARK SMILES IDX 8 1 7 2 6 3 5 4 4 5 11 6 9 7 10 8 2 9 1 10 3 11
REMARK H PARENT
REMARK Flexibility Score: inf
ROOT
ATOM      1  C   UNL     1      -3.435 -17.417  -6.131  1.00  0.00     0.048 C 
ATOM      2  C   UNL     1      -3.939 -16.088  -6.623  1.00  0.00    -0.012 C 
ATOM      3  C   UNL     1      -4.227 -15.922  -7.926  1.00  0.00    -0.019 C 
ATOM      4  C   UNL     1      -4.750 -14.618  -8.467  1.00  0.00     0.036 C 
ATOM      5  C   UNL     1      -4.178 -13.423  -7.684  1.00  0.00     0.025 C 
ATOM      6  C   UNL     1      -4.461 -13.584  -6.180  1.00  0.00     0.089 C 
ATOM      7  C   UNL     1      -3.998 -14.931  -5.696  1.00  0.00     0.158 C 
ATOM      8  O   UNL     1      -3.694 -15.076  -4.481  1.00  0.00    -0.295 OA
ENDROOT
BRANCH   5   9
ATOM      9  C   UNL     1      -4.717 -12.101  -8.212  1.00  0.00    -0.077 C 
ATOM     10  C   UNL     1      -5.950 -11.692  -7.870  1.00  0.00     0.008 C 
ATOM     11  C   UNL     1      -3.897 -11.224  -9.125  1.00  0.00     0.039 C 
ENDBRANCH   5   9
TORSDOF 1
ENDMDL
MODEL 4
REMARK VINA RESULT:    -4.859      1.535      4.296
REMARK INTER + INTRA:          -5.242
REMARK INTER:                  -5.143
REMARK INTRA:                  -0.099
REMARK UNBOUND:                -0.099
REMARK SMILES C=C(C)[C@@H]1CC=C(C)C(=O)C1
REMARK SMILES IDX 8 1 7 2 6 3 5 4 4 5 11 6 9 7 10 8 2 9 1 10 3 11
REMARK H PARENT
REMARK Flexibility Score: inf
ROOT
ATOM      1  C   UNL     1      -4.037 -11.518  -9.125  1.00  0.00     0.048 C 
ATOM      2  C   UNL     1      -3.973 -12.671  -8.162  1.00  0.00    -0.012 C 
ATOM      3  C   UNL     1      -2.991 -13.583  -8.275  1.00  0.00    -0.019 C 
ATOM      4  C   UNL     1      -2.870 -14.747  -7.327  1.00  0.00     0.036 C 
ATOM      5  C   UNL     1      -4.255 -15.215  -6.846  1.00  0.00     0.025 C 
ATOM      6  C   UNL     1      -5.032 -14.039  -6.227  1.00  0.00     0.089 C 
ATOM      7  C   UNL     1      -5.060 -12.869  -7.171  1.00  0.00     0.158 C 
ATOM      8  O   UNL     1      -6.000 -12.034  -7.088  1.00  0.00    -0.295 OA
ENDROOT
BRANCH   5   9
ATOM      9  C   UNL     1      -4.141 -16.379  -5.871  1.00  0.00    -0.077 C 
ATOM     10  C   UNL     1      -4.511 -16.223  -4.589  1.00  0.00     0.008 C 
ATOM     11  C   UNL     1      -3.614 -17.723  -6.309  1.00  0.00     0.039 C 
ENDBRANCH   5   9
TORSDOF 1
ENDMDL
MODEL 5
REMARK VINA RESULT:    -4.577      1.993      4.645
REMARK INTER + INTRA:          -4.944
REMARK INTER:                  -4.845
REMARK INTRA:                  -0.098
REMARK UNBOUND:                -0.099
REMARK SMILES C=C(C)[C@@H]1CC=C(C)C(=O)C1
REMARK SMILES IDX 8 1 7 2 6 3 5 4 4 5 11 6 9 7 10 8 2 9 1 10 3 11
REMARK H PARENT
REMARK Flexibility Score: inf
ROOT
ATOM      1  C   UNL     1      -5.677 -11.424  -8.389  1.00  0.00     0.048 C 
ATOM      2  C   UNL     1      -4.954 -12.667  -7.949  1.00  0.00    -0.012 C 
ATOM      3  C   UNL     1      -5.591 -13.851  -7.959  1.00  0.00    -0.019 C 
ATOM      4  C   UNL     1      -4.909 -15.128  -7.545  1.00  0.00     0.036 C 
ATOM      5  C   UNL     1      -3.863 -14.866  -6.447  1.00  0.00     0.025 C 
ATOM      6  C   UNL     1      -2.860 -13.793  -6.907  1.00  0.00     0.089 C 
ATOM      7  C   UNL     1      -3.583 -12.566  -7.389  1.00  0.00     0.158 C 
ATOM      8  O   UNL     1      -2.997 -11.451  -7.346  1.00  0.00    -0.295 OA
ENDROOT
BRANCH   5   9
ATOM      9  C   UNL     1      -3.153 -16.150  -6.036  1.00  0.00    -0.077 C 
ATOM     10  C   UNL     1      -1.858 -16.120  -5.684  1.00  0.00     0.008 C 
ATOM     11  C   UNL     1      -3.874 -17.475  -6.015  1.00  0.00     0.039 C 
ENDBRANCH   5   9
TORSDOF 1
ENDMDL
MODEL 6
REMARK VINA RESULT:    -3.796      1.677      2.453
REMARK INTER + INTRA:          -4.117
REMARK INTER:                  -4.018
REMARK INTRA:                  -0.098
REMARK UNBOUND:                -0.099
REMARK SMILES C=C(C)[C@@H]1CC=C(C)C(=O)C1
REMARK SMILES IDX 8 1 7 2 6 3 5 4 4 5 11 6 9 7 10 8 2 9 1 10 3 11
REMARK H PARENT
REMARK Flexibility Score: inf
ROOT
ATOM      1  C   UNL     1      -2.764 -16.728  -5.859  1.00  0.00     0.048 C 
ATOM      2  C   UNL     1      -3.381 -15.443  -6.342  1.00  0.00    -0.012 C 
ATOM      3  C   UNL     1      -4.675 -15.184  -6.084  1.00  0.00    -0.019 C 
ATOM      4  C   UNL     1      -5.336 -13.907  -6.529  1.00  0.00     0.036 C 
ATOM      5  C   UNL     1      -4.736 -13.404  -7.854  1.00  0.00     0.025 C 
ATOM      6  C   UNL     1      -3.209 -13.256  -7.728  1.00  0.00     0.089 C 
ATOM      7  C   UNL     1      -2.596 -14.525  -7.204  1.00  0.00     0.158 C 
ATOM      8  O   UNL     1      -1.393 -14.784  -7.476  1.00  0.00    -0.295 OA
ENDROOT
BRANCH   5   9
ATOM      9  C   UNL     1      -5.386 -12.102  -8.301  1.00  0.00    -0.077 C 
ATOM     10  C   UNL     1      -4.677 -11.202  -9.003  1.00  0.00     0.008 C 
ATOM     11  C   UNL     1      -6.823 -11.785  -7.970  1.00  0.00     0.039 C 
ENDBRANCH   5   9
TORSDOF 1
ENDMDL
MODEL 7
REMARK VINA RESULT:    -3.147      2.006      4.492
REMARK INTER + INTRA:          -3.430
REMARK INTER:                  -3.333
REMARK INTRA:                  -0.097
REMARK UNBOUND:                -0.099
REMARK SMILES C=C(C)[C@@H]1CC=C(C)C(=O)C1
REMARK SMILES IDX 8 1 7 2 6 3 5 4 4 5 11 6 9 7 10 8 2 9 1 10 3 11
REMARK H PARENT
REMARK Flexibility Score: inf
ROOT
ATOM      1  C   UNL     1      -6.158 -11.421  -7.759  1.00  0.00     0.048 C 
ATOM      2  C   UNL     1      -5.602 -12.706  -7.209  1.00  0.00    -0.012 C 
ATOM      3  C   UNL     1      -4.934 -12.700  -6.042  1.00  0.00    -0.019 C 
ATOM      4  C   UNL     1      -4.373 -13.960  -5.438  1.00  0.00     0.036 C 
ATOM      5  C   UNL     1      -3.933 -14.950  -6.531  1.00  0.00     0.025 C 
ATOM      6  C   UNL     1      -5.098 -15.236  -7.495  1.00  0.00     0.089 C 
ATOM      7  C   UNL     1      -5.683 -13.951  -8.012  1.00  0.00     0.158 C 
ATOM      8  O   UNL     1      -6.278 -13.950  -9.123  1.00  0.00    -0.295 OA
ENDROOT
BRANCH   5   9
ATOM      9  C   UNL     1      -3.382 -16.236  -5.928  1.00  0.00    -0.077 C 
ATOM     10  C   UNL     1      -4.218 -17.142  -5.396  1.00  0.00     0.008 C 
ATOM     11  C   UNL     1      -1.901 -16.525  -5.909  1.00  0.00     0.039 C 
ENDBRANCH   5   9
TORSDOF 1
ENDMDL
MODEL 8
REMARK VINA RESULT:    -3.071      2.139      3.869
REMARK INTER + INTRA:          -3.349
REMARK INTER:                  -3.252
REMARK INTRA:                  -0.098
REMARK UNBOUND:                -0.099
REMARK SMILES C=C(C)[C@@H]1CC=C(C)C(=O)C1
REMARK SMILES IDX 8 1 7 2 6 3 5 4 4 5 11 6 9 7 10 8 2 9 1 10 3 11
REMARK H PARENT
REMARK Flexibility Score: inf
ROOT
ATOM      1  C   UNL     1      -6.942 -11.970  -5.007  1.00  0.00     0.048 C 
ATOM      2  C   UNL     1      -6.159 -12.764  -6.016  1.00  0.00    -0.012 C 
ATOM      3  C   UNL     1      -5.643 -13.958  -5.673  1.00  0.00    -0.019 C 
ATOM      4  C   UNL     1      -4.866 -14.800  -6.649  1.00  0.00     0.036 C 
ATOM      5  C   UNL     1      -4.085 -13.921  -7.643  1.00  0.00     0.025 C 
ATOM      6  C   UNL     1      -5.036 -12.939  -8.350  1.00  0.00     0.089 C 
ATOM      7  C   UNL     1      -5.852 -12.176  -7.344  1.00  0.00     0.158 C 
ATOM      8  O   UNL     1      -6.305 -11.041  -7.654  1.00  0.00    -0.295 OA
ENDROOT
BRANCH   5   9
ATOM      9  C   UNL     1      -3.312 -14.766  -8.646  1.00  0.00    -0.077 C 
ATOM     10  C   UNL     1      -3.848 -15.901  -9.125  1.00  0.00     0.008 C 
ATOM     11  C   UNL     1      -1.940 -14.361  -9.124  1.00  0.00     0.039 C 
ENDBRANCH   5   9
TORSDOF 1
ENDMDL
