MODEL 1
REMARK VINA RESULT:    -4.016      0.000      0.000
REMARK INTER + INTRA:          -4.840
REMARK INTER:                  -4.837
REMARK INTRA:                  -0.003
REMARK UNBOUND:                -0.003
REMARK SMILES OCC(O)CO
REMARK SMILES IDX 3 1 5 2 6 3 2 5 1 6 4 8
REMARK H PARENT 6 4 1 7 4 9
REMARK Flexibility Score: inf
ROOT
ATOM      1  C   UNL     1      15.748  14.228  70.139  1.00  0.00     0.165 C 
ENDROOT
BRANCH   1   2
ATOM      2  C   UNL     1      14.854  15.463  69.964  1.00  0.00     0.190 C 
BRANCH   2   3
ATOM      3  O   UNL     1      13.991  15.601  71.061  1.00  0.00    -0.394 OA
ATOM      4  H   UNL     1      13.787  16.569  71.143  1.00  0.00     0.210 HD
ENDBRANCH   2   3
ENDBRANCH   1   2
BRANCH   1   5
ATOM      5  C   UNL     1      17.181  14.512  69.668  1.00  0.00     0.190 C 
BRANCH   5   6
ATOM      6  O   UNL     1      17.964  13.355  69.774  1.00  0.00    -0.394 OA
ATOM      7  H   UNL     1      18.700  13.460  69.116  1.00  0.00     0.210 HD
ENDBRANCH   5   6
ENDBRANCH   1   5
BRANCH   1   8
ATOM      8  O   UNL     1      15.762  13.860  71.494  1.00  0.00    -0.388 OA
ATOM      9  H   UNL     1      14.856  13.516  71.708  1.00  0.00     0.211 HD
ENDBRANCH   1   8
TORSDOF 5
ENDMDL
MODEL 2
REMARK VINA RESULT:    -3.829      6.728      7.306
REMARK INTER + INTRA:          -4.615
REMARK INTER:                  -4.612
REMARK INTRA:                  -0.002
REMARK UNBOUND:                -0.003
REMARK SMILES OCC(O)CO
REMARK SMILES IDX 3 1 5 2 6 3 2 5 1 6 4 8
REMARK H PARENT 6 4 1 7 4 9
REMARK Flexibility Score: inf
ROOT
ATOM      1  C   UNL     1      10.280  11.919  68.197  1.00  0.00     0.165 C 
ENDROOT
BRANCH   1   2
ATOM      2  C   UNL     1       9.789  13.227  68.833  1.00  0.00     0.190 C 
BRANCH   2   3
ATOM      3  O   UNL     1       9.868  14.280  67.910  1.00  0.00    -0.394 OA
ATOM      4  H   UNL     1       8.963  14.683  67.859  1.00  0.00     0.210 HD
ENDBRANCH   2   3
ENDBRANCH   1   2
BRANCH   1   5
ATOM      5  C   UNL     1       9.340  10.754  68.535  1.00  0.00     0.190 C 
BRANCH   5   6
ATOM      6  O   UNL     1       9.518   9.708  67.619  1.00  0.00    -0.394 OA
ATOM      7  H   UNL     1       9.084  10.004  66.777  1.00  0.00     0.210 HD
ENDBRANCH   5   6
ENDBRANCH   1   5
BRANCH   1   8
ATOM      8  O   UNL     1      10.345  12.083  66.804  1.00  0.00    -0.388 OA
ATOM      9  H   UNL     1      10.680  11.227  66.429  1.00  0.00     0.211 HD
ENDBRANCH   1   8
TORSDOF 5
ENDMDL
MODEL 3
REMARK VINA RESULT:    -3.803      6.389      7.016
REMARK INTER + INTRA:          -4.583
REMARK INTER:                  -4.576
REMARK INTRA:                  -0.008
REMARK UNBOUND:                -0.003
REMARK SMILES OCC(O)CO
REMARK SMILES IDX 3 1 5 2 6 3 2 5 1 6 4 8
REMARK H PARENT 6 4 1 7 4 9
REMARK Flexibility Score: inf
ROOT
ATOM      1  C   UNL     1       9.860  12.130  68.097  1.00  0.00     0.165 C 
ENDROOT
BRANCH   1   2
ATOM      2  C   UNL     1       9.504  10.735  68.631  1.00  0.00     0.190 C 
BRANCH   2   3
ATOM      3  O   UNL     1       9.519   9.795  67.591  1.00  0.00    -0.394 OA
ATOM      4  H   UNL     1       9.648   8.906  68.013  1.00  0.00     0.210 HD
ENDBRANCH   2   3
ENDBRANCH   1   2
BRANCH   1   5
ATOM      5  C   UNL     1      10.931  12.799  68.970  1.00  0.00     0.190 C 
BRANCH   5   6
ATOM      6  O   UNL     1      12.171  12.773  68.318  1.00  0.00    -0.394 OA
ATOM      7  H   UNL     1      12.148  11.987  67.714  1.00  0.00     0.210 HD
ENDBRANCH   5   6
ENDBRANCH   1   5
BRANCH   1   8
ATOM      8  O   UNL     1      10.334  12.009  66.781  1.00  0.00    -0.388 OA
ATOM      9  H   UNL     1      10.588  11.057  66.653  1.00  0.00     0.211 HD
ENDBRANCH   1   8
TORSDOF 5
ENDMDL
MODEL 4
REMARK VINA RESULT:    -3.773      1.373      3.163
REMARK INTER + INTRA:          -4.548
REMARK INTER:                  -4.324
REMARK INTRA:                  -0.224
REMARK UNBOUND:                -0.003
REMARK SMILES OCC(O)CO
REMARK SMILES IDX 3 1 5 2 6 3 2 5 1 6 4 8
REMARK H PARENT 6 4 1 7 4 9
REMARK Flexibility Score: inf
ROOT
ATOM      1  C   UNL     1      14.399  15.104  69.851  1.00  0.00     0.165 C 
ENDROOT
BRANCH   1   2
ATOM      2  C   UNL     1      15.754  14.490  70.226  1.00  0.00     0.190 C 
BRANCH   2   3
ATOM      3  O   UNL     1      15.688  13.893  71.492  1.00  0.00    -0.394 OA
ATOM      4  H   UNL     1      16.613  13.623  71.729  1.00  0.00     0.210 HD
ENDBRANCH   2   3
ENDBRANCH   1   2
BRANCH   1   5
ATOM      5  C   UNL     1      13.361  14.013  69.554  1.00  0.00     0.190 C 
BRANCH   5   6
ATOM      6  O   UNL     1      12.875  13.470  70.751  1.00  0.00    -0.394 OA
ATOM      7  H   UNL     1      13.563  12.824  71.059  1.00  0.00     0.210 HD
ENDBRANCH   5   6
ENDBRANCH   1   5
BRANCH   1   8
ATOM      8  O   UNL     1      13.949  15.905  70.913  1.00  0.00    -0.388 OA
ATOM      9  H   UNL     1      13.136  16.377  70.594  1.00  0.00     0.211 HD
ENDBRANCH   1   8
TORSDOF 5
ENDMDL
MODEL 5
REMARK VINA RESULT:    -3.685      2.528      3.066
REMARK INTER + INTRA:          -4.441
REMARK INTER:                  -4.438
REMARK INTRA:                  -0.003
REMARK UNBOUND:                -0.003
REMARK SMILES OCC(O)CO
REMARK SMILES IDX 3 1 5 2 6 3 2 5 1 6 4 8
REMARK H PARENT 6 4 1 7 4 9
REMARK Flexibility Score: inf
ROOT
ATOM      1  C   UNL     1      13.580  13.591  69.865  1.00  0.00     0.165 C 
ENDROOT
BRANCH   1   2
ATOM      2  C   UNL     1      12.851  14.153  68.637  1.00  0.00     0.190 C 
BRANCH   2   3
ATOM      3  O   UNL     1      12.098  13.149  68.012  1.00  0.00    -0.394 OA
ATOM      4  H   UNL     1      11.745  12.567  68.735  1.00  0.00     0.210 HD
ENDBRANCH   2   3
ENDBRANCH   1   2
BRANCH   1   5
ATOM      5  C   UNL     1      14.813  14.438  70.211  1.00  0.00     0.190 C 
BRANCH   5   6
ATOM      6  O   UNL     1      15.447  13.926  71.351  1.00  0.00    -0.394 OA
ATOM      7  H   UNL     1      15.713  12.997  71.123  1.00  0.00     0.210 HD
ENDBRANCH   5   6
ENDBRANCH   1   5
BRANCH   1   8
ATOM      8  O   UNL     1      12.696  13.579  70.956  1.00  0.00    -0.388 OA
ATOM      9  H   UNL     1      12.483  14.526  71.165  1.00  0.00     0.211 HD
ENDBRANCH   1   8
TORSDOF 5
ENDMDL
MODEL 6
REMARK VINA RESULT:    -3.683      1.672      2.886
REMARK INTER + INTRA:          -4.439
REMARK INTER:                  -4.227
REMARK INTRA:                  -0.213
REMARK UNBOUND:                -0.003
REMARK SMILES OCC(O)CO
REMARK SMILES IDX 3 1 5 2 6 3 2 5 1 6 4 8
REMARK H PARENT 6 4 1 7 4 9
REMARK Flexibility Score: inf
ROOT
ATOM      1  C   UNL     1      14.878  14.375  70.118  1.00  0.00     0.165 C 
ENDROOT
BRANCH   1   2
ATOM      2  C   UNL     1      13.662  13.508  69.764  1.00  0.00     0.190 C 
BRANCH   2   3
ATOM      3  O   UNL     1      12.760  13.469  70.837  1.00  0.00    -0.394 OA
ATOM      4  H   UNL     1      12.805  14.356  71.279  1.00  0.00     0.210 HD
ENDBRANCH   2   3
ENDBRANCH   1   2
BRANCH   1   5
ATOM      5  C   UNL     1      14.499  15.861  70.177  1.00  0.00     0.190 C 
BRANCH   5   6
ATOM      6  O   UNL     1      13.652  16.101  71.267  1.00  0.00    -0.394 OA
ATOM      7  H   UNL     1      12.799  15.638  71.060  1.00  0.00     0.210 HD
ENDBRANCH   5   6
ENDBRANCH   1   5
BRANCH   1   8
ATOM      8  O   UNL     1      15.383  13.968  71.364  1.00  0.00    -0.388 OA
ATOM      9  H   UNL     1      14.721  13.338  71.751  1.00  0.00     0.211 HD
ENDBRANCH   1   8
TORSDOF 5
ENDMDL
MODEL 7
REMARK VINA RESULT:    -3.674      4.560      5.508
REMARK INTER + INTRA:          -4.428
REMARK INTER:                  -4.425
REMARK INTRA:                  -0.003
REMARK UNBOUND:                -0.003
REMARK SMILES OCC(O)CO
REMARK SMILES IDX 3 1 5 2 6 3 2 5 1 6 4 8
REMARK H PARENT 6 4 1 7 4 9
REMARK Flexibility Score: inf
ROOT
ATOM      1  C   UNL     1      11.832  12.994  68.616  1.00  0.00     0.165 C 
ENDROOT
BRANCH   1   2
ATOM      2  C   UNL     1      11.894  13.525  70.055  1.00  0.00     0.190 C 
BRANCH   2   3
ATOM      3  O   UNL     1      13.193  13.401  70.567  1.00  0.00    -0.394 OA
ATOM      4  H   UNL     1      13.100  13.144  71.522  1.00  0.00     0.210 HD
ENDBRANCH   2   3
ENDBRANCH   1   2
BRANCH   1   5
ATOM      5  C   UNL     1      10.386  12.688  68.202  1.00  0.00     0.190 C 
BRANCH   5   6
ATOM      6  O   UNL     1      10.359  12.123  66.920  1.00  0.00    -0.394 OA
ATOM      7  H   UNL     1       9.924  11.237  67.020  1.00  0.00     0.210 HD
ENDBRANCH   5   6
ENDBRANCH   1   5
BRANCH   1   8
ATOM      8  O   UNL     1      12.377  13.955  67.749  1.00  0.00    -0.388 OA
ATOM      9  H   UNL     1      12.043  14.839  68.054  1.00  0.00     0.211 HD
ENDBRANCH   1   8
TORSDOF 5
ENDMDL
MODEL 8
REMARK VINA RESULT:    -3.619      1.941      2.726
REMARK INTER + INTRA:          -4.362
REMARK INTER:                  -4.153
REMARK INTRA:                  -0.209
REMARK UNBOUND:                -0.003
REMARK SMILES OCC(O)CO
REMARK SMILES IDX 3 1 5 2 6 3 2 5 1 6 4 8
REMARK H PARENT 6 4 1 7 4 9
REMARK Flexibility Score: inf
ROOT
ATOM      1  C   UNL     1      13.995  14.847  69.675  1.00  0.00     0.165 C 
ENDROOT
BRANCH   1   2
ATOM      2  C   UNL     1      13.268  13.496  69.716  1.00  0.00     0.190 C 
BRANCH   2   3
ATOM      3  O   UNL     1      12.509  13.384  70.890  1.00  0.00    -0.394 OA
ATOM      4  H   UNL     1      11.567  13.248  70.608  1.00  0.00     0.210 HD
ENDBRANCH   2   3
ENDBRANCH   1   2
BRANCH   1   5
ATOM      5  C   UNL     1      15.445  14.708  70.159  1.00  0.00     0.190 C 
BRANCH   5   6
ATOM      6  O   UNL     1      15.493  13.939  71.329  1.00  0.00    -0.394 OA
ATOM      7  H   UNL     1      15.150  13.041  71.081  1.00  0.00     0.210 HD
ENDBRANCH   5   6
ENDBRANCH   1   5
BRANCH   1   8
ATOM      8  O   UNL     1      13.982  15.333  68.358  1.00  0.00    -0.388 OA
ATOM      9  H   UNL     1      13.982  16.325  68.418  1.00  0.00     0.211 HD
ENDBRANCH   1   8
TORSDOF 5
ENDMDL
MODEL 9
REMARK VINA RESULT:    -3.617      1.570      2.144
REMARK INTER + INTRA:          -4.360
REMARK INTER:                  -4.138
REMARK INTRA:                  -0.222
REMARK UNBOUND:                -0.003
REMARK SMILES OCC(O)CO
REMARK SMILES IDX 3 1 5 2 6 3 2 5 1 6 4 8
REMARK H PARENT 6 4 1 7 4 9
REMARK Flexibility Score: inf
ROOT
ATOM      1  C   UNL     1      14.013  14.473  69.703  1.00  0.00     0.165 C 
ENDROOT
BRANCH   1   2
ATOM      2  C   UNL     1      13.035  15.490  70.306  1.00  0.00     0.190 C 
BRANCH   2   3
ATOM      3  O   UNL     1      13.039  15.403  71.705  1.00  0.00    -0.394 OA
ATOM      4  H   UNL     1      12.643  14.523  71.937  1.00  0.00     0.210 HD
ENDBRANCH   2   3
ENDBRANCH   1   2
BRANCH   1   5
ATOM      5  C   UNL     1      15.431  14.675  70.257  1.00  0.00     0.190 C 
BRANCH   5   6
ATOM      6  O   UNL     1      15.605  13.920  71.425  1.00  0.00    -0.394 OA
ATOM      7  H   UNL     1      16.557  14.030  71.683  1.00  0.00     0.210 HD
ENDBRANCH   5   6
ENDBRANCH   1   5
BRANCH   1   8
ATOM      8  O   UNL     1      13.570  13.176  70.006  1.00  0.00    -0.388 OA
ATOM      9  H   UNL     1      13.143  13.220  70.902  1.00  0.00     0.211 HD
ENDBRANCH   1   8
TORSDOF 5
ENDMDL
