MODEL 1
REMARK VINA RESULT:    -3.815      0.000      0.000
REMARK INTER + INTRA:          -6.111
REMARK INTER:                  -5.600
REMARK INTRA:                  -0.511
REMARK UNBOUND:                -0.511
REMARK SMILES O=C([O-])CCCCCCCC(=O)[O-]
REMARK SMILES IDX 7 1 6 2 5 3 4 4 2 5 1 6 3 7 8 8 9 9 10 10 11 11 12 12 13 13
REMARK H PARENT
REMARK Flexibility Score: inf
ROOT
ATOM      1  C   UNL     1      24.257 -13.524  -2.025  1.00  0.00     0.000 C 
ENDROOT
BRANCH   1   2
ATOM      2  C   UNL     1      23.619 -14.917  -1.905  1.00  0.00     0.000 C 
BRANCH   2   3
ATOM      3  C   UNL     1      23.625 -15.688  -3.234  1.00  0.00     0.006 C 
BRANCH   3   4
ATOM      4  C   UNL     1      24.855 -15.369  -4.096  1.00  0.00     0.053 C 
BRANCH   4   5
ATOM      5  C   UNL     1      25.987 -16.282  -3.747  1.00  0.00     0.041 C 
ATOM      6  O   UNL     1      27.176 -15.875  -3.821  1.00  0.00    -0.550 OA
ATOM      7  O   UNL     1      25.732 -17.600  -3.388  1.00  0.00    -0.550 OA
ENDBRANCH   4   5
ENDBRANCH   3   4
ENDBRANCH   2   3
ENDBRANCH   1   2
BRANCH   1   8
ATOM      8  C   UNL     1      25.148 -13.224  -0.810  1.00  0.00     0.000 C 
BRANCH   8   9
ATOM      9  C   UNL     1      26.530 -13.899  -0.901  1.00  0.00     0.006 C 
BRANCH   9  10
ATOM     10  C   UNL     1      27.523 -13.454   0.184  1.00  0.00     0.053 C 
BRANCH  10  11
ATOM     11  C   UNL     1      28.245 -14.616   0.795  1.00  0.00     0.041 C 
ATOM     12  O   UNL     1      28.338 -15.705   0.168  1.00  0.00    -0.550 OA
ATOM     13  O   UNL     1      28.787 -14.507   2.069  1.00  0.00    -0.550 OA
ENDBRANCH  10  11
ENDBRANCH   9  10
ENDBRANCH   8   9
ENDBRANCH   1   8
TORSDOF 8
ENDMDL
MODEL 2
REMARK VINA RESULT:    -3.810      2.183      6.116
REMARK INTER + INTRA:          -6.103
REMARK INTER:                  -5.745
REMARK INTRA:                  -0.357
REMARK UNBOUND:                -0.511
REMARK SMILES O=C([O-])CCCCCCCC(=O)[O-]
REMARK SMILES IDX 7 1 6 2 5 3 4 4 2 5 1 6 3 7 8 8 9 9 10 10 11 11 12 12 13 13
REMARK H PARENT
REMARK Flexibility Score: inf
ROOT
ATOM      1  C   UNL     1      26.820 -13.946  -1.457  1.00  0.00     0.000 C 
ENDROOT
BRANCH   1   2
ATOM      2  C   UNL     1      28.010 -14.148  -0.507  1.00  0.00     0.000 C 
BRANCH   2   3
ATOM      3  C   UNL     1      27.735 -13.616   0.909  1.00  0.00     0.006 C 
BRANCH   3   4
ATOM      4  C   UNL     1      28.962 -13.715   1.825  1.00  0.00     0.053 C 
BRANCH   4   5
ATOM      5  C   UNL     1      29.670 -12.398   1.891  1.00  0.00     0.041 C 
ATOM      6  O   UNL     1      29.550 -11.665   2.907  1.00  0.00    -0.550 OA
ATOM      7  O   UNL     1      30.423 -11.959   0.810  1.00  0.00    -0.550 OA
ENDBRANCH   4   5
ENDBRANCH   3   4
ENDBRANCH   2   3
ENDBRANCH   1   2
BRANCH   1   8
ATOM      8  C   UNL     1      25.588 -13.437  -0.693  1.00  0.00     0.000 C 
BRANCH   8   9
ATOM      9  C   UNL     1      24.277 -13.629  -1.478  1.00  0.00     0.006 C 
BRANCH   9  10
ATOM     10  C   UNL     1      24.418 -14.487  -2.744  1.00  0.00     0.053 C 
BRANCH  10  11
ATOM     11  C   UNL     1      23.471 -15.648  -2.745  1.00  0.00     0.041 C 
ATOM     12  O   UNL     1      22.649 -15.795  -1.802  1.00  0.00    -0.550 OA
ATOM     13  O   UNL     1      23.518 -16.585  -3.769  1.00  0.00    -0.550 OA
ENDBRANCH  10  11
ENDBRANCH   9  10
ENDBRANCH   8   9
ENDBRANCH   1   8
TORSDOF 8
ENDMDL
MODEL 3
REMARK VINA RESULT:    -3.761      1.934      2.587
REMARK INTER + INTRA:          -6.031
REMARK INTER:                  -5.615
REMARK INTRA:                  -0.415
REMARK UNBOUND:                -0.511
REMARK SMILES O=C([O-])CCCCCCCC(=O)[O-]
REMARK SMILES IDX 7 1 6 2 5 3 4 4 2 5 1 6 3 7 8 8 9 9 10 10 11 11 12 12 13 13
REMARK H PARENT
REMARK Flexibility Score: inf
ROOT
ATOM      1  C   UNL     1      26.027 -13.393  -0.368  1.00  0.00     0.000 C 
ENDROOT
BRANCH   1   2
ATOM      2  C   UNL     1      24.616 -13.363  -0.975  1.00  0.00     0.000 C 
BRANCH   2   3
ATOM      3  C   UNL     1      24.603 -13.739  -2.465  1.00  0.00     0.006 C 
BRANCH   3   4
ATOM      4  C   UNL     1      23.259 -14.328  -2.913  1.00  0.00     0.053 C 
BRANCH   4   5
ATOM      5  C   UNL     1      23.181 -15.779  -2.558  1.00  0.00     0.041 C 
ATOM      6  O   UNL     1      23.605 -16.652  -3.360  1.00  0.00    -0.550 OA
ATOM      7  O   UNL     1      22.596 -16.171  -1.360  1.00  0.00    -0.550 OA
ENDBRANCH   4   5
ENDBRANCH   3   4
ENDBRANCH   2   3
ENDBRANCH   1   2
BRANCH   1   8
ATOM      8  C   UNL     1      27.055 -13.893  -1.395  1.00  0.00     0.000 C 
BRANCH   8   9
ATOM      9  C   UNL     1      28.127 -14.806  -0.771  1.00  0.00     0.006 C 
BRANCH   9  10
ATOM     10  C   UNL     1      28.094 -14.863   0.763  1.00  0.00     0.053 C 
BRANCH  10  11
ATOM     11  C   UNL     1      29.196 -14.058   1.380  1.00  0.00     0.041 C 
ATOM     12  O   UNL     1      28.941 -13.239   2.303  1.00  0.00    -0.550 OA
ATOM     13  O   UNL     1      30.497 -14.186   0.914  1.00  0.00    -0.550 OA
ENDBRANCH  10  11
ENDBRANCH   9  10
ENDBRANCH   8   9
ENDBRANCH   1   8
TORSDOF 8
ENDMDL
MODEL 4
REMARK VINA RESULT:    -3.752      2.231      3.041
REMARK INTER + INTRA:          -6.019
REMARK INTER:                  -5.645
REMARK INTRA:                  -0.373
REMARK UNBOUND:                -0.511
REMARK SMILES O=C([O-])CCCCCCCC(=O)[O-]
REMARK SMILES IDX 7 1 6 2 5 3 4 4 2 5 1 6 3 7 8 8 9 9 10 10 11 11 12 12 13 13
REMARK H PARENT
REMARK Flexibility Score: inf
ROOT
ATOM      1  C   UNL     1      26.738 -14.065  -1.529  1.00  0.00     0.000 C 
ENDROOT
BRANCH   1   2
ATOM      2  C   UNL     1      25.547 -13.473  -0.760  1.00  0.00     0.000 C 
BRANCH   2   3
ATOM      3  C   UNL     1      24.229 -13.567  -1.546  1.00  0.00     0.006 C 
BRANCH   3   4
ATOM      4  C   UNL     1      24.354 -14.435  -2.806  1.00  0.00     0.053 C 
BRANCH   4   5
ATOM      5  C   UNL     1      23.431 -15.609  -2.722  1.00  0.00     0.041 C 
ATOM      6  O   UNL     1      22.638 -15.725  -1.751  1.00  0.00    -0.550 OA
ATOM      7  O   UNL     1      23.480 -16.602  -3.693  1.00  0.00    -0.550 OA
ENDBRANCH   4   5
ENDBRANCH   3   4
ENDBRANCH   2   3
ENDBRANCH   1   2
BRANCH   1   8
ATOM      8  C   UNL     1      27.956 -14.233  -0.607  1.00  0.00     0.000 C 
BRANCH   8   9
ATOM      9  C   UNL     1      27.760 -13.569   0.769  1.00  0.00     0.006 C 
BRANCH   9  10
ATOM     10  C   UNL     1      29.019 -13.552   1.648  1.00  0.00     0.053 C 
BRANCH  10  11
ATOM     11  C   UNL     1      29.634 -12.188   1.725  1.00  0.00     0.041 C 
ATOM     12  O   UNL     1      30.182 -11.683   0.709  1.00  0.00    -0.550 OA
ATOM     13  O   UNL     1      29.631 -11.489   2.924  1.00  0.00    -0.550 OA
ENDBRANCH  10  11
ENDBRANCH   9  10
ENDBRANCH   8   9
ENDBRANCH   1   8
TORSDOF 8
ENDMDL
MODEL 5
REMARK VINA RESULT:    -3.680      1.469      5.180
REMARK INTER + INTRA:          -5.912
REMARK INTER:                  -5.554
REMARK INTRA:                  -0.358
REMARK UNBOUND:                -0.511
REMARK SMILES O=C([O-])CCCCCCCC(=O)[O-]
REMARK SMILES IDX 7 1 6 2 5 3 4 4 2 5 1 6 3 7 8 8 9 9 10 10 11 11 12 12 13 13
REMARK H PARENT
REMARK Flexibility Score: inf
ROOT
ATOM      1  C   UNL     1      25.491 -13.061  -0.370  1.00  0.00     0.000 C 
ENDROOT
BRANCH   1   2
ATOM      2  C   UNL     1      26.843 -13.774  -0.521  1.00  0.00     0.000 C 
BRANCH   2   3
ATOM      3  C   UNL     1      27.786 -13.513   0.664  1.00  0.00     0.006 C 
BRANCH   3   4
ATOM      4  C   UNL     1      28.425 -14.800   1.204  1.00  0.00     0.053 C 
BRANCH   4   5
ATOM      5  C   UNL     1      29.618 -15.174   0.382  1.00  0.00     0.041 C 
ATOM      6  O   UNL     1      30.338 -14.280  -0.134  1.00  0.00    -0.550 OA
ATOM      7  O   UNL     1      29.905 -16.512   0.144  1.00  0.00    -0.550 OA
ENDBRANCH   4   5
ENDBRANCH   3   4
ENDBRANCH   2   3
ENDBRANCH   1   2
BRANCH   1   8
ATOM      8  C   UNL     1      24.453 -13.642  -1.343  1.00  0.00     0.000 C 
BRANCH   8   9
ATOM      9  C   UNL     1      25.094 -14.262  -2.599  1.00  0.00     0.006 C 
BRANCH   9  10
ATOM     10  C   UNL     1      24.100 -14.968  -3.534  1.00  0.00     0.053 C 
BRANCH  10  11
ATOM     11  C   UNL     1      24.002 -16.435  -3.246  1.00  0.00     0.041 C 
ATOM     12  O   UNL     1      23.015 -16.891  -2.610  1.00  0.00    -0.550 OA
ATOM     13  O   UNL     1      25.016 -17.293  -3.650  1.00  0.00    -0.550 OA
ENDBRANCH  10  11
ENDBRANCH   9  10
ENDBRANCH   8   9
ENDBRANCH   1   8
TORSDOF 8
ENDMDL
MODEL 6
REMARK VINA RESULT:    -3.575      2.186      3.493
REMARK INTER + INTRA:          -5.758
REMARK INTER:                  -5.390
REMARK INTRA:                  -0.368
REMARK UNBOUND:                -0.511
REMARK SMILES O=C([O-])CCCCCCCC(=O)[O-]
REMARK SMILES IDX 7 1 6 2 5 3 4 4 2 5 1 6 3 7 8 8 9 9 10 10 11 11 12 12 13 13
REMARK H PARENT
REMARK Flexibility Score: inf
ROOT
ATOM      1  C   UNL     1      26.932 -13.494   0.192  1.00  0.00     0.000 C 
ENDROOT
BRANCH   1   2
ATOM      2  C   UNL     1      26.225 -13.825  -1.131  1.00  0.00     0.000 C 
BRANCH   2   3
ATOM      3  C   UNL     1      24.723 -13.499  -1.098  1.00  0.00     0.006 C 
BRANCH   3   4
ATOM      4  C   UNL     1      24.064 -13.615  -2.479  1.00  0.00     0.053 C 
BRANCH   4   5
ATOM      5  C   UNL     1      23.511 -14.991  -2.678  1.00  0.00     0.041 C 
ATOM      6  O   UNL     1      22.816 -15.531  -1.778  1.00  0.00    -0.550 OA
ATOM      7  O   UNL     1      23.805 -15.696  -3.838  1.00  0.00    -0.550 OA
ENDBRANCH   4   5
ENDBRANCH   3   4
ENDBRANCH   2   3
ENDBRANCH   1   2
BRANCH   1   8
ATOM      8  C   UNL     1      28.382 -14.001   0.180  1.00  0.00     0.000 C 
BRANCH   8   9
ATOM      9  C   UNL     1      28.479 -15.535   0.282  1.00  0.00     0.006 C 
BRANCH   9  10
ATOM     10  C   UNL     1      29.732 -16.135  -0.375  1.00  0.00     0.053 C 
BRANCH  10  11
ATOM     11  C   UNL     1      29.407 -16.874  -1.636  1.00  0.00     0.041 C 
ATOM     12  O   UNL     1      30.289 -17.565  -2.211  1.00  0.00    -0.550 OA
ATOM     13  O   UNL     1      28.139 -16.774  -2.195  1.00  0.00    -0.550 OA
ENDBRANCH  10  11
ENDBRANCH   9  10
ENDBRANCH   8   9
ENDBRANCH   1   8
TORSDOF 8
ENDMDL
MODEL 7
REMARK VINA RESULT:    -3.525      1.694      4.344
REMARK INTER + INTRA:          -5.685
REMARK INTER:                  -5.017
REMARK INTRA:                  -0.669
REMARK UNBOUND:                -0.511
REMARK SMILES O=C([O-])CCCCCCCC(=O)[O-]
REMARK SMILES IDX 7 1 6 2 5 3 4 4 2 5 1 6 3 7 8 8 9 9 10 10 11 11 12 12 13 13
REMARK H PARENT
REMARK Flexibility Score: inf
ROOT
ATOM      1  C   UNL     1      24.510 -13.838  -1.083  1.00  0.00     0.000 C 
ENDROOT
BRANCH   1   2
ATOM      2  C   UNL     1      25.754 -13.163  -0.484  1.00  0.00     0.000 C 
BRANCH   2   3
ATOM      3  C   UNL     1      26.989 -14.077  -0.499  1.00  0.00     0.006 C 
BRANCH   3   4
ATOM      4  C   UNL     1      27.832 -13.911  -1.771  1.00  0.00     0.053 C 
BRANCH   4   5
ATOM      5  C   UNL     1      27.949 -15.216  -2.493  1.00  0.00     0.041 C 
ATOM      6  O   UNL     1      27.844 -15.258  -3.747  1.00  0.00    -0.550 OA
ATOM      7  O   UNL     1      28.124 -16.393  -1.777  1.00  0.00    -0.550 OA
ENDBRANCH   4   5
ENDBRANCH   3   4
ENDBRANCH   2   3
ENDBRANCH   1   2
BRANCH   1   8
ATOM      8  C   UNL     1      24.132 -13.195  -2.427  1.00  0.00     0.000 C 
BRANCH   8   9
ATOM      9  C   UNL     1      23.413 -14.174  -3.375  1.00  0.00     0.006 C 
BRANCH   9  10
ATOM     10  C   UNL     1      24.348 -15.160  -4.093  1.00  0.00     0.053 C 
BRANCH  10  11
ATOM     11  C   UNL     1      24.245 -16.543  -3.528  1.00  0.00     0.041 C 
ATOM     12  O   UNL     1      23.192 -16.913  -2.945  1.00  0.00    -0.550 OA
ATOM     13  O   UNL     1      25.325 -17.413  -3.617  1.00  0.00    -0.550 OA
ENDBRANCH  10  11
ENDBRANCH   9  10
ENDBRANCH   8   9
ENDBRANCH   1   8
TORSDOF 8
ENDMDL
MODEL 8
REMARK VINA RESULT:    -3.484      2.332      4.367
REMARK INTER + INTRA:          -5.625
REMARK INTER:                  -5.019
REMARK INTRA:                  -0.606
REMARK UNBOUND:                -0.511
REMARK SMILES O=C([O-])CCCCCCCC(=O)[O-]
REMARK SMILES IDX 7 1 6 2 5 3 4 4 2 5 1 6 3 7 8 8 9 9 10 10 11 11 12 12 13 13
REMARK H PARENT
REMARK Flexibility Score: inf
ROOT
ATOM      1  C   UNL     1      27.066 -13.980  -0.048  1.00  0.00     0.000 C 
ENDROOT
BRANCH   1   2
ATOM      2  C   UNL     1      28.265 -13.391  -0.807  1.00  0.00     0.000 C 
BRANCH   2   3
ATOM      3  C   UNL     1      28.890 -14.390  -1.794  1.00  0.00     0.006 C 
BRANCH   3   4
ATOM      4  C   UNL     1      28.228 -15.773  -1.734  1.00  0.00     0.053 C 
BRANCH   4   5
ATOM      5  C   UNL     1      27.732 -16.172  -3.087  1.00  0.00     0.041 C 
ATOM      6  O   UNL     1      28.355 -15.815  -4.121  1.00  0.00    -0.550 OA
ATOM      7  O   UNL     1      26.553 -16.897  -3.209  1.00  0.00    -0.550 OA
ENDBRANCH   4   5
ENDBRANCH   3   4
ENDBRANCH   2   3
ENDBRANCH   1   2
BRANCH   1   8
ATOM      8  C   UNL     1      25.778 -13.211  -0.378  1.00  0.00     0.000 C 
BRANCH   8   9
ATOM      9  C   UNL     1      25.146 -13.648  -1.713  1.00  0.00     0.006 C 
BRANCH   9  10
ATOM     10  C   UNL     1      23.826 -14.420  -1.566  1.00  0.00     0.053 C 
BRANCH  10  11
ATOM     11  C   UNL     1      23.505 -15.224  -2.788  1.00  0.00     0.041 C 
ATOM     12  O   UNL     1      23.586 -14.700  -3.931  1.00  0.00    -0.550 OA
ATOM     13  O   UNL     1      23.086 -16.542  -2.664  1.00  0.00    -0.550 OA
ENDBRANCH  10  11
ENDBRANCH   9  10
ENDBRANCH   8   9
ENDBRANCH   1   8
TORSDOF 8
ENDMDL
MODEL 9
REMARK VINA RESULT:    -3.399      2.048      2.865
REMARK INTER + INTRA:          -5.500
REMARK INTER:                  -4.935
REMARK INTRA:                  -0.565
REMARK UNBOUND:                -0.511
REMARK SMILES O=C([O-])CCCCCCCC(=O)[O-]
REMARK SMILES IDX 7 1 6 2 5 3 4 4 2 5 1 6 3 7 8 8 9 9 10 10 11 11 12 12 13 13
REMARK H PARENT
REMARK Flexibility Score: inf
ROOT
ATOM      1  C   UNL     1      26.982 -15.782  -3.887  1.00  0.00     0.000 C 
ENDROOT
BRANCH   1   2
ATOM      2  C   UNL     1      25.802 -16.743  -3.676  1.00  0.00     0.000 C 
BRANCH   2   3
ATOM      3  C   UNL     1      24.460 -16.142  -4.123  1.00  0.00     0.006 C 
BRANCH   3   4
ATOM      4  C   UNL     1      24.261 -14.705  -3.622  1.00  0.00     0.053 C 
BRANCH   4   5
ATOM      5  C   UNL     1      23.645 -14.710  -2.258  1.00  0.00     0.041 C 
ATOM      6  O   UNL     1      23.942 -13.813  -1.426  1.00  0.00    -0.550 OA
ATOM      7  O   UNL     1      22.780 -15.732  -1.890  1.00  0.00    -0.550 OA
ENDBRANCH   4   5
ENDBRANCH   3   4
ENDBRANCH   2   3
ENDBRANCH   1   2
BRANCH   1   8
ATOM      8  C   UNL     1      27.814 -15.645  -2.603  1.00  0.00     0.000 C 
BRANCH   8   9
ATOM      9  C   UNL     1      27.989 -14.180  -2.159  1.00  0.00     0.006 C 
BRANCH   9  10
ATOM     10  C   UNL     1      27.247 -13.819  -0.863  1.00  0.00     0.053 C 
BRANCH  10  11
ATOM     11  C   UNL     1      28.146 -13.870   0.333  1.00  0.00     0.041 C 
ATOM     12  O   UNL     1      28.964 -12.937   0.551  1.00  0.00    -0.550 OA
ATOM     13  O   UNL     1      28.106 -14.963   1.189  1.00  0.00    -0.550 OA
ENDBRANCH  10  11
ENDBRANCH   9  10
ENDBRANCH   8   9
ENDBRANCH   1   8
TORSDOF 8
ENDMDL
