MODEL 1
REMARK VINA RESULT:    -3.420      0.000      0.000
REMARK INTER + INTRA:          -7.801
REMARK INTER:                  -6.019
REMARK INTRA:                  -1.783
REMARK UNBOUND:                -1.783
REMARK SMILES CCCCCCC=CCCCCCCCC(=O)[O-]
REMARK SMILES IDX 10 1 11 2 12 3 13 4 14 5 15 6 16 7 17 8 18 9 9 10 8 11 7 12
REMARK SMILES IDX 6 13 5 14 4 15 3 16 2 17 1 18
REMARK H PARENT
REMARK Flexibility Score: inf
ROOT
ATOM      1  C   UNL     1      61.256  31.980  60.888  1.00  0.00     0.004 C 
ENDROOT
BRANCH   1   2
ATOM      2  C   UNL     1      60.768  30.666  61.514  1.00  0.00     0.000 C 
BRANCH   2   3
ATOM      3  C   UNL     1      61.733  29.497  61.262  1.00  0.00     0.000 C 
BRANCH   3   4
ATOM      4  C   UNL     1      63.206  29.897  61.439  1.00  0.00     0.000 C 
BRANCH   4   5
ATOM      5  C   UNL     1      64.036  29.496  60.213  1.00  0.00     0.006 C 
BRANCH   5   6
ATOM      6  C   UNL     1      64.451  28.023  60.290  1.00  0.00     0.053 C 
BRANCH   6   7
ATOM      7  C   UNL     1      65.936  27.890  60.166  1.00  0.00     0.041 C 
ATOM      8  O   UNL     1      66.674  28.070  61.170  1.00  0.00    -0.550 OA
ATOM      9  O   UNL     1      66.509  27.614  58.931  1.00  0.00    -0.550 OA
ENDBRANCH   6   7
ENDBRANCH   5   6
ENDBRANCH   4   5
ENDBRANCH   3   4
ENDBRANCH   2   3
ENDBRANCH   1   2
BRANCH   1  10
ATOM     10  C   UNL     1      60.918  32.035  59.393  1.00  0.00     0.027 C 
BRANCH  10  11
ATOM     11  C   UNL     1      61.037  33.436  58.860  1.00  0.00    -0.031 C 
ATOM     12  C   UNL     1      60.848  34.504  59.649  1.00  0.00    -0.031 C 
BRANCH  12  13
ATOM     13  C   UNL     1      60.926  35.909  59.114  1.00  0.00     0.027 C 
BRANCH  13  14
ATOM     14  C   UNL     1      62.050  36.707  59.787  1.00  0.00     0.004 C 
BRANCH  14  15
ATOM     15  C   UNL     1      62.471  36.090  61.132  1.00  0.00     0.000 C 
BRANCH  15  16
ATOM     16  C   UNL     1      63.968  35.743  61.181  1.00  0.00    -0.000 C 
BRANCH  16  17
ATOM     17  C   UNL     1      64.223  34.229  61.245  1.00  0.00    -0.003 C 
ATOM     18  C   UNL     1      64.521  33.663  59.859  1.00  0.00     0.004 C 
ENDBRANCH  16  17
ENDBRANCH  15  16
ENDBRANCH  14  15
ENDBRANCH  13  14
ENDBRANCH  12  13
ENDBRANCH  10  11
ENDBRANCH   1  10
TORSDOF 13
ENDMDL
MODEL 2
REMARK VINA RESULT:    -3.387     10.066     12.138
REMARK INTER + INTRA:          -7.744
REMARK INTER:                  -5.359
REMARK INTRA:                  -2.385
REMARK UNBOUND:                -1.783
REMARK SMILES CCCCCCC=CCCCCCCCC(=O)[O-]
REMARK SMILES IDX 10 1 11 2 12 3 13 4 14 5 15 6 16 7 17 8 18 9 9 10 8 11 7 12
REMARK SMILES IDX 6 13 5 14 4 15 3 16 2 17 1 18
REMARK H PARENT
REMARK Flexibility Score: inf
ROOT
ATOM      1  C   UNL     1      59.346  29.738  51.670  1.00  0.00     0.004 C 
ENDROOT
BRANCH   1   2
ATOM      2  C   UNL     1      58.453  29.277  50.509  1.00  0.00     0.000 C 
BRANCH   2   3
ATOM      3  C   UNL     1      59.262  28.725  49.324  1.00  0.00     0.000 C 
BRANCH   3   4
ATOM      4  C   UNL     1      60.391  27.781  49.767  1.00  0.00     0.000 C 
BRANCH   4   5
ATOM      5  C   UNL     1      59.856  26.367  50.022  1.00  0.00     0.006 C 
BRANCH   5   6
ATOM      6  C   UNL     1      60.502  25.752  51.267  1.00  0.00     0.053 C 
BRANCH   6   7
ATOM      7  C   UNL     1      61.186  24.467  50.923  1.00  0.00     0.041 C 
ATOM      8  O   UNL     1      62.441  24.384  50.977  1.00  0.00    -0.550 OA
ATOM      9  O   UNL     1      60.442  23.374  50.496  1.00  0.00    -0.550 OA
ENDBRANCH   6   7
ENDBRANCH   5   6
ENDBRANCH   4   5
ENDBRANCH   3   4
ENDBRANCH   2   3
ENDBRANCH   1   2
BRANCH   1  10
ATOM     10  C   UNL     1      58.733  29.348  53.021  1.00  0.00     0.027 C 
BRANCH  10  11
ATOM     11  C   UNL     1      58.190  27.946  52.987  1.00  0.00    -0.031 C 
ATOM     12  C   UNL     1      57.250  27.537  53.853  1.00  0.00    -0.031 C 
BRANCH  12  13
ATOM     13  C   UNL     1      56.731  26.124  53.851  1.00  0.00     0.027 C 
BRANCH  13  14
ATOM     14  C   UNL     1      56.736  25.524  52.439  1.00  0.00     0.004 C 
BRANCH  14  15
ATOM     15  C   UNL     1      55.436  25.831  51.677  1.00  0.00     0.000 C 
BRANCH  15  16
ATOM     16  C   UNL     1      55.667  26.731  50.452  1.00  0.00    -0.000 C 
BRANCH  16  17
ATOM     17  C   UNL     1      54.619  27.848  50.332  1.00  0.00    -0.003 C 
ATOM     18  C   UNL     1      54.867  28.948  51.361  1.00  0.00     0.004 C 
ENDBRANCH  16  17
ENDBRANCH  15  16
ENDBRANCH  14  15
ENDBRANCH  13  14
ENDBRANCH  12  13
ENDBRANCH  10  11
ENDBRANCH   1  10
TORSDOF 13
ENDMDL
MODEL 3
REMARK VINA RESULT:    -3.386      3.239      6.258
REMARK INTER + INTRA:          -7.743
REMARK INTER:                  -5.389
REMARK INTRA:                  -2.354
REMARK UNBOUND:                -1.783
REMARK SMILES CCCCCCC=CCCCCCCCC(=O)[O-]
REMARK SMILES IDX 10 1 11 2 12 3 13 4 14 5 15 6 16 7 17 8 18 9 9 10 8 11 7 12
REMARK SMILES IDX 6 13 5 14 4 15 3 16 2 17 1 18
REMARK H PARENT
REMARK Flexibility Score: inf
ROOT
ATOM      1  C   UNL     1      62.070  36.070  60.986  1.00  0.00     0.004 C 
ENDROOT
BRANCH   1   2
ATOM      2  C   UNL     1      61.050  35.061  60.439  1.00  0.00     0.000 C 
BRANCH   2   3
ATOM      3  C   UNL     1      60.286  35.596  59.218  1.00  0.00     0.000 C 
BRANCH   3   4
ATOM      4  C   UNL     1      60.383  34.659  58.003  1.00  0.00     0.000 C 
BRANCH   4   5
ATOM      5  C   UNL     1      61.832  34.539  57.515  1.00  0.00     0.006 C 
BRANCH   5   6
ATOM      6  C   UNL     1      62.379  35.902  57.079  1.00  0.00     0.053 C 
BRANCH   6   7
ATOM      7  C   UNL     1      63.873  35.875  57.025  1.00  0.00     0.041 C 
ATOM      8  O   UNL     1      64.462  35.378  56.029  1.00  0.00    -0.550 OA
ATOM      9  O   UNL     1      64.618  36.355  58.096  1.00  0.00    -0.550 OA
ENDBRANCH   6   7
ENDBRANCH   5   6
ENDBRANCH   4   5
ENDBRANCH   3   4
ENDBRANCH   2   3
ENDBRANCH   1   2
BRANCH   1  10
ATOM     10  C   UNL     1      63.455  35.426  61.133  1.00  0.00     0.027 C 
BRANCH  10  11
ATOM     11  C   UNL     1      63.419  33.970  60.756  1.00  0.00    -0.031 C 
ATOM     12  C   UNL     1      64.367  33.424  59.979  1.00  0.00    -0.031 C 
BRANCH  12  13
ATOM     13  C   UNL     1      64.316  31.978  59.565  1.00  0.00     0.027 C 
BRANCH  13  14
ATOM     14  C   UNL     1      64.084  31.055  60.768  1.00  0.00     0.004 C 
BRANCH  14  15
ATOM     15  C   UNL     1      62.949  30.048  60.514  1.00  0.00     0.000 C 
BRANCH  15  16
ATOM     16  C   UNL     1      61.837  30.131  61.572  1.00  0.00    -0.000 C 
BRANCH  16  17
ATOM     17  C   UNL     1      60.762  31.171  61.220  1.00  0.00    -0.003 C 
ATOM     18  C   UNL     1      60.630  31.335  59.709  1.00  0.00     0.004 C 
ENDBRANCH  16  17
ENDBRANCH  15  16
ENDBRANCH  14  15
ENDBRANCH  13  14
ENDBRANCH  12  13
ENDBRANCH  10  11
ENDBRANCH   1  10
TORSDOF 13
ENDMDL
MODEL 4
REMARK VINA RESULT:    -3.377      1.276      2.374
REMARK INTER + INTRA:          -7.726
REMARK INTER:                  -6.552
REMARK INTRA:                  -1.174
REMARK UNBOUND:                -1.783
REMARK SMILES CCCCCCC=CCCCCCCCC(=O)[O-]
REMARK SMILES IDX 10 1 11 2 12 3 13 4 14 5 15 6 16 7 17 8 18 9 9 10 8 11 7 12
REMARK SMILES IDX 6 13 5 14 4 15 3 16 2 17 1 18
REMARK H PARENT
REMARK Flexibility Score: inf
ROOT
ATOM      1  C   UNL     1      62.411  29.970  61.449  1.00  0.00     0.004 C 
ENDROOT
BRANCH   1   2
ATOM      2  C   UNL     1      63.574  30.931  61.161  1.00  0.00     0.000 C 
BRANCH   2   3
ATOM      3  C   UNL     1      64.620  30.324  60.211  1.00  0.00     0.000 C 
BRANCH   3   4
ATOM      4  C   UNL     1      64.956  28.865  60.556  1.00  0.00     0.000 C 
BRANCH   4   5
ATOM      5  C   UNL     1      65.982  28.290  59.572  1.00  0.00     0.006 C 
BRANCH   5   6
ATOM      6  C   UNL     1      66.971  27.366  60.288  1.00  0.00     0.053 C 
BRANCH   6   7
ATOM      7  C   UNL     1      67.945  28.164  61.095  1.00  0.00     0.041 C 
ATOM      8  O   UNL     1      67.904  28.129  62.353  1.00  0.00    -0.550 OA
ATOM      9  O   UNL     1      68.869  28.984  60.459  1.00  0.00    -0.550 OA
ENDBRANCH   6   7
ENDBRANCH   5   6
ENDBRANCH   4   5
ENDBRANCH   3   4
ENDBRANCH   2   3
ENDBRANCH   1   2
BRANCH   1  10
ATOM     10  C   UNL     1      61.084  30.547  60.937  1.00  0.00     0.027 C 
BRANCH  10  11
ATOM     11  C   UNL     1      61.195  32.026  60.690  1.00  0.00    -0.031 C 
ATOM     12  C   UNL     1      60.854  32.567  59.510  1.00  0.00    -0.031 C 
BRANCH  12  13
ATOM     13  C   UNL     1      60.999  34.042  59.243  1.00  0.00     0.027 C 
BRANCH  13  14
ATOM     14  C   UNL     1      61.442  34.802  60.499  1.00  0.00     0.004 C 
BRANCH  14  15
ATOM     15  C   UNL     1      62.798  35.501  60.304  1.00  0.00     0.000 C 
BRANCH  15  16
ATOM     16  C   UNL     1      63.958  34.735  60.960  1.00  0.00    -0.000 C 
BRANCH  16  17
ATOM     17  C   UNL     1      64.753  35.600  61.950  1.00  0.00    -0.003 C 
ATOM     18  C   UNL     1      64.229  37.033  61.972  1.00  0.00     0.004 C 
ENDBRANCH  16  17
ENDBRANCH  15  16
ENDBRANCH  14  15
ENDBRANCH  13  14
ENDBRANCH  12  13
ENDBRANCH  10  11
ENDBRANCH   1  10
TORSDOF 13
ENDMDL
MODEL 5
REMARK VINA RESULT:    -3.373     10.880     12.857
REMARK INTER + INTRA:          -7.718
REMARK INTER:                  -5.794
REMARK INTRA:                  -1.925
REMARK UNBOUND:                -1.783
REMARK SMILES CCCCCCC=CCCCCCCCC(=O)[O-]
REMARK SMILES IDX 10 1 11 2 12 3 13 4 14 5 15 6 16 7 17 8 18 9 9 10 8 11 7 12
REMARK SMILES IDX 6 13 5 14 4 15 3 16 2 17 1 18
REMARK H PARENT
REMARK Flexibility Score: inf
ROOT
ATOM      1  C   UNL     1      59.321  28.890  51.547  1.00  0.00     0.004 C 
ENDROOT
BRANCH   1   2
ATOM      2  C   UNL     1      60.304  29.057  50.379  1.00  0.00     0.000 C 
BRANCH   2   3
ATOM      3  C   UNL     1      60.626  27.726  49.683  1.00  0.00     0.000 C 
BRANCH   3   4
ATOM      4  C   UNL     1      61.902  27.066  50.229  1.00  0.00     0.000 C 
BRANCH   4   5
ATOM      5  C   UNL     1      61.606  25.662  50.770  1.00  0.00     0.006 C 
BRANCH   5   6
ATOM      6  C   UNL     1      60.113  25.336  50.666  1.00  0.00     0.053 C 
BRANCH   6   7
ATOM      7  C   UNL     1      59.604  24.788  51.961  1.00  0.00     0.041 C 
ATOM      8  O   UNL     1      59.422  25.553  52.944  1.00  0.00    -0.550 OA
ATOM      9  O   UNL     1      59.374  23.424  52.097  1.00  0.00    -0.550 OA
ENDBRANCH   6   7
ENDBRANCH   5   6
ENDBRANCH   4   5
ENDBRANCH   3   4
ENDBRANCH   2   3
ENDBRANCH   1   2
BRANCH   1  10
ATOM     10  C   UNL     1      57.893  29.252  51.118  1.00  0.00     0.027 C 
BRANCH  10  11
ATOM     11  C   UNL     1      57.109  28.023  50.749  1.00  0.00    -0.031 C 
ATOM     12  C   UNL     1      56.644  27.182  51.685  1.00  0.00    -0.031 C 
BRANCH  12  13
ATOM     13  C   UNL     1      55.893  25.929  51.321  1.00  0.00     0.027 C 
BRANCH  13  14
ATOM     14  C   UNL     1      55.367  25.984  49.881  1.00  0.00     0.004 C 
BRANCH  14  15
ATOM     15  C   UNL     1      53.839  25.817  49.817  1.00  0.00     0.000 C 
BRANCH  15  16
ATOM     16  C   UNL     1      53.094  26.864  50.661  1.00  0.00    -0.000 C 
BRANCH  16  17
ATOM     17  C   UNL     1      53.161  28.273  50.052  1.00  0.00    -0.003 C 
ATOM     18  C   UNL     1      53.664  29.289  51.073  1.00  0.00     0.004 C 
ENDBRANCH  16  17
ENDBRANCH  15  16
ENDBRANCH  14  15
ENDBRANCH  13  14
ENDBRANCH  12  13
ENDBRANCH  10  11
ENDBRANCH   1  10
TORSDOF 13
ENDMDL
MODEL 6
REMARK VINA RESULT:    -3.327      2.175      3.902
REMARK INTER + INTRA:          -7.638
REMARK INTER:                  -5.487
REMARK INTRA:                  -2.152
REMARK UNBOUND:                -1.783
REMARK SMILES CCCCCCC=CCCCCCCCC(=O)[O-]
REMARK SMILES IDX 10 1 11 2 12 3 13 4 14 5 15 6 16 7 17 8 18 9 9 10 8 11 7 12
REMARK SMILES IDX 6 13 5 14 4 15 3 16 2 17 1 18
REMARK H PARENT
REMARK Flexibility Score: inf
ROOT
ATOM      1  C   UNL     1      64.643  33.831  59.798  1.00  0.00     0.004 C 
ENDROOT
BRANCH   1   2
ATOM      2  C   UNL     1      63.717  32.671  59.407  1.00  0.00     0.000 C 
BRANCH   2   3
ATOM      3  C   UNL     1      62.927  32.115  60.603  1.00  0.00     0.000 C 
BRANCH   3   4
ATOM      4  C   UNL     1      61.414  32.069  60.342  1.00  0.00     0.000 C 
BRANCH   4   5
ATOM      5  C   UNL     1      60.744  30.980  61.190  1.00  0.00     0.006 C 
BRANCH   5   6
ATOM      6  C   UNL     1      61.763  29.928  61.639  1.00  0.00     0.053 C 
BRANCH   6   7
ATOM      7  C   UNL     1      61.567  28.652  60.884  1.00  0.00     0.041 C 
ATOM      8  O   UNL     1      62.562  27.969  60.527  1.00  0.00    -0.550 OA
ATOM      9  O   UNL     1      60.287  28.240  60.532  1.00  0.00    -0.550 OA
ENDBRANCH   6   7
ENDBRANCH   5   6
ENDBRANCH   4   5
ENDBRANCH   3   4
ENDBRANCH   2   3
ENDBRANCH   1   2
BRANCH   1  10
ATOM     10  C   UNL     1      64.264  34.397  61.173  1.00  0.00     0.027 C 
BRANCH  10  11
ATOM     11  C   UNL     1      63.497  35.683  61.037  1.00  0.00    -0.031 C 
ATOM     12  C   UNL     1      62.157  35.696  60.970  1.00  0.00    -0.031 C 
BRANCH  12  13
ATOM     13  C   UNL     1      61.384  36.976  60.795  1.00  0.00     0.027 C 
BRANCH  13  14
ATOM     14  C   UNL     1      60.264  36.820  59.758  1.00  0.00     0.004 C 
BRANCH  14  15
ATOM     15  C   UNL     1      60.335  35.468  59.029  1.00  0.00     0.000 C 
BRANCH  15  16
ATOM     16  C   UNL     1      60.724  35.614  57.549  1.00  0.00    -0.000 C 
BRANCH  16  17
ATOM     17  C   UNL     1      62.142  35.100  57.257  1.00  0.00    -0.003 C 
ATOM     18  C   UNL     1      63.159  36.236  57.310  1.00  0.00     0.004 C 
ENDBRANCH  16  17
ENDBRANCH  15  16
ENDBRANCH  14  15
ENDBRANCH  13  14
ENDBRANCH  12  13
ENDBRANCH  10  11
ENDBRANCH   1  10
TORSDOF 13
ENDMDL
MODEL 7
REMARK VINA RESULT:    -3.323     11.776     13.637
REMARK INTER + INTRA:          -7.630
REMARK INTER:                  -6.120
REMARK INTRA:                  -1.511
REMARK UNBOUND:                -1.783
REMARK SMILES CCCCCCC=CCCCCCCCC(=O)[O-]
REMARK SMILES IDX 10 1 11 2 12 3 13 4 14 5 15 6 16 7 17 8 18 9 9 10 8 11 7 12
REMARK SMILES IDX 6 13 5 14 4 15 3 16 2 17 1 18
REMARK H PARENT
REMARK Flexibility Score: inf
ROOT
ATOM      1  C   UNL     1      57.555  28.932  50.990  1.00  0.00     0.004 C 
ENDROOT
BRANCH   1   2
ATOM      2  C   UNL     1      57.984  27.773  51.902  1.00  0.00     0.000 C 
BRANCH   2   3
ATOM      3  C   UNL     1      57.035  26.567  51.811  1.00  0.00     0.000 C 
BRANCH   3   4
ATOM      4  C   UNL     1      56.621  26.248  50.366  1.00  0.00     0.000 C 
BRANCH   4   5
ATOM      5  C   UNL     1      55.104  26.050  50.261  1.00  0.00     0.006 C 
BRANCH   5   6
ATOM      6  C   UNL     1      54.373  27.395  50.263  1.00  0.00     0.053 C 
BRANCH   6   7
ATOM      7  C   UNL     1      53.471  27.500  51.452  1.00  0.00     0.041 C 
ATOM      8  O   UNL     1      53.060  26.460  52.029  1.00  0.00    -0.550 OA
ATOM      9  O   UNL     1      53.045  28.747  51.895  1.00  0.00    -0.550 OA
ENDBRANCH   6   7
ENDBRANCH   5   6
ENDBRANCH   4   5
ENDBRANCH   3   4
ENDBRANCH   2   3
ENDBRANCH   1   2
BRANCH   1  10
ATOM     10  C   UNL     1      58.638  29.239  49.948  1.00  0.00     0.027 C 
BRANCH  10  11
ATOM     11  C   UNL     1      59.977  28.712  50.385  1.00  0.00    -0.031 C 
ATOM     12  C   UNL     1      60.595  27.728  49.715  1.00  0.00    -0.031 C 
BRANCH  12  13
ATOM     13  C   UNL     1      61.917  27.168  50.170  1.00  0.00     0.027 C 
BRANCH  13  14
ATOM     14  C   UNL     1      61.764  25.751  50.736  1.00  0.00     0.004 C 
BRANCH  14  15
ATOM     15  C   UNL     1      60.425  25.109  50.333  1.00  0.00     0.000 C 
BRANCH  15  16
ATOM     16  C   UNL     1      60.064  23.897  51.207  1.00  0.00    -0.000 C 
BRANCH  16  17
ATOM     17  C   UNL     1      61.074  22.747  51.071  1.00  0.00    -0.003 C 
ATOM     18  C   UNL     1      61.094  22.199  49.647  1.00  0.00     0.004 C 
ENDBRANCH  16  17
ENDBRANCH  15  16
ENDBRANCH  14  15
ENDBRANCH  13  14
ENDBRANCH  12  13
ENDBRANCH  10  11
ENDBRANCH   1  10
TORSDOF 13
ENDMDL
MODEL 8
REMARK VINA RESULT:    -3.305     10.323     12.241
REMARK INTER + INTRA:          -7.600
REMARK INTER:                  -5.647
REMARK INTRA:                  -1.954
REMARK UNBOUND:                -1.783
REMARK SMILES CCCCCCC=CCCCCCCCC(=O)[O-]
REMARK SMILES IDX 10 1 11 2 12 3 13 4 14 5 15 6 16 7 17 8 18 9 9 10 8 11 7 12
REMARK SMILES IDX 6 13 5 14 4 15 3 16 2 17 1 18
REMARK H PARENT
REMARK Flexibility Score: inf
ROOT
ATOM      1  C   UNL     1      61.358  28.916  52.274  1.00  0.00     0.004 C 
ENDROOT
BRANCH   1   2
ATOM      2  C   UNL     1      61.956  28.937  50.859  1.00  0.00     0.000 C 
BRANCH   2   3
ATOM      3  C   UNL     1      61.523  27.726  50.016  1.00  0.00     0.000 C 
BRANCH   3   4
ATOM      4  C   UNL     1      60.061  27.820  49.554  1.00  0.00     0.000 C 
BRANCH   4   5
ATOM      5  C   UNL     1      59.300  26.527  49.871  1.00  0.00     0.006 C 
BRANCH   5   6
ATOM      6  C   UNL     1      60.136  25.602  50.760  1.00  0.00     0.053 C 
BRANCH   6   7
ATOM      7  C   UNL     1      59.253  24.656  51.511  1.00  0.00     0.041 C 
ATOM      8  O   UNL     1      58.120  25.030  51.911  1.00  0.00    -0.550 OA
ATOM      9  O   UNL     1      59.701  23.375  51.810  1.00  0.00    -0.550 OA
ENDBRANCH   6   7
ENDBRANCH   5   6
ENDBRANCH   4   5
ENDBRANCH   3   4
ENDBRANCH   2   3
ENDBRANCH   1   2
BRANCH   1  10
ATOM     10  C   UNL     1      60.547  30.189  52.545  1.00  0.00     0.027 C 
BRANCH  10  11
ATOM     11  C   UNL     1      59.071  29.933  52.402  1.00  0.00    -0.031 C 
ATOM     12  C   UNL     1      58.539  28.731  52.671  1.00  0.00    -0.031 C 
BRANCH  12  13
ATOM     13  C   UNL     1      57.070  28.456  52.491  1.00  0.00     0.027 C 
BRANCH  13  14
ATOM     14  C   UNL     1      56.574  28.918  51.115  1.00  0.00     0.004 C 
BRANCH  14  15
ATOM     15  C   UNL     1      55.299  28.176  50.682  1.00  0.00     0.000 C 
BRANCH  15  16
ATOM     16  C   UNL     1      55.567  26.711  50.300  1.00  0.00    -0.000 C 
BRANCH  16  17
ATOM     17  C   UNL     1      54.421  25.774  50.709  1.00  0.00    -0.003 C 
ATOM     18  C   UNL     1      53.621  25.320  49.492  1.00  0.00     0.004 C 
ENDBRANCH  16  17
ENDBRANCH  15  16
ENDBRANCH  14  15
ENDBRANCH  13  14
ENDBRANCH  12  13
ENDBRANCH  10  11
ENDBRANCH   1  10
TORSDOF 13
ENDMDL
MODEL 9
REMARK VINA RESULT:    -3.304     10.513     12.302
REMARK INTER + INTRA:          -7.598
REMARK INTER:                  -5.264
REMARK INTRA:                  -2.334
REMARK UNBOUND:                -1.783
REMARK SMILES CCCCCCC=CCCCCCCCC(=O)[O-]
REMARK SMILES IDX 10 1 11 2 12 3 13 4 14 5 15 6 16 7 17 8 18 9 9 10 8 11 7 12
REMARK SMILES IDX 6 13 5 14 4 15 3 16 2 17 1 18
REMARK H PARENT
REMARK Flexibility Score: inf
ROOT
ATOM      1  C   UNL     1      54.499  25.898  50.547  1.00  0.00     0.004 C 
ENDROOT
BRANCH   1   2
ATOM      2  C   UNL     1      55.931  26.062  50.017  1.00  0.00     0.000 C 
BRANCH   2   3
ATOM      3  C   UNL     1      56.974  26.138  51.144  1.00  0.00     0.000 C 
BRANCH   3   4
ATOM      4  C   UNL     1      58.177  27.021  50.778  1.00  0.00     0.000 C 
BRANCH   4   5
ATOM      5  C   UNL     1      57.741  28.471  50.533  1.00  0.00     0.006 C 
BRANCH   5   6
ATOM      6  C   UNL     1      58.851  29.269  49.843  1.00  0.00     0.053 C 
BRANCH   6   7
ATOM      7  C   UNL     1      60.039  29.402  50.742  1.00  0.00     0.041 C 
ATOM      8  O   UNL     1      59.969  30.106  51.783  1.00  0.00    -0.550 OA
ATOM      9  O   UNL     1      61.239  28.786  50.406  1.00  0.00    -0.550 OA
ENDBRANCH   6   7
ENDBRANCH   5   6
ENDBRANCH   4   5
ENDBRANCH   3   4
ENDBRANCH   2   3
ENDBRANCH   1   2
BRANCH   1  10
ATOM     10  C   UNL     1      53.563  26.944  49.930  1.00  0.00     0.027 C 
BRANCH  10  11
ATOM     11  C   UNL     1      53.412  28.138  50.833  1.00  0.00    -0.031 C 
ATOM     12  C   UNL     1      54.169  29.234  50.676  1.00  0.00    -0.031 C 
BRANCH  12  13
ATOM     13  C   UNL     1      54.052  30.417  51.600  1.00  0.00     0.027 C 
BRANCH  13  14
ATOM     14  C   UNL     1      54.269  30.012  53.064  1.00  0.00     0.004 C 
BRANCH  14  15
ATOM     15  C   UNL     1      55.757  29.794  53.388  1.00  0.00     0.000 C 
BRANCH  15  16
ATOM     16  C   UNL     1      56.059  28.354  53.836  1.00  0.00    -0.000 C 
BRANCH  16  17
ATOM     17  C   UNL     1      54.902  27.726  54.628  1.00  0.00    -0.003 C 
ATOM     18  C   UNL     1      54.544  26.349  54.077  1.00  0.00     0.004 C 
ENDBRANCH  16  17
ENDBRANCH  15  16
ENDBRANCH  14  15
ENDBRANCH  13  14
ENDBRANCH  12  13
ENDBRANCH  10  11
ENDBRANCH   1  10
TORSDOF 13
ENDMDL
