MODEL 1
REMARK VINA RESULT:    -4.656      0.000      0.000
REMARK INTER + INTRA:          -7.821
REMARK INTER:                  -7.378
REMARK INTRA:                  -0.442
REMARK UNBOUND:                -0.442
REMARK SMILES CCCCCCCCCCCC(=O)[O-]
REMARK SMILES IDX 7 1 8 2 9 3 10 4 11 5 12 6 13 7 14 8 6 9 5 10 4 11 3 12 2 13
REMARK SMILES IDX 1 14
REMARK H PARENT
REMARK Flexibility Score: inf
ROOT
ATOM      1  C   UNL     1       1.693   8.625  17.450  1.00  0.00     0.000 C 
ENDROOT
BRANCH   1   2
ATOM      2  C   UNL     1       1.905   9.910  16.631  1.00  0.00     0.000 C 
BRANCH   2   3
ATOM      3  C   UNL     1       0.606  10.419  15.980  1.00  0.00     0.000 C 
BRANCH   3   4
ATOM      4  C   UNL     1       0.350   9.784  14.603  1.00  0.00     0.006 C 
BRANCH   4   5
ATOM      5  C   UNL     1      -0.710  10.542  13.793  1.00  0.00     0.053 C 
BRANCH   5   6
ATOM      6  C   UNL     1      -1.985   9.762  13.745  1.00  0.00     0.041 C 
ATOM      7  O   UNL     1      -2.048   8.689  13.088  1.00  0.00    -0.550 OA
ATOM      8  O   UNL     1      -3.120  10.245  14.383  1.00  0.00    -0.550 OA
ENDBRANCH   5   6
ENDBRANCH   4   5
ENDBRANCH   3   4
ENDBRANCH   2   3
ENDBRANCH   1   2
BRANCH   1   9
ATOM      9  C   UNL     1       1.727   8.881  18.967  1.00  0.00     0.000 C 
BRANCH   9  10
ATOM     10  C   UNL     1       0.402   8.514  19.656  1.00  0.00    -0.000 C 
BRANCH  10  11
ATOM     11  C   UNL     1       0.472   7.172  20.402  1.00  0.00    -0.000 C 
BRANCH  11  12
ATOM     12  C   UNL     1       1.568   7.200  21.478  1.00  0.00    -0.000 C 
BRANCH  12  13
ATOM     13  C   UNL     1       1.087   6.644  22.827  1.00  0.00    -0.003 C 
ATOM     14  C   UNL     1      -0.434   6.691  22.977  1.00  0.00     0.004 C 
ENDBRANCH  12  13
ENDBRANCH  11  12
ENDBRANCH  10  11
ENDBRANCH   9  10
ENDBRANCH   1   9
TORSDOF 10
ENDMDL
MODEL 2
REMARK VINA RESULT:    -4.594      4.393      4.897
REMARK INTER + INTRA:          -7.722
REMARK INTER:                  -7.208
REMARK INTRA:                  -0.514
REMARK UNBOUND:                -0.442
REMARK SMILES CCCCCCCCCCCC(=O)[O-]
REMARK SMILES IDX 7 1 8 2 9 3 10 4 11 5 12 6 13 7 14 8 6 9 5 10 4 11 3 12 2 13
REMARK SMILES IDX 1 14
REMARK H PARENT
REMARK Flexibility Score: inf
ROOT
ATOM      1  C   UNL     1      -0.031   5.562  16.986  1.00  0.00     0.000 C 
ENDROOT
BRANCH   1   2
ATOM      2  C   UNL     1      -1.020   4.386  16.930  1.00  0.00     0.000 C 
BRANCH   2   3
ATOM      3  C   UNL     1      -1.753   4.291  15.580  1.00  0.00     0.000 C 
BRANCH   3   4
ATOM      4  C   UNL     1      -2.828   5.379  15.415  1.00  0.00     0.006 C 
BRANCH   4   5
ATOM      5  C   UNL     1      -4.067   5.118  16.281  1.00  0.00     0.053 C 
BRANCH   5   6
ATOM      6  C   UNL     1      -4.808   3.917  15.783  1.00  0.00     0.041 C 
ATOM      7  O   UNL     1      -5.144   3.837  14.571  1.00  0.00    -0.550 OA
ATOM      8  O   UNL     1      -5.172   2.910  16.666  1.00  0.00    -0.550 OA
ENDBRANCH   5   6
ENDBRANCH   4   5
ENDBRANCH   3   4
ENDBRANCH   2   3
ENDBRANCH   1   2
BRANCH   1   9
ATOM      9  C   UNL     1       0.189   6.081  18.418  1.00  0.00     0.000 C 
BRANCH   9  10
ATOM     10  C   UNL     1       0.531   7.579  18.456  1.00  0.00    -0.000 C 
BRANCH  10  11
ATOM     11  C   UNL     1       0.535   8.152  19.882  1.00  0.00    -0.000 C 
BRANCH  11  12
ATOM     12  C   UNL     1       0.712   7.033  20.921  1.00  0.00    -0.000 C 
BRANCH  12  13
ATOM     13  C   UNL     1      -0.484   6.923  21.879  1.00  0.00    -0.003 C 
ATOM     14  C   UNL     1      -0.089   6.397  23.259  1.00  0.00     0.004 C 
ENDBRANCH  12  13
ENDBRANCH  11  12
ENDBRANCH  10  11
ENDBRANCH   9  10
ENDBRANCH   1   9
TORSDOF 10
ENDMDL
MODEL 3
REMARK VINA RESULT:    -4.486      6.485      8.791
REMARK INTER + INTRA:          -7.551
REMARK INTER:                  -5.848
REMARK INTRA:                  -1.703
REMARK UNBOUND:                -0.442
REMARK SMILES CCCCCCCCCCCC(=O)[O-]
REMARK SMILES IDX 7 1 8 2 9 3 10 4 11 5 12 6 13 7 14 8 6 9 5 10 4 11 3 12 2 13
REMARK SMILES IDX 1 14
REMARK H PARENT
REMARK Flexibility Score: inf
ROOT
ATOM      1  C   UNL     1      -6.134   7.149  16.556  1.00  0.00     0.000 C 
ENDROOT
BRANCH   1   2
ATOM      2  C   UNL     1      -5.081   6.113  16.985  1.00  0.00     0.000 C 
BRANCH   2   3
ATOM      3  C   UNL     1      -5.601   4.667  16.894  1.00  0.00     0.000 C 
BRANCH   3   4
ATOM      4  C   UNL     1      -4.604   3.725  16.199  1.00  0.00     0.006 C 
BRANCH   4   5
ATOM      5  C   UNL     1      -3.406   4.473  15.600  1.00  0.00     0.053 C 
BRANCH   5   6
ATOM      6  C   UNL     1      -2.128   3.782  15.955  1.00  0.00     0.041 C 
ATOM      7  O   UNL     1      -2.150   2.705  16.608  1.00  0.00    -0.550 OA
ATOM      8  O   UNL     1      -0.910   4.353  15.610  1.00  0.00    -0.550 OA
ENDBRANCH   5   6
ENDBRANCH   4   5
ENDBRANCH   3   4
ENDBRANCH   2   3
ENDBRANCH   1   2
BRANCH   1   9
ATOM      9  C   UNL     1      -5.566   8.198  15.584  1.00  0.00     0.000 C 
BRANCH   9  10
ATOM     10  C   UNL     1      -4.976   7.566  14.314  1.00  0.00    -0.000 C 
BRANCH  10  11
ATOM     11  C   UNL     1      -6.052   6.988  13.381  1.00  0.00    -0.000 C 
BRANCH  11  12
ATOM     12  C   UNL     1      -5.662   5.583  12.899  1.00  0.00    -0.000 C 
BRANCH  12  13
ATOM     13  C   UNL     1      -6.733   4.529  13.220  1.00  0.00    -0.003 C 
ATOM     14  C   UNL     1      -7.912   5.105  14.003  1.00  0.00     0.004 C 
ENDBRANCH  12  13
ENDBRANCH  11  12
ENDBRANCH  10  11
ENDBRANCH   9  10
ENDBRANCH   1   9
TORSDOF 10
ENDMDL
MODEL 4
REMARK VINA RESULT:    -4.450      4.334      4.919
REMARK INTER + INTRA:          -7.494
REMARK INTER:                  -7.099
REMARK INTRA:                  -0.395
REMARK UNBOUND:                -0.442
REMARK SMILES CCCCCCCCCCCC(=O)[O-]
REMARK SMILES IDX 7 1 8 2 9 3 10 4 11 5 12 6 13 7 14 8 6 9 5 10 4 11 3 12 2 13
REMARK SMILES IDX 1 14
REMARK H PARENT
REMARK Flexibility Score: inf
ROOT
ATOM      1  C   UNL     1      -0.683   4.579  16.703  1.00  0.00     0.000 C 
ENDROOT
BRANCH   1   2
ATOM      2  C   UNL     1      -1.724   4.967  15.640  1.00  0.00     0.000 C 
BRANCH   2   3
ATOM      3  C   UNL     1      -2.881   3.956  15.547  1.00  0.00     0.000 C 
BRANCH   3   4
ATOM      4  C   UNL     1      -4.060   4.324  16.463  1.00  0.00     0.006 C 
BRANCH   4   5
ATOM      5  C   UNL     1      -5.054   5.279  15.788  1.00  0.00     0.053 C 
BRANCH   5   6
ATOM      6  C   UNL     1      -5.426   6.388  16.719  1.00  0.00     0.041 C 
ATOM      7  O   UNL     1      -5.876   6.129  17.867  1.00  0.00    -0.550 OA
ATOM      8  O   UNL     1      -5.324   7.709  16.303  1.00  0.00    -0.550 OA
ENDBRANCH   5   6
ENDBRANCH   4   5
ENDBRANCH   3   4
ENDBRANCH   2   3
ENDBRANCH   1   2
BRANCH   1   9
ATOM      9  C   UNL     1       0.039   5.802  17.296  1.00  0.00     0.000 C 
BRANCH   9  10
ATOM     10  C   UNL     1      -0.020   5.834  18.832  1.00  0.00    -0.000 C 
BRANCH  10  11
ATOM     11  C   UNL     1       0.311   7.218  19.411  1.00  0.00    -0.000 C 
BRANCH  11  12
ATOM     12  C   UNL     1       0.724   7.109  20.887  1.00  0.00    -0.000 C 
BRANCH  12  13
ATOM     13  C   UNL     1      -0.482   6.981  21.830  1.00  0.00    -0.003 C 
ATOM     14  C   UNL     1      -0.088   6.529  23.236  1.00  0.00     0.004 C 
ENDBRANCH  12  13
ENDBRANCH  11  12
ENDBRANCH  10  11
ENDBRANCH   9  10
ENDBRANCH   1   9
TORSDOF 10
ENDMDL
MODEL 5
REMARK VINA RESULT:    -4.392      6.791      9.230
REMARK INTER + INTRA:          -7.402
REMARK INTER:                  -6.004
REMARK INTRA:                  -1.398
REMARK UNBOUND:                -0.442
REMARK SMILES CCCCCCCCCCCC(=O)[O-]
REMARK SMILES IDX 7 1 8 2 9 3 10 4 11 5 12 6 13 7 14 8 6 9 5 10 4 11 3 12 2 13
REMARK SMILES IDX 1 14
REMARK H PARENT
REMARK Flexibility Score: inf
ROOT
ATOM      1  C   UNL     1      -6.340   7.195  16.754  1.00  0.00     0.000 C 
ENDROOT
BRANCH   1   2
ATOM      2  C   UNL     1      -5.143   6.234  16.850  1.00  0.00     0.000 C 
BRANCH   2   3
ATOM      3  C   UNL     1      -5.574   4.761  16.977  1.00  0.00     0.000 C 
BRANCH   3   4
ATOM      4  C   UNL     1      -4.681   3.813  16.159  1.00  0.00     0.006 C 
BRANCH   4   5
ATOM      5  C   UNL     1      -3.490   4.535  15.516  1.00  0.00     0.053 C 
BRANCH   5   6
ATOM      6  C   UNL     1      -2.209   3.855  15.880  1.00  0.00     0.041 C 
ATOM      7  O   UNL     1      -2.222   2.825  16.605  1.00  0.00    -0.550 OA
ATOM      8  O   UNL     1      -0.997   4.385  15.460  1.00  0.00    -0.550 OA
ENDBRANCH   5   6
ENDBRANCH   4   5
ENDBRANCH   3   4
ENDBRANCH   2   3
ENDBRANCH   1   2
BRANCH   1   9
ATOM      9  C   UNL     1      -7.595   6.518  16.175  1.00  0.00     0.000 C 
BRANCH   9  10
ATOM     10  C   UNL     1      -7.606   6.513  14.638  1.00  0.00    -0.000 C 
BRANCH  10  11
ATOM     11  C   UNL     1      -7.831   5.111  14.050  1.00  0.00    -0.000 C 
BRANCH  11  12
ATOM     12  C   UNL     1      -6.677   4.718  13.115  1.00  0.00    -0.000 C 
BRANCH  12  13
ATOM     13  C   UNL     1      -5.663   5.855  12.918  1.00  0.00    -0.003 C 
ATOM     14  C   UNL     1      -5.565   6.316  11.464  1.00  0.00     0.004 C 
ENDBRANCH  12  13
ENDBRANCH  11  12
ENDBRANCH  10  11
ENDBRANCH   9  10
ENDBRANCH   1   9
TORSDOF 10
ENDMDL
MODEL 6
REMARK VINA RESULT:    -4.386      6.896      9.346
REMARK INTER + INTRA:          -7.393
REMARK INTER:                  -5.777
REMARK INTRA:                  -1.616
REMARK UNBOUND:                -0.442
REMARK SMILES CCCCCCCCCCCC(=O)[O-]
REMARK SMILES IDX 7 1 8 2 9 3 10 4 11 5 12 6 13 7 14 8 6 9 5 10 4 11 3 12 2 13
REMARK SMILES IDX 1 14
REMARK H PARENT
REMARK Flexibility Score: inf
ROOT
ATOM      1  C   UNL     1      -4.294   7.301  13.999  1.00  0.00     0.000 C 
ENDROOT
BRANCH   1   2
ATOM      2  C   UNL     1      -4.213   6.262  15.129  1.00  0.00     0.000 C 
BRANCH   2   3
ATOM      3  C   UNL     1      -5.179   6.570  16.288  1.00  0.00     0.000 C 
BRANCH   3   4
ATOM      4  C   UNL     1      -5.506   5.325  17.129  1.00  0.00     0.006 C 
BRANCH   4   5
ATOM      5  C   UNL     1      -5.706   4.069  16.270  1.00  0.00     0.053 C 
BRANCH   5   6
ATOM      6  C   UNL     1      -4.825   2.961  16.753  1.00  0.00     0.041 C 
ATOM      7  O   UNL     1      -5.320   1.985  17.378  1.00  0.00    -0.550 OA
ATOM      8  O   UNL     1      -3.452   3.028  16.558  1.00  0.00    -0.550 OA
ENDBRANCH   5   6
ENDBRANCH   4   5
ENDBRANCH   3   4
ENDBRANCH   2   3
ENDBRANCH   1   2
BRANCH   1   9
ATOM      9  C   UNL     1      -5.169   6.830  12.825  1.00  0.00     0.000 C 
BRANCH   9  10
ATOM     10  C   UNL     1      -5.334   5.302  12.789  1.00  0.00    -0.000 C 
BRANCH  10  11
ATOM     11  C   UNL     1      -6.806   4.862  12.750  1.00  0.00    -0.000 C 
BRANCH  11  12
ATOM     12  C   UNL     1      -7.726   5.985  13.255  1.00  0.00    -0.000 C 
BRANCH  12  13
ATOM     13  C   UNL     1      -8.587   5.549  14.450  1.00  0.00    -0.003 C 
ATOM     14  C   UNL     1      -8.823   6.678  15.453  1.00  0.00     0.004 C 
ENDBRANCH  12  13
ENDBRANCH  11  12
ENDBRANCH  10  11
ENDBRANCH   9  10
ENDBRANCH   1   9
TORSDOF 10
ENDMDL
MODEL 7
REMARK VINA RESULT:    -4.353      6.500      9.057
REMARK INTER + INTRA:          -7.341
REMARK INTER:                  -6.021
REMARK INTRA:                  -1.320
REMARK UNBOUND:                -0.442
REMARK SMILES CCCCCCCCCCCC(=O)[O-]
REMARK SMILES IDX 7 1 8 2 9 3 10 4 11 5 12 6 13 7 14 8 6 9 5 10 4 11 3 12 2 13
REMARK SMILES IDX 1 14
REMARK H PARENT
REMARK Flexibility Score: inf
ROOT
ATOM      1  C   UNL     1      -6.889   5.107  12.980  1.00  0.00     0.000 C 
ENDROOT
BRANCH   1   2
ATOM      2  C   UNL     1      -5.482   4.571  13.293  1.00  0.00     0.000 C 
BRANCH   2   3
ATOM      3  C   UNL     1      -5.284   4.263  14.788  1.00  0.00     0.000 C 
BRANCH   3   4
ATOM      4  C   UNL     1      -3.835   4.488  15.249  1.00  0.00     0.006 C 
BRANCH   4   5
ATOM      5  C   UNL     1      -3.361   3.422  16.245  1.00  0.00     0.053 C 
BRANCH   5   6
ATOM      6  C   UNL     1      -1.867   3.404  16.319  1.00  0.00     0.041 C 
ATOM      7  O   UNL     1      -1.188   4.198  15.616  1.00  0.00    -0.550 OA
ATOM      8  O   UNL     1      -1.223   2.476  17.127  1.00  0.00    -0.550 OA
ENDBRANCH   5   6
ENDBRANCH   4   5
ENDBRANCH   3   4
ENDBRANCH   2   3
ENDBRANCH   1   2
BRANCH   1   9
ATOM      9  C   UNL     1      -7.834   5.027  14.192  1.00  0.00     0.000 C 
BRANCH   9  10
ATOM     10  C   UNL     1      -8.688   6.294  14.358  1.00  0.00    -0.000 C 
BRANCH  10  11
ATOM     11  C   UNL     1      -7.954   7.411  15.118  1.00  0.00    -0.000 C 
BRANCH  11  12
ATOM     12  C   UNL     1      -7.379   6.885  16.442  1.00  0.00    -0.000 C 
BRANCH  12  13
ATOM     13  C   UNL     1      -5.944   7.373  16.697  1.00  0.00    -0.003 C 
ATOM     14  C   UNL     1      -5.299   7.989  15.456  1.00  0.00     0.004 C 
ENDBRANCH  12  13
ENDBRANCH  11  12
ENDBRANCH  10  11
ENDBRANCH   9  10
ENDBRANCH   1   9
TORSDOF 10
ENDMDL
MODEL 8
REMARK VINA RESULT:    -4.353      6.094      8.261
REMARK INTER + INTRA:          -7.341
REMARK INTER:                  -5.829
REMARK INTRA:                  -1.512
REMARK UNBOUND:                -0.442
REMARK SMILES CCCCCCCCCCCC(=O)[O-]
REMARK SMILES IDX 7 1 8 2 9 3 10 4 11 5 12 6 13 7 14 8 6 9 5 10 4 11 3 12 2 13
REMARK SMILES IDX 1 14
REMARK H PARENT
REMARK Flexibility Score: inf
ROOT
ATOM      1  C   UNL     1      -5.606   5.627  13.359  1.00  0.00     0.000 C 
ENDROOT
BRANCH   1   2
ATOM      2  C   UNL     1      -4.961   4.334  13.885  1.00  0.00     0.000 C 
BRANCH   2   3
ATOM      3  C   UNL     1      -5.250   4.093  15.378  1.00  0.00     0.000 C 
BRANCH   3   4
ATOM      4  C   UNL     1      -3.973   4.098  16.234  1.00  0.00     0.006 C 
BRANCH   4   5
ATOM      5  C   UNL     1      -2.695   4.083  15.385  1.00  0.00     0.053 C 
BRANCH   5   6
ATOM      6  C   UNL     1      -1.497   3.851  16.250  1.00  0.00     0.041 C 
ATOM      7  O   UNL     1      -1.308   2.726  16.784  1.00  0.00    -0.550 OA
ATOM      8  O   UNL     1      -0.614   4.891  16.507  1.00  0.00    -0.550 OA
ENDBRANCH   5   6
ENDBRANCH   4   5
ENDBRANCH   3   4
ENDBRANCH   2   3
ENDBRANCH   1   2
BRANCH   1   9
ATOM      9  C   UNL     1      -4.586   6.767  13.186  1.00  0.00     0.000 C 
BRANCH   9  10
ATOM     10  C   UNL     1      -4.441   7.625  14.453  1.00  0.00    -0.000 C 
BRANCH  10  11
ATOM     11  C   UNL     1      -5.792   7.955  15.107  1.00  0.00    -0.000 C 
BRANCH  11  12
ATOM     12  C   UNL     1      -5.778   7.601  16.602  1.00  0.00    -0.000 C 
BRANCH  12  13
ATOM     13  C   UNL     1      -7.090   6.951  17.068  1.00  0.00    -0.003 C 
ATOM     14  C   UNL     1      -8.103   6.785  15.935  1.00  0.00     0.004 C 
ENDBRANCH  12  13
ENDBRANCH  11  12
ENDBRANCH  10  11
ENDBRANCH   9  10
ENDBRANCH   1   9
TORSDOF 10
ENDMDL
MODEL 9
REMARK VINA RESULT:    -4.305      7.157      9.857
REMARK INTER + INTRA:          -7.264
REMARK INTER:                  -5.721
REMARK INTRA:                  -1.543
REMARK UNBOUND:                -0.442
REMARK SMILES CCCCCCCCCCCC(=O)[O-]
REMARK SMILES IDX 7 1 8 2 9 3 10 4 11 5 12 6 13 7 14 8 6 9 5 10 4 11 3 12 2 13
REMARK SMILES IDX 1 14
REMARK H PARENT
REMARK Flexibility Score: inf
ROOT
ATOM      1  C   UNL     1      -8.045   7.312  15.525  1.00  0.00     0.000 C 
ENDROOT
BRANCH   1   2
ATOM      2  C   UNL     1      -7.137   6.672  16.589  1.00  0.00     0.000 C 
BRANCH   2   3
ATOM      3  C   UNL     1      -5.651   7.025  16.391  1.00  0.00     0.000 C 
BRANCH   3   4
ATOM      4  C   UNL     1      -4.756   5.778  16.300  1.00  0.00     0.006 C 
BRANCH   4   5
ATOM      5  C   UNL     1      -5.565   4.478  16.204  1.00  0.00     0.053 C 
BRANCH   5   6
ATOM      6  C   UNL     1      -4.735   3.313  16.642  1.00  0.00     0.041 C 
ATOM      7  O   UNL     1      -5.257   2.375  17.300  1.00  0.00    -0.550 OA
ATOM      8  O   UNL     1      -3.374   3.287  16.367  1.00  0.00    -0.550 OA
ENDBRANCH   5   6
ENDBRANCH   4   5
ENDBRANCH   3   4
ENDBRANCH   2   3
ENDBRANCH   1   2
BRANCH   1   9
ATOM      9  C   UNL     1      -9.197   6.386  15.099  1.00  0.00     0.000 C 
BRANCH   9  10
ATOM     10  C   UNL     1      -8.763   5.346  14.054  1.00  0.00    -0.000 C 
BRANCH  10  11
ATOM     11  C   UNL     1      -7.856   5.940  12.965  1.00  0.00    -0.000 C 
BRANCH  11  12
ATOM     12  C   UNL     1      -6.830   4.904  12.481  1.00  0.00    -0.000 C 
BRANCH  12  13
ATOM     13  C   UNL     1      -5.384   5.413  12.578  1.00  0.00    -0.003 C 
ATOM     14  C   UNL     1      -5.297   6.938  12.642  1.00  0.00     0.004 C 
ENDBRANCH  12  13
ENDBRANCH  11  12
ENDBRANCH  10  11
ENDBRANCH   9  10
ENDBRANCH   1   9
TORSDOF 10
ENDMDL
