MODEL 1
REMARK VINA RESULT:    -9.610      0.000      0.000
REMARK INTER + INTRA:         -14.822
REMARK INTER:                 -13.542
REMARK INTRA:                  -1.280
REMARK UNBOUND:                -1.280
REMARK SMILES COc1c(O[C@H]2O[C@@H](C(=O)[O-])[C@@H](O)[C@@H](O)[C@@H]2O)cc(O)c2c(=O)cc(-c3ccccc3)oc12
REMARK SMILES IDX 5 1 6 2 8 3 12 4 7 5 14 6 16 7 9 8 10 9 11 10 13 11 15 13
REMARK SMILES IDX 17 15 4 17 3 18 18 19 33 20 19 21 21 22 32 23 22 24 25 25
REMARK SMILES IDX 24 26 23 27 2 28 1 29 20 30 26 32 27 33 31 34 28 35 30 36
REMARK SMILES IDX 29 37
REMARK H PARENT 13 12 15 14 17 16 20 31
REMARK Flexibility Score: inf
ROOT
ATOM      1  O   UNL     1       2.359  -0.379  12.941  1.00  0.00    -0.458 OA
ENDROOT
BRANCH   1   2
ATOM      2  C   UNL     1       1.989   0.983  12.703  1.00  0.00     0.339 C 
ATOM      3  C   UNL     1       2.190   2.913  14.145  1.00  0.00     0.199 C 
ATOM      4  C   UNL     1       2.104   3.790  12.874  1.00  0.00     0.180 C 
ATOM      5  O   UNL     1       1.676   1.604  13.953  1.00  0.00    -0.328 OA
ATOM      6  C   UNL     1       2.857   3.156  11.676  1.00  0.00     0.181 C 
ATOM      7  C   UNL     1       3.132   1.655  11.905  1.00  0.00     0.214 C 
BRANCH   3   8
ATOM      8  C   UNL     1       3.584   2.863  14.703  1.00  0.00     0.073 C 
ATOM      9  O   UNL     1       3.837   2.207  15.771  1.00  0.00    -0.547 OA
ATOM     10  O   UNL     1       3.844   2.157  15.846  1.00  0.00    -0.547 OA
ENDBRANCH   3   8
BRANCH   4  11
ATOM     11  O   UNL     1       2.601   5.078  13.141  1.00  0.00    -0.387 OA
ATOM     12  H   UNL     1       2.715   5.151  14.123  1.00  0.00     0.211 HD
ENDBRANCH   4  11
BRANCH   6  13
ATOM     13  O   UNL     1       4.082   3.805  11.446  1.00  0.00    -0.387 OA
ATOM     14  H   UNL     1       4.787   3.261  11.883  1.00  0.00     0.211 HD
ENDBRANCH   6  13
BRANCH   7  15
ATOM     15  O   UNL     1       3.358   0.997  10.683  1.00  0.00    -0.384 OA
ATOM     16  H   UNL     1       3.559   1.688   9.997  1.00  0.00     0.211 HD
ENDBRANCH   7  15
ENDBRANCH   1   2
BRANCH   1  17
ATOM     17  C   UNL     1       3.313  -0.794  13.886  1.00  0.00     0.172 A 
ATOM     18  C   UNL     1       2.958  -1.362  15.125  1.00  0.00     0.205 A 
ATOM     19  C   UNL     1       4.658  -0.604  13.565  1.00  0.00     0.097 A 
ATOM     20  C   UNL     1       3.967  -1.596  16.095  1.00  0.00     0.188 A 
ATOM     21  C   UNL     1       5.669  -0.891  14.487  1.00  0.00     0.134 A 
ATOM     22  C   UNL     1       5.330  -1.369  15.771  1.00  0.00     0.111 A 
ATOM     23  O   UNL     1       3.643  -2.005  17.322  1.00  0.00    -0.452 OA
ATOM     24  C   UNL     1       6.298  -1.605  16.772  1.00  0.00     0.197 A 
ATOM     25  C   UNL     1       4.529  -2.234  18.288  1.00  0.00     0.138 A 
ATOM     26  C   UNL     1       5.893  -2.041  18.031  1.00  0.00     0.100 A 
ATOM     27  O   UNL     1       7.527  -1.415  16.560  1.00  0.00    -0.289 OA
BRANCH  18  28
ATOM     28  O   UNL     1       1.606  -1.688  15.331  1.00  0.00    -0.490 OA
ATOM     29  C   UNL     1       0.885  -2.735  14.689  1.00  0.00     0.278 C 
ENDBRANCH  18  28
BRANCH  21  30
ATOM     30  O   UNL     1       7.001  -0.683  14.124  1.00  0.00    -0.507 OA
ATOM     31  H   UNL     1       7.261   0.012  13.435  1.00  0.00     0.293 HD
ENDBRANCH  21  30
BRANCH  25  32
ATOM     32  C   UNL     1       4.042  -2.660  19.626  1.00  0.00     0.017 A 
ATOM     33  C   UNL     1       3.241  -1.818  20.426  1.00  0.00     0.012 A 
ATOM     34  C   UNL     1       4.389  -3.933  20.117  1.00  0.00     0.012 A 
ATOM     35  C   UNL     1       2.786  -2.252  21.676  1.00  0.00     0.001 A 
ATOM     36  C   UNL     1       3.935  -4.360  21.368  1.00  0.00     0.001 A 
ATOM     37  C   UNL     1       3.134  -3.522  22.145  1.00  0.00     0.000 A 
ENDBRANCH  25  32
ENDBRANCH   1  17
TORSDOF 9
ENDMDL
MODEL 2
REMARK VINA RESULT:    -9.513      3.223      5.140
REMARK INTER + INTRA:         -14.686
REMARK INTER:                 -13.340
REMARK INTRA:                  -1.346
REMARK UNBOUND:                -1.280
REMARK SMILES COc1c(O[C@H]2O[C@@H](C(=O)[O-])[C@@H](O)[C@@H](O)[C@@H]2O)cc(O)c2c(=O)cc(-c3ccccc3)oc12
REMARK SMILES IDX 5 1 6 2 8 3 12 4 7 5 14 6 16 7 9 8 10 9 11 10 13 11 15 13
REMARK SMILES IDX 17 15 4 17 3 18 18 19 33 20 19 21 21 22 32 23 22 24 25 25
REMARK SMILES IDX 24 26 23 27 2 28 1 29 20 30 26 32 27 33 31 34 28 35 30 36
REMARK SMILES IDX 29 37
REMARK H PARENT 13 12 15 14 17 16 20 31
REMARK Flexibility Score: inf
ROOT
ATOM      1  O   UNL     1       2.634   0.588  13.084  1.00  0.00    -0.458 OA
ENDROOT
BRANCH   1   2
ATOM      2  C   UNL     1       3.620   0.130  12.155  1.00  0.00     0.339 C 
ATOM      3  C   UNL     1       5.908  -0.552  12.539  1.00  0.00     0.199 C 
ATOM      4  C   UNL     1       5.837  -1.317  11.198  1.00  0.00     0.180 C 
ATOM      5  O   UNL     1       4.919   0.460  12.655  1.00  0.00    -0.328 OA
ATOM      6  C   UNL     1       4.452  -1.980  10.976  1.00  0.00     0.181 C 
ATOM      7  C   UNL     1       3.377  -1.378  11.906  1.00  0.00     0.214 C 
BRANCH   3   8
ATOM      8  C   UNL     1       5.864  -1.479  13.721  1.00  0.00     0.073 C 
ATOM      9  O   UNL     1       5.942  -1.022  14.912  1.00  0.00    -0.547 OA
ATOM     10  O   UNL     1       5.948  -0.979  14.992  1.00  0.00    -0.547 OA
ENDBRANCH   3   8
BRANCH   4  11
ATOM     11  O   UNL     1       6.859  -2.281  11.136  1.00  0.00    -0.387 OA
ATOM     12  H   UNL     1       7.435  -2.148  11.932  1.00  0.00     0.211 HD
ENDBRANCH   4  11
BRANCH   6  13
ATOM     13  O   UNL     1       4.512  -3.365  11.201  1.00  0.00    -0.387 OA
ATOM     14  H   UNL     1       4.476  -3.807  10.314  1.00  0.00     0.211 HD
ENDBRANCH   6  13
BRANCH   7  15
ATOM     15  O   UNL     1       2.088  -1.610  11.394  1.00  0.00    -0.384 OA
ATOM     16  H   UNL     1       1.550  -2.042  12.109  1.00  0.00     0.211 HD
ENDBRANCH   7  15
ENDBRANCH   1   2
BRANCH   1  17
ATOM     17  C   UNL     1       2.703   0.406  14.477  1.00  0.00     0.172 A 
ATOM     18  C   UNL     1       3.243   1.376  15.344  1.00  0.00     0.205 A 
ATOM     19  C   UNL     1       2.229  -0.802  14.989  1.00  0.00     0.097 A 
ATOM     20  C   UNL     1       3.437   1.052  16.712  1.00  0.00     0.188 A 
ATOM     21  C   UNL     1       2.355  -1.111  16.348  1.00  0.00     0.134 A 
ATOM     22  C   UNL     1       2.981  -0.193  17.218  1.00  0.00     0.111 A 
ATOM     23  O   UNL     1       4.069   1.899  17.524  1.00  0.00    -0.452 OA
ATOM     24  C   UNL     1       3.207  -0.477  18.583  1.00  0.00     0.197 A 
ATOM     25  C   UNL     1       4.299   1.662  18.813  1.00  0.00     0.138 A 
ATOM     26  C   UNL     1       3.865   0.456  19.380  1.00  0.00     0.100 A 
ATOM     27  O   UNL     1       2.839  -1.567  19.101  1.00  0.00    -0.289 OA
BRANCH  18  28
ATOM     28  O   UNL     1       3.549   2.638  14.804  1.00  0.00    -0.490 OA
ATOM     29  C   UNL     1       2.616   3.578  14.281  1.00  0.00     0.278 C 
ENDBRANCH  18  28
BRANCH  21  30
ATOM     30  O   UNL     1       1.869  -2.333  16.816  1.00  0.00    -0.507 OA
ATOM     31  H   UNL     1       1.147  -2.381  17.525  1.00  0.00     0.293 HD
ENDBRANCH  21  30
BRANCH  25  32
ATOM     32  C   UNL     1       5.041   2.674  19.610  1.00  0.00     0.017 A 
ATOM     33  C   UNL     1       4.378   3.555  20.490  1.00  0.00     0.012 A 
ATOM     34  C   UNL     1       6.440   2.766  19.483  1.00  0.00     0.012 A 
ATOM     35  C   UNL     1       5.105   4.489  21.237  1.00  0.00     0.001 A 
ATOM     36  C   UNL     1       7.161   3.703  20.229  1.00  0.00     0.001 A 
ATOM     37  C   UNL     1       6.495   4.562  21.105  1.00  0.00     0.000 A 
ENDBRANCH  25  32
ENDBRANCH   1  17
TORSDOF 9
ENDMDL
MODEL 3
REMARK VINA RESULT:    -9.496      3.318      5.228
REMARK INTER + INTRA:         -14.663
REMARK INTER:                 -13.333
REMARK INTRA:                  -1.329
REMARK UNBOUND:                -1.280
REMARK SMILES COc1c(O[C@H]2O[C@@H](C(=O)[O-])[C@@H](O)[C@@H](O)[C@@H]2O)cc(O)c2c(=O)cc(-c3ccccc3)oc12
REMARK SMILES IDX 5 1 6 2 8 3 12 4 7 5 14 6 16 7 9 8 10 9 11 10 13 11 15 13
REMARK SMILES IDX 17 15 4 17 3 18 18 19 33 20 19 21 21 22 32 23 22 24 25 25
REMARK SMILES IDX 24 26 23 27 2 28 1 29 20 30 26 32 27 33 31 34 28 35 30 36
REMARK SMILES IDX 29 37
REMARK H PARENT 13 12 15 14 17 16 20 31
REMARK Flexibility Score: inf
ROOT
ATOM      1  O   UNL     1       3.260   0.619  12.687  1.00  0.00    -0.458 OA
ENDROOT
BRANCH   1   2
ATOM      2  C   UNL     1       2.213  -0.350  12.585  1.00  0.00     0.339 C 
ATOM      3  C   UNL     1       1.505  -2.036  14.168  1.00  0.00     0.199 C 
ATOM      4  C   UNL     1       0.147  -2.065  13.432  1.00  0.00     0.180 C 
ATOM      5  O   UNL     1       2.553  -1.489  13.382  1.00  0.00    -0.328 OA
ATOM      6  C   UNL     1      -0.296  -0.652  12.968  1.00  0.00     0.181 C 
ATOM      7  C   UNL     1       0.882   0.343  12.967  1.00  0.00     0.214 C 
BRANCH   3   8
ATOM      8  C   UNL     1       1.414  -1.336  15.495  1.00  0.00     0.073 C 
ATOM      9  O   UNL     1       2.419  -1.297  16.283  1.00  0.00    -0.547 OA
ATOM     10  O   UNL     1       2.497  -1.299  16.331  1.00  0.00    -0.547 OA
ENDBRANCH   3   8
BRANCH   4  11
ATOM     11  O   UNL     1      -0.836  -2.643  14.253  1.00  0.00    -0.387 OA
ATOM     12  H   UNL     1      -1.316  -1.902  14.703  1.00  0.00     0.211 HD
ENDBRANCH   4  11
BRANCH   6  13
ATOM     13  O   UNL     1      -1.311  -0.143  13.795  1.00  0.00    -0.387 OA
ATOM     14  H   UNL     1      -2.133  -0.081  13.245  1.00  0.00     0.211 HD
ENDBRANCH   6  13
BRANCH   7  15
ATOM     15  O   UNL     1       0.614   1.434  12.123  1.00  0.00    -0.384 OA
ATOM     16  H   UNL     1       1.086   2.228  12.490  1.00  0.00     0.211 HD
ENDBRANCH   7  15
ENDBRANCH   1   2
BRANCH   1  17
ATOM     17  C   UNL     1       3.826   1.059  13.897  1.00  0.00     0.172 A 
ATOM     18  C   UNL     1       5.137   0.725  14.289  1.00  0.00     0.205 A 
ATOM     19  C   UNL     1       3.025   1.840  14.731  1.00  0.00     0.097 A 
ATOM     20  C   UNL     1       5.576   1.060  15.597  1.00  0.00     0.188 A 
ATOM     21  C   UNL     1       3.468   2.233  15.998  1.00  0.00     0.134 A 
ATOM     22  C   UNL     1       4.742   1.827  16.451  1.00  0.00     0.111 A 
ATOM     23  O   UNL     1       6.759   0.638  16.040  1.00  0.00    -0.452 OA
ATOM     24  C   UNL     1       5.217   2.126  17.747  1.00  0.00     0.197 A 
ATOM     25  C   UNL     1       7.236   0.900  17.255  1.00  0.00     0.138 A 
ATOM     26  C   UNL     1       6.468   1.663  18.145  1.00  0.00     0.100 A 
ATOM     27  O   UNL     1       4.527   2.795  18.565  1.00  0.00    -0.289 OA
BRANCH  18  28
ATOM     28  O   UNL     1       5.958   0.083  13.345  1.00  0.00    -0.490 OA
ATOM     29  C   UNL     1       6.121  -1.323  13.190  1.00  0.00     0.278 C 
ENDBRANCH  18  28
BRANCH  21  30
ATOM     30  O   UNL     1       2.633   3.012  16.801  1.00  0.00    -0.507 OA
ATOM     31  H   UNL     1       2.712   3.008  17.811  1.00  0.00     0.293 HD
ENDBRANCH  21  30
BRANCH  25  32
ATOM     32  C   UNL     1       8.559   0.348  17.644  1.00  0.00     0.017 A 
ATOM     33  C   UNL     1       9.765   0.961  17.243  1.00  0.00     0.012 A 
ATOM     34  C   UNL     1       8.620  -0.820  18.429  1.00  0.00     0.012 A 
ATOM     35  C   UNL     1      10.996   0.425  17.636  1.00  0.00     0.001 A 
ATOM     36  C   UNL     1       9.853  -1.352  18.816  1.00  0.00     0.001 A 
ATOM     37  C   UNL     1      11.039  -0.730  18.422  1.00  0.00     0.000 A 
ENDBRANCH  25  32
ENDBRANCH   1  17
TORSDOF 9
ENDMDL
MODEL 4
REMARK VINA RESULT:    -9.418      3.220      4.789
REMARK INTER + INTRA:         -14.552
REMARK INTER:                 -13.227
REMARK INTRA:                  -1.325
REMARK UNBOUND:                -1.280
REMARK SMILES COc1c(O[C@H]2O[C@@H](C(=O)[O-])[C@@H](O)[C@@H](O)[C@@H]2O)cc(O)c2c(=O)cc(-c3ccccc3)oc12
REMARK SMILES IDX 5 1 6 2 8 3 12 4 7 5 14 6 16 7 9 8 10 9 11 10 13 11 15 13
REMARK SMILES IDX 17 15 4 17 3 18 18 19 33 20 19 21 21 22 32 23 22 24 25 25
REMARK SMILES IDX 24 26 23 27 2 28 1 29 20 30 26 32 27 33 31 34 28 35 30 36
REMARK SMILES IDX 29 37
REMARK H PARENT 13 12 15 14 17 16 20 31
REMARK Flexibility Score: inf
ROOT
ATOM      1  O   UNL     1       3.218   0.224  12.865  1.00  0.00    -0.458 OA
ENDROOT
BRANCH   1   2
ATOM      2  C   UNL     1       2.095  -0.650  12.718  1.00  0.00     0.339 C 
ATOM      3  C   UNL     1       1.217  -2.309  14.242  1.00  0.00     0.199 C 
ATOM      4  C   UNL     1      -0.124  -2.204  13.481  1.00  0.00     0.180 C 
ATOM      5  O   UNL     1       2.322  -1.833  13.489  1.00  0.00    -0.328 OA
ATOM      6  C   UNL     1      -0.437  -0.748  13.048  1.00  0.00     0.181 C 
ATOM      7  C   UNL     1       0.821   0.144  13.095  1.00  0.00     0.214 C 
BRANCH   3   8
ATOM      8  C   UNL     1       1.159  -1.639  15.585  1.00  0.00     0.073 C 
ATOM      9  O   UNL     1       2.071  -1.843  16.457  1.00  0.00    -0.547 OA
ATOM     10  O   UNL     1       2.141  -1.863  16.511  1.00  0.00    -0.547 OA
ENDBRANCH   3   8
BRANCH   4  11
ATOM     11  O   UNL     1      -1.168  -2.718  14.269  1.00  0.00    -0.387 OA
ATOM     12  H   UNL     1      -1.736  -3.275  13.677  1.00  0.00     0.211 HD
ENDBRANCH   4  11
BRANCH   6  13
ATOM     13  O   UNL     1      -1.422  -0.175  13.871  1.00  0.00    -0.387 OA
ATOM     14  H   UNL     1      -0.974   0.513  14.427  1.00  0.00     0.211 HD
ENDBRANCH   6  13
BRANCH   7  15
ATOM     15  O   UNL     1       0.662   1.275  12.276  1.00  0.00    -0.384 OA
ATOM     16  H   UNL     1       1.314   1.963  12.576  1.00  0.00     0.211 HD
ENDBRANCH   7  15
ENDBRANCH   1   2
BRANCH   1  17
ATOM     17  C   UNL     1       4.105   0.209  13.956  1.00  0.00     0.172 A 
ATOM     18  C   UNL     1       3.867   0.934  15.139  1.00  0.00     0.205 A 
ATOM     19  C   UNL     1       5.269  -0.549  13.824  1.00  0.00     0.097 A 
ATOM     20  C   UNL     1       4.887   1.008  16.124  1.00  0.00     0.188 A 
ATOM     21  C   UNL     1       6.256  -0.538  14.815  1.00  0.00     0.134 A 
ATOM     22  C   UNL     1       6.082   0.259  15.966  1.00  0.00     0.111 A 
ATOM     23  O   UNL     1       4.741   1.796  17.189  1.00  0.00    -0.452 OA
ATOM     24  C   UNL     1       7.072   0.373  16.966  1.00  0.00     0.197 A 
ATOM     25  C   UNL     1       5.654   1.928  18.148  1.00  0.00     0.138 A 
ATOM     26  C   UNL     1       6.854   1.207  18.060  1.00  0.00     0.100 A 
ATOM     27  O   UNL     1       8.165  -0.254  16.889  1.00  0.00    -0.289 OA
BRANCH  18  28
ATOM     28  O   UNL     1       2.608   1.542  15.292  1.00  0.00    -0.490 OA
ATOM     29  C   UNL     1       2.288   2.898  14.999  1.00  0.00     0.278 C 
ENDBRANCH  18  28
BRANCH  21  30
ATOM     30  O   UNL     1       7.407  -1.309  14.640  1.00  0.00    -0.507 OA
ATOM     31  H   UNL     1       8.299  -0.887  14.412  1.00  0.00     0.293 HD
ENDBRANCH  21  30
BRANCH  25  32
ATOM     32  C   UNL     1       5.388   2.861  19.273  1.00  0.00     0.017 A 
ATOM     33  C   UNL     1       4.089   3.049  19.790  1.00  0.00     0.012 A 
ATOM     34  C   UNL     1       6.455   3.586  19.839  1.00  0.00     0.012 A 
ATOM     35  C   UNL     1       3.872   3.925  20.858  1.00  0.00     0.001 A 
ATOM     36  C   UNL     1       6.231   4.463  20.905  1.00  0.00     0.001 A 
ATOM     37  C   UNL     1       4.943   4.631  21.414  1.00  0.00     0.000 A 
ENDBRANCH  25  32
ENDBRANCH   1  17
TORSDOF 9
ENDMDL
MODEL 5
REMARK VINA RESULT:    -9.370      3.415      4.765
REMARK INTER + INTRA:         -14.485
REMARK INTER:                 -12.815
REMARK INTRA:                  -1.670
REMARK UNBOUND:                -1.280
REMARK SMILES COc1c(O[C@H]2O[C@@H](C(=O)[O-])[C@@H](O)[C@@H](O)[C@@H]2O)cc(O)c2c(=O)cc(-c3ccccc3)oc12
REMARK SMILES IDX 5 1 6 2 8 3 12 4 7 5 14 6 16 7 9 8 10 9 11 10 13 11 15 13
REMARK SMILES IDX 17 15 4 17 3 18 18 19 33 20 19 21 21 22 32 23 22 24 25 25
REMARK SMILES IDX 24 26 23 27 2 28 1 29 20 30 26 32 27 33 31 34 28 35 30 36
REMARK SMILES IDX 29 37
REMARK H PARENT 13 12 15 14 17 16 20 31
REMARK Flexibility Score: inf
ROOT
ATOM      1  O   UNL     1       2.846  -1.962  16.222  1.00  0.00    -0.458 OA
ENDROOT
BRANCH   1   2
ATOM      2  C   UNL     1       1.794  -1.452  15.397  1.00  0.00     0.339 C 
ATOM      3  C   UNL     1       1.615   0.672  14.256  1.00  0.00     0.199 C 
ATOM      4  C   UNL     1       0.573   0.011  13.325  1.00  0.00     0.180 C 
ATOM      5  O   UNL     1       1.788  -0.025  15.481  1.00  0.00    -0.328 OA
ATOM      6  C   UNL     1       0.940  -1.458  12.988  1.00  0.00     0.181 C 
ATOM      7  C   UNL     1       1.986  -2.025  13.972  1.00  0.00     0.214 C 
BRANCH   3   8
ATOM      8  C   UNL     1       2.935   0.878  13.570  1.00  0.00     0.073 C 
ATOM      9  O   UNL     1       3.137   1.906  12.837  1.00  0.00    -0.547 OA
ATOM     10  O   UNL     1       3.141   1.983  12.788  1.00  0.00    -0.547 OA
ENDBRANCH   3   8
BRANCH   4  11
ATOM     11  O   UNL     1       0.430   0.765  12.148  1.00  0.00    -0.387 OA
ATOM     12  H   UNL     1       1.334   1.074  11.886  1.00  0.00     0.211 HD
ENDBRANCH   4  11
BRANCH   6  13
ATOM     13  O   UNL     1       1.450  -1.566  11.684  1.00  0.00    -0.387 OA
ATOM     14  H   UNL     1       0.675  -1.544  11.065  1.00  0.00     0.211 HD
ENDBRANCH   6  13
BRANCH   7  15
ATOM     15  O   UNL     1       1.956  -3.430  13.977  1.00  0.00    -0.384 OA
ATOM     16  H   UNL     1       2.647  -3.752  13.339  1.00  0.00     0.211 HD
ENDBRANCH   7  15
ENDBRANCH   1   2
BRANCH   1  17
ATOM     17  C   UNL     1       4.053  -1.291  16.483  1.00  0.00     0.172 A 
ATOM     18  C   UNL     1       4.231  -0.455  17.602  1.00  0.00     0.205 A 
ATOM     19  C   UNL     1       5.092  -1.462  15.567  1.00  0.00     0.097 A 
ATOM     20  C   UNL     1       5.415   0.323  17.706  1.00  0.00     0.188 A 
ATOM     21  C   UNL     1       6.290  -0.751  15.691  1.00  0.00     0.134 A 
ATOM     22  C   UNL     1       6.453   0.166  16.751  1.00  0.00     0.111 A 
ATOM     23  O   UNL     1       5.549   1.221  18.681  1.00  0.00    -0.452 OA
ATOM     24  C   UNL     1       7.606   0.969  16.889  1.00  0.00     0.197 A 
ATOM     25  C   UNL     1       6.620   1.995  18.838  1.00  0.00     0.138 A 
ATOM     26  C   UNL     1       7.688   1.882  17.937  1.00  0.00     0.100 A 
ATOM     27  O   UNL     1       8.566   0.892  16.073  1.00  0.00    -0.289 OA
BRANCH  18  28
ATOM     28  O   UNL     1       3.221  -0.448  18.580  1.00  0.00    -0.490 OA
ATOM     29  C   UNL     1       3.200  -1.223  19.774  1.00  0.00     0.278 C 
ENDBRANCH  18  28
BRANCH  21  30
ATOM     30  O   UNL     1       7.302  -0.952  14.750  1.00  0.00    -0.507 OA
ATOM     31  H   UNL     1       7.721  -1.863  14.607  1.00  0.00     0.293 HD
ENDBRANCH  21  30
BRANCH  25  32
ATOM     32  C   UNL     1       6.640   2.981  19.949  1.00  0.00     0.017 A 
ATOM     33  C   UNL     1       7.838   3.333  20.606  1.00  0.00     0.012 A 
ATOM     34  C   UNL     1       5.436   3.578  20.368  1.00  0.00     0.012 A 
ATOM     35  C   UNL     1       7.827   4.274  21.641  1.00  0.00     0.001 A 
ATOM     36  C   UNL     1       5.431   4.516  21.405  1.00  0.00     0.001 A 
ATOM     37  C   UNL     1       6.624   4.864  22.039  1.00  0.00     0.000 A 
ENDBRANCH  25  32
ENDBRANCH   1  17
TORSDOF 9
ENDMDL
MODEL 6
REMARK VINA RESULT:    -9.322      1.893      3.934
REMARK INTER + INTRA:         -14.417
REMARK INTER:                 -13.208
REMARK INTRA:                  -1.209
REMARK UNBOUND:                -1.280
REMARK SMILES COc1c(O[C@H]2O[C@@H](C(=O)[O-])[C@@H](O)[C@@H](O)[C@@H]2O)cc(O)c2c(=O)cc(-c3ccccc3)oc12
REMARK SMILES IDX 5 1 6 2 8 3 12 4 7 5 14 6 16 7 9 8 10 9 11 10 13 11 15 13
REMARK SMILES IDX 17 15 4 17 3 18 18 19 33 20 19 21 21 22 32 23 22 24 25 25
REMARK SMILES IDX 24 26 23 27 2 28 1 29 20 30 26 32 27 33 31 34 28 35 30 36
REMARK SMILES IDX 29 37
REMARK H PARENT 13 12 15 14 17 16 20 31
REMARK Flexibility Score: inf
ROOT
ATOM      1  O   UNL     1       2.734  -0.374  13.174  1.00  0.00    -0.458 OA
ENDROOT
BRANCH   1   2
ATOM      2  C   UNL     1       2.233   0.898  12.753  1.00  0.00     0.339 C 
ATOM      3  C   UNL     1       2.069   2.978  13.975  1.00  0.00     0.199 C 
ATOM      4  C   UNL     1       2.005   3.700  12.610  1.00  0.00     0.180 C 
ATOM      5  O   UNL     1       1.732   1.602  13.893  1.00  0.00    -0.328 OA
ATOM      6  C   UNL     1       2.938   3.045  11.558  1.00  0.00     0.181 C 
ATOM      7  C   UNL     1       3.362   1.622  11.979  1.00  0.00     0.214 C 
BRANCH   3   8
ATOM      8  C   UNL     1       3.400   3.161  14.648  1.00  0.00     0.073 C 
ATOM      9  O   UNL     1       3.536   2.933  15.899  1.00  0.00    -0.547 OA
ATOM     10  O   UNL     1       3.535   2.913  15.988  1.00  0.00    -0.547 OA
ENDBRANCH   3   8
BRANCH   4  11
ATOM     11  O   UNL     1       2.320   5.061  12.768  1.00  0.00    -0.387 OA
ATOM     12  H   UNL     1       3.047   5.270  12.128  1.00  0.00     0.211 HD
ENDBRANCH   4  11
BRANCH   6  13
ATOM     13  O   UNL     1       4.095   3.815  11.358  1.00  0.00    -0.387 OA
ATOM     14  H   UNL     1       4.869   3.254  11.620  1.00  0.00     0.211 HD
ENDBRANCH   6  13
BRANCH   7  15
ATOM     15  O   UNL     1       3.778   0.875  10.864  1.00  0.00    -0.384 OA
ATOM     16  H   UNL     1       4.689   0.524  11.055  1.00  0.00     0.211 HD
ENDBRANCH   7  15
ENDBRANCH   1   2
BRANCH   1  17
ATOM     17  C   UNL     1       3.218  -0.654  14.464  1.00  0.00     0.172 A 
ATOM     18  C   UNL     1       4.540  -0.368  14.859  1.00  0.00     0.205 A 
ATOM     19  C   UNL     1       2.337  -1.259  15.361  1.00  0.00     0.097 A 
ATOM     20  C   UNL     1       5.004  -0.836  16.116  1.00  0.00     0.188 A 
ATOM     21  C   UNL     1       2.763  -1.668  16.629  1.00  0.00     0.134 A 
ATOM     22  C   UNL     1       4.109  -1.480  17.009  1.00  0.00     0.111 A 
ATOM     23  O   UNL     1       6.285  -0.699  16.456  1.00  0.00    -0.452 OA
ATOM     24  C   UNL     1       4.619  -1.939  18.243  1.00  0.00     0.197 A 
ATOM     25  C   UNL     1       6.799  -1.121  17.608  1.00  0.00     0.138 A 
ATOM     26  C   UNL     1       5.967  -1.754  18.542  1.00  0.00     0.100 A 
ATOM     27  O   UNL     1       3.885  -2.528  19.083  1.00  0.00    -0.289 OA
BRANCH  18  28
ATOM     28  O   UNL     1       5.334   0.391  13.981  1.00  0.00    -0.490 OA
ATOM     29  C   UNL     1       6.345  -0.112  13.113  1.00  0.00     0.278 C 
ENDBRANCH  18  28
BRANCH  21  30
ATOM     30  O   UNL     1       1.848  -2.272  17.493  1.00  0.00    -0.507 OA
ATOM     31  H   UNL     1       1.076  -2.829  17.145  1.00  0.00     0.293 HD
ENDBRANCH  21  30
BRANCH  25  32
ATOM     32  C   UNL     1       8.252  -0.936  17.861  1.00  0.00     0.017 A 
ATOM     33  C   UNL     1       9.023  -1.921  18.513  1.00  0.00     0.012 A 
ATOM     34  C   UNL     1       8.881   0.254  17.447  1.00  0.00     0.012 A 
ATOM     35  C   UNL     1      10.391  -1.723  18.725  1.00  0.00     0.001 A 
ATOM     36  C   UNL     1      10.248   0.448  17.665  1.00  0.00     0.001 A 
ATOM     37  C   UNL     1      11.002  -0.539  18.301  1.00  0.00     0.000 A 
ENDBRANCH  25  32
ENDBRANCH   1  17
TORSDOF 9
ENDMDL
MODEL 7
REMARK VINA RESULT:    -9.263      2.195      4.187
REMARK INTER + INTRA:         -14.334
REMARK INTER:                 -12.733
REMARK INTRA:                  -1.601
REMARK UNBOUND:                -1.280
REMARK SMILES COc1c(O[C@H]2O[C@@H](C(=O)[O-])[C@@H](O)[C@@H](O)[C@@H]2O)cc(O)c2c(=O)cc(-c3ccccc3)oc12
REMARK SMILES IDX 5 1 6 2 8 3 12 4 7 5 14 6 16 7 9 8 10 9 11 10 13 11 15 13
REMARK SMILES IDX 17 15 4 17 3 18 18 19 33 20 19 21 21 22 32 23 22 24 25 25
REMARK SMILES IDX 24 26 23 27 2 28 1 29 20 30 26 32 27 33 31 34 28 35 30 36
REMARK SMILES IDX 29 37
REMARK H PARENT 13 12 15 14 17 16 20 31
REMARK Flexibility Score: inf
ROOT
ATOM      1  O   UNL     1       6.152  -0.427  14.756  1.00  0.00    -0.458 OA
ENDROOT
BRANCH   1   2
ATOM      2  C   UNL     1       5.472  -1.060  13.668  1.00  0.00     0.339 C 
ATOM      3  C   UNL     1       3.139  -1.651  13.436  1.00  0.00     0.199 C 
ATOM      4  C   UNL     1       3.364  -1.676  11.907  1.00  0.00     0.180 C 
ATOM      5  O   UNL     1       4.343  -1.775  14.178  1.00  0.00    -0.328 OA
ATOM      6  C   UNL     1       4.327  -0.552  11.440  1.00  0.00     0.181 C 
ATOM      7  C   UNL     1       5.140   0.027  12.617  1.00  0.00     0.214 C 
BRANCH   3   8
ATOM      8  C   UNL     1       2.366  -0.439  13.873  1.00  0.00     0.073 C 
ATOM      9  O   UNL     1       1.088  -0.434  13.842  1.00  0.00    -0.547 OA
ATOM     10  O   UNL     1       0.997  -0.444  13.837  1.00  0.00    -0.547 OA
ENDBRANCH   3   8
BRANCH   4  11
ATOM     11  O   UNL     1       2.133  -1.579  11.235  1.00  0.00    -0.387 OA
ATOM     12  H   UNL     1       1.512  -2.219  11.669  1.00  0.00     0.211 HD
ENDBRANCH   4  11
BRANCH   6  13
ATOM     13  O   UNL     1       3.621   0.496  10.826  1.00  0.00    -0.387 OA
ATOM     14  H   UNL     1       2.968   0.837  11.489  1.00  0.00     0.211 HD
ENDBRANCH   6  13
BRANCH   7  15
ATOM     15  O   UNL     1       6.305   0.663  12.153  1.00  0.00    -0.384 OA
ATOM     16  H   UNL     1       6.440   0.397  11.205  1.00  0.00     0.211 HD
ENDBRANCH   7  15
ENDBRANCH   1   2
BRANCH   1  17
ATOM     17  C   UNL     1       5.514   0.154  15.866  1.00  0.00     0.172 A 
ATOM     18  C   UNL     1       5.434  -0.487  17.118  1.00  0.00     0.205 A 
ATOM     19  C   UNL     1       4.929   1.408  15.685  1.00  0.00     0.097 A 
ATOM     20  C   UNL     1       4.628   0.083  18.138  1.00  0.00     0.188 A 
ATOM     21  C   UNL     1       4.185   2.013  16.703  1.00  0.00     0.134 A 
ATOM     22  C   UNL     1       4.009   1.344  17.933  1.00  0.00     0.111 A 
ATOM     23  O   UNL     1       4.426  -0.570  19.282  1.00  0.00    -0.452 OA
ATOM     24  C   UNL     1       3.208   1.865  18.972  1.00  0.00     0.197 A 
ATOM     25  C   UNL     1       3.675  -0.108  20.280  1.00  0.00     0.138 A 
ATOM     26  C   UNL     1       3.045   1.137  20.148  1.00  0.00     0.100 A 
ATOM     27  O   UNL     1       2.618   2.975  18.858  1.00  0.00    -0.289 OA
BRANCH  18  28
ATOM     28  O   UNL     1       6.181  -1.664  17.299  1.00  0.00    -0.490 OA
ATOM     29  C   UNL     1       7.507  -1.750  17.809  1.00  0.00     0.278 C 
ENDBRANCH  18  28
BRANCH  21  30
ATOM     30  O   UNL     1       3.614   3.267  16.477  1.00  0.00    -0.507 OA
ATOM     31  H   UNL     1       3.829   3.807  15.648  1.00  0.00     0.293 HD
ENDBRANCH  21  30
BRANCH  25  32
ATOM     32  C   UNL     1       3.502  -0.943  21.497  1.00  0.00     0.017 A 
ATOM     33  C   UNL     1       3.778  -0.440  22.787  1.00  0.00     0.012 A 
ATOM     34  C   UNL     1       3.058  -2.273  21.368  1.00  0.00     0.012 A 
ATOM     35  C   UNL     1       3.593  -1.247  23.915  1.00  0.00     0.001 A 
ATOM     36  C   UNL     1       2.879  -3.075  22.499  1.00  0.00     0.001 A 
ATOM     37  C   UNL     1       3.144  -2.562  23.770  1.00  0.00     0.000 A 
ENDBRANCH  25  32
ENDBRANCH   1  17
TORSDOF 9
ENDMDL
MODEL 8
REMARK VINA RESULT:    -9.181      2.523      4.719
REMARK INTER + INTRA:         -14.218
REMARK INTER:                 -12.543
REMARK INTRA:                  -1.675
REMARK UNBOUND:                -1.280
REMARK SMILES COc1c(O[C@H]2O[C@@H](C(=O)[O-])[C@@H](O)[C@@H](O)[C@@H]2O)cc(O)c2c(=O)cc(-c3ccccc3)oc12
REMARK SMILES IDX 5 1 6 2 8 3 12 4 7 5 14 6 16 7 9 8 10 9 11 10 13 11 15 13
REMARK SMILES IDX 17 15 4 17 3 18 18 19 33 20 19 21 21 22 32 23 22 24 25 25
REMARK SMILES IDX 24 26 23 27 2 28 1 29 20 30 26 32 27 33 31 34 28 35 30 36
REMARK SMILES IDX 29 37
REMARK H PARENT 13 12 15 14 17 16 20 31
REMARK Flexibility Score: inf
ROOT
ATOM      1  O   UNL     1       3.188   1.975  16.151  1.00  0.00    -0.458 OA
ENDROOT
BRANCH   1   2
ATOM      2  C   UNL     1       3.257   2.264  14.751  1.00  0.00     0.339 C 
ATOM      3  C   UNL     1       4.225   0.972  12.952  1.00  0.00     0.199 C 
ATOM      4  C   UNL     1       3.325   1.769  11.981  1.00  0.00     0.180 C 
ATOM      5  O   UNL     1       4.410   1.621  14.200  1.00  0.00    -0.328 OA
ATOM      6  C   UNL     1       1.922   2.049  12.582  1.00  0.00     0.181 C 
ATOM      7  C   UNL     1       1.908   1.852  14.112  1.00  0.00     0.214 C 
BRANCH   3   8
ATOM      8  C   UNL     1       3.735  -0.435  13.150  1.00  0.00     0.073 C 
ATOM      9  O   UNL     1       3.976  -1.339  12.280  1.00  0.00    -0.547 OA
ATOM     10  O   UNL     1       4.000  -1.396  12.212  1.00  0.00    -0.547 OA
ENDBRANCH   3   8
BRANCH   4  11
ATOM     11  O   UNL     1       3.208   1.086  10.758  1.00  0.00    -0.387 OA
ATOM     12  H   UNL     1       4.103   1.094  10.331  1.00  0.00     0.211 HD
ENDBRANCH   4  11
BRANCH   6  13
ATOM     13  O   UNL     1       0.951   1.208  12.014  1.00  0.00    -0.387 OA
ATOM     14  H   UNL     1       1.009   1.317  11.030  1.00  0.00     0.211 HD
ENDBRANCH   6  13
BRANCH   7  15
ATOM     15  O   UNL     1       0.834   2.546  14.695  1.00  0.00    -0.384 OA
ATOM     16  H   UNL     1       0.779   2.276  15.650  1.00  0.00     0.211 HD
ENDBRANCH   7  15
ENDBRANCH   1   2
BRANCH   1  17
ATOM     17  C   UNL     1       3.675   0.800  16.749  1.00  0.00     0.172 A 
ATOM     18  C   UNL     1       4.970   0.706  17.296  1.00  0.00     0.205 A 
ATOM     19  C   UNL     1       2.827  -0.308  16.768  1.00  0.00     0.097 A 
ATOM     20  C   UNL     1       5.451  -0.559  17.725  1.00  0.00     0.188 A 
ATOM     21  C   UNL     1       3.265  -1.546  17.248  1.00  0.00     0.134 A 
ATOM     22  C   UNL     1       4.591  -1.687  17.710  1.00  0.00     0.111 A 
ATOM     23  O   UNL     1       6.715  -0.701  18.119  1.00  0.00    -0.452 OA
ATOM     24  C   UNL     1       5.117  -2.927  18.136  1.00  0.00     0.197 A 
ATOM     25  C   UNL     1       7.244  -1.854  18.524  1.00  0.00     0.138 A 
ATOM     26  C   UNL     1       6.445  -3.006  18.545  1.00  0.00     0.100 A 
ATOM     27  O   UNL     1       4.415  -3.976  18.140  1.00  0.00    -0.289 OA
BRANCH  18  28
ATOM     28  O   UNL     1       5.721   1.890  17.406  1.00  0.00    -0.490 OA
ATOM     29  C   UNL     1       5.837   2.708  18.565  1.00  0.00     0.278 C 
ENDBRANCH  18  28
BRANCH  21  30
ATOM     30  O   UNL     1       2.384  -2.629  17.245  1.00  0.00    -0.507 OA
ATOM     31  H   UNL     1       1.847  -2.875  16.422  1.00  0.00     0.293 HD
ENDBRANCH  21  30
BRANCH  25  32
ATOM     32  C   UNL     1       8.677  -1.893  18.913  1.00  0.00     0.017 A 
ATOM     33  C   UNL     1       9.200  -2.928  19.717  1.00  0.00     0.012 A 
ATOM     34  C   UNL     1       9.542  -0.870  18.476  1.00  0.00     0.012 A 
ATOM     35  C   UNL     1      10.557  -2.944  20.056  1.00  0.00     0.001 A 
ATOM     36  C   UNL     1      10.896  -0.890  18.822  1.00  0.00     0.001 A 
ATOM     37  C   UNL     1      11.403  -1.926  19.608  1.00  0.00     0.000 A 
ENDBRANCH  25  32
ENDBRANCH   1  17
TORSDOF 9
ENDMDL
MODEL 9
REMARK VINA RESULT:    -9.167      2.006      3.901
REMARK INTER + INTRA:         -14.199
REMARK INTER:                 -12.881
REMARK INTRA:                  -1.318
REMARK UNBOUND:                -1.280
REMARK SMILES COc1c(O[C@H]2O[C@@H](C(=O)[O-])[C@@H](O)[C@@H](O)[C@@H]2O)cc(O)c2c(=O)cc(-c3ccccc3)oc12
REMARK SMILES IDX 5 1 6 2 8 3 12 4 7 5 14 6 16 7 9 8 10 9 11 10 13 11 15 13
REMARK SMILES IDX 17 15 4 17 3 18 18 19 33 20 19 21 21 22 32 23 22 24 25 25
REMARK SMILES IDX 24 26 23 27 2 28 1 29 20 30 26 32 27 33 31 34 28 35 30 36
REMARK SMILES IDX 29 37
REMARK H PARENT 13 12 15 14 17 16 20 31
REMARK Flexibility Score: inf
ROOT
ATOM      1  O   UNL     1       2.567   0.292  13.654  1.00  0.00    -0.458 OA
ENDROOT
BRANCH   1   2
ATOM      2  C   UNL     1       3.401  -0.031  12.537  1.00  0.00     0.339 C 
ATOM      3  C   UNL     1       5.761  -0.551  12.467  1.00  0.00     0.199 C 
ATOM      4  C   UNL     1       5.503  -1.238  11.107  1.00  0.00     0.180 C 
ATOM      5  O   UNL     1       4.743   0.370  12.827  1.00  0.00    -0.328 OA
ATOM      6  C   UNL     1       4.149  -1.995  11.082  1.00  0.00     0.181 C 
ATOM      7  C   UNL     1       3.219  -1.536  12.225  1.00  0.00     0.214 C 
BRANCH   3   8
ATOM      8  C   UNL     1       5.992  -1.546  13.568  1.00  0.00     0.073 C 
ATOM      9  O   UNL     1       6.544  -1.191  14.665  1.00  0.00    -0.547 OA
ATOM     10  O   UNL     1       6.583  -1.155  14.739  1.00  0.00    -0.547 OA
ENDBRANCH   3   8
BRANCH   4  11
ATOM     11  O   UNL     1       6.560  -2.112  10.799  1.00  0.00    -0.387 OA
ATOM     12  H   UNL     1       6.602  -2.788  11.523  1.00  0.00     0.211 HD
ENDBRANCH   4  11
BRANCH   6  13
ATOM     13  O   UNL     1       4.341  -3.382  11.192  1.00  0.00    -0.387 OA
ATOM     14  H   UNL     1       5.160  -3.521  11.734  1.00  0.00     0.211 HD
ENDBRANCH   6  13
BRANCH   7  15
ATOM     15  O   UNL     1       1.878  -1.839  11.930  1.00  0.00    -0.384 OA
ATOM     16  H   UNL     1       1.590  -2.571  12.537  1.00  0.00     0.211 HD
ENDBRANCH   7  15
ENDBRANCH   1   2
BRANCH   1  17
ATOM     17  C   UNL     1       3.030   0.475  14.969  1.00  0.00     0.172 A 
ATOM     18  C   UNL     1       3.153  -0.586  15.887  1.00  0.00     0.205 A 
ATOM     19  C   UNL     1       3.354   1.776  15.358  1.00  0.00     0.097 A 
ATOM     20  C   UNL     1       3.461  -0.298  17.242  1.00  0.00     0.188 A 
ATOM     21  C   UNL     1       3.721   2.066  16.676  1.00  0.00     0.134 A 
ATOM     22  C   UNL     1       3.756   1.033  17.636  1.00  0.00     0.111 A 
ATOM     23  O   UNL     1       3.450  -1.267  18.157  1.00  0.00    -0.452 OA
ATOM     24  C   UNL     1       4.045   1.272  18.997  1.00  0.00     0.197 A 
ATOM     25  C   UNL     1       3.715  -1.075  19.448  1.00  0.00     0.138 A 
ATOM     26  C   UNL     1       4.026   0.214  19.902  1.00  0.00     0.100 A 
ATOM     27  O   UNL     1       4.307   2.431  19.423  1.00  0.00    -0.289 OA
BRANCH  18  28
ATOM     28  O   UNL     1       2.979  -1.894  15.401  1.00  0.00    -0.490 OA
ATOM     29  C   UNL     1       1.758  -2.625  15.372  1.00  0.00     0.278 C 
ENDBRANCH  18  28
BRANCH  21  30
ATOM     30  O   UNL     1       4.034   3.382  17.022  1.00  0.00    -0.507 OA
ATOM     31  H   UNL     1       4.574   3.600  17.851  1.00  0.00     0.293 HD
ENDBRANCH  21  30
BRANCH  25  32
ATOM     32  C   UNL     1       3.642  -2.232  20.378  1.00  0.00     0.017 A 
ATOM     33  C   UNL     1       4.135  -3.504  20.019  1.00  0.00     0.012 A 
ATOM     34  C   UNL     1       3.063  -2.063  21.650  1.00  0.00     0.012 A 
ATOM     35  C   UNL     1       4.064  -4.571  20.921  1.00  0.00     0.001 A 
ATOM     36  C   UNL     1       2.992  -3.133  22.546  1.00  0.00     0.001 A 
ATOM     37  C   UNL     1       3.493  -4.385  22.183  1.00  0.00     0.000 A 
ENDBRANCH  25  32
ENDBRANCH   1  17
TORSDOF 9
ENDMDL
