MODEL 1
REMARK VINA RESULT:    -5.107      0.000      0.000
REMARK INTER + INTRA:          -7.148
REMARK INTER:                  -6.599
REMARK INTRA:                  -0.549
REMARK UNBOUND:                -0.549
REMARK SMILES CO[C@@]1(CO)O[C@H](CO)[C@H](O)[C@H]1O
REMARK SMILES IDX 3 1 12 2 10 3 7 4 6 5 2 6 1 7 4 8 5 9 13 11 11 13 8 15 9 16
REMARK H PARENT 5 10 13 12 11 14 9 17
REMARK Flexibility Score: inf
ROOT
ATOM      1  C   UNL     1      37.300  28.597  10.454  1.00  0.00     0.221 C 
ATOM      2  C   UNL     1      37.897  27.330   9.818  1.00  0.00     0.207 C 
ATOM      3  C   UNL     1      38.208  27.789   8.421  1.00  0.00     0.180 C 
ATOM      4  C   UNL     1      37.142  28.860   8.172  1.00  0.00     0.179 C 
ATOM      5  O   UNL     1      36.677  29.341   9.416  1.00  0.00    -0.337 OA
ENDROOT
BRANCH   1   6
ATOM      6  O   UNL     1      38.357  29.339  11.067  1.00  0.00    -0.349 OA
ATOM      7  C   UNL     1      38.105  29.640  12.424  1.00  0.00     0.198 C 
ENDBRANCH   1   6
BRANCH   1   8
ATOM      8  C   UNL     1      36.234  28.220  11.506  1.00  0.00     0.224 C 
BRANCH   8   9
ATOM      9  O   UNL     1      36.128  26.826  11.636  1.00  0.00    -0.391 OA
ATOM     10  H   UNL     1      36.256  26.439  10.731  1.00  0.00     0.210 HD
ENDBRANCH   8   9
ENDBRANCH   1   8
BRANCH   2  11
ATOM     11  O   UNL     1      39.071  26.906  10.464  1.00  0.00    -0.385 OA
ATOM     12  H   UNL     1      39.827  27.354  10.006  1.00  0.00     0.211 HD
ENDBRANCH   2  11
BRANCH   3  13
ATOM     13  O   UNL     1      38.151  26.732   7.499  1.00  0.00    -0.387 OA
ATOM     14  H   UNL     1      37.421  26.951   6.863  1.00  0.00     0.211 HD
ENDBRANCH   3  13
BRANCH   4  15
ATOM     15  C   UNL     1      35.937  28.388   7.336  1.00  0.00     0.191 C 
BRANCH  15  16
ATOM     16  O   UNL     1      36.287  28.235   5.986  1.00  0.00    -0.394 OA
ATOM     17  H   UNL     1      35.995  29.058   5.515  1.00  0.00     0.210 HD
ENDBRANCH  15  16
ENDBRANCH   4  15
TORSDOF 7
ENDMDL
MODEL 2
REMARK VINA RESULT:    -4.981      2.196      3.840
REMARK INTER + INTRA:          -6.986
REMARK INTER:                  -6.541
REMARK INTRA:                  -0.445
REMARK UNBOUND:                -0.549
REMARK SMILES CO[C@@]1(CO)O[C@H](CO)[C@H](O)[C@H]1O
REMARK SMILES IDX 3 1 12 2 10 3 7 4 6 5 2 6 1 7 4 8 5 9 13 11 11 13 8 15 9 16
REMARK H PARENT 5 10 13 12 11 14 9 17
REMARK Flexibility Score: inf
ROOT
ATOM      1  C   UNL     1      38.690  28.515   8.971  1.00  0.00     0.221 C 
ATOM      2  C   UNL     1      39.012  27.270   9.817  1.00  0.00     0.207 C 
ATOM      3  C   UNL     1      40.268  27.685  10.532  1.00  0.00     0.180 C 
ATOM      4  C   UNL     1      40.917  28.654   9.541  1.00  0.00     0.179 C 
ATOM      5  O   UNL     1      39.922  29.155   8.672  1.00  0.00    -0.337 OA
ENDROOT
BRANCH   1   6
ATOM      6  O   UNL     1      37.828  29.367   9.728  1.00  0.00    -0.349 OA
ATOM      7  C   UNL     1      36.722  29.836   8.984  1.00  0.00     0.198 C 
ENDBRANCH   1   6
BRANCH   1   8
ATOM      8  C   UNL     1      38.006  28.104   7.649  1.00  0.00     0.224 C 
BRANCH   8   9
ATOM      9  O   UNL     1      37.904  26.707   7.549  1.00  0.00    -0.391 OA
ATOM     10  H   UNL     1      38.468  26.322   8.268  1.00  0.00     0.210 HD
ENDBRANCH   8   9
ENDBRANCH   1   8
BRANCH   2  11
ATOM     11  O   UNL     1      37.999  26.972  10.745  1.00  0.00    -0.385 OA
ATOM     12  H   UNL     1      37.152  27.321  10.364  1.00  0.00     0.211 HD
ENDBRANCH   2  11
BRANCH   3  13
ATOM     13  O   UNL     1      41.083  26.584  10.839  1.00  0.00    -0.387 OA
ATOM     14  H   UNL     1      41.165  26.560  11.828  1.00  0.00     0.211 HD
ENDBRANCH   3  13
BRANCH   4  15
ATOM     15  C   UNL     1      42.056  28.048   8.699  1.00  0.00     0.191 C 
BRANCH  15  16
ATOM     16  O   UNL     1      41.691  26.795   8.182  1.00  0.00    -0.394 OA
ATOM     17  H   UNL     1      42.485  26.206   8.258  1.00  0.00     0.210 HD
ENDBRANCH  15  16
ENDBRANCH   4  15
TORSDOF 7
ENDMDL
MODEL 3
REMARK VINA RESULT:    -4.930      1.880      3.260
REMARK INTER + INTRA:          -6.920
REMARK INTER:                  -6.611
REMARK INTRA:                  -0.309
REMARK UNBOUND:                -0.549
REMARK SMILES CO[C@@]1(CO)O[C@H](CO)[C@H](O)[C@H]1O
REMARK SMILES IDX 3 1 12 2 10 3 7 4 6 5 2 6 1 7 4 8 5 9 13 11 11 13 8 15 9 16
REMARK H PARENT 5 10 13 12 11 14 9 17
REMARK Flexibility Score: inf
ROOT
ATOM      1  C   UNL     1      39.646  28.382  10.208  1.00  0.00     0.221 C 
ATOM      2  C   UNL     1      39.591  27.610   8.878  1.00  0.00     0.207 C 
ATOM      3  C   UNL     1      38.139  27.720   8.504  1.00  0.00     0.180 C 
ATOM      4  C   UNL     1      37.444  27.800   9.866  1.00  0.00     0.179 C 
ATOM      5  O   UNL     1      38.375  28.250  10.829  1.00  0.00    -0.337 OA
ENDROOT
BRANCH   1   6
ATOM      6  O   UNL     1      39.950  29.750   9.926  1.00  0.00    -0.349 OA
ATOM      7  C   UNL     1      40.683  30.376  10.959  1.00  0.00     0.198 C 
ENDBRANCH   1   6
BRANCH   1   8
ATOM      8  C   UNL     1      40.721  27.776  11.137  1.00  0.00     0.224 C 
BRANCH   8   9
ATOM      9  O   UNL     1      41.228  26.580  10.606  1.00  0.00    -0.391 OA
ATOM     10  H   UNL     1      40.710  25.838  11.014  1.00  0.00     0.210 HD
ENDBRANCH   8   9
ENDBRANCH   1   8
BRANCH   2  11
ATOM     11  O   UNL     1      40.395  28.193   7.884  1.00  0.00    -0.385 OA
ATOM     12  H   UNL     1      41.045  27.500   7.600  1.00  0.00     0.211 HD
ENDBRANCH   2  11
BRANCH   3  13
ATOM     13  O   UNL     1      37.714  26.625   7.734  1.00  0.00    -0.387 OA
ATOM     14  H   UNL     1      36.765  26.797   7.498  1.00  0.00     0.211 HD
ENDBRANCH   3  13
BRANCH   4  15
ATOM     15  C   UNL     1      36.823  26.477  10.351  1.00  0.00     0.191 C 
BRANCH  15  16
ATOM     16  O   UNL     1      36.155  26.649  11.574  1.00  0.00    -0.394 OA
ATOM     17  H   UNL     1      36.781  27.119  12.183  1.00  0.00     0.210 HD
ENDBRANCH  15  16
ENDBRANCH   4  15
TORSDOF 7
ENDMDL
MODEL 4
REMARK VINA RESULT:    -4.930      1.580      4.033
REMARK INTER + INTRA:          -6.920
REMARK INTER:                  -6.326
REMARK INTRA:                  -0.594
REMARK UNBOUND:                -0.549
REMARK SMILES CO[C@@]1(CO)O[C@H](CO)[C@H](O)[C@H]1O
REMARK SMILES IDX 3 1 12 2 10 3 7 4 6 5 2 6 1 7 4 8 5 9 13 11 11 13 8 15 9 16
REMARK H PARENT 5 10 13 12 11 14 9 17
REMARK Flexibility Score: inf
ROOT
ATOM      1  C   UNL     1      37.056  28.608   8.714  1.00  0.00     0.221 C 
ATOM      2  C   UNL     1      37.292  27.108   8.959  1.00  0.00     0.207 C 
ATOM      3  C   UNL     1      36.190  26.763   9.922  1.00  0.00     0.180 C 
ATOM      4  C   UNL     1      35.981  28.077  10.680  1.00  0.00     0.179 C 
ATOM      5  O   UNL     1      36.466  29.143   9.891  1.00  0.00    -0.337 OA
ENDROOT
BRANCH   1   6
ATOM      6  O   UNL     1      36.192  28.754   7.585  1.00  0.00    -0.349 OA
ATOM      7  C   UNL     1      35.669  30.060   7.454  1.00  0.00     0.198 C 
ENDBRANCH   1   6
BRANCH   1   8
ATOM      8  C   UNL     1      38.397  29.329   8.456  1.00  0.00     0.224 C 
BRANCH   8   9
ATOM      9  O   UNL     1      39.158  28.645   7.494  1.00  0.00    -0.391 OA
ATOM     10  H   UNL     1      39.949  29.209   7.295  1.00  0.00     0.210 HD
ENDBRANCH   8   9
ENDBRANCH   1   8
BRANCH   2  11
ATOM     11  O   UNL     1      37.168  26.345   7.785  1.00  0.00    -0.385 OA
ATOM     12  H   UNL     1      36.245  25.983   7.775  1.00  0.00     0.211 HD
ENDBRANCH   2  11
BRANCH   3  13
ATOM     13  O   UNL     1      36.545  25.694  10.761  1.00  0.00    -0.387 OA
ATOM     14  H   UNL     1      35.717  25.169  10.914  1.00  0.00     0.211 HD
ENDBRANCH   3  13
BRANCH   4  15
ATOM     15  C   UNL     1      36.652  28.135  12.066  1.00  0.00     0.191 C 
BRANCH  15  16
ATOM     16  O   UNL     1      35.963  27.340  12.995  1.00  0.00    -0.394 OA
ATOM     17  H   UNL     1      36.546  27.255  13.793  1.00  0.00     0.210 HD
ENDBRANCH  15  16
ENDBRANCH   4  15
TORSDOF 7
ENDMDL
MODEL 5
REMARK VINA RESULT:    -4.777      1.357      4.119
REMARK INTER + INTRA:          -6.722
REMARK INTER:                  -6.245
REMARK INTRA:                  -0.477
REMARK UNBOUND:                -0.549
REMARK SMILES CO[C@@]1(CO)O[C@H](CO)[C@H](O)[C@H]1O
REMARK SMILES IDX 3 1 12 2 10 3 7 4 6 5 2 6 1 7 4 8 5 9 13 11 11 13 8 15 9 16
REMARK H PARENT 5 10 13 12 11 14 9 17
REMARK Flexibility Score: inf
ROOT
ATOM      1  C   UNL     1      37.761  27.960   9.584  1.00  0.00     0.221 C 
ATOM      2  C   UNL     1      37.065  26.885  10.436  1.00  0.00     0.207 C 
ATOM      3  C   UNL     1      36.150  27.705  11.303  1.00  0.00     0.180 C 
ATOM      4  C   UNL     1      36.909  29.027  11.438  1.00  0.00     0.179 C 
ATOM      5  O   UNL     1      37.815  29.149  10.360  1.00  0.00    -0.337 OA
ENDROOT
BRANCH   1   6
ATOM      6  O   UNL     1      37.003  28.151   8.387  1.00  0.00    -0.349 OA
ATOM      7  C   UNL     1      37.788  28.606   7.304  1.00  0.00     0.198 C 
ENDBRANCH   1   6
BRANCH   1   8
ATOM      8  C   UNL     1      39.202  27.524   9.239  1.00  0.00     0.224 C 
BRANCH   8   9
ATOM      9  O   UNL     1      39.878  27.074  10.384  1.00  0.00    -0.391 OA
ATOM     10  H   UNL     1      39.277  27.232  11.158  1.00  0.00     0.210 HD
ENDBRANCH   8   9
ENDBRANCH   1   8
BRANCH   2  11
ATOM     11  O   UNL     1      36.320  25.981   9.659  1.00  0.00    -0.385 OA
ATOM     12  H   UNL     1      36.798  25.884   8.797  1.00  0.00     0.211 HD
ENDBRANCH   2  11
BRANCH   3  13
ATOM     13  O   UNL     1      35.904  27.083  12.537  1.00  0.00    -0.387 OA
ATOM     14  H   UNL     1      36.790  26.838  12.912  1.00  0.00     0.211 HD
ENDBRANCH   3  13
BRANCH   4  15
ATOM     15  C   UNL     1      37.682  29.194  12.761  1.00  0.00     0.191 C 
BRANCH  15  16
ATOM     16  O   UNL     1      39.063  29.294  12.531  1.00  0.00    -0.394 OA
ATOM     17  H   UNL     1      39.357  28.429  12.145  1.00  0.00     0.210 HD
ENDBRANCH  15  16
ENDBRANCH   4  15
TORSDOF 7
ENDMDL
MODEL 6
REMARK VINA RESULT:    -4.690      1.416      2.181
REMARK INTER + INTRA:          -6.610
REMARK INTER:                  -6.026
REMARK INTRA:                  -0.583
REMARK UNBOUND:                -0.549
REMARK SMILES CO[C@@]1(CO)O[C@H](CO)[C@H](O)[C@H]1O
REMARK SMILES IDX 3 1 12 2 10 3 7 4 6 5 2 6 1 7 4 8 5 9 13 11 11 13 8 15 9 16
REMARK H PARENT 5 10 13 12 11 14 9 17
REMARK Flexibility Score: inf
ROOT
ATOM      1  C   UNL     1      37.461  27.790   9.361  1.00  0.00     0.221 C 
ATOM      2  C   UNL     1      37.111  27.376   7.921  1.00  0.00     0.207 C 
ATOM      3  C   UNL     1      37.518  28.589   7.131  1.00  0.00     0.180 C 
ATOM      4  C   UNL     1      37.304  29.730   8.129  1.00  0.00     0.179 C 
ATOM      5  O   UNL     1      37.333  29.203   9.440  1.00  0.00    -0.337 OA
ENDROOT
BRANCH   1   6
ATOM      6  O   UNL     1      38.798  27.370   9.641  1.00  0.00    -0.349 OA
ATOM      7  C   UNL     1      39.389  28.083  10.709  1.00  0.00     0.198 C 
ENDBRANCH   1   6
BRANCH   1   8
ATOM      8  C   UNL     1      36.478  27.143  10.361  1.00  0.00     0.224 C 
BRANCH   8   9
ATOM      9  O   UNL     1      35.274  27.864  10.419  1.00  0.00    -0.391 OA
ATOM     10  H   UNL     1      34.636  27.413   9.807  1.00  0.00     0.210 HD
ENDBRANCH   8   9
ENDBRANCH   1   8
BRANCH   2  11
ATOM     11  O   UNL     1      37.835  26.251   7.493  1.00  0.00    -0.385 OA
ATOM     12  H   UNL     1      37.413  25.943   6.651  1.00  0.00     0.211 HD
ENDBRANCH   2  11
BRANCH   3  13
ATOM     13  O   UNL     1      36.753  28.731   5.961  1.00  0.00    -0.387 OA
ATOM     14  H   UNL     1      36.868  27.891   5.445  1.00  0.00     0.211 HD
ENDBRANCH   3  13
BRANCH   4  15
ATOM     15  C   UNL     1      35.995  30.518   7.936  1.00  0.00     0.191 C 
BRANCH  15  16
ATOM     16  O   UNL     1      34.875  29.697   8.138  1.00  0.00    -0.394 OA
ATOM     17  H   UNL     1      34.165  30.017   7.524  1.00  0.00     0.210 HD
ENDBRANCH  15  16
ENDBRANCH   4  15
TORSDOF 7
ENDMDL
MODEL 7
REMARK VINA RESULT:    -4.613      1.542      4.002
REMARK INTER + INTRA:          -6.510
REMARK INTER:                  -5.998
REMARK INTRA:                  -0.512
REMARK UNBOUND:                -0.549
REMARK SMILES CO[C@@]1(CO)O[C@H](CO)[C@H](O)[C@H]1O
REMARK SMILES IDX 3 1 12 2 10 3 7 4 6 5 2 6 1 7 4 8 5 9 13 11 11 13 8 15 9 16
REMARK H PARENT 5 10 13 12 11 14 9 17
REMARK Flexibility Score: inf
ROOT
ATOM      1  C   UNL     1      36.830  28.293   8.771  1.00  0.00     0.221 C 
ATOM      2  C   UNL     1      36.256  28.028  10.174  1.00  0.00     0.207 C 
ATOM      3  C   UNL     1      37.061  28.965  11.031  1.00  0.00     0.180 C 
ATOM      4  C   UNL     1      38.394  29.046  10.283  1.00  0.00     0.179 C 
ATOM      5  O   UNL     1      38.185  28.687   8.933  1.00  0.00    -0.337 OA
ENDROOT
BRANCH   1   6
ATOM      6  O   UNL     1      36.057  29.323   8.152  1.00  0.00    -0.349 OA
ATOM      7  C   UNL     1      36.652  29.828   6.974  1.00  0.00     0.198 C 
ENDBRANCH   1   6
BRANCH   1   8
ATOM      8  C   UNL     1      36.783  27.006   7.918  1.00  0.00     0.224 C 
BRANCH   8   9
ATOM      9  O   UNL     1      38.077  26.587   7.569  1.00  0.00    -0.391 OA
ATOM     10  H   UNL     1      38.183  25.660   7.907  1.00  0.00     0.210 HD
ENDBRANCH   8   9
ENDBRANCH   1   8
BRANCH   2  11
ATOM     11  O   UNL     1      34.889  28.338  10.264  1.00  0.00    -0.385 OA
ATOM     12  H   UNL     1      34.703  29.017   9.565  1.00  0.00     0.211 HD
ENDBRANCH   2  11
BRANCH   3  13
ATOM     13  O   UNL     1      37.195  28.486  12.344  1.00  0.00    -0.387 OA
ATOM     14  H   UNL     1      36.348  28.016  12.561  1.00  0.00     0.211 HD
ENDBRANCH   3  13
BRANCH   4  15
ATOM     15  C   UNL     1      39.515  28.165  10.867  1.00  0.00     0.191 C 
BRANCH  15  16
ATOM     16  O   UNL     1      39.659  26.977  10.133  1.00  0.00    -0.394 OA
ATOM     17  H   UNL     1      39.126  27.081   9.303  1.00  0.00     0.210 HD
ENDBRANCH  15  16
ENDBRANCH   4  15
TORSDOF 7
ENDMDL
MODEL 8
REMARK VINA RESULT:    -4.581      1.837      3.470
REMARK INTER + INTRA:          -6.470
REMARK INTER:                  -6.030
REMARK INTRA:                  -0.440
REMARK UNBOUND:                -0.549
REMARK SMILES CO[C@@]1(CO)O[C@H](CO)[C@H](O)[C@H]1O
REMARK SMILES IDX 3 1 12 2 10 3 7 4 6 5 2 6 1 7 4 8 5 9 13 11 11 13 8 15 9 16
REMARK H PARENT 5 10 13 12 11 14 9 17
REMARK Flexibility Score: inf
ROOT
ATOM      1  C   UNL     1      37.234  28.133  10.443  1.00  0.00     0.221 C 
ATOM      2  C   UNL     1      38.158  28.525  11.609  1.00  0.00     0.207 C 
ATOM      3  C   UNL     1      39.253  29.282  10.909  1.00  0.00     0.180 C 
ATOM      4  C   UNL     1      39.289  28.623   9.527  1.00  0.00     0.179 C 
ATOM      5  O   UNL     1      38.044  28.001   9.284  1.00  0.00    -0.337 OA
ENDROOT
BRANCH   1   6
ATOM      6  O   UNL     1      36.250  29.157  10.279  1.00  0.00    -0.349 OA
ATOM      7  C   UNL     1      35.216  28.792   9.388  1.00  0.00     0.198 C 
ENDBRANCH   1   6
BRANCH   1   8
ATOM      8  C   UNL     1      36.550  26.778  10.730  1.00  0.00     0.224 C 
BRANCH   8   9
ATOM      9  O   UNL     1      36.058  26.732  12.045  1.00  0.00    -0.391 OA
ATOM     10  H   UNL     1      35.073  26.837  11.989  1.00  0.00     0.210 HD
ENDBRANCH   8   9
ENDBRANCH   1   8
BRANCH   2  11
ATOM     11  O   UNL     1      37.518  29.351  12.548  1.00  0.00    -0.385 OA
ATOM     12  H   UNL     1      37.350  28.794  13.351  1.00  0.00     0.211 HD
ENDBRANCH   2  11
BRANCH   3  13
ATOM     13  O   UNL     1      40.474  29.188  11.596  1.00  0.00    -0.387 OA
ATOM     14  H   UNL     1      40.580  28.235  11.852  1.00  0.00     0.211 HD
ENDBRANCH   3  13
BRANCH   4  15
ATOM     15  C   UNL     1      40.412  27.585   9.338  1.00  0.00     0.191 C 
BRANCH  15  16
ATOM     16  O   UNL     1      40.505  26.732  10.448  1.00  0.00    -0.394 OA
ATOM     17  H   UNL     1      41.228  26.081  10.256  1.00  0.00     0.210 HD
ENDBRANCH  15  16
ENDBRANCH   4  15
TORSDOF 7
ENDMDL
MODEL 9
REMARK VINA RESULT:    -4.516      1.986      2.832
REMARK INTER + INTRA:          -6.385
REMARK INTER:                  -5.810
REMARK INTRA:                  -0.575
REMARK UNBOUND:                -0.549
REMARK SMILES CO[C@@]1(CO)O[C@H](CO)[C@H](O)[C@H]1O
REMARK SMILES IDX 3 1 12 2 10 3 7 4 6 5 2 6 1 7 4 8 5 9 13 11 11 13 8 15 9 16
REMARK H PARENT 5 10 13 12 11 14 9 17
REMARK Flexibility Score: inf
ROOT
ATOM      1  C   UNL     1      38.027  27.955   9.459  1.00  0.00     0.221 C 
ATOM      2  C   UNL     1      39.534  27.676   9.315  1.00  0.00     0.207 C 
ATOM      3  C   UNL     1      40.123  29.058   9.378  1.00  0.00     0.180 C 
ATOM      4  C   UNL     1      39.009  29.927   8.788  1.00  0.00     0.179 C 
ATOM      5  O   UNL     1      37.780  29.242   8.911  1.00  0.00    -0.337 OA
ENDROOT
BRANCH   1   6
ATOM      6  O   UNL     1      37.686  27.902  10.846  1.00  0.00    -0.349 OA
ATOM      7  C   UNL     1      36.491  27.190  11.093  1.00  0.00     0.198 C 
ENDBRANCH   1   6
BRANCH   1   8
ATOM      8  C   UNL     1      37.209  26.910   8.668  1.00  0.00     0.224 C 
BRANCH   8   9
ATOM      9  O   UNL     1      37.838  26.595   7.453  1.00  0.00    -0.391 OA
ATOM     10  H   UNL     1      37.257  25.939   6.987  1.00  0.00     0.210 HD
ENDBRANCH   8   9
ENDBRANCH   1   8
BRANCH   2  11
ATOM     11  O   UNL     1      40.036  26.884  10.362  1.00  0.00    -0.385 OA
ATOM     12  H   UNL     1      40.865  27.325  10.681  1.00  0.00     0.211 HD
ENDBRANCH   2  11
BRANCH   3  13
ATOM     13  O   UNL     1      41.327  29.145   8.662  1.00  0.00    -0.387 OA
ATOM     14  H   UNL     1      42.022  29.429   9.312  1.00  0.00     0.211 HD
ENDBRANCH   3  13
BRANCH   4  15
ATOM     15  C   UNL     1      39.215  30.323   7.314  1.00  0.00     0.191 C 
BRANCH  15  16
ATOM     16  O   UNL     1      39.217  29.193   6.481  1.00  0.00    -0.394 OA
ATOM     17  H   UNL     1      39.245  29.520   5.546  1.00  0.00     0.210 HD
ENDBRANCH  15  16
ENDBRANCH   4  15
TORSDOF 7
ENDMDL
