MODEL 1
REMARK VINA RESULT:    -4.354      0.000      0.000
REMARK INTER + INTRA:          -5.650
REMARK INTER:                  -6.136
REMARK INTRA:                   0.486
REMARK UNBOUND:                 0.486
REMARK SMILES CC1=CCC(=C(C)C)C(=O)CC(C)=CCC1
REMARK SMILES IDX 12 1 14 2 13 3 15 4 16 5 2 6 1 7 3 8 11 10 9 11 10 12 5 13
REMARK SMILES IDX 6 14 7 15 8 16 4 17
REMARK H PARENT
REMARK Flexibility Score: 60.00
ROOT
ATOM      1  C   UNL     1      17.163  19.289   9.290  1.00  0.00    -0.070 C 
ATOM      2  C   UNL     1      18.194  18.553   8.801  1.00  0.00    -0.027 C 
ATOM      3  C   UNL     1      16.264  18.629  10.307  1.00  0.00     0.039 C 
ENDROOT
BRANCH   2   4
ATOM      4  C   UNL     1      19.150  18.973   7.710  1.00  0.00     0.032 C 
BRANCH   4   5
ATOM      5  C   UNL     1      20.619  18.964   8.154  1.00  0.00     0.034 C 
BRANCH   5   6
ATOM      6  C   UNL     1      20.755  19.592   9.527  1.00  0.00    -0.077 C 
ATOM      7  C   UNL     1      21.163  18.711  10.681  1.00  0.00     0.039 C 
ATOM      8  C   UNL     1      20.606  20.919   9.759  1.00  0.00    -0.023 CG0
ATOM      9  G   UNL     1      20.186  21.949   8.737  1.00  0.00     0.000 G0
ENDBRANCH   5   6
ENDBRANCH   4   5
ENDBRANCH   2   4
BRANCH   1  10
ATOM     10  C   UNL     1      16.906  20.753   8.941  1.00  0.00     0.111 C 
BRANCH  10  11
ATOM     11  C   UNL     1      17.765  21.726   9.708  1.00  0.00     0.163 C 
ATOM     12  O   UNL     1      17.616  21.776  10.961  1.00  0.00    -0.294 OA
BRANCH  11  13
ATOM     13  C   UNL     1      18.811  22.578   9.052  1.00  0.00    -0.002 C 
ATOM     14  C   UNL     1      18.541  23.875   8.704  1.00  0.00    -0.069 C 
ATOM     15  C   UNL     1      17.242  24.549   9.094  1.00  0.00     0.039 C 
ATOM     16  C   UNL     1      19.544  24.725   7.956  1.00  0.00     0.039 C 
BRANCH  13  17
ATOM     17  C   UNL     1      20.168  21.955   8.727  1.00  0.00     0.066 CG0
ATOM     18  G   UNL     1      20.587  20.933   9.759  1.00  0.00     0.000 G0
ENDBRANCH  13  17
ENDBRANCH  11  13
ENDBRANCH  10  11
ENDBRANCH   1  10
TORSDOF 0
ENDMDL
MODEL 2
REMARK VINA RESULT:    -4.327      6.100      8.207
REMARK INTER + INTRA:          -5.611
REMARK INTER:                  -5.774
REMARK INTRA:                   0.163
REMARK UNBOUND:                 0.486
REMARK SMILES CC1=CCC(=C(C)C)C(=O)CC(C)=CCC1
REMARK SMILES IDX 12 1 14 2 13 3 15 4 16 5 2 6 1 7 3 8 11 10 9 11 10 12 5 13
REMARK SMILES IDX 6 14 7 15 8 16 4 17
REMARK H PARENT
REMARK Flexibility Score: 60.00
ROOT
ATOM      1  C   UNL     1      17.432  11.786  12.484  1.00  0.00    -0.070 C 
ATOM      2  C   UNL     1      16.994  12.013  13.750  1.00  0.00    -0.027 C 
ATOM      3  C   UNL     1      17.614  10.348  12.063  1.00  0.00     0.039 C 
ENDROOT
BRANCH   2   4
ATOM      4  C   UNL     1      16.840  13.361  14.411  1.00  0.00     0.032 C 
BRANCH   4   5
ATOM      5  C   UNL     1      18.179  14.017  14.771  1.00  0.00     0.034 C 
BRANCH   5   6
ATOM      6  C   UNL     1      18.217  15.445  14.263  1.00  0.00    -0.077 C 
ATOM      7  C   UNL     1      17.249  16.441  14.852  1.00  0.00     0.039 C 
ATOM      8  C   UNL     1      19.125  15.894  13.364  1.00  0.00    -0.023 CG0
ATOM      9  G   UNL     1      20.157  15.047  12.656  1.00  0.00     0.000 G0
ENDBRANCH   5   6
ENDBRANCH   4   5
ENDBRANCH   2   4
BRANCH   1  10
ATOM     10  C   UNL     1      17.671  12.879  11.446  1.00  0.00     0.111 C 
BRANCH  10  11
ATOM     11  C   UNL     1      19.128  13.179  11.196  1.00  0.00     0.163 C 
ATOM     12  O   UNL     1      19.870  12.221  10.842  1.00  0.00    -0.294 OA
BRANCH  11  13
ATOM     13  C   UNL     1      19.700  14.562  11.295  1.00  0.00    -0.002 C 
ATOM     14  C   UNL     1      19.842  15.343  10.178  1.00  0.00    -0.069 C 
ATOM     15  C   UNL     1      19.300  14.913   8.832  1.00  0.00     0.039 C 
ATOM     16  C   UNL     1      20.505  16.702  10.237  1.00  0.00     0.039 C 
BRANCH  13  17
ATOM     17  C   UNL     1      20.174  15.065  12.658  1.00  0.00     0.066 CG0
ATOM     18  G   UNL     1      19.114  15.877  13.365  1.00  0.00     0.000 G0
ENDBRANCH  13  17
ENDBRANCH  11  13
ENDBRANCH  10  11
ENDBRANCH   1  10
TORSDOF 0
ENDMDL
MODEL 3
REMARK VINA RESULT:    -4.041      3.252      5.797
REMARK INTER + INTRA:          -5.208
REMARK INTER:                  -5.479
REMARK INTRA:                   0.271
REMARK UNBOUND:                 0.486
REMARK SMILES CC1=CCC(=C(C)C)C(=O)CC(C)=CCC1
REMARK SMILES IDX 12 1 14 2 13 3 15 4 16 5 2 6 1 7 3 8 11 10 9 11 10 12 5 13
REMARK SMILES IDX 6 14 7 15 8 16 4 17
REMARK H PARENT
REMARK Flexibility Score: 60.00
ROOT
ATOM      1  C   UNL     1      16.854  17.038  10.303  1.00  0.00    -0.070 C 
ATOM      2  C   UNL     1      16.833  18.395  10.240  1.00  0.00    -0.027 C 
ATOM      3  C   UNL     1      16.168  16.391  11.481  1.00  0.00     0.039 C 
ENDROOT
BRANCH   2   4
ATOM      4  C   UNL     1      17.537  19.249   9.213  1.00  0.00     0.032 C 
BRANCH   4   5
ATOM      5  C   UNL     1      18.881  19.803   9.704  1.00  0.00     0.034 C 
BRANCH   5   6
ATOM      6  C   UNL     1      20.025  19.009   9.105  1.00  0.00    -0.077 C 
ATOM      7  C   UNL     1      20.600  19.463   7.787  1.00  0.00     0.039 C 
ATOM      8  C   UNL     1      20.612  17.958   9.728  1.00  0.00    -0.023 CG0
ATOM      9  G   UNL     1      20.167  17.352  11.039  1.00  0.00     0.000 G0
ENDBRANCH   5   6
ENDBRANCH   4   5
ENDBRANCH   2   4
BRANCH   1  10
ATOM     10  C   UNL     1      17.449  16.133   9.228  1.00  0.00     0.111 C 
BRANCH  10  11
ATOM     11  C   UNL     1      18.850  15.665   9.528  1.00  0.00     0.163 C 
ATOM     12  O   UNL     1      19.469  15.047   8.616  1.00  0.00    -0.294 OA
BRANCH  11  13
ATOM     13  C   UNL     1      19.542  15.954  10.827  1.00  0.00    -0.002 C 
ATOM     14  C   UNL     1      19.572  15.018  11.828  1.00  0.00    -0.069 C 
ATOM     15  C   UNL     1      19.046  13.614  11.620  1.00  0.00     0.039 C 
ATOM     16  C   UNL     1      20.178  15.319  13.181  1.00  0.00     0.039 C 
BRANCH  13  17
ATOM     17  C   UNL     1      20.166  17.333  11.037  1.00  0.00     0.066 CG0
ATOM     18  G   UNL     1      20.633  17.949   9.739  1.00  0.00     0.000 G0
ENDBRANCH  13  17
ENDBRANCH  11  13
ENDBRANCH  10  11
ENDBRANCH   1  10
TORSDOF 0
ENDMDL
MODEL 4
REMARK VINA RESULT:    -3.996      2.142      4.158
REMARK INTER + INTRA:          -5.145
REMARK INTER:                  -5.284
REMARK INTRA:                   0.139
REMARK UNBOUND:                 0.486
REMARK SMILES CC1=CCC(=C(C)C)C(=O)CC(C)=CCC1
REMARK SMILES IDX 12 1 14 2 13 3 15 4 16 5 2 6 1 7 3 8 11 10 9 11 10 12 5 13
REMARK SMILES IDX 6 14 7 15 8 16 4 17
REMARK H PARENT
REMARK Flexibility Score: 60.00
ROOT
ATOM      1  C   UNL     1      19.813  21.271   8.804  1.00  0.00    -0.070 C 
ATOM      2  C   UNL     1      20.789  20.383   8.482  1.00  0.00    -0.027 C 
ATOM      3  C   UNL     1      20.217  22.717   8.958  1.00  0.00     0.039 C 
ENDROOT
BRANCH   2   4
ATOM      4  C   UNL     1      20.632  18.885   8.378  1.00  0.00     0.032 C 
BRANCH   4   5
ATOM      5  C   UNL     1      20.539  18.189   9.743  1.00  0.00     0.034 C 
BRANCH   5   6
ATOM      6  C   UNL     1      19.339  17.263   9.778  1.00  0.00    -0.077 C 
ATOM      7  C   UNL     1      19.351  16.041   8.895  1.00  0.00     0.039 C 
ATOM      8  C   UNL     1      18.290  17.432  10.619  1.00  0.00    -0.023 CG0
ATOM      9  G   UNL     1      18.095  18.598  11.560  1.00  0.00     0.000 G0
ENDBRANCH   5   6
ENDBRANCH   4   5
ENDBRANCH   2   4
BRANCH   1  10
ATOM     10  C   UNL     1      18.334  20.916   8.938  1.00  0.00     0.111 C 
BRANCH  10  11
ATOM     11  C   UNL     1      17.835  20.896  10.360  1.00  0.00     0.163 C 
ATOM     12  O   UNL     1      17.933  21.962  11.030  1.00  0.00    -0.294 OA
BRANCH  11  13
ATOM     13  C   UNL     1      17.186  19.692  10.976  1.00  0.00    -0.002 C 
ATOM     14  C   UNL     1      15.821  19.591  11.045  1.00  0.00    -0.069 C 
ATOM     15  C   UNL     1      14.913  20.605  10.382  1.00  0.00     0.039 C 
ATOM     16  C   UNL     1      15.143  18.434  11.746  1.00  0.00     0.039 C 
BRANCH  13  17
ATOM     17  C   UNL     1      18.075  18.603  11.574  1.00  0.00     0.066 CG0
ATOM     18  G   UNL     1      18.292  17.455  10.616  1.00  0.00     0.000 G0
ENDBRANCH  13  17
ENDBRANCH  11  13
ENDBRANCH  10  11
ENDBRANCH   1  10
TORSDOF 0
ENDMDL
MODEL 5
REMARK VINA RESULT:    -3.917      2.394      5.545
REMARK INTER + INTRA:          -5.034
REMARK INTER:                  -5.172
REMARK INTRA:                   0.138
REMARK UNBOUND:                 0.486
REMARK SMILES CC1=CCC(=C(C)C)C(=O)CC(C)=CCC1
REMARK SMILES IDX 12 1 14 2 13 3 15 4 16 5 2 6 1 7 3 8 11 10 9 11 10 12 5 13
REMARK SMILES IDX 6 14 7 15 8 16 4 17
REMARK H PARENT
REMARK Flexibility Score: 60.00
ROOT
ATOM      1  C   UNL     1      19.650  21.395   9.051  1.00  0.00    -0.070 C 
ATOM      2  C   UNL     1      18.810  22.343   9.542  1.00  0.00    -0.027 C 
ATOM      3  C   UNL     1      21.100  21.778   8.882  1.00  0.00     0.039 C 
ENDROOT
BRANCH   2   4
ATOM      4  C   UNL     1      17.313  22.213   9.697  1.00  0.00     0.032 C 
BRANCH   4   5
ATOM      5  C   UNL     1      16.900  21.406  10.935  1.00  0.00     0.034 C 
BRANCH   5   6
ATOM      6  C   UNL     1      15.897  20.336  10.551  1.00  0.00    -0.077 C 
ATOM      7  C   UNL     1      14.600  20.766   9.914  1.00  0.00     0.039 C 
ATOM      8  C   UNL     1      16.135  19.008  10.678  1.00  0.00    -0.023 CG0
ATOM      9  G   UNL     1      17.364  18.391  11.304  1.00  0.00     0.000 G0
ENDBRANCH   5   6
ENDBRANCH   4   5
ENDBRANCH   2   4
BRANCH   1  10
ATOM     10  C   UNL     1      19.241  19.958   8.740  1.00  0.00     0.111 C 
BRANCH  10  11
ATOM     11  C   UNL     1      19.442  19.002   9.888  1.00  0.00     0.163 C 
ATOM     12  O   UNL     1      20.505  19.110  10.560  1.00  0.00    -0.294 OA
BRANCH  11  13
ATOM     13  C   UNL     1      18.414  17.984  10.286  1.00  0.00    -0.002 C 
ATOM     14  C   UNL     1      18.398  16.742   9.708  1.00  0.00    -0.069 C 
ATOM     15  C   UNL     1      19.489  16.290   8.761  1.00  0.00     0.039 C 
ATOM     16  C   UNL     1      17.315  15.732  10.021  1.00  0.00     0.039 C 
BRANCH  13  17
ATOM     17  C   UNL     1      17.351  18.376  11.311  1.00  0.00     0.066 CG0
ATOM     18  G   UNL     1      16.137  19.000  10.661  1.00  0.00     0.000 G0
ENDBRANCH  13  17
ENDBRANCH  11  13
ENDBRANCH  10  11
ENDBRANCH   1  10
TORSDOF 0
ENDMDL
MODEL 6
REMARK VINA RESULT:    -3.885      1.703      3.137
REMARK INTER + INTRA:          -4.989
REMARK INTER:                  -5.614
REMARK INTRA:                   0.625
REMARK UNBOUND:                 0.486
REMARK SMILES CC1=CCC(=C(C)C)C(=O)CC(C)=CCC1
REMARK SMILES IDX 12 1 14 2 13 3 15 4 16 5 2 6 1 7 3 8 11 10 9 11 10 12 5 13
REMARK SMILES IDX 6 14 7 15 8 16 4 17
REMARK H PARENT
REMARK Flexibility Score: 60.00
ROOT
ATOM      1  C   UNL     1      19.253  18.760   8.695  1.00  0.00    -0.070 C 
ATOM      2  C   UNL     1      17.902  18.652   8.602  1.00  0.00    -0.027 C 
ATOM      3  C   UNL     1      19.998  17.603   9.315  1.00  0.00     0.039 C 
ENDROOT
BRANCH   2   4
ATOM      4  C   UNL     1      16.954  19.721   8.113  1.00  0.00     0.032 C 
BRANCH   4   5
ATOM      5  C   UNL     1      16.008  20.237   9.205  1.00  0.00     0.034 C 
BRANCH   5   6
ATOM      6  C   UNL     1      16.788  20.562  10.464  1.00  0.00    -0.077 C 
ATOM      7  C   UNL     1      16.558  19.713  11.688  1.00  0.00     0.039 C 
ATOM      8  C   UNL     1      17.738  21.526  10.526  1.00  0.00    -0.023 CG0
ATOM      9  G   UNL     1      18.094  22.483   9.412  1.00  0.00     0.000 G0
ENDBRANCH   5   6
ENDBRANCH   4   5
ENDBRANCH   2   4
BRANCH   1  10
ATOM     10  C   UNL     1      20.065  19.929   8.144  1.00  0.00     0.111 C 
BRANCH  10  11
ATOM     11  C   UNL     1      20.247  21.063   9.121  1.00  0.00     0.163 C 
ATOM     12  O   UNL     1      21.061  20.893  10.071  1.00  0.00    -0.294 OA
BRANCH  11  13
ATOM     13  C   UNL     1      19.549  22.383   8.972  1.00  0.00    -0.002 C 
ATOM     14  C   UNL     1      20.216  23.477   8.484  1.00  0.00    -0.069 C 
ATOM     15  C   UNL     1      21.625  23.373   7.942  1.00  0.00     0.039 C 
ATOM     16  C   UNL     1      19.564  24.840   8.414  1.00  0.00     0.039 C 
BRANCH  13  17
ATOM     17  C   UNL     1      18.094  22.501   9.424  1.00  0.00     0.066 CG0
ATOM     18  G   UNL     1      17.757  21.514  10.518  1.00  0.00     0.000 G0
ENDBRANCH  13  17
ENDBRANCH  11  13
ENDBRANCH  10  11
ENDBRANCH   1  10
TORSDOF 0
ENDMDL
MODEL 7
REMARK VINA RESULT:    -3.875      3.197      5.733
REMARK INTER + INTRA:          -4.975
REMARK INTER:                  -5.155
REMARK INTRA:                   0.180
REMARK UNBOUND:                 0.486
REMARK SMILES CC1=CCC(=C(C)C)C(=O)CC(C)=CCC1
REMARK SMILES IDX 12 1 14 2 13 3 15 4 16 5 2 6 1 7 3 8 11 10 9 11 10 12 5 13
REMARK SMILES IDX 6 14 7 15 8 16 4 17
REMARK H PARENT
REMARK Flexibility Score: 60.00
ROOT
ATOM      1  C   UNL     1      16.798  19.121  11.900  1.00  0.00    -0.070 C 
ATOM      2  C   UNL     1      16.847  19.854  10.757  1.00  0.00    -0.027 C 
ATOM      3  C   UNL     1      15.524  19.185  12.707  1.00  0.00     0.039 C 
ENDROOT
BRANCH   2   4
ATOM      4  C   UNL     1      18.047  20.019   9.856  1.00  0.00     0.032 C 
BRANCH   4   5
ATOM      5  C   UNL     1      18.110  18.974   8.733  1.00  0.00     0.034 C 
BRANCH   5   6
ATOM      6  C   UNL     1      19.498  18.369   8.658  1.00  0.00    -0.077 C 
ATOM      7  C   UNL     1      20.624  19.224   8.132  1.00  0.00     0.039 C 
ATOM      8  C   UNL     1      19.797  17.128   9.109  1.00  0.00    -0.023 CG0
ATOM      9  G   UNL     1      18.805  16.126   9.652  1.00  0.00     0.000 G0
ENDBRANCH   5   6
ENDBRANCH   4   5
ENDBRANCH   2   4
BRANCH   1  10
ATOM     10  C   UNL     1      17.906  18.184  12.372  1.00  0.00     0.111 C 
BRANCH  10  11
ATOM     11  C   UNL     1      17.732  16.755  11.924  1.00  0.00     0.163 C 
ATOM     12  O   UNL     1      16.629  16.194  12.173  1.00  0.00    -0.294 OA
BRANCH  11  13
ATOM     13  C   UNL     1      18.785  16.012  11.157  1.00  0.00    -0.002 C 
ATOM     14  C   UNL     1      19.751  15.291  11.810  1.00  0.00    -0.069 C 
ATOM     15  C   UNL     1      19.716  15.091  13.310  1.00  0.00     0.039 C 
ATOM     16  C   UNL     1      20.879  14.613  11.063  1.00  0.00     0.039 C 
BRANCH  13  17
ATOM     17  C   UNL     1      18.795  16.117   9.632  1.00  0.00     0.066 CG0
ATOM     18  G   UNL     1      19.803  17.128   9.138  1.00  0.00     0.000 G0
ENDBRANCH  13  17
ENDBRANCH  11  13
ENDBRANCH  10  11
ENDBRANCH   1  10
TORSDOF 0
ENDMDL
MODEL 8
REMARK VINA RESULT:    -3.796      5.396      8.176
REMARK INTER + INTRA:          -4.863
REMARK INTER:                  -4.983
REMARK INTRA:                   0.120
REMARK UNBOUND:                 0.486
REMARK SMILES CC1=CCC(=C(C)C)C(=O)CC(C)=CCC1
REMARK SMILES IDX 12 1 14 2 13 3 15 4 16 5 2 6 1 7 3 8 11 10 9 11 10 12 5 13
REMARK SMILES IDX 6 14 7 15 8 16 4 17
REMARK H PARENT
REMARK Flexibility Score: 60.00
ROOT
ATOM      1  C   UNL     1      17.061  19.553  16.051  1.00  0.00    -0.070 C 
ATOM      2  C   UNL     1      16.466  20.494  15.272  1.00  0.00    -0.027 C 
ATOM      3  C   UNL     1      17.177  19.851  17.526  1.00  0.00     0.039 C 
ENDROOT
BRANCH   2   4
ATOM      4  C   UNL     1      16.334  20.452  13.768  1.00  0.00     0.032 C 
BRANCH   4   5
ATOM      5  C   UNL     1      15.128  19.634  13.288  1.00  0.00     0.034 C 
BRANCH   5   6
ATOM      6  C   UNL     1      15.548  18.676  12.190  1.00  0.00    -0.077 C 
ATOM      7  C   UNL     1      16.058  19.252  10.894  1.00  0.00     0.039 C 
ATOM      8  C   UNL     1      15.564  17.330  12.339  1.00  0.00    -0.023 CG0
ATOM      9  G   UNL     1      15.078  16.573  13.554  1.00  0.00     0.000 G0
ENDBRANCH   5   6
ENDBRANCH   4   5
ENDBRANCH   2   4
BRANCH   1  10
ATOM     10  C   UNL     1      17.540  18.194  15.548  1.00  0.00     0.111 C 
BRANCH  10  11
ATOM     11  C   UNL     1      16.504  17.103  15.648  1.00  0.00     0.163 C 
ATOM     12  O   UNL     1      15.853  17.011  16.726  1.00  0.00    -0.294 OA
BRANCH  11  13
ATOM     13  C   UNL     1      16.186  16.179  14.510  1.00  0.00    -0.002 C 
ATOM     14  C   UNL     1      16.917  15.037  14.309  1.00  0.00    -0.069 C 
ATOM     15  C   UNL     1      17.969  14.583  15.298  1.00  0.00     0.039 C 
ATOM     16  C   UNL     1      16.679  14.140  13.115  1.00  0.00     0.039 C 
BRANCH  13  17
ATOM     17  C   UNL     1      15.066  16.562  13.544  1.00  0.00     0.066 CG0
ATOM     18  G   UNL     1      15.581  17.335  12.352  1.00  0.00     0.000 G0
ENDBRANCH  13  17
ENDBRANCH  11  13
ENDBRANCH  10  11
ENDBRANCH   1  10
TORSDOF 0
ENDMDL
MODEL 9
REMARK VINA RESULT:    -3.659      4.678      6.481
REMARK INTER + INTRA:          -4.670
REMARK INTER:                  -4.870
REMARK INTRA:                   0.199
REMARK UNBOUND:                 0.486
REMARK SMILES CC1=CCC(=C(C)C)C(=O)CC(C)=CCC1
REMARK SMILES IDX 12 1 14 2 13 3 15 4 16 5 2 6 1 7 3 8 11 10 9 11 10 12 5 13
REMARK SMILES IDX 6 14 7 15 8 16 4 17
REMARK H PARENT
REMARK Flexibility Score: 60.00
ROOT
ATOM      1  C   UNL     1      17.999  15.905  14.399  1.00  0.00    -0.070 C 
ATOM      2  C   UNL     1      17.441  16.100  15.622  1.00  0.00    -0.027 C 
ATOM      3  C   UNL     1      18.187  14.478  13.945  1.00  0.00     0.039 C 
ENDROOT
BRANCH   2   4
ATOM      4  C   UNL     1      17.254  17.428  16.314  1.00  0.00     0.032 C 
BRANCH   4   5
ATOM      5  C   UNL     1      16.100  18.257  15.734  1.00  0.00     0.034 C 
BRANCH   5   6
ATOM      6  C   UNL     1      16.583  19.649  15.376  1.00  0.00    -0.077 C 
ATOM      7  C   UNL     1      17.234  20.480  16.453  1.00  0.00     0.039 C 
ATOM      8  C   UNL     1      16.533  20.157  14.121  1.00  0.00    -0.023 CG0
ATOM      9  G   UNL     1      15.907  19.482  12.923  1.00  0.00     0.000 G0
ENDBRANCH   5   6
ENDBRANCH   4   5
ENDBRANCH   2   4
BRANCH   1  10
ATOM     10  C   UNL     1      18.370  17.026  13.432  1.00  0.00     0.111 C 
BRANCH  10  11
ATOM     11  C   UNL     1      17.295  17.348  12.426  1.00  0.00     0.163 C 
ATOM     12  O   UNL     1      16.656  16.383  11.922  1.00  0.00    -0.294 OA
BRANCH  11  13
ATOM     13  C   UNL     1      16.925  18.755  12.055  1.00  0.00    -0.002 C 
ATOM     14  C   UNL     1      17.529  19.382  10.997  1.00  0.00    -0.069 C 
ATOM     15  C   UNL     1      18.476  18.647  10.072  1.00  0.00     0.039 C 
ATOM     16  C   UNL     1      17.245  20.830  10.662  1.00  0.00     0.039 C 
BRANCH  13  17
ATOM     17  C   UNL     1      15.902  19.496  12.914  1.00  0.00     0.066 CG0
ATOM     18  G   UNL     1      16.536  20.143  14.124  1.00  0.00     0.000 G0
ENDBRANCH  13  17
ENDBRANCH  11  13
ENDBRANCH  10  11
ENDBRANCH   1  10
TORSDOF 0
ENDMDL
