MODEL 1
REMARK VINA RESULT:    -4.767      0.000      0.000
REMARK INTER + INTRA:          -6.484
REMARK INTER:                  -6.299
REMARK INTRA:                  -0.185
REMARK UNBOUND:                -0.185
REMARK SMILES CCCCC=CC=CCO
REMARK SMILES IDX 5 1 6 2 4 3 3 4 2 5 1 6 7 7 8 8 9 9 10 10
REMARK H PARENT 10 11
REMARK Flexibility Score: inf
ROOT
ATOM      1  C   UNL     1      11.532  22.564  20.734  1.00  0.00    -0.027 C 
ATOM      2  C   UNL     1      12.111  23.013  21.851  1.00  0.00    -0.005 C 
ENDROOT
BRANCH   1   3
ATOM      3  C   UNL     1      10.052  22.686  20.510  1.00  0.00     0.027 C 
BRANCH   3   4
ATOM      4  C   UNL     1       9.716  22.686  19.011  1.00  0.00     0.004 C 
BRANCH   4   5
ATOM      5  C   UNL     1       8.577  23.656  18.662  1.00  0.00    -0.003 C 
ATOM      6  C   UNL     1       9.005  24.739  17.673  1.00  0.00     0.004 C 
ENDBRANCH   4   5
ENDBRANCH   3   4
ENDBRANCH   1   3
BRANCH   2   7
ATOM      7  C   UNL     1      13.565  22.900  22.051  1.00  0.00    -0.002 C 
ATOM      8  C   UNL     1      14.408  22.965  21.019  1.00  0.00     0.001 C 
BRANCH   8   9
ATOM      9  C   UNL     1      15.887  22.843  21.216  1.00  0.00     0.183 C 
BRANCH   9  10
ATOM     10  O   UNL     1      16.502  22.538  19.996  1.00  0.00    -0.392 OA
ATOM     11  H   UNL     1      16.230  23.254  19.364  1.00  0.00     0.210 HD
ENDBRANCH   9  10
ENDBRANCH   8   9
ENDBRANCH   2   7
TORSDOF 6
ENDMDL
MODEL 2
REMARK VINA RESULT:    -4.759      1.609      2.264
REMARK INTER + INTRA:          -6.475
REMARK INTER:                  -6.158
REMARK INTRA:                  -0.317
REMARK UNBOUND:                -0.185
REMARK SMILES CCCCC=CC=CCO
REMARK SMILES IDX 5 1 6 2 4 3 3 4 2 5 1 6 7 7 8 8 9 9 10 10
REMARK H PARENT 10 11
REMARK Flexibility Score: inf
ROOT
ATOM      1  C   UNL     1      11.574  22.753  20.914  1.00  0.00    -0.027 C 
ATOM      2  C   UNL     1      12.175  22.873  22.101  1.00  0.00    -0.005 C 
ENDROOT
BRANCH   1   3
ATOM      3  C   UNL     1      10.079  22.758  20.783  1.00  0.00     0.027 C 
BRANCH   3   4
ATOM      4  C   UNL     1       9.443  21.658  21.648  1.00  0.00     0.004 C 
BRANCH   4   5
ATOM      5  C   UNL     1       9.656  20.254  21.063  1.00  0.00    -0.003 C 
ATOM      6  C   UNL     1       9.388  20.191  19.560  1.00  0.00     0.004 C 
ENDBRANCH   4   5
ENDBRANCH   3   4
ENDBRANCH   1   3
BRANCH   2   7
ATOM      7  C   UNL     1      13.642  22.881  22.212  1.00  0.00    -0.002 C 
ATOM      8  C   UNL     1      14.415  22.885  21.124  1.00  0.00     0.001 C 
BRANCH   8   9
ATOM      9  C   UNL     1      15.908  22.885  21.232  1.00  0.00     0.183 C 
BRANCH   9  10
ATOM     10  O   UNL     1      16.470  22.506  20.007  1.00  0.00    -0.392 OA
ATOM     11  H   UNL     1      17.177  21.845  20.222  1.00  0.00     0.210 HD
ENDBRANCH   9  10
ENDBRANCH   8   9
ENDBRANCH   2   7
TORSDOF 6
ENDMDL
MODEL 3
REMARK VINA RESULT:    -4.628      4.517      6.715
REMARK INTER + INTRA:          -6.301
REMARK INTER:                  -6.060
REMARK INTRA:                  -0.242
REMARK UNBOUND:                -0.185
REMARK SMILES CCCCC=CC=CCO
REMARK SMILES IDX 5 1 6 2 4 3 3 4 2 5 1 6 7 7 8 8 9 9 10 10
REMARK H PARENT 10 11
REMARK Flexibility Score: inf
ROOT
ATOM      1  C   UNL     1      13.463  22.399  25.355  1.00  0.00    -0.027 C 
ATOM      2  C   UNL     1      14.186  21.806  24.402  1.00  0.00    -0.005 C 
ENDROOT
BRANCH   1   3
ATOM      3  C   UNL     1      13.251  21.759  26.697  1.00  0.00     0.027 C 
BRANCH   3   4
ATOM      4  C   UNL     1      13.946  22.558  27.809  1.00  0.00     0.004 C 
BRANCH   4   5
ATOM      5  C   UNL     1      14.416  23.942  27.334  1.00  0.00    -0.003 C 
ATOM      6  C   UNL     1      15.215  24.693  28.399  1.00  0.00     0.004 C 
ENDBRANCH   4   5
ENDBRANCH   3   4
ENDBRANCH   1   3
BRANCH   2   7
ATOM      7  C   UNL     1      14.398  22.451  23.097  1.00  0.00    -0.002 C 
ATOM      8  C   UNL     1      15.481  22.185  22.365  1.00  0.00     0.001 C 
BRANCH   8   9
ATOM      9  C   UNL     1      15.705  22.844  21.041  1.00  0.00     0.183 C 
BRANCH   9  10
ATOM     10  O   UNL     1      16.648  22.117  20.304  1.00  0.00    -0.392 OA
ATOM     11  H   UNL     1      17.442  22.021  20.892  1.00  0.00     0.210 HD
ENDBRANCH   9  10
ENDBRANCH   8   9
ENDBRANCH   2   7
TORSDOF 6
ENDMDL
MODEL 4
REMARK VINA RESULT:    -4.621      3.805      5.235
REMARK INTER + INTRA:          -6.291
REMARK INTER:                  -5.969
REMARK INTRA:                  -0.322
REMARK UNBOUND:                -0.185
REMARK SMILES CCCCC=CC=CCO
REMARK SMILES IDX 5 1 6 2 4 3 3 4 2 5 1 6 7 7 8 8 9 9 10 10
REMARK H PARENT 10 11
REMARK Flexibility Score: inf
ROOT
ATOM      1  C   UNL     1      14.216  22.856  23.256  1.00  0.00    -0.027 C 
ATOM      2  C   UNL     1      14.522  21.847  24.076  1.00  0.00    -0.005 C 
ENDROOT
BRANCH   1   3
ATOM      3  C   UNL     1      14.752  22.924  21.856  1.00  0.00     0.027 C 
BRANCH   3   4
ATOM      4  C   UNL     1      13.623  23.162  20.841  1.00  0.00     0.004 C 
BRANCH   4   5
ATOM      5  C   UNL     1      12.230  22.918  21.441  1.00  0.00    -0.003 C 
ATOM      6  C   UNL     1      11.192  22.529  20.389  1.00  0.00     0.004 C 
ENDBRANCH   4   5
ENDBRANCH   3   4
ENDBRANCH   1   3
BRANCH   2   7
ATOM      7  C   UNL     1      13.978  21.786  25.442  1.00  0.00    -0.002 C 
ATOM      8  C   UNL     1      12.665  21.875  25.665  1.00  0.00     0.001 C 
BRANCH   8   9
ATOM      9  C   UNL     1      12.108  21.822  27.052  1.00  0.00     0.183 C 
BRANCH   9  10
ATOM     10  O   UNL     1      12.467  20.612  27.659  1.00  0.00    -0.392 OA
ATOM     11  H   UNL     1      13.016  20.123  26.993  1.00  0.00     0.210 HD
ENDBRANCH   9  10
ENDBRANCH   8   9
ENDBRANCH   2   7
TORSDOF 6
ENDMDL
MODEL 5
REMARK VINA RESULT:    -4.559      4.087      6.244
REMARK INTER + INTRA:          -6.210
REMARK INTER:                  -5.992
REMARK INTRA:                  -0.218
REMARK UNBOUND:                -0.185
REMARK SMILES CCCCC=CC=CCO
REMARK SMILES IDX 5 1 6 2 4 3 3 4 2 5 1 6 7 7 8 8 9 9 10 10
REMARK H PARENT 10 11
REMARK Flexibility Score: inf
ROOT
ATOM      1  C   UNL     1      11.959  22.892  22.192  1.00  0.00    -0.027 C 
ATOM      2  C   UNL     1      11.350  21.790  22.637  1.00  0.00    -0.005 C 
ENDROOT
BRANCH   1   3
ATOM      3  C   UNL     1      13.414  23.149  22.458  1.00  0.00     0.027 C 
BRANCH   3   4
ATOM      4  C   UNL     1      14.200  23.296  21.146  1.00  0.00     0.004 C 
BRANCH   4   5
ATOM      5  C   UNL     1      15.668  22.865  21.288  1.00  0.00    -0.003 C 
ATOM      6  C   UNL     1      15.871  21.799  22.363  1.00  0.00     0.004 C 
ENDBRANCH   4   5
ENDBRANCH   3   4
ENDBRANCH   1   3
BRANCH   2   7
ATOM      7  C   UNL     1       9.926  21.544  22.356  1.00  0.00    -0.002 C 
ATOM      8  C   UNL     1       9.538  20.487  21.639  1.00  0.00     0.001 C 
BRANCH   8   9
ATOM      9  C   UNL     1       8.093  20.237  21.344  1.00  0.00     0.183 C 
BRANCH   9  10
ATOM     10  O   UNL     1       7.424  19.885  22.523  1.00  0.00    -0.392 OA
ATOM     11  H   UNL     1       6.699  20.553  22.637  1.00  0.00     0.210 HD
ENDBRANCH   9  10
ENDBRANCH   8   9
ENDBRANCH   2   7
TORSDOF 6
ENDMDL
MODEL 6
REMARK VINA RESULT:    -4.443      4.647      6.736
REMARK INTER + INTRA:          -6.057
REMARK INTER:                  -5.811
REMARK INTRA:                  -0.246
REMARK UNBOUND:                -0.185
REMARK SMILES CCCCC=CC=CCO
REMARK SMILES IDX 5 1 6 2 4 3 3 4 2 5 1 6 7 7 8 8 9 9 10 10
REMARK H PARENT 10 11
REMARK Flexibility Score: inf
ROOT
ATOM      1  C   UNL     1      14.021  22.836  25.796  1.00  0.00    -0.027 C 
ATOM      2  C   UNL     1      14.119  21.770  24.999  1.00  0.00    -0.005 C 
ENDROOT
BRANCH   1   3
ATOM      3  C   UNL     1      13.112  22.845  26.991  1.00  0.00     0.027 C 
BRANCH   3   4
ATOM      4  C   UNL     1      12.276  21.558  27.061  1.00  0.00     0.004 C 
BRANCH   4   5
ATOM      5  C   UNL     1      12.531  20.759  28.348  1.00  0.00    -0.003 C 
ATOM      6  C   UNL     1      11.363  19.847  28.721  1.00  0.00     0.004 C 
ENDBRANCH   4   5
ENDBRANCH   3   4
ENDBRANCH   1   3
BRANCH   2   7
ATOM      7  C   UNL     1      15.025  21.770  23.839  1.00  0.00    -0.002 C 
ATOM      8  C   UNL     1      14.748  22.489  22.749  1.00  0.00     0.001 C 
BRANCH   8   9
ATOM      9  C   UNL     1      15.661  22.487  21.564  1.00  0.00     0.183 C 
BRANCH   9  10
ATOM     10  O   UNL     1      14.940  22.821  20.411  1.00  0.00    -0.392 OA
ATOM     11  H   UNL     1      14.015  22.497  20.562  1.00  0.00     0.210 HD
ENDBRANCH   9  10
ENDBRANCH   8   9
ENDBRANCH   2   7
TORSDOF 6
ENDMDL
MODEL 7
REMARK VINA RESULT:    -4.431      3.421      6.312
REMARK INTER + INTRA:          -6.041
REMARK INTER:                  -5.756
REMARK INTRA:                  -0.285
REMARK UNBOUND:                -0.185
REMARK SMILES CCCCC=CC=CCO
REMARK SMILES IDX 5 1 6 2 4 3 3 4 2 5 1 6 7 7 8 8 9 9 10 10
REMARK H PARENT 10 11
REMARK Flexibility Score: inf
ROOT
ATOM      1  C   UNL     1      12.154  23.097  22.374  1.00  0.00    -0.027 C 
ATOM      2  C   UNL     1      12.003  22.768  21.088  1.00  0.00    -0.005 C 
ENDROOT
BRANCH   1   3
ATOM      3  C   UNL     1      13.489  23.500  22.931  1.00  0.00     0.027 C 
BRANCH   3   4
ATOM      4  C   UNL     1      14.612  22.607  22.384  1.00  0.00     0.004 C 
BRANCH   4   5
ATOM      5  C   UNL     1      15.181  21.657  23.449  1.00  0.00    -0.003 C 
ATOM      6  C   UNL     1      14.499  21.814  24.807  1.00  0.00     0.004 C 
ENDBRANCH   4   5
ENDBRANCH   3   4
ENDBRANCH   1   3
BRANCH   2   7
ATOM      7  C   UNL     1      10.686  22.387  20.552  1.00  0.00    -0.002 C 
ATOM      8  C   UNL     1       9.560  22.846  21.102  1.00  0.00     0.001 C 
BRANCH   8   9
ATOM      9  C   UNL     1       8.219  22.456  20.566  1.00  0.00     0.183 C 
BRANCH   9  10
ATOM     10  O   UNL     1       7.331  22.240  21.626  1.00  0.00    -0.392 OA
ATOM     11  H   UNL     1       7.852  22.392  22.457  1.00  0.00     0.210 HD
ENDBRANCH   9  10
ENDBRANCH   8   9
ENDBRANCH   2   7
TORSDOF 6
ENDMDL
MODEL 8
REMARK VINA RESULT:    -4.423      2.881      5.775
REMARK INTER + INTRA:          -6.030
REMARK INTER:                  -5.784
REMARK INTRA:                  -0.247
REMARK UNBOUND:                -0.185
REMARK SMILES CCCCC=CC=CCO
REMARK SMILES IDX 5 1 6 2 4 3 3 4 2 5 1 6 7 7 8 8 9 9 10 10
REMARK H PARENT 10 11
REMARK Flexibility Score: inf
ROOT
ATOM      1  C   UNL     1      11.578  22.748  21.093  1.00  0.00    -0.027 C 
ATOM      2  C   UNL     1      10.468  22.095  20.741  1.00  0.00    -0.005 C 
ENDROOT
BRANCH   1   3
ATOM      3  C   UNL     1      12.088  22.731  22.505  1.00  0.00     0.027 C 
BRANCH   3   4
ATOM      4  C   UNL     1      13.616  22.570  22.541  1.00  0.00     0.004 C 
BRANCH   4   5
ATOM      5  C   UNL     1      14.304  23.213  21.328  1.00  0.00    -0.003 C 
ATOM      6  C   UNL     1      15.806  22.934  21.283  1.00  0.00     0.004 C 
ENDBRANCH   4   5
ENDBRANCH   3   4
ENDBRANCH   1   3
BRANCH   2   7
ATOM      7  C   UNL     1       9.987  22.109  19.350  1.00  0.00    -0.002 C 
ATOM      8  C   UNL     1       9.464  23.214  18.813  1.00  0.00     0.001 C 
BRANCH   8   9
ATOM      9  C   UNL     1       8.967  23.231  17.402  1.00  0.00     0.183 C 
BRANCH   9  10
ATOM     10  O   UNL     1       8.415  24.485  17.111  1.00  0.00    -0.392 OA
ATOM     11  H   UNL     1       7.914  24.759  17.922  1.00  0.00     0.210 HD
ENDBRANCH   9  10
ENDBRANCH   8   9
ENDBRANCH   2   7
TORSDOF 6
ENDMDL
MODEL 9
REMARK VINA RESULT:    -4.408     12.059     13.156
REMARK INTER + INTRA:          -6.010
REMARK INTER:                  -5.732
REMARK INTRA:                  -0.278
REMARK UNBOUND:                -0.185
REMARK SMILES CCCCC=CC=CCO
REMARK SMILES IDX 5 1 6 2 4 3 3 4 2 5 1 6 7 7 8 8 9 9 10 10
REMARK H PARENT 10 11
REMARK Flexibility Score: inf
ROOT
ATOM      1  C   UNL     1       8.200  14.641  13.057  1.00  0.00    -0.027 C 
ATOM      2  C   UNL     1       7.900  14.711  11.757  1.00  0.00    -0.005 C 
ENDROOT
BRANCH   1   3
ATOM      3  C   UNL     1       7.132  14.642  14.112  1.00  0.00     0.027 C 
BRANCH   3   4
ATOM      4  C   UNL     1       5.837  15.285  13.590  1.00  0.00     0.004 C 
BRANCH   4   5
ATOM      5  C   UNL     1       4.699  14.266  13.426  1.00  0.00    -0.003 C 
ATOM      6  C   UNL     1       3.707  14.659  12.332  1.00  0.00     0.004 C 
ENDBRANCH   4   5
ENDBRANCH   3   4
ENDBRANCH   1   3
BRANCH   2   7
ATOM      7  C   UNL     1       8.957  14.694  10.733  1.00  0.00    -0.002 C 
ATOM      8  C   UNL     1       9.542  13.552  10.367  1.00  0.00     0.001 C 
BRANCH   8   9
ATOM      9  C   UNL     1      10.622  13.530   9.332  1.00  0.00     0.183 C 
BRANCH   9  10
ATOM     10  O   UNL     1      11.852  13.248   9.938  1.00  0.00    -0.392 OA
ATOM     11  H   UNL     1      12.176  14.107  10.315  1.00  0.00     0.210 HD
ENDBRANCH   9  10
ENDBRANCH   8   9
ENDBRANCH   2   7
TORSDOF 6
ENDMDL
