MODEL 1
REMARK VINA RESULT:    -4.367      0.000      0.000
REMARK INTER + INTRA:          -6.358
REMARK INTER:                  -5.388
REMARK INTRA:                  -0.970
REMARK UNBOUND:                -0.970
REMARK SMILES CC(C)=CCC[C@H](C)c1ccc(C)cc1
REMARK SMILES IDX 6 1 7 2 8 3 9 4 13 5 12 6 11 7 14 8 10 9 15 10 5 11 4 12
REMARK SMILES IDX 2 13 1 14 3 15
REMARK H PARENT
REMARK Flexibility Score: inf
ROOT
ATOM      1  C   UNL     1     113.049 109.421 112.862  1.00  0.00     0.012 C 
ENDROOT
BRANCH   1   2
ATOM      2  C   UNL     1     113.109 110.451 111.712  1.00  0.00     0.016 C 
ATOM      3  C   UNL     1     112.448 111.790 112.085  1.00  0.00     0.013 C 
BRANCH   2   4
ATOM      4  C   UNL     1     112.608 109.860 110.401  1.00  0.00    -0.045 A 
ATOM      5  C   UNL     1     110.955 108.269 106.737  1.00  0.00     0.044 C 
ATOM      6  C   UNL     1     111.549 108.798 108.009  1.00  0.00    -0.051 A 
ATOM      7  C   UNL     1     112.597 109.727 107.966  1.00  0.00     0.004 A 
ATOM      8  C   UNL     1     111.010 108.427 109.248  1.00  0.00     0.004 A 
ATOM      9  C   UNL     1     113.125 110.253 109.149  1.00  0.00     0.004 A 
ATOM     10  C   UNL     1     111.536 108.952 110.431  1.00  0.00     0.004 A 
ENDBRANCH   2   4
ENDBRANCH   1   2
BRANCH   1  11
ATOM     11  C   UNL     1     111.904 109.654 113.863  1.00  0.00     0.028 C 
BRANCH  11  12
ATOM     12  C   UNL     1     111.155 108.371 114.125  1.00  0.00    -0.028 C 
ATOM     13  C   UNL     1     109.874 108.151 113.753  1.00  0.00    -0.080 C 
ATOM     14  C   UNL     1     109.261 106.808 114.050  1.00  0.00     0.039 C 
ATOM     15  C   UNL     1     109.045 109.216 113.071  1.00  0.00     0.039 C 
ENDBRANCH  11  12
ENDBRANCH   1  11
TORSDOF 4
ENDMDL
MODEL 2
REMARK VINA RESULT:    -4.019      1.139      2.241
REMARK INTER + INTRA:          -5.928
REMARK INTER:                  -5.395
REMARK INTRA:                  -0.534
REMARK UNBOUND:                -0.970
REMARK SMILES CC(C)=CCC[C@H](C)c1ccc(C)cc1
REMARK SMILES IDX 6 1 7 2 8 3 9 4 13 5 12 6 11 7 14 8 10 9 15 10 5 11 4 12
REMARK SMILES IDX 2 13 1 14 3 15
REMARK H PARENT
REMARK Flexibility Score: inf
ROOT
ATOM      1  C   UNL     1     109.961 110.096 111.484  1.00  0.00     0.012 C 
ENDROOT
BRANCH   1   2
ATOM      2  C   UNL     1     111.460 109.798 111.256  1.00  0.00     0.016 C 
ATOM      3  C   UNL     1     112.374 110.669 112.134  1.00  0.00     0.013 C 
BRANCH   2   4
ATOM      4  C   UNL     1     111.819 109.825 109.776  1.00  0.00    -0.045 A 
ATOM      5  C   UNL     1     113.083 109.880 105.642  1.00  0.00     0.044 C 
ATOM      6  C   UNL     1     112.621 109.879 107.069  1.00  0.00    -0.051 A 
ATOM      7  C   UNL     1     111.743 108.887 107.526  1.00  0.00     0.004 A 
ATOM      8  C   UNL     1     113.121 110.824 107.975  1.00  0.00     0.004 A 
ATOM      9  C   UNL     1     111.344 108.858 108.865  1.00  0.00     0.004 A 
ATOM     10  C   UNL     1     112.722 110.797 109.313  1.00  0.00     0.004 A 
ENDBRANCH   2   4
ENDBRANCH   1   2
BRANCH   1  11
ATOM     11  C   UNL     1     109.472 109.821 112.917  1.00  0.00     0.028 C 
BRANCH  11  12
ATOM     12  C   UNL     1     109.233 108.345 113.124  1.00  0.00    -0.028 C 
ATOM     13  C   UNL     1     110.129 107.505 113.687  1.00  0.00    -0.080 C 
ATOM     14  C   UNL     1     109.744 106.059 113.864  1.00  0.00     0.039 C 
ATOM     15  C   UNL     1     111.500 107.970 114.122  1.00  0.00     0.039 C 
ENDBRANCH  11  12
ENDBRANCH   1  11
TORSDOF 4
ENDMDL
MODEL 3
REMARK VINA RESULT:    -3.734      1.462      4.938
REMARK INTER + INTRA:          -5.576
REMARK INTER:                  -4.669
REMARK INTRA:                  -0.908
REMARK UNBOUND:                -0.970
REMARK SMILES CC(C)=CCC[C@H](C)c1ccc(C)cc1
REMARK SMILES IDX 6 1 7 2 8 3 9 4 13 5 12 6 11 7 14 8 10 9 15 10 5 11 4 12
REMARK SMILES IDX 2 13 1 14 3 15
REMARK H PARENT
REMARK Flexibility Score: inf
ROOT
ATOM      1  C   UNL     1     111.708 109.714 108.034  1.00  0.00     0.012 C 
ENDROOT
BRANCH   1   2
ATOM      2  C   UNL     1     110.226 109.499 108.415  1.00  0.00     0.016 C 
ATOM      3  C   UNL     1     109.313 110.617 107.884  1.00  0.00     0.013 C 
BRANCH   2   4
ATOM      4  C   UNL     1     110.062 109.223 109.904  1.00  0.00    -0.045 A 
ATOM      5  C   UNL     1     109.354 108.511 114.108  1.00  0.00     0.044 C 
ATOM      6  C   UNL     1     109.629 108.766 112.656  1.00  0.00    -0.051 A 
ATOM      7  C   UNL     1     110.079 107.728 111.829  1.00  0.00     0.004 A 
ATOM      8  C   UNL     1     109.366 110.024 112.097  1.00  0.00     0.004 A 
ATOM      9  C   UNL     1     110.295 107.951 110.467  1.00  0.00     0.004 A 
ATOM     10  C   UNL     1     109.582 110.250 110.736  1.00  0.00     0.004 A 
ENDBRANCH   2   4
ENDBRANCH   1   2
BRANCH   1  11
ATOM     11  C   UNL     1     112.686 109.615 109.217  1.00  0.00     0.028 C 
BRANCH  11  12
ATOM     12  C   UNL     1     112.789 110.937 109.936  1.00  0.00    -0.028 C 
ATOM     13  C   UNL     1     113.010 111.064 111.263  1.00  0.00    -0.080 C 
ATOM     14  C   UNL     1     113.124 112.449 111.843  1.00  0.00     0.039 C 
ATOM     15  C   UNL     1     113.125 109.862 112.173  1.00  0.00     0.039 C 
ENDBRANCH  11  12
ENDBRANCH   1  11
TORSDOF 4
ENDMDL
MODEL 4
REMARK VINA RESULT:    -2.946      1.463      2.919
REMARK INTER + INTRA:          -4.605
REMARK INTER:                  -4.805
REMARK INTRA:                   0.200
REMARK UNBOUND:                -0.970
REMARK SMILES CC(C)=CCC[C@H](C)c1ccc(C)cc1
REMARK SMILES IDX 6 1 7 2 8 3 9 4 13 5 12 6 11 7 14 8 10 9 15 10 5 11 4 12
REMARK SMILES IDX 2 13 1 14 3 15
REMARK H PARENT
REMARK Flexibility Score: inf
ROOT
ATOM      1  C   UNL     1     109.853 110.417 111.788  1.00  0.00     0.012 C 
ENDROOT
BRANCH   1   2
ATOM      2  C   UNL     1     109.578 109.290 110.767  1.00  0.00     0.016 C 
ATOM      3  C   UNL     1     109.536 107.899 111.422  1.00  0.00     0.013 C 
BRANCH   2   4
ATOM      4  C   UNL     1     110.512 109.380 109.567  1.00  0.00    -0.045 A 
ATOM      5  C   UNL     1     113.099 109.880 106.141  1.00  0.00     0.044 C 
ATOM      6  C   UNL     1     112.196 109.678 107.321  1.00  0.00    -0.051 A 
ATOM      7  C   UNL     1     112.719 109.231 108.542  1.00  0.00     0.004 A 
ATOM      8  C   UNL     1     110.837 110.006 107.234  1.00  0.00     0.004 A 
ATOM      9  C   UNL     1     111.887 109.081 109.655  1.00  0.00     0.004 A 
ATOM     10  C   UNL     1     110.004 109.857 108.346  1.00  0.00     0.004 A 
ENDBRANCH   2   4
ENDBRANCH   1   2
BRANCH   1  11
ATOM     11  C   UNL     1     109.669 109.999 113.258  1.00  0.00     0.028 C 
BRANCH  11  12
ATOM     12  C   UNL     1     110.770 109.061 113.687  1.00  0.00    -0.028 C 
ATOM     13  C   UNL     1     112.086 109.362 113.631  1.00  0.00    -0.080 C 
ATOM     14  C   UNL     1     113.078 108.341 114.125  1.00  0.00     0.039 C 
ATOM     15  C   UNL     1     112.584 110.677 113.072  1.00  0.00     0.039 C 
ENDBRANCH  11  12
ENDBRANCH   1  11
TORSDOF 4
ENDMDL
MODEL 5
REMARK VINA RESULT:    -2.802      1.051      1.932
REMARK INTER + INTRA:          -4.427
REMARK INTER:                  -3.823
REMARK INTRA:                  -0.604
REMARK UNBOUND:                -0.970
REMARK SMILES CC(C)=CCC[C@H](C)c1ccc(C)cc1
REMARK SMILES IDX 6 1 7 2 8 3 9 4 13 5 12 6 11 7 14 8 10 9 15 10 5 11 4 12
REMARK SMILES IDX 2 13 1 14 3 15
REMARK H PARENT
REMARK Flexibility Score: inf
ROOT
ATOM      1  C   UNL     1     112.395 109.475 113.204  1.00  0.00     0.012 C 
ENDROOT
BRANCH   1   2
ATOM      2  C   UNL     1     113.124 110.462 112.265  1.00  0.00     0.016 C 
ATOM      3  C   UNL     1     112.943 111.928 112.694  1.00  0.00     0.013 C 
BRANCH   2   4
ATOM      4  C   UNL     1     112.785 110.200 110.803  1.00  0.00    -0.045 A 
ATOM      5  C   UNL     1     112.069 109.496 106.598  1.00  0.00     0.044 C 
ATOM      6  C   UNL     1     112.289 109.753 108.060  1.00  0.00    -0.051 A 
ATOM      7  C   UNL     1     111.975 108.767 109.005  1.00  0.00     0.004 A 
ATOM      8  C   UNL     1     112.881 110.949 108.486  1.00  0.00     0.004 A 
ATOM      9  C   UNL     1     112.218 108.986 110.364  1.00  0.00     0.004 A 
ATOM     10  C   UNL     1     113.125 111.170 109.844  1.00  0.00     0.004 A 
ENDBRANCH   2   4
ENDBRANCH   1   2
BRANCH   1  11
ATOM     11  C   UNL     1     111.008 109.952 113.670  1.00  0.00     0.028 C 
BRANCH  11  12
ATOM     12  C   UNL     1     109.997 109.820 112.558  1.00  0.00    -0.028 C 
ATOM     13  C   UNL     1     109.237 108.722 112.350  1.00  0.00    -0.080 C 
ATOM     14  C   UNL     1     108.243 108.740 111.219  1.00  0.00     0.039 C 
ATOM     15  C   UNL     1     109.373 107.482 113.205  1.00  0.00     0.039 C 
ENDBRANCH  11  12
ENDBRANCH   1  11
TORSDOF 4
ENDMDL
MODEL 6
REMARK VINA RESULT:    -2.784      1.842      4.555
REMARK INTER + INTRA:          -4.404
REMARK INTER:                  -3.326
REMARK INTRA:                  -1.078
REMARK UNBOUND:                -0.970
REMARK SMILES CC(C)=CCC[C@H](C)c1ccc(C)cc1
REMARK SMILES IDX 6 1 7 2 8 3 9 4 13 5 12 6 11 7 14 8 10 9 15 10 5 11 4 12
REMARK SMILES IDX 2 13 1 14 3 15
REMARK H PARENT
REMARK Flexibility Score: inf
ROOT
ATOM      1  C   UNL     1     111.380 110.752 107.741  1.00  0.00     0.012 C 
ENDROOT
BRANCH   1   2
ATOM      2  C   UNL     1     112.764 110.267 108.228  1.00  0.00     0.016 C 
ATOM      3  C   UNL     1     113.114 108.863 107.707  1.00  0.00     0.013 C 
BRANCH   2   4
ATOM      4  C   UNL     1     112.916 110.421 109.736  1.00  0.00    -0.045 A 
ATOM      5  C   UNL     1     113.125 110.986 114.016  1.00  0.00     0.044 C 
ATOM      6  C   UNL     1     113.083 110.791 112.530  1.00  0.00    -0.051 A 
ATOM      7  C   UNL     1     113.087 109.499 111.986  1.00  0.00     0.004 A 
ATOM      8  C   UNL     1     112.962 111.895 111.676  1.00  0.00     0.004 A 
ATOM      9  C   UNL     1     113.006 109.313 110.603  1.00  0.00     0.004 A 
ATOM     10  C   UNL     1     112.881 111.711 110.293  1.00  0.00     0.004 A 
ENDBRANCH   2   4
ENDBRANCH   1   2
BRANCH   1  11
ATOM     11  C   UNL     1     110.208 109.852 108.169  1.00  0.00     0.028 C 
BRANCH  11  12
ATOM     12  C   UNL     1     109.735 110.215 109.555  1.00  0.00    -0.028 C 
ATOM     13  C   UNL     1     109.684 109.346 110.590  1.00  0.00    -0.080 C 
ATOM     14  C   UNL     1     109.222 109.855 111.931  1.00  0.00     0.039 C 
ATOM     15  C   UNL     1     110.056 107.890 110.432  1.00  0.00     0.039 C 
ENDBRANCH  11  12
ENDBRANCH   1  11
TORSDOF 4
ENDMDL
MODEL 7
REMARK VINA RESULT:    -2.047      1.646      5.807
REMARK INTER + INTRA:          -3.495
REMARK INTER:                  -2.574
REMARK INTRA:                  -0.921
REMARK UNBOUND:                -0.970
REMARK SMILES CC(C)=CCC[C@H](C)c1ccc(C)cc1
REMARK SMILES IDX 6 1 7 2 8 3 9 4 13 5 12 6 11 7 14 8 10 9 15 10 5 11 4 12
REMARK SMILES IDX 2 13 1 14 3 15
REMARK H PARENT
REMARK Flexibility Score: inf
ROOT
ATOM      1  C   UNL     1     109.957 108.204 108.171  1.00  0.00     0.012 C 
ENDROOT
BRANCH   1   2
ATOM      2  C   UNL     1     109.361 109.282 109.104  1.00  0.00     0.016 C 
ATOM      3  C   UNL     1     109.185 110.639 108.400  1.00  0.00     0.013 C 
BRANCH   2   4
ATOM      4  C   UNL     1     110.118 109.366 110.423  1.00  0.00    -0.045 A 
ATOM      5  C   UNL     1     112.350 109.365 114.125  1.00  0.00     0.044 C 
ATOM      6  C   UNL     1     111.554 109.384 112.854  1.00  0.00    -0.051 A 
ATOM      7  C   UNL     1     111.810 110.353 111.875  1.00  0.00     0.004 A 
ATOM      8  C   UNL     1     110.603 108.387 112.601  1.00  0.00     0.004 A 
ATOM      9  C   UNL     1     111.099 110.348 110.671  1.00  0.00     0.004 A 
ATOM     10  C   UNL     1     109.891 108.379 111.399  1.00  0.00     0.004 A 
ENDBRANCH   2   4
ENDBRANCH   1   2
BRANCH   1  11
ATOM     11  C   UNL     1     111.495 108.191 108.121  1.00  0.00     0.028 C 
BRANCH  11  12
ATOM     12  C   UNL     1     111.990 108.746 106.808  1.00  0.00    -0.028 C 
ATOM     13  C   UNL     1     112.659 109.914 106.683  1.00  0.00    -0.080 C 
ATOM     14  C   UNL     1     113.125 110.331 105.312  1.00  0.00     0.039 C 
ATOM     15  C   UNL     1     112.931 110.811 107.869  1.00  0.00     0.039 C 
ENDBRANCH  11  12
ENDBRANCH   1  11
TORSDOF 4
ENDMDL
MODEL 8
REMARK VINA RESULT:    -1.798      1.683      5.099
REMARK INTER + INTRA:          -3.188
REMARK INTER:                  -2.512
REMARK INTRA:                  -0.677
REMARK UNBOUND:                -0.970
REMARK SMILES CC(C)=CCC[C@H](C)c1ccc(C)cc1
REMARK SMILES IDX 6 1 7 2 8 3 9 4 13 5 12 6 11 7 14 8 10 9 15 10 5 11 4 12
REMARK SMILES IDX 2 13 1 14 3 15
REMARK H PARENT
REMARK Flexibility Score: inf
ROOT
ATOM      1  C   UNL     1     112.867 111.042 108.548  1.00  0.00     0.012 C 
ENDROOT
BRANCH   1   2
ATOM      2  C   UNL     1     113.125 109.741 109.340  1.00  0.00     0.016 C 
ATOM      3  C   UNL     1     113.109 108.491 108.442  1.00  0.00     0.013 C 
BRANCH   2   4
ATOM      4  C   UNL     1     112.219 109.636 110.560  1.00  0.00    -0.045 A 
ATOM      5  C   UNL     1     109.701 109.090 114.031  1.00  0.00     0.044 C 
ATOM      6  C   UNL     1     110.556 109.302 112.817  1.00  0.00    -0.051 A 
ATOM      7  C   UNL     1     111.636 110.194 112.861  1.00  0.00     0.004 A 
ATOM      8  C   UNL     1     110.330 108.554 111.654  1.00  0.00     0.004 A 
ATOM      9  C   UNL     1     112.460 110.363 111.745  1.00  0.00     0.004 A 
ATOM     10  C   UNL     1     111.152 108.722 110.537  1.00  0.00     0.004 A 
ENDBRANCH   2   4
ENDBRANCH   1   2
BRANCH   1  11
ATOM     11  C   UNL     1     112.033 110.850 107.269  1.00  0.00     0.028 C 
BRANCH  11  12
ATOM     12  C   UNL     1     110.578 111.152 107.531  1.00  0.00    -0.028 C 
ATOM     13  C   UNL     1     109.634 110.208 107.741  1.00  0.00    -0.080 C 
ATOM     14  C   UNL     1     108.223 110.654 108.024  1.00  0.00     0.039 C 
ATOM     15  C   UNL     1     109.951 108.731 107.680  1.00  0.00     0.039 C 
ENDBRANCH  11  12
ENDBRANCH   1  11
TORSDOF 4
ENDMDL
