MODEL 1
REMARK VINA RESULT:    -2.851      0.000      0.000
REMARK INTER + INTRA:          -3.463
REMARK INTER:                  -3.434
REMARK INTRA:                  -0.028
REMARK UNBOUND:                -0.028
REMARK SMILES OCC(O)CO
REMARK SMILES IDX 3 1 5 2 6 3 2 5 1 6 4 8
REMARK H PARENT 6 4 1 7 4 9
REMARK Flexibility Score: inf
ROOT
ATOM      1  C   UNL     1       1.915  -0.207  -6.450  1.00  0.00     0.165 C 
ENDROOT
BRANCH   1   2
ATOM      2  C   UNL     1       1.412   0.014  -7.886  1.00  0.00     0.190 C 
BRANCH   2   3
ATOM      3  O   UNL     1       2.472   0.310  -8.756  1.00  0.00    -0.394 OA
ATOM      4  H   UNL     1       2.070   0.716  -9.568  1.00  0.00     0.210 HD
ENDBRANCH   2   3
ENDBRANCH   1   2
BRANCH   1   5
ATOM      5  C   UNL     1       1.497   0.938  -5.514  1.00  0.00     0.190 C 
BRANCH   5   6
ATOM      6  O   UNL     1       0.401   1.626  -6.051  1.00  0.00    -0.394 OA
ATOM      7  H   UNL     1       0.500   1.575  -7.037  1.00  0.00     0.210 HD
ENDBRANCH   5   6
ENDBRANCH   1   5
BRANCH   1   8
ATOM      8  O   UNL     1       3.314  -0.326  -6.464  1.00  0.00    -0.388 OA
ATOM      9  H   UNL     1       3.523  -1.205  -6.877  1.00  0.00     0.211 HD
ENDBRANCH   1   8
TORSDOF 5
ENDMDL
MODEL 2
REMARK VINA RESULT:    -2.723      1.354      2.018
REMARK INTER + INTRA:          -3.309
REMARK INTER:                  -3.281
REMARK INTRA:                  -0.028
REMARK UNBOUND:                -0.028
REMARK SMILES OCC(O)CO
REMARK SMILES IDX 3 1 5 2 6 3 2 5 1 6 4 8
REMARK H PARENT 6 4 1 7 4 9
REMARK Flexibility Score: inf
ROOT
ATOM      1  C   UNL     1       1.151   0.110  -8.401  1.00  0.00     0.165 C 
ENDROOT
BRANCH   1   2
ATOM      2  C   UNL     1       2.464   0.366  -9.158  1.00  0.00     0.190 C 
BRANCH   2   3
ATOM      3  O   UNL     1       3.572   0.262  -8.305  1.00  0.00    -0.394 OA
ATOM      4  H   UNL     1       3.944  -0.650  -8.430  1.00  0.00     0.210 HD
ENDBRANCH   2   3
ENDBRANCH   1   2
BRANCH   1   5
ATOM      5  C   UNL     1       1.340   0.198  -6.879  1.00  0.00     0.190 C 
BRANCH   5   6
ATOM      6  O   UNL     1       0.655   1.310  -6.370  1.00  0.00    -0.394 OA
ATOM      7  H   UNL     1      -0.309   1.134  -6.525  1.00  0.00     0.210 HD
ENDBRANCH   5   6
ENDBRANCH   1   5
BRANCH   1   8
ATOM      8  O   UNL     1       0.657  -1.158  -8.748  1.00  0.00    -0.388 OA
ATOM      9  H   UNL     1       0.811  -1.750  -7.966  1.00  0.00     0.211 HD
ENDBRANCH   1   8
TORSDOF 5
ENDMDL
MODEL 3
REMARK VINA RESULT:    -2.716      1.000      2.758
REMARK INTER + INTRA:          -3.301
REMARK INTER:                  -3.154
REMARK INTRA:                  -0.146
REMARK UNBOUND:                -0.028
REMARK SMILES OCC(O)CO
REMARK SMILES IDX 3 1 5 2 6 3 2 5 1 6 4 8
REMARK H PARENT 6 4 1 7 4 9
REMARK Flexibility Score: inf
ROOT
ATOM      1  C   UNL     1       1.025   0.277  -6.620  1.00  0.00     0.165 C 
ENDROOT
BRANCH   1   2
ATOM      2  C   UNL     1       2.267   0.050  -5.743  1.00  0.00     0.190 C 
BRANCH   2   3
ATOM      3  O   UNL     1       3.376  -0.322  -6.517  1.00  0.00    -0.394 OA
ATOM      4  H   UNL     1       3.038  -0.927  -7.228  1.00  0.00     0.210 HD
ENDBRANCH   2   3
ENDBRANCH   1   2
BRANCH   1   5
ATOM      5  C   UNL     1       1.370   0.262  -8.117  1.00  0.00     0.190 C 
BRANCH   5   6
ATOM      6  O   UNL     1       1.055  -0.985  -8.674  1.00  0.00    -0.394 OA
ATOM      7  H   UNL     1       1.922  -1.426  -8.870  1.00  0.00     0.210 HD
ENDBRANCH   5   6
ENDBRANCH   1   5
BRANCH   1   8
ATOM      8  O   UNL     1       0.436   1.505  -6.278  1.00  0.00    -0.388 OA
ATOM      9  H   UNL     1       0.804   1.763  -5.393  1.00  0.00     0.211 HD
ENDBRANCH   1   8
TORSDOF 5
ENDMDL
MODEL 4
REMARK VINA RESULT:    -2.701      4.052      6.021
REMARK INTER + INTRA:          -3.282
REMARK INTER:                  -3.280
REMARK INTRA:                  -0.003
REMARK UNBOUND:                -0.028
REMARK SMILES OCC(O)CO
REMARK SMILES IDX 3 1 5 2 6 3 2 5 1 6 4 8
REMARK H PARENT 6 4 1 7 4 9
REMARK Flexibility Score: inf
ROOT
ATOM      1  C   UNL     1      -1.851   3.635  -4.752  1.00  0.00     0.165 C 
ENDROOT
BRANCH   1   2
ATOM      2  C   UNL     1      -1.857   4.392  -3.414  1.00  0.00     0.190 C 
BRANCH   2   3
ATOM      3  O   UNL     1      -2.014   5.772  -3.611  1.00  0.00    -0.394 OA
ATOM      4  H   UNL     1      -2.825   6.042  -3.107  1.00  0.00     0.210 HD
ENDBRANCH   2   3
ENDBRANCH   1   2
BRANCH   1   5
ATOM      5  C   UNL     1      -0.709   2.612  -4.827  1.00  0.00     0.190 C 
BRANCH   5   6
ATOM      6  O   UNL     1      -0.801   1.868  -6.011  1.00  0.00    -0.394 OA
ATOM      7  H   UNL     1      -1.628   1.325  -5.932  1.00  0.00     0.210 HD
ENDBRANCH   5   6
ENDBRANCH   1   5
BRANCH   1   8
ATOM      8  O   UNL     1      -1.735   4.558  -5.804  1.00  0.00    -0.388 OA
ATOM      9  H   UNL     1      -2.544   5.134  -5.772  1.00  0.00     0.211 HD
ENDBRANCH   1   8
TORSDOF 5
ENDMDL
MODEL 5
REMARK VINA RESULT:    -2.563      3.763      5.110
REMARK INTER + INTRA:          -3.116
REMARK INTER:                  -3.113
REMARK INTRA:                  -0.003
REMARK UNBOUND:                -0.028
REMARK SMILES OCC(O)CO
REMARK SMILES IDX 3 1 5 2 6 3 2 5 1 6 4 8
REMARK H PARENT 6 4 1 7 4 9
REMARK Flexibility Score: inf
ROOT
ATOM      1  C   UNL     1      -1.160   3.531  -4.872  1.00  0.00     0.165 C 
ENDROOT
BRANCH   1   2
ATOM      2  C   UNL     1      -1.276   2.087  -5.384  1.00  0.00     0.190 C 
BRANCH   2   3
ATOM      3  O   UNL     1      -0.101   1.681  -6.034  1.00  0.00    -0.394 OA
ATOM      4  H   UNL     1       0.555   1.456  -5.323  1.00  0.00     0.210 HD
ENDBRANCH   2   3
ENDBRANCH   1   2
BRANCH   1   5
ATOM      5  C   UNL     1      -1.904   3.729  -3.542  1.00  0.00     0.190 C 
BRANCH   5   6
ATOM      6  O   UNL     1      -2.305   5.065  -3.407  1.00  0.00    -0.394 OA
ATOM      7  H   UNL     1      -2.141   5.493  -4.287  1.00  0.00     0.210 HD
ENDBRANCH   5   6
ENDBRANCH   1   5
BRANCH   1   8
ATOM      8  O   UNL     1      -1.673   4.408  -5.841  1.00  0.00    -0.388 OA
ATOM      9  H   UNL     1      -1.071   4.349  -6.629  1.00  0.00     0.211 HD
ENDBRANCH   1   8
TORSDOF 5
ENDMDL
MODEL 6
REMARK VINA RESULT:    -2.555      5.071      6.391
REMARK INTER + INTRA:          -3.107
REMARK INTER:                  -3.093
REMARK INTRA:                  -0.014
REMARK UNBOUND:                -0.028
REMARK SMILES OCC(O)CO
REMARK SMILES IDX 3 1 5 2 6 3 2 5 1 6 4 8
REMARK H PARENT 6 4 1 7 4 9
REMARK Flexibility Score: inf
ROOT
ATOM      1  C   UNL     1      -1.968   4.375  -3.541  1.00  0.00     0.165 C 
ENDROOT
BRANCH   1   2
ATOM      2  C   UNL     1      -1.416   3.246  -4.426  1.00  0.00     0.190 C 
BRANCH   2   3
ATOM      3  O   UNL     1      -1.508   3.574  -5.787  1.00  0.00    -0.394 OA
ATOM      4  H   UNL     1      -0.578   3.643  -6.128  1.00  0.00     0.210 HD
ENDBRANCH   2   3
ENDBRANCH   1   2
BRANCH   1   5
ATOM      5  C   UNL     1      -2.217   5.662  -4.343  1.00  0.00     0.190 C 
BRANCH   5   6
ATOM      6  O   UNL     1      -1.869   6.783  -3.578  1.00  0.00    -0.394 OA
ATOM      7  H   UNL     1      -2.518   6.819  -2.829  1.00  0.00     0.210 HD
ENDBRANCH   5   6
ENDBRANCH   1   5
BRANCH   1   8
ATOM      8  O   UNL     1      -1.062   4.630  -2.499  1.00  0.00    -0.388 OA
ATOM      9  H   UNL     1      -0.333   5.185  -2.881  1.00  0.00     0.211 HD
ENDBRANCH   1   8
TORSDOF 5
ENDMDL
MODEL 7
REMARK VINA RESULT:    -2.289      1.516      3.172
REMARK INTER + INTRA:          -2.786
REMARK INTER:                  -2.751
REMARK INTRA:                  -0.035
REMARK UNBOUND:                -0.028
REMARK SMILES OCC(O)CO
REMARK SMILES IDX 3 1 5 2 6 3 2 5 1 6 4 8
REMARK H PARENT 6 4 1 7 4 9
REMARK Flexibility Score: inf
ROOT
ATOM      1  C   UNL     1       1.454  -0.361  -8.124  1.00  0.00     0.165 C 
ENDROOT
BRANCH   1   2
ATOM      2  C   UNL     1       0.793   0.540  -7.068  1.00  0.00     0.190 C 
BRANCH   2   3
ATOM      3  O   UNL     1       1.606   0.674  -5.932  1.00  0.00    -0.394 OA
ATOM      4  H   UNL     1       1.095   0.298  -5.169  1.00  0.00     0.210 HD
ENDBRANCH   2   3
ENDBRANCH   1   2
BRANCH   1   5
ATOM      5  C   UNL     1       2.240   0.454  -9.162  1.00  0.00     0.190 C 
BRANCH   5   6
ATOM      6  O   UNL     1       3.593   0.517  -8.804  1.00  0.00    -0.394 OA
ATOM      7  H   UNL     1       3.693   1.331  -8.246  1.00  0.00     0.210 HD
ENDBRANCH   5   6
ENDBRANCH   1   5
BRANCH   1   8
ATOM      8  O   UNL     1       0.464  -1.124  -8.765  1.00  0.00    -0.388 OA
ATOM      9  H   UNL     1       0.506  -2.036  -8.374  1.00  0.00     0.211 HD
ENDBRANCH   1   8
TORSDOF 5
ENDMDL
MODEL 8
REMARK VINA RESULT:    -2.196      0.958      2.709
REMARK INTER + INTRA:          -2.673
REMARK INTER:                  -2.644
REMARK INTRA:                  -0.029
REMARK UNBOUND:                -0.028
REMARK SMILES OCC(O)CO
REMARK SMILES IDX 3 1 5 2 6 3 2 5 1 6 4 8
REMARK H PARENT 6 4 1 7 4 9
REMARK Flexibility Score: inf
ROOT
ATOM      1  C   UNL     1       1.483  -0.142  -7.443  1.00  0.00     0.165 C 
ENDROOT
BRANCH   1   2
ATOM      2  C   UNL     1       0.400   0.780  -6.860  1.00  0.00     0.190 C 
BRANCH   2   3
ATOM      3  O   UNL     1       0.898   1.537  -5.789  1.00  0.00    -0.394 OA
ATOM      4  H   UNL     1       0.851   0.959  -4.984  1.00  0.00     0.210 HD
ENDBRANCH   2   3
ENDBRANCH   1   2
BRANCH   1   5
ATOM      5  C   UNL     1       2.693  -0.270  -6.504  1.00  0.00     0.190 C 
BRANCH   5   6
ATOM      6  O   UNL     1       3.878  -0.011  -7.205  1.00  0.00    -0.394 OA
ATOM      7  H   UNL     1       4.532  -0.694  -6.904  1.00  0.00     0.210 HD
ENDBRANCH   5   6
ENDBRANCH   1   5
BRANCH   1   8
ATOM      8  O   UNL     1       1.896   0.359  -8.688  1.00  0.00    -0.388 OA
ATOM      9  H   UNL     1       1.091   0.380  -9.270  1.00  0.00     0.211 HD
ENDBRANCH   1   8
TORSDOF 5
ENDMDL
MODEL 9
REMARK VINA RESULT:    -1.950      0.653      2.703
REMARK INTER + INTRA:          -2.378
REMARK INTER:                  -2.363
REMARK INTRA:                  -0.015
REMARK UNBOUND:                -0.028
REMARK SMILES OCC(O)CO
REMARK SMILES IDX 3 1 5 2 6 3 2 5 1 6 4 8
REMARK H PARENT 6 4 1 7 4 9
REMARK Flexibility Score: inf
ROOT
ATOM      1  C   UNL     1       1.923   0.333  -6.656  1.00  0.00     0.165 C 
ENDROOT
BRANCH   1   2
ATOM      2  C   UNL     1       1.083   1.068  -5.599  1.00  0.00     0.190 C 
BRANCH   2   3
ATOM      3  O   UNL     1      -0.095   1.589  -6.156  1.00  0.00    -0.394 OA
ATOM      4  H   UNL     1      -0.573   2.059  -5.424  1.00  0.00     0.210 HD
ENDBRANCH   2   3
ENDBRANCH   1   2
BRANCH   1   5
ATOM      5  C   UNL     1       1.105   0.011  -7.916  1.00  0.00     0.190 C 
BRANCH   5   6
ATOM      6  O   UNL     1       1.944  -0.047  -9.036  1.00  0.00    -0.394 OA
ATOM      7  H   UNL     1       2.762   0.462  -8.795  1.00  0.00     0.210 HD
ENDBRANCH   5   6
ENDBRANCH   1   5
BRANCH   1   8
ATOM      8  O   UNL     1       2.430  -0.852  -6.100  1.00  0.00    -0.388 OA
ATOM      9  H   UNL     1       3.112  -0.586  -5.429  1.00  0.00     0.211 HD
ENDBRANCH   1   8
TORSDOF 5
ENDMDL
