MODEL 1
REMARK VINA RESULT:    -4.168      0.000      0.000
REMARK INTER + INTRA:          -6.149
REMARK INTER:                  -5.873
REMARK INTRA:                  -0.276
REMARK UNBOUND:                -0.276
REMARK SMILES CCCCCCCCC(=O)[O-]
REMARK SMILES IDX 6 1 7 2 8 3 9 4 10 5 11 6 5 7 4 8 3 9 2 10 1 11
REMARK H PARENT
REMARK Flexibility Score: inf
ROOT
ATOM      1  C   UNL     1     -15.746  -3.807 -31.127  1.00  0.00     0.000 C 
ENDROOT
BRANCH   1   2
ATOM      2  C   UNL     1     -15.889  -3.933 -32.651  1.00  0.00     0.006 C 
BRANCH   2   3
ATOM      3  C   UNL     1     -14.725  -3.244 -33.368  1.00  0.00     0.053 C 
BRANCH   3   4
ATOM      4  C   UNL     1     -15.109  -1.858 -33.780  1.00  0.00     0.041 C 
ATOM      5  O   UNL     1     -14.972  -1.492 -34.978  1.00  0.00    -0.550 OA
ATOM      6  O   UNL     1     -15.572  -0.954 -32.832  1.00  0.00    -0.550 OA
ENDBRANCH   3   4
ENDBRANCH   2   3
ENDBRANCH   1   2
BRANCH   1   7
ATOM      7  C   UNL     1     -15.767  -5.168 -30.412  1.00  0.00     0.000 C 
BRANCH   7   8
ATOM      8  C   UNL     1     -15.525  -6.385 -31.326  1.00  0.00    -0.000 C 
BRANCH   8   9
ATOM      9  C   UNL     1     -14.849  -7.576 -30.611  1.00  0.00    -0.000 C 
BRANCH   9  10
ATOM     10  C   UNL     1     -13.556  -7.166 -29.892  1.00  0.00    -0.003 C 
ATOM     11  C   UNL     1     -12.986  -8.328 -29.082  1.00  0.00     0.004 C 
ENDBRANCH   9  10
ENDBRANCH   8   9
ENDBRANCH   7   8
ENDBRANCH   1   7
TORSDOF 7
ENDMDL
MODEL 2
REMARK VINA RESULT:    -4.144      3.400      5.961
REMARK INTER + INTRA:          -6.115
REMARK INTER:                  -5.813
REMARK INTRA:                  -0.302
REMARK UNBOUND:                -0.276
REMARK SMILES CCCCCCCCC(=O)[O-]
REMARK SMILES IDX 6 1 7 2 8 3 9 4 10 5 11 6 5 7 4 8 3 9 2 10 1 11
REMARK H PARENT
REMARK Flexibility Score: inf
ROOT
ATOM      1  C   UNL     1     -15.976  -5.220 -30.621  1.00  0.00     0.000 C 
ENDROOT
BRANCH   1   2
ATOM      2  C   UNL     1     -15.136  -6.249 -31.393  1.00  0.00     0.006 C 
BRANCH   2   3
ATOM      3  C   UNL     1     -15.021  -7.559 -30.610  1.00  0.00     0.053 C 
BRANCH   3   4
ATOM      4  C   UNL     1     -13.698  -7.639 -29.914  1.00  0.00     0.041 C 
ATOM      5  O   UNL     1     -13.370  -8.687 -29.296  1.00  0.00    -0.550 OA
ATOM      6  O   UNL     1     -12.849  -6.541 -29.906  1.00  0.00    -0.550 OA
ENDBRANCH   3   4
ENDBRANCH   2   3
ENDBRANCH   1   2
BRANCH   1   7
ATOM      7  C   UNL     1     -16.064  -3.863 -31.338  1.00  0.00     0.000 C 
BRANCH   7   8
ATOM      8  C   UNL     1     -15.847  -3.920 -32.862  1.00  0.00    -0.000 C 
BRANCH   8   9
ATOM      9  C   UNL     1     -14.671  -3.048 -33.357  1.00  0.00    -0.000 C 
BRANCH   9  10
ATOM     10  C   UNL     1     -15.149  -1.812 -34.133  1.00  0.00    -0.003 C 
ATOM     11  C   UNL     1     -15.241  -0.591 -33.221  1.00  0.00     0.004 C 
ENDBRANCH   9  10
ENDBRANCH   8   9
ENDBRANCH   7   8
ENDBRANCH   1   7
TORSDOF 7
ENDMDL
MODEL 3
REMARK VINA RESULT:    -3.977      3.260      5.764
REMARK INTER + INTRA:          -5.880
REMARK INTER:                  -5.424
REMARK INTRA:                  -0.457
REMARK UNBOUND:                -0.276
REMARK SMILES CCCCCCCCC(=O)[O-]
REMARK SMILES IDX 6 1 7 2 8 3 9 4 10 5 11 6 5 7 4 8 3 9 2 10 1 11
REMARK H PARENT
REMARK Flexibility Score: inf
ROOT
ATOM      1  C   UNL     1     -14.140  -3.679 -30.935  1.00  0.00     0.000 C 
ENDROOT
BRANCH   1   2
ATOM      2  C   UNL     1     -14.291  -4.760 -29.854  1.00  0.00     0.006 C 
BRANCH   2   3
ATOM      3  C   UNL     1     -13.614  -6.063 -30.284  1.00  0.00     0.053 C 
BRANCH   3   4
ATOM      4  C   UNL     1     -14.635  -7.127 -30.537  1.00  0.00     0.041 C 
ATOM      5  O   UNL     1     -15.809  -6.812 -30.868  1.00  0.00    -0.550 OA
ATOM      6  O   UNL     1     -14.305  -8.463 -30.358  1.00  0.00    -0.550 OA
ENDBRANCH   3   4
ENDBRANCH   2   3
ENDBRANCH   1   2
BRANCH   1   7
ATOM      7  C   UNL     1     -13.554  -4.227 -32.247  1.00  0.00     0.000 C 
BRANCH   7   8
ATOM      8  C   UNL     1     -14.348  -3.859 -33.515  1.00  0.00    -0.000 C 
BRANCH   8   9
ATOM      9  C   UNL     1     -15.563  -2.944 -33.246  1.00  0.00    -0.000 C 
BRANCH   9  10
ATOM     10  C   UNL     1     -15.471  -1.614 -34.006  1.00  0.00    -0.003 C 
ATOM     11  C   UNL     1     -15.165  -0.458 -33.057  1.00  0.00     0.004 C 
ENDBRANCH   9  10
ENDBRANCH   8   9
ENDBRANCH   7   8
ENDBRANCH   1   7
TORSDOF 7
ENDMDL
MODEL 4
REMARK VINA RESULT:    -3.930      1.727      2.562
REMARK INTER + INTRA:          -5.814
REMARK INTER:                  -5.183
REMARK INTRA:                  -0.631
REMARK UNBOUND:                -0.276
REMARK SMILES CCCCCCCCC(=O)[O-]
REMARK SMILES IDX 6 1 7 2 8 3 9 4 10 5 11 6 5 7 4 8 3 9 2 10 1 11
REMARK H PARENT
REMARK Flexibility Score: inf
ROOT
ATOM      1  C   UNL     1     -15.649  -6.071 -30.685  1.00  0.00     0.000 C 
ENDROOT
BRANCH   1   2
ATOM      2  C   UNL     1     -15.814  -5.522 -32.110  1.00  0.00     0.006 C 
BRANCH   2   3
ATOM      3  C   UNL     1     -16.047  -4.009 -32.090  1.00  0.00     0.053 C 
BRANCH   3   4
ATOM      4  C   UNL     1     -15.299  -3.348 -33.204  1.00  0.00     0.041 C 
ATOM      5  O   UNL     1     -14.281  -3.902 -33.700  1.00  0.00    -0.550 OA
ATOM      6  O   UNL     1     -15.694  -2.098 -33.662  1.00  0.00    -0.550 OA
ENDBRANCH   3   4
ENDBRANCH   2   3
ENDBRANCH   1   2
BRANCH   1   7
ATOM      7  C   UNL     1     -14.896  -7.411 -30.646  1.00  0.00     0.000 C 
BRANCH   7   8
ATOM      8  C   UNL     1     -13.559  -7.381 -29.881  1.00  0.00    -0.000 C 
BRANCH   8   9
ATOM      9  C   UNL     1     -13.058  -5.956 -29.557  1.00  0.00    -0.000 C 
BRANCH   9  10
ATOM     10  C   UNL     1     -11.872  -5.540 -30.439  1.00  0.00    -0.003 C 
ATOM     11  C   UNL     1     -12.095  -4.157 -31.045  1.00  0.00     0.004 C 
ENDBRANCH   9  10
ENDBRANCH   8   9
ENDBRANCH   7   8
ENDBRANCH   1   7
TORSDOF 7
ENDMDL
MODEL 5
REMARK VINA RESULT:    -3.916      3.503      5.934
REMARK INTER + INTRA:          -5.794
REMARK INTER:                  -5.378
REMARK INTRA:                  -0.416
REMARK UNBOUND:                -0.276
REMARK SMILES CCCCCCCCC(=O)[O-]
REMARK SMILES IDX 6 1 7 2 8 3 9 4 10 5 11 6 5 7 4 8 3 9 2 10 1 11
REMARK H PARENT
REMARK Flexibility Score: inf
ROOT
ATOM      1  C   UNL     1     -13.655  -4.469 -31.783  1.00  0.00     0.000 C 
ENDROOT
BRANCH   1   2
ATOM      2  C   UNL     1     -14.699  -5.023 -30.801  1.00  0.00     0.006 C 
BRANCH   2   3
ATOM      3  C   UNL     1     -15.099  -6.451 -31.177  1.00  0.00     0.053 C 
BRANCH   3   4
ATOM      4  C   UNL     1     -14.294  -7.444 -30.400  1.00  0.00     0.041 C 
ATOM      5  O   UNL     1     -14.574  -8.671 -30.455  1.00  0.00    -0.550 OA
ATOM      6  O   UNL     1     -13.265  -7.010 -29.575  1.00  0.00    -0.550 OA
ENDBRANCH   3   4
ENDBRANCH   2   3
ENDBRANCH   1   2
BRANCH   1   7
ATOM      7  C   UNL     1     -14.253  -4.121 -33.155  1.00  0.00     0.000 C 
BRANCH   7   8
ATOM      8  C   UNL     1     -15.460  -3.164 -33.114  1.00  0.00    -0.000 C 
BRANCH   8   9
ATOM      9  C   UNL     1     -15.286  -1.904 -33.990  1.00  0.00    -0.000 C 
BRANCH   9  10
ATOM     10  C   UNL     1     -15.289  -0.611 -33.161  1.00  0.00    -0.003 C 
ATOM     11  C   UNL     1     -15.471  -0.912 -31.676  1.00  0.00     0.004 C 
ENDBRANCH   9  10
ENDBRANCH   8   9
ENDBRANCH   7   8
ENDBRANCH   1   7
TORSDOF 7
ENDMDL
MODEL 6
REMARK VINA RESULT:    -3.912      1.302      2.043
REMARK INTER + INTRA:          -5.789
REMARK INTER:                  -5.646
REMARK INTRA:                  -0.142
REMARK UNBOUND:                -0.276
REMARK SMILES CCCCCCCCC(=O)[O-]
REMARK SMILES IDX 6 1 7 2 8 3 9 4 10 5 11 6 5 7 4 8 3 9 2 10 1 11
REMARK H PARENT
REMARK Flexibility Score: inf
ROOT
ATOM      1  C   UNL     1     -14.953  -5.904 -31.204  1.00  0.00     0.000 C 
ENDROOT
BRANCH   1   2
ATOM      2  C   UNL     1     -16.028  -5.290 -32.115  1.00  0.00     0.006 C 
BRANCH   2   3
ATOM      3  C   UNL     1     -15.986  -3.761 -32.055  1.00  0.00     0.053 C 
BRANCH   3   4
ATOM      4  C   UNL     1     -15.244  -3.210 -33.232  1.00  0.00     0.041 C 
ATOM      5  O   UNL     1     -14.284  -3.854 -33.734  1.00  0.00    -0.550 OA
ATOM      6  O   UNL     1     -15.580  -1.964 -33.744  1.00  0.00    -0.550 OA
ENDBRANCH   3   4
ENDBRANCH   2   3
ENDBRANCH   1   2
BRANCH   1   7
ATOM      7  C   UNL     1     -15.368  -7.267 -30.628  1.00  0.00     0.000 C 
BRANCH   7   8
ATOM      8  C   UNL     1     -14.198  -8.198 -30.258  1.00  0.00    -0.000 C 
BRANCH   8   9
ATOM      9  C   UNL     1     -13.095  -7.512 -29.422  1.00  0.00    -0.000 C 
BRANCH   9  10
ATOM     10  C   UNL     1     -12.136  -8.524 -28.779  1.00  0.00    -0.003 C 
ATOM     11  C   UNL     1     -12.739  -9.125 -27.512  1.00  0.00     0.004 C 
ENDBRANCH   9  10
ENDBRANCH   8   9
ENDBRANCH   7   8
ENDBRANCH   1   7
TORSDOF 7
ENDMDL
MODEL 7
REMARK VINA RESULT:    -3.859      4.408      6.719
REMARK INTER + INTRA:          -5.714
REMARK INTER:                  -5.461
REMARK INTRA:                  -0.253
REMARK UNBOUND:                -0.276
REMARK SMILES CCCCCCCCC(=O)[O-]
REMARK SMILES IDX 6 1 7 2 8 3 9 4 10 5 11 6 5 7 4 8 3 9 2 10 1 11
REMARK H PARENT
REMARK Flexibility Score: inf
ROOT
ATOM      1  C   UNL     1     -15.036  -7.480 -30.553  1.00  0.00     0.000 C 
ENDROOT
BRANCH   1   2
ATOM      2  C   UNL     1     -13.660  -7.457 -29.871  1.00  0.00     0.006 C 
BRANCH   2   3
ATOM      3  C   UNL     1     -13.212  -8.871 -29.495  1.00  0.00     0.053 C 
BRANCH   3   4
ATOM      4  C   UNL     1     -12.284  -8.834 -28.322  1.00  0.00     0.041 C 
ATOM      5  O   UNL     1     -11.061  -8.583 -28.489  1.00  0.00    -0.550 OA
ATOM      6  O   UNL     1     -12.760  -9.125 -27.050  1.00  0.00    -0.550 OA
ENDBRANCH   3   4
ENDBRANCH   2   3
ENDBRANCH   1   2
BRANCH   1   7
ATOM      7  C   UNL     1     -15.291  -6.240 -31.424  1.00  0.00     0.000 C 
BRANCH   7   8
ATOM      8  C   UNL     1     -14.305  -5.077 -31.200  1.00  0.00    -0.000 C 
BRANCH   8   9
ATOM      9  C   UNL     1     -13.905  -4.341 -32.498  1.00  0.00    -0.000 C 
BRANCH   9  10
ATOM     10  C   UNL     1     -15.121  -3.780 -33.249  1.00  0.00    -0.003 C 
ATOM     11  C   UNL     1     -14.943  -2.295 -33.554  1.00  0.00     0.004 C 
ENDBRANCH   9  10
ENDBRANCH   8   9
ENDBRANCH   7   8
ENDBRANCH   1   7
TORSDOF 7
ENDMDL
MODEL 8
REMARK VINA RESULT:    -3.813     25.596     26.132
REMARK INTER + INTRA:          -5.649
REMARK INTER:                  -5.060
REMARK INTRA:                  -0.589
REMARK UNBOUND:                -0.276
REMARK SMILES CCCCCCCCC(=O)[O-]
REMARK SMILES IDX 6 1 7 2 8 3 9 4 10 5 11 6 5 7 4 8 3 9 2 10 1 11
REMARK H PARENT
REMARK Flexibility Score: inf
ROOT
ATOM      1  C   UNL     1       2.598  10.329 -17.965  1.00  0.00     0.000 C 
ENDROOT
BRANCH   1   2
ATOM      2  C   UNL     1       3.778   9.628 -18.654  1.00  0.00     0.006 C 
BRANCH   2   3
ATOM      3  C   UNL     1       3.289   8.484 -19.546  1.00  0.00     0.053 C 
BRANCH   3   4
ATOM      4  C   UNL     1       3.042   8.973 -20.938  1.00  0.00     0.041 C 
ATOM      5  O   UNL     1       1.864   9.083 -21.372  1.00  0.00    -0.550 OA
ATOM      6  O   UNL     1       4.112   9.260 -21.775  1.00  0.00    -0.550 OA
ENDBRANCH   3   4
ENDBRANCH   2   3
ENDBRANCH   1   2
BRANCH   1   7
ATOM      7  C   UNL     1       2.692  10.285 -16.431  1.00  0.00     0.000 C 
BRANCH   7   8
ATOM      8  C   UNL     1       1.356  10.032 -15.706  1.00  0.00    -0.000 C 
BRANCH   8   9
ATOM      9  C   UNL     1       1.291   8.672 -14.977  1.00  0.00    -0.000 C 
BRANCH   9  10
ATOM     10  C   UNL     1       1.911   7.537 -15.805  1.00  0.00    -0.003 C 
ATOM     11  C   UNL     1       0.964   7.083 -16.912  1.00  0.00     0.004 C 
ENDBRANCH   9  10
ENDBRANCH   8   9
ENDBRANCH   7   8
ENDBRANCH   1   7
TORSDOF 7
ENDMDL
MODEL 9
REMARK VINA RESULT:    -3.685     25.751     26.449
REMARK INTER + INTRA:          -5.468
REMARK INTER:                  -4.951
REMARK INTRA:                  -0.517
REMARK UNBOUND:                -0.276
REMARK SMILES CCCCCCCCC(=O)[O-]
REMARK SMILES IDX 6 1 7 2 8 3 9 4 10 5 11 6 5 7 4 8 3 9 2 10 1 11
REMARK H PARENT
REMARK Flexibility Score: inf
ROOT
ATOM      1  C   UNL     1       1.847  10.438 -17.496  1.00  0.00     0.000 C 
ENDROOT
BRANCH   1   2
ATOM      2  C   UNL     1       1.265  10.417 -16.075  1.00  0.00     0.006 C 
BRANCH   2   3
ATOM      3  C   UNL     1       1.729   9.174 -15.312  1.00  0.00     0.053 C 
BRANCH   3   4
ATOM      4  C   UNL     1       1.032   7.953 -15.824  1.00  0.00     0.041 C 
ATOM      5  O   UNL     1       1.686   7.046 -16.404  1.00  0.00    -0.550 OA
ATOM      6  O   UNL     1      -0.347   7.839 -15.705  1.00  0.00    -0.550 OA
ENDBRANCH   3   4
ENDBRANCH   2   3
ENDBRANCH   1   2
BRANCH   1   7
ATOM      7  C   UNL     1       3.364  10.186 -17.523  1.00  0.00     0.000 C 
BRANCH   7   8
ATOM      8  C   UNL     1       3.894   9.553 -18.823  1.00  0.00    -0.000 C 
BRANCH   8   9
ATOM      9  C   UNL     1       2.901   8.574 -19.489  1.00  0.00    -0.000 C 
BRANCH   9  10
ATOM     10  C   UNL     1       2.648   8.915 -20.965  1.00  0.00    -0.003 C 
ATOM     11  C   UNL     1       3.952   8.931 -21.757  1.00  0.00     0.004 C 
ENDBRANCH   9  10
ENDBRANCH   8   9
ENDBRANCH   7   8
ENDBRANCH   1   7
TORSDOF 7
ENDMDL
