MODEL 1
REMARK VINA RESULT:    -4.422      0.000      0.000
REMARK INTER + INTRA:          -7.368
REMARK INTER:                  -6.748
REMARK INTRA:                  -0.620
REMARK UNBOUND:                -0.620
REMARK SMILES CCCCCCCCCCC(=O)[O-]
REMARK SMILES IDX 7 1 8 2 9 3 10 4 11 5 12 6 13 7 6 8 5 9 4 10 3 11 2 12 1 13
REMARK H PARENT
REMARK Flexibility Score: inf
ROOT
ATOM      1  C   UNL     1      18.441  29.453  29.195  1.00  0.00     0.000 C 
ENDROOT
BRANCH   1   2
ATOM      2  C   UNL     1      18.150  28.853  27.808  1.00  0.00     0.000 C 
BRANCH   2   3
ATOM      3  C   UNL     1      17.605  27.418  27.881  1.00  0.00     0.006 C 
BRANCH   3   4
ATOM      4  C   UNL     1      18.528  26.411  27.181  1.00  0.00     0.053 C 
BRANCH   4   5
ATOM      5  C   UNL     1      18.942  25.301  28.099  1.00  0.00     0.041 C 
ATOM      6  O   UNL     1      19.438  25.563  29.226  1.00  0.00    -0.550 OA
ATOM      7  O   UNL     1      18.751  23.978  27.721  1.00  0.00    -0.550 OA
ENDBRANCH   4   5
ENDBRANCH   3   4
ENDBRANCH   2   3
ENDBRANCH   1   2
BRANCH   1   8
ATOM      8  C   UNL     1      17.915  28.630  30.389  1.00  0.00     0.000 C 
BRANCH   8   9
ATOM      9  C   UNL     1      17.835  29.391  31.726  1.00  0.00    -0.000 C 
BRANCH   9  10
ATOM     10  C   UNL     1      18.572  28.670  32.868  1.00  0.00    -0.000 C 
BRANCH  10  11
ATOM     11  C   UNL     1      19.497  27.552  32.360  1.00  0.00    -0.000 C 
BRANCH  11  12
ATOM     12  C   UNL     1      19.999  26.640  33.489  1.00  0.00    -0.003 C 
ATOM     13  C   UNL     1      19.778  27.286  34.854  1.00  0.00     0.004 C 
ENDBRANCH  11  12
ENDBRANCH  10  11
ENDBRANCH   9  10
ENDBRANCH   8   9
ENDBRANCH   1   8
TORSDOF 9
ENDMDL
MODEL 2
REMARK VINA RESULT:    -4.357      1.086      1.813
REMARK INTER + INTRA:          -7.269
REMARK INTER:                  -6.811
REMARK INTRA:                  -0.459
REMARK UNBOUND:                -0.620
REMARK SMILES CCCCCCCCCCC(=O)[O-]
REMARK SMILES IDX 7 1 8 2 9 3 10 4 11 5 12 6 13 7 6 8 5 9 4 10 3 11 2 12 1 13
REMARK H PARENT
REMARK Flexibility Score: inf
ROOT
ATOM      1  C   UNL     1      18.652  30.216  28.323  1.00  0.00     0.000 C 
ENDROOT
BRANCH   1   2
ATOM      2  C   UNL     1      17.961  28.992  27.697  1.00  0.00     0.000 C 
BRANCH   2   3
ATOM      3  C   UNL     1      18.959  27.962  27.143  1.00  0.00     0.006 C 
BRANCH   3   4
ATOM      4  C   UNL     1      18.314  26.585  26.933  1.00  0.00     0.053 C 
BRANCH   4   5
ATOM      5  C   UNL     1      18.781  25.589  27.950  1.00  0.00     0.041 C 
ATOM      6  O   UNL     1      18.785  24.360  27.679  1.00  0.00    -0.550 OA
ATOM      7  O   UNL     1      19.243  26.022  29.187  1.00  0.00    -0.550 OA
ENDBRANCH   4   5
ENDBRANCH   3   4
ENDBRANCH   2   3
ENDBRANCH   1   2
BRANCH   1   8
ATOM      8  C   UNL     1      18.425  30.396  29.838  1.00  0.00     0.000 C 
BRANCH   8   9
ATOM      9  C   UNL     1      18.107  29.103  30.612  1.00  0.00    -0.000 C 
BRANCH   9  10
ATOM     10  C   UNL     1      17.866  29.349  32.111  1.00  0.00    -0.000 C 
BRANCH  10  11
ATOM     11  C   UNL     1      18.711  28.425  33.004  1.00  0.00    -0.000 C 
BRANCH  11  12
ATOM     12  C   UNL     1      18.388  28.587  34.496  1.00  0.00    -0.003 C 
ATOM     13  C   UNL     1      17.218  29.545  34.704  1.00  0.00     0.004 C 
ENDBRANCH  11  12
ENDBRANCH  10  11
ENDBRANCH   9  10
ENDBRANCH   8   9
ENDBRANCH   1   8
TORSDOF 9
ENDMDL
MODEL 3
REMARK VINA RESULT:    -4.353      2.814      4.580
REMARK INTER + INTRA:          -7.263
REMARK INTER:                  -6.417
REMARK INTRA:                  -0.846
REMARK UNBOUND:                -0.620
REMARK SMILES CCCCCCCCCCC(=O)[O-]
REMARK SMILES IDX 7 1 8 2 9 3 10 4 11 5 12 6 13 7 6 8 5 9 4 10 3 11 2 12 1 13
REMARK H PARENT
REMARK Flexibility Score: inf
ROOT
ATOM      1  C   UNL     1      19.114  27.741  32.788  1.00  0.00     0.000 C 
ENDROOT
BRANCH   1   2
ATOM      2  C   UNL     1      19.299  28.045  31.290  1.00  0.00     0.000 C 
BRANCH   2   3
ATOM      3  C   UNL     1      18.028  28.611  30.635  1.00  0.00     0.006 C 
BRANCH   3   4
ATOM      4  C   UNL     1      18.268  29.988  30.001  1.00  0.00     0.053 C 
BRANCH   4   5
ATOM      5  C   UNL     1      18.393  29.902  28.510  1.00  0.00     0.041 C 
ATOM      6  O   UNL     1      18.007  28.870  27.900  1.00  0.00    -0.550 OA
ATOM      7  O   UNL     1      18.907  30.975  27.791  1.00  0.00    -0.550 OA
ENDBRANCH   4   5
ENDBRANCH   3   4
ENDBRANCH   2   3
ENDBRANCH   1   2
BRANCH   1   8
ATOM      8  C   UNL     1      18.948  28.979  33.693  1.00  0.00     0.000 C 
BRANCH   8   9
ATOM      9  C   UNL     1      17.952  28.813  34.856  1.00  0.00    -0.000 C 
BRANCH   9  10
ATOM     10  C   UNL     1      16.795  29.826  34.799  1.00  0.00    -0.000 C 
BRANCH  10  11
ATOM     11  C   UNL     1      16.699  30.535  33.438  1.00  0.00    -0.000 C 
BRANCH  11  12
ATOM     12  C   UNL     1      16.749  32.065  33.564  1.00  0.00    -0.003 C 
ATOM     13  C   UNL     1      16.428  32.509  34.988  1.00  0.00     0.004 C 
ENDBRANCH  11  12
ENDBRANCH  10  11
ENDBRANCH   9  10
ENDBRANCH   8   9
ENDBRANCH   1   8
TORSDOF 9
ENDMDL
MODEL 4
REMARK VINA RESULT:    -4.327      1.803      2.640
REMARK INTER + INTRA:          -7.223
REMARK INTER:                  -6.573
REMARK INTRA:                  -0.651
REMARK UNBOUND:                -0.620
REMARK SMILES CCCCCCCCCCC(=O)[O-]
REMARK SMILES IDX 7 1 8 2 9 3 10 4 11 5 12 6 13 7 6 8 5 9 4 10 3 11 2 12 1 13
REMARK H PARENT
REMARK Flexibility Score: inf
ROOT
ATOM      1  C   UNL     1      18.002  29.791  31.483  1.00  0.00     0.000 C 
ENDROOT
BRANCH   1   2
ATOM      2  C   UNL     1      18.385  30.429  30.136  1.00  0.00     0.000 C 
BRANCH   2   3
ATOM      3  C   UNL     1      18.385  29.420  28.976  1.00  0.00     0.006 C 
BRANCH   3   4
ATOM      4  C   UNL     1      18.201  27.976  29.464  1.00  0.00     0.053 C 
BRANCH   4   5
ATOM      5  C   UNL     1      17.988  27.025  28.327  1.00  0.00     0.041 C 
ATOM      6  O   UNL     1      18.422  25.845  28.397  1.00  0.00    -0.550 OA
ATOM      7  O   UNL     1      17.281  27.432  27.201  1.00  0.00    -0.550 OA
ENDBRANCH   4   5
ENDBRANCH   3   4
ENDBRANCH   2   3
ENDBRANCH   1   2
BRANCH   1   8
ATOM      8  C   UNL     1      17.867  30.777  32.661  1.00  0.00     0.000 C 
BRANCH   8   9
ATOM      9  C   UNL     1      16.728  30.466  33.650  1.00  0.00    -0.000 C 
BRANCH   9  10
ATOM     10  C   UNL     1      17.155  29.499  34.768  1.00  0.00    -0.000 C 
BRANCH  10  11
ATOM     11  C   UNL     1      18.616  29.705  35.200  1.00  0.00    -0.000 C 
BRANCH  11  12
ATOM     12  C   UNL     1      19.375  28.381  35.366  1.00  0.00    -0.003 C 
ATOM     13  C   UNL     1      19.381  27.584  34.064  1.00  0.00     0.004 C 
ENDBRANCH  11  12
ENDBRANCH  10  11
ENDBRANCH   9  10
ENDBRANCH   8   9
ENDBRANCH   1   8
TORSDOF 9
ENDMDL
MODEL 5
REMARK VINA RESULT:    -4.326      1.779      2.889
REMARK INTER + INTRA:          -7.222
REMARK INTER:                  -6.513
REMARK INTRA:                  -0.709
REMARK UNBOUND:                -0.620
REMARK SMILES CCCCCCCCCCC(=O)[O-]
REMARK SMILES IDX 7 1 8 2 9 3 10 4 11 5 12 6 13 7 6 8 5 9 4 10 3 11 2 12 1 13
REMARK H PARENT
REMARK Flexibility Score: inf
ROOT
ATOM      1  C   UNL     1      18.058  28.775  30.633  1.00  0.00     0.000 C 
ENDROOT
BRANCH   1   2
ATOM      2  C   UNL     1      18.575  29.984  29.833  1.00  0.00     0.000 C 
BRANCH   2   3
ATOM      3  C   UNL     1      18.283  29.872  28.328  1.00  0.00     0.006 C 
BRANCH   3   4
ATOM      4  C   UNL     1      19.234  28.895  27.624  1.00  0.00     0.053 C 
BRANCH   4   5
ATOM      5  C   UNL     1      18.600  27.555  27.407  1.00  0.00     0.041 C 
ATOM      6  O   UNL     1      19.276  26.503  27.547  1.00  0.00    -0.550 OA
ATOM      7  O   UNL     1      17.252  27.468  27.081  1.00  0.00    -0.550 OA
ENDBRANCH   4   5
ENDBRANCH   3   4
ENDBRANCH   2   3
ENDBRANCH   1   2
BRANCH   1   8
ATOM      8  C   UNL     1      19.152  27.851  31.205  1.00  0.00     0.000 C 
BRANCH   8   9
ATOM      9  C   UNL     1      19.156  27.709  32.739  1.00  0.00    -0.000 C 
BRANCH   9  10
ATOM     10  C   UNL     1      18.854  29.034  33.461  1.00  0.00    -0.000 C 
BRANCH  10  11
ATOM     11  C   UNL     1      18.001  28.834  34.725  1.00  0.00    -0.000 C 
BRANCH  11  12
ATOM     12  C   UNL     1      16.747  29.721  34.739  1.00  0.00    -0.003 C 
ATOM     13  C   UNL     1      16.719  30.650  33.528  1.00  0.00     0.004 C 
ENDBRANCH  11  12
ENDBRANCH  10  11
ENDBRANCH   9  10
ENDBRANCH   8   9
ENDBRANCH   1   8
TORSDOF 9
ENDMDL
MODEL 6
REMARK VINA RESULT:    -4.285      4.316      6.619
REMARK INTER + INTRA:          -7.158
REMARK INTER:                  -6.222
REMARK INTRA:                  -0.937
REMARK UNBOUND:                -0.620
REMARK SMILES CCCCCCCCCCC(=O)[O-]
REMARK SMILES IDX 7 1 8 2 9 3 10 4 11 5 12 6 13 7 6 8 5 9 4 10 3 11 2 12 1 13
REMARK H PARENT
REMARK Flexibility Score: inf
ROOT
ATOM      1  C   UNL     1      19.052  28.893  33.159  1.00  0.00     0.000 C 
ENDROOT
BRANCH   1   2
ATOM      2  C   UNL     1      18.348  28.497  34.470  1.00  0.00     0.000 C 
BRANCH   2   3
ATOM      3  C   UNL     1      17.312  29.536  34.928  1.00  0.00     0.006 C 
BRANCH   3   4
ATOM      4  C   UNL     1      16.790  30.388  33.763  1.00  0.00     0.053 C 
BRANCH   4   5
ATOM      5  C   UNL     1      16.936  31.854  34.033  1.00  0.00     0.041 C 
ATOM      6  O   UNL     1      17.949  32.289  34.641  1.00  0.00    -0.550 OA
ATOM      7  O   UNL     1      15.968  32.744  33.584  1.00  0.00    -0.550 OA
ENDBRANCH   4   5
ENDBRANCH   3   4
ENDBRANCH   2   3
ENDBRANCH   1   2
BRANCH   1   8
ATOM      8  C   UNL     1      19.428  27.717  32.235  1.00  0.00     0.000 C 
BRANCH   8   9
ATOM      9  C   UNL     1      18.869  27.803  30.803  1.00  0.00    -0.000 C 
BRANCH   9  10
ATOM     10  C   UNL     1      18.085  29.101  30.544  1.00  0.00    -0.000 C 
BRANCH  10  11
ATOM     11  C   UNL     1      18.404  29.718  29.173  1.00  0.00    -0.000 C 
BRANCH  11  12
ATOM     12  C   UNL     1      18.438  31.254  29.209  1.00  0.00    -0.003 C 
ATOM     13  C   UNL     1      18.475  31.768  30.645  1.00  0.00     0.004 C 
ENDBRANCH  11  12
ENDBRANCH  10  11
ENDBRANCH   9  10
ENDBRANCH   8   9
ENDBRANCH   1   8
TORSDOF 9
ENDMDL
MODEL 7
REMARK VINA RESULT:    -4.262      2.340      4.038
REMARK INTER + INTRA:          -7.124
REMARK INTER:                  -6.014
REMARK INTRA:                  -1.110
REMARK UNBOUND:                -0.620
REMARK SMILES CCCCCCCCCCC(=O)[O-]
REMARK SMILES IDX 7 1 8 2 9 3 10 4 11 5 12 6 13 7 6 8 5 9 4 10 3 11 2 12 1 13
REMARK H PARENT
REMARK Flexibility Score: inf
ROOT
ATOM      1  C   UNL     1      19.854  28.158  32.303  1.00  0.00     0.000 C 
ENDROOT
BRANCH   1   2
ATOM      2  C   UNL     1      19.156  27.743  30.995  1.00  0.00     0.000 C 
BRANCH   2   3
ATOM      3  C   UNL     1      17.939  28.622  30.664  1.00  0.00     0.006 C 
BRANCH   3   4
ATOM      4  C   UNL     1      18.301  29.785  29.729  1.00  0.00     0.053 C 
BRANCH   4   5
ATOM      5  C   UNL     1      18.577  29.315  28.334  1.00  0.00     0.041 C 
ATOM      6  O   UNL     1      17.769  28.544  27.753  1.00  0.00    -0.550 OA
ATOM      7  O   UNL     1      19.712  29.754  27.664  1.00  0.00    -0.550 OA
ENDBRANCH   4   5
ENDBRANCH   3   4
ENDBRANCH   2   3
ENDBRANCH   1   2
BRANCH   1   8
ATOM      8  C   UNL     1      19.719  27.154  33.466  1.00  0.00     0.000 C 
BRANCH   8   9
ATOM      9  C   UNL     1      19.116  27.727  34.762  1.00  0.00    -0.000 C 
BRANCH   9  10
ATOM     10  C   UNL     1      18.740  29.214  34.638  1.00  0.00    -0.000 C 
BRANCH  10  11
ATOM     11  C   UNL     1      17.224  29.448  34.739  1.00  0.00    -0.000 C 
BRANCH  11  12
ATOM     12  C   UNL     1      16.708  30.446  33.691  1.00  0.00    -0.003 C 
ATOM     13  C   UNL     1      17.844  31.313  33.154  1.00  0.00     0.004 C 
ENDBRANCH  11  12
ENDBRANCH  10  11
ENDBRANCH   9  10
ENDBRANCH   8   9
ENDBRANCH   1   8
TORSDOF 9
ENDMDL
MODEL 8
REMARK VINA RESULT:    -4.254      2.373      4.994
REMARK INTER + INTRA:          -7.112
REMARK INTER:                  -6.097
REMARK INTRA:                  -1.015
REMARK UNBOUND:                -0.620
REMARK SMILES CCCCCCCCCCC(=O)[O-]
REMARK SMILES IDX 7 1 8 2 9 3 10 4 11 5 12 6 13 7 6 8 5 9 4 10 3 11 2 12 1 13
REMARK H PARENT
REMARK Flexibility Score: inf
ROOT
ATOM      1  C   UNL     1      18.330  30.512  29.075  1.00  0.00     0.000 C 
ENDROOT
BRANCH   1   2
ATOM      2  C   UNL     1      18.416  30.396  30.607  1.00  0.00     0.000 C 
BRANCH   2   3
ATOM      3  C   UNL     1      17.869  29.059  31.136  1.00  0.00     0.006 C 
BRANCH   3   4
ATOM      4  C   UNL     1      18.990  28.068  31.476  1.00  0.00     0.053 C 
BRANCH   4   5
ATOM      5  C   UNL     1      19.091  27.822  32.950  1.00  0.00     0.041 C 
ATOM      6  O   UNL     1      19.709  26.815  33.384  1.00  0.00    -0.550 OA
ATOM      7  O   UNL     1      18.529  28.724  33.846  1.00  0.00    -0.550 OA
ENDBRANCH   4   5
ENDBRANCH   3   4
ENDBRANCH   2   3
ENDBRANCH   1   2
BRANCH   1   8
ATOM      8  C   UNL     1      19.531  29.928  28.304  1.00  0.00     0.000 C 
BRANCH   8   9
ATOM      9  C   UNL     1      19.180  28.851  27.260  1.00  0.00    -0.000 C 
BRANCH   9  10
ATOM     10  C   UNL     1      17.774  28.260  27.462  1.00  0.00    -0.000 C 
BRANCH  10  11
ATOM     11  C   UNL     1      17.805  26.891  28.160  1.00  0.00    -0.000 C 
BRANCH  11  12
ATOM     12  C   UNL     1      19.102  26.116  27.885  1.00  0.00    -0.003 C 
ATOM     13  C   UNL     1      18.876  24.610  27.998  1.00  0.00     0.004 C 
ENDBRANCH  11  12
ENDBRANCH  10  11
ENDBRANCH   9  10
ENDBRANCH   8   9
ENDBRANCH   1   8
TORSDOF 9
ENDMDL
MODEL 9
REMARK VINA RESULT:    -4.244      2.945      5.358
REMARK INTER + INTRA:          -7.097
REMARK INTER:                  -6.252
REMARK INTRA:                  -0.845
REMARK UNBOUND:                -0.620
REMARK SMILES CCCCCCCCCCC(=O)[O-]
REMARK SMILES IDX 7 1 8 2 9 3 10 4 11 5 12 6 13 7 6 8 5 9 4 10 3 11 2 12 1 13
REMARK H PARENT
REMARK Flexibility Score: inf
ROOT
ATOM      1  C   UNL     1      18.900  29.499  29.776  1.00  0.00     0.000 C 
ENDROOT
BRANCH   1   2
ATOM      2  C   UNL     1      17.874  28.828  30.706  1.00  0.00     0.000 C 
BRANCH   2   3
ATOM      3  C   UNL     1      18.020  29.269  32.172  1.00  0.00     0.006 C 
BRANCH   3   4
ATOM      4  C   UNL     1      19.167  28.541  32.885  1.00  0.00     0.053 C 
BRANCH   4   5
ATOM      5  C   UNL     1      18.819  28.204  34.303  1.00  0.00     0.041 C 
ATOM      6  O   UNL     1      17.798  28.706  34.841  1.00  0.00    -0.550 OA
ATOM      7  O   UNL     1      19.606  27.309  35.019  1.00  0.00    -0.550 OA
ENDBRANCH   4   5
ENDBRANCH   3   4
ENDBRANCH   2   3
ENDBRANCH   1   2
BRANCH   1   8
ATOM      8  C   UNL     1      18.358  29.917  28.394  1.00  0.00     0.000 C 
BRANCH   8   9
ATOM      9  C   UNL     1      18.658  28.934  27.246  1.00  0.00    -0.000 C 
BRANCH   9  10
ATOM     10  C   UNL     1      17.703  27.728  27.228  1.00  0.00    -0.000 C 
BRANCH  10  11
ATOM     11  C   UNL     1      18.450  26.385  27.236  1.00  0.00    -0.000 C 
BRANCH  11  12
ATOM     12  C   UNL     1      18.512  25.750  28.634  1.00  0.00    -0.003 C 
ATOM     13  C   UNL     1      19.886  25.951  29.267  1.00  0.00     0.004 C 
ENDBRANCH  11  12
ENDBRANCH  10  11
ENDBRANCH   9  10
ENDBRANCH   8   9
ENDBRANCH   1   8
TORSDOF 9
ENDMDL
