MODEL 1
REMARK VINA RESULT:    -7.551      0.000      0.000
REMARK INTER + INTRA:          -8.820
REMARK INTER:                  -9.096
REMARK INTRA:                   0.276
REMARK UNBOUND:                 0.276
REMARK SMILES Oc1cc(O)c2cc(O)c(-c3ccc(O)c(O)c3)[o+]c2c1
REMARK SMILES IDX 10 1 19 2 20 3 21 4 2 5 3 6 4 7 6 8 7 9 8 10 11 11 12 12
REMARK SMILES IDX 13 13 14 14 18 15 16 16 15 17 17 19 9 21 1 23 5 25
REMARK H PARENT 15 18 17 20 9 22 1 24 5 26
REMARK Flexibility Score: inf
ROOT
ATOM      1  C   UNL     1      27.936 -40.734   2.547  1.00  0.00     0.402 A 
ATOM      2  O   UNL     1      27.712 -40.560   3.846  1.00  0.00    -0.202 OA
ATOM      3  C   UNL     1      28.614 -40.827   4.785  1.00  0.00     0.368 A 
ATOM      4  C   UNL     1      28.286 -40.608   6.125  1.00  0.00     0.162 A 
ATOM      5  C   UNL     1      29.218 -40.878   7.133  1.00  0.00     0.128 A 
ATOM      6  C   UNL     1      30.483 -41.367   6.797  1.00  0.00     0.093 A 
ATOM      7  C   UNL     1      30.836 -41.594   5.461  1.00  0.00     0.136 A 
ATOM      8  C   UNL     1      29.893 -41.325   4.435  1.00  0.00     0.125 A 
ATOM      9  C   UNL     1      30.155 -41.534   3.071  1.00  0.00     0.078 A 
ATOM     10  C   UNL     1      29.173 -41.249   2.117  1.00  0.00     0.223 A 
ENDROOT
BRANCH   1  11
ATOM     11  C   UNL     1      26.852 -40.390   1.597  1.00  0.00     0.087 A 
ATOM     12  C   UNL     1      26.760 -41.006   0.336  1.00  0.00     0.022 A 
ATOM     13  C   UNL     1      25.743 -40.648  -0.552  1.00  0.00     0.051 A 
ATOM     14  C   UNL     1      24.811 -39.663  -0.200  1.00  0.00     0.157 A 
ATOM     15  C   UNL     1      25.929 -39.388   1.937  1.00  0.00     0.068 A 
ATOM     16  C   UNL     1      24.908 -39.028   1.050  1.00  0.00     0.158 A 
BRANCH  14  17
ATOM     17  O   UNL     1      23.796 -39.309  -1.088  1.00  0.00    -0.504 OA
ATOM     18  H   UNL     1      23.220 -38.490  -0.936  1.00  0.00     0.293 HD
ENDBRANCH  14  17
BRANCH  16  19
ATOM     19  O   UNL     1      24.001 -38.037   1.427  1.00  0.00    -0.504 OA
ATOM     20  H   UNL     1      24.136 -37.064   1.182  1.00  0.00     0.293 HD
ENDBRANCH  16  19
ENDBRANCH   1  11
BRANCH  10  21
ATOM     21  O   UNL     1      29.414 -41.505   0.767  1.00  0.00    -0.500 OA
ATOM     22  H   UNL     1      30.184 -42.090   0.466  1.00  0.00     0.294 HD
ENDBRANCH  10  21
BRANCH   5  23
ATOM     23  O   UNL     1      28.898 -40.662   8.471  1.00  0.00    -0.507 OA
ATOM     24  H   UNL     1      28.052 -40.176   8.741  1.00  0.00     0.293 HD
ENDBRANCH   5  23
BRANCH   7  25
ATOM     25  O   UNL     1      32.122 -42.081   5.209  1.00  0.00    -0.507 OA
ATOM     26  H   UNL     1      32.823 -41.590   4.673  1.00  0.00     0.293 HD
ENDBRANCH   7  25
TORSDOF 6
ENDMDL
MODEL 2
REMARK VINA RESULT:    -7.487      0.759      1.584
REMARK INTER + INTRA:          -8.743
REMARK INTER:                  -9.023
REMARK INTRA:                   0.280
REMARK UNBOUND:                 0.276
REMARK SMILES Oc1cc(O)c2cc(O)c(-c3ccc(O)c(O)c3)[o+]c2c1
REMARK SMILES IDX 10 1 19 2 20 3 21 4 2 5 3 6 4 7 6 8 7 9 8 10 11 11 12 12
REMARK SMILES IDX 13 13 14 14 18 15 16 16 15 17 17 19 9 21 1 23 5 25
REMARK H PARENT 15 18 17 20 9 22 1 24 5 26
REMARK Flexibility Score: inf
ROOT
ATOM      1  C   UNL     1      28.028 -40.828   2.451  1.00  0.00     0.402 A 
ATOM      2  O   UNL     1      27.750 -40.627   3.736  1.00  0.00    -0.202 OA
ATOM      3  C   UNL     1      28.611 -40.876   4.717  1.00  0.00     0.368 A 
ATOM      4  C   UNL     1      28.227 -40.629   6.037  1.00  0.00     0.162 A 
ATOM      5  C   UNL     1      29.115 -40.879   7.089  1.00  0.00     0.128 A 
ATOM      6  C   UNL     1      30.392 -41.375   6.817  1.00  0.00     0.093 A 
ATOM      7  C   UNL     1      30.801 -41.630   5.502  1.00  0.00     0.136 A 
ATOM      8  C   UNL     1      29.903 -41.381   4.431  1.00  0.00     0.125 A 
ATOM      9  C   UNL     1      30.221 -41.619   3.084  1.00  0.00     0.078 A 
ATOM     10  C   UNL     1      29.281 -41.354   2.084  1.00  0.00     0.223 A 
ENDROOT
BRANCH   1  11
ATOM     11  C   UNL     1      26.986 -40.503   1.449  1.00  0.00     0.087 A 
ATOM     12  C   UNL     1      26.038 -39.490   1.680  1.00  0.00     0.022 A 
ATOM     13  C   UNL     1      25.050 -39.219   0.731  1.00  0.00     0.051 A 
ATOM     14  C   UNL     1      24.986 -39.960  -0.456  1.00  0.00     0.157 A 
ATOM     15  C   UNL     1      26.904 -41.259   0.268  1.00  0.00     0.068 A 
ATOM     16  C   UNL     1      25.917 -40.988  -0.686  1.00  0.00     0.158 A 
BRANCH  14  17
ATOM     17  O   UNL     1      24.000 -39.685  -1.402  1.00  0.00    -0.504 OA
ATOM     18  H   UNL     1      23.940 -38.782  -1.859  1.00  0.00     0.293 HD
ENDBRANCH  14  17
BRANCH  16  19
ATOM     19  O   UNL     1      25.875 -41.750  -1.853  1.00  0.00    -0.504 OA
ATOM     20  H   UNL     1      25.457 -41.402  -2.707  1.00  0.00     0.293 HD
ENDBRANCH  16  19
ENDBRANCH   1  11
BRANCH  10  21
ATOM     21  O   UNL     1      29.579 -41.638   0.751  1.00  0.00    -0.500 OA
ATOM     22  H   UNL     1      30.471 -41.389   0.341  1.00  0.00     0.294 HD
ENDBRANCH  10  21
BRANCH   5  23
ATOM     23  O   UNL     1      28.739 -40.635   8.407  1.00  0.00    -0.507 OA
ATOM     24  H   UNL     1      28.327 -41.359   8.983  1.00  0.00     0.293 HD
ENDBRANCH   5  23
BRANCH   7  25
ATOM     25  O   UNL     1      32.095 -42.123   5.315  1.00  0.00    -0.507 OA
ATOM     26  H   UNL     1      32.932 -41.672   5.655  1.00  0.00     0.293 HD
ENDBRANCH   7  25
TORSDOF 6
ENDMDL
MODEL 3
REMARK VINA RESULT:    -7.352      1.136      6.730
REMARK INTER + INTRA:          -8.580
REMARK INTER:                  -8.972
REMARK INTRA:                   0.392
REMARK UNBOUND:                 0.276
REMARK SMILES Oc1cc(O)c2cc(O)c(-c3ccc(O)c(O)c3)[o+]c2c1
REMARK SMILES IDX 10 1 19 2 20 3 21 4 2 5 3 6 4 7 6 8 7 9 8 10 11 11 12 12
REMARK SMILES IDX 13 13 14 14 18 15 16 16 15 17 17 19 9 21 1 23 5 25
REMARK H PARENT 15 18 17 20 9 22 1 24 5 26
REMARK Flexibility Score: inf
ROOT
ATOM      1  C   UNL     1      27.851 -40.604   2.511  1.00  0.00     0.402 A 
ATOM      2  O   UNL     1      26.817 -39.775   2.627  1.00  0.00    -0.202 OA
ATOM      3  C   UNL     1      25.929 -39.574   1.659  1.00  0.00     0.368 A 
ATOM      4  C   UNL     1      24.875 -38.684   1.877  1.00  0.00     0.162 A 
ATOM      5  C   UNL     1      23.925 -38.457   0.876  1.00  0.00     0.128 A 
ATOM      6  C   UNL     1      24.029 -39.125  -0.345  1.00  0.00     0.093 A 
ATOM      7  C   UNL     1      25.077 -40.022  -0.589  1.00  0.00     0.136 A 
ATOM      8  C   UNL     1      26.045 -40.254   0.422  1.00  0.00     0.125 A 
ATOM      9  C   UNL     1      27.135 -41.125   0.263  1.00  0.00     0.078 A 
ATOM     10  C   UNL     1      28.052 -41.299   1.304  1.00  0.00     0.223 A 
ENDROOT
BRANCH   1  11
ATOM     11  C   UNL     1      28.767 -40.748   3.666  1.00  0.00     0.087 A 
ATOM     12  C   UNL     1      29.993 -41.428   3.548  1.00  0.00     0.022 A 
ATOM     13  C   UNL     1      30.829 -41.572   4.658  1.00  0.00     0.051 A 
ATOM     14  C   UNL     1      30.450 -41.052   5.902  1.00  0.00     0.157 A 
ATOM     15  C   UNL     1      28.381 -40.247   4.920  1.00  0.00     0.068 A 
ATOM     16  C   UNL     1      29.217 -40.389   6.033  1.00  0.00     0.158 A 
BRANCH  14  17
ATOM     17  O   UNL     1      31.288 -41.195   7.007  1.00  0.00    -0.504 OA
ATOM     18  H   UNL     1      30.942 -41.544   7.893  1.00  0.00     0.293 HD
ENDBRANCH  14  17
BRANCH  16  19
ATOM     19  O   UNL     1      28.807 -39.866   7.259  1.00  0.00    -0.504 OA
ATOM     20  H   UNL     1      28.396 -40.447   7.980  1.00  0.00     0.293 HD
ENDBRANCH  16  19
ENDBRANCH   1  11
BRANCH  10  21
ATOM     21  O   UNL     1      29.163 -42.125   1.127  1.00  0.00    -0.500 OA
ATOM     22  H   UNL     1      30.095 -41.826   1.386  1.00  0.00     0.294 HD
ENDBRANCH  10  21
BRANCH   5  23
ATOM     23  O   UNL     1      22.871 -37.571   1.088  1.00  0.00    -0.507 OA
ATOM     24  H   UNL     1      22.893 -36.625   0.726  1.00  0.00     0.293 HD
ENDBRANCH   5  23
BRANCH   7  25
ATOM     25  O   UNL     1      25.108 -40.651  -1.836  1.00  0.00    -0.507 OA
ATOM     26  H   UNL     1      25.904 -40.646  -2.458  1.00  0.00     0.293 HD
ENDBRANCH   7  25
TORSDOF 6
ENDMDL
MODEL 4
REMARK VINA RESULT:    -7.225      1.200      6.884
REMARK INTER + INTRA:          -8.427
REMARK INTER:                  -8.820
REMARK INTRA:                   0.393
REMARK UNBOUND:                 0.276
REMARK SMILES Oc1cc(O)c2cc(O)c(-c3ccc(O)c(O)c3)[o+]c2c1
REMARK SMILES IDX 10 1 19 2 20 3 21 4 2 5 3 6 4 7 6 8 7 9 8 10 11 11 12 12
REMARK SMILES IDX 13 13 14 14 18 15 16 16 15 17 17 19 9 21 1 23 5 25
REMARK H PARENT 15 18 17 20 9 22 1 24 5 26
REMARK Flexibility Score: inf
ROOT
ATOM      1  C   UNL     1      27.917 -40.704   2.583  1.00  0.00     0.402 A 
ATOM      2  O   UNL     1      26.881 -39.891   2.773  1.00  0.00    -0.202 OA
ATOM      3  C   UNL     1      25.971 -39.637   1.838  1.00  0.00     0.368 A 
ATOM      4  C   UNL     1      24.916 -38.770   2.135  1.00  0.00     0.162 A 
ATOM      5  C   UNL     1      23.943 -38.488   1.171  1.00  0.00     0.128 A 
ATOM      6  C   UNL     1      24.025 -39.077  -0.092  1.00  0.00     0.093 A 
ATOM      7  C   UNL     1      25.072 -39.950  -0.415  1.00  0.00     0.136 A 
ATOM      8  C   UNL     1      26.064 -40.237   0.559  1.00  0.00     0.125 A 
ATOM      9  C   UNL     1      27.156 -41.088   0.322  1.00  0.00     0.078 A 
ATOM     10  C   UNL     1      28.096 -41.320   1.330  1.00  0.00     0.223 A 
ENDROOT
BRANCH   1  11
ATOM     11  C   UNL     1      28.859 -40.913   3.706  1.00  0.00     0.087 A 
ATOM     12  C   UNL     1      28.496 -40.614   5.032  1.00  0.00     0.022 A 
ATOM     13  C   UNL     1      29.410 -40.798   6.072  1.00  0.00     0.051 A 
ATOM     14  C   UNL     1      30.701 -41.270   5.805  1.00  0.00     0.157 A 
ATOM     15  C   UNL     1      30.161 -41.366   3.440  1.00  0.00     0.068 A 
ATOM     16  C   UNL     1      31.079 -41.552   4.481  1.00  0.00     0.158 A 
BRANCH  14  17
ATOM     17  O   UNL     1      31.610 -41.454   6.845  1.00  0.00    -0.504 OA
ATOM     18  H   UNL     1      31.679 -40.796   7.613  1.00  0.00     0.293 HD
ENDBRANCH  14  17
BRANCH  16  19
ATOM     19  O   UNL     1      32.359 -42.016   4.180  1.00  0.00    -0.504 OA
ATOM     20  H   UNL     1      32.901 -41.639   3.411  1.00  0.00     0.293 HD
ENDBRANCH  16  19
ENDBRANCH   1  11
BRANCH  10  21
ATOM     21  O   UNL     1      29.208 -42.125   1.078  1.00  0.00    -0.500 OA
ATOM     22  H   UNL     1      29.242 -43.093   1.375  1.00  0.00     0.294 HD
ENDBRANCH  10  21
BRANCH   5  23
ATOM     23  O   UNL     1      22.889 -37.625   1.460  1.00  0.00    -0.507 OA
ATOM     24  H   UNL     1      22.378 -37.686   2.332  1.00  0.00     0.293 HD
ENDBRANCH   5  23
BRANCH   7  25
ATOM     25  O   UNL     1      25.080 -40.499  -1.699  1.00  0.00    -0.507 OA
ATOM     26  H   UNL     1      24.675 -40.056  -2.512  1.00  0.00     0.293 HD
ENDBRANCH   7  25
TORSDOF 6
ENDMDL
MODEL 5
REMARK VINA RESULT:    -7.094      1.743      2.932
REMARK INTER + INTRA:          -8.269
REMARK INTER:                  -8.436
REMARK INTRA:                   0.167
REMARK UNBOUND:                 0.276
REMARK SMILES Oc1cc(O)c2cc(O)c(-c3ccc(O)c(O)c3)[o+]c2c1
REMARK SMILES IDX 10 1 19 2 20 3 21 4 2 5 3 6 4 7 6 8 7 9 8 10 11 11 12 12
REMARK SMILES IDX 13 13 14 14 18 15 16 16 15 17 17 19 9 21 1 23 5 25
REMARK H PARENT 15 18 17 20 9 22 1 24 5 26
REMARK Flexibility Score: inf
ROOT
ATOM      1  C   UNL     1      28.798 -41.017   4.692  1.00  0.00     0.402 A 
ATOM      2  O   UNL     1      27.978 -40.578   5.643  1.00  0.00    -0.202 OA
ATOM      3  C   UNL     1      28.329 -40.478   6.921  1.00  0.00     0.368 A 
ATOM      4  C   UNL     1      27.396 -40.002   7.847  1.00  0.00     0.162 A 
ATOM      5  C   UNL     1      27.740 -39.884   9.197  1.00  0.00     0.128 A 
ATOM      6  C   UNL     1      29.022 -40.240   9.621  1.00  0.00     0.093 A 
ATOM      7  C   UNL     1      29.975 -40.719   8.713  1.00  0.00     0.136 A 
ATOM      8  C   UNL     1      29.630 -40.844   7.342  1.00  0.00     0.125 A 
ATOM      9  C   UNL     1      30.515 -41.326   6.364  1.00  0.00     0.078 A 
ATOM     10  C   UNL     1      30.101 -41.426   5.032  1.00  0.00     0.223 A 
ENDROOT
BRANCH   1  11
ATOM     11  C   UNL     1      28.291 -41.075   3.302  1.00  0.00     0.087 A 
ATOM     12  C   UNL     1      28.681 -42.101   2.422  1.00  0.00     0.022 A 
ATOM     13  C   UNL     1      28.208 -42.120   1.107  1.00  0.00     0.051 A 
ATOM     14  C   UNL     1      27.351 -41.112   0.648  1.00  0.00     0.157 A 
ATOM     15  C   UNL     1      27.450 -40.054   2.831  1.00  0.00     0.068 A 
ATOM     16  C   UNL     1      26.974 -40.071   1.515  1.00  0.00     0.158 A 
BRANCH  14  17
ATOM     17  O   UNL     1      26.880 -41.135  -0.664  1.00  0.00    -0.504 OA
ATOM     18  H   UNL     1      26.169 -40.488  -0.984  1.00  0.00     0.293 HD
ENDBRANCH  14  17
BRANCH  16  19
ATOM     19  O   UNL     1      26.129 -39.048   1.086  1.00  0.00    -0.504 OA
ATOM     20  H   UNL     1      25.969 -38.858   0.104  1.00  0.00     0.293 HD
ENDBRANCH  16  19
ENDBRANCH   1  11
BRANCH  10  21
ATOM     21  O   UNL     1      30.963 -41.953   4.069  1.00  0.00    -0.500 OA
ATOM     22  H   UNL     1      30.648 -42.633   3.388  1.00  0.00     0.294 HD
ENDBRANCH  10  21
BRANCH   5  23
ATOM     23  O   UNL     1      26.816 -39.410  10.125  1.00  0.00    -0.507 OA
ATOM     24  H   UNL     1      26.397 -38.493  10.035  1.00  0.00     0.293 HD
ENDBRANCH   5  23
BRANCH   7  25
ATOM     25  O   UNL     1      31.235 -41.051   9.218  1.00  0.00    -0.507 OA
ATOM     26  H   UNL     1      32.030 -40.428   9.222  1.00  0.00     0.293 HD
ENDBRANCH   7  25
TORSDOF 6
ENDMDL
MODEL 6
REMARK VINA RESULT:    -7.078      1.674      7.441
REMARK INTER + INTRA:          -8.249
REMARK INTER:                  -8.643
REMARK INTRA:                   0.394
REMARK UNBOUND:                 0.276
REMARK SMILES Oc1cc(O)c2cc(O)c(-c3ccc(O)c(O)c3)[o+]c2c1
REMARK SMILES IDX 10 1 19 2 20 3 21 4 2 5 3 6 4 7 6 8 7 9 8 10 11 11 12 12
REMARK SMILES IDX 13 13 14 14 18 15 16 16 15 17 17 19 9 21 1 23 5 25
REMARK H PARENT 15 18 17 20 9 22 1 24 5 26
REMARK Flexibility Score: inf
ROOT
ATOM      1  C   UNL     1      27.488 -40.478   1.383  1.00  0.00     0.402 A 
ATOM      2  O   UNL     1      27.173 -41.148   0.278  1.00  0.00    -0.202 OA
ATOM      3  C   UNL     1      26.121 -40.853  -0.479  1.00  0.00     0.368 A 
ATOM      4  C   UNL     1      25.874 -41.614  -1.625  1.00  0.00     0.162 A 
ATOM      5  C   UNL     1      24.776 -41.324  -2.441  1.00  0.00     0.128 A 
ATOM      6  C   UNL     1      23.925 -40.268  -2.111  1.00  0.00     0.093 A 
ATOM      7  C   UNL     1      24.150 -39.490  -0.969  1.00  0.00     0.136 A 
ATOM      8  C   UNL     1      25.262 -39.782  -0.135  1.00  0.00     0.125 A 
ATOM      9  C   UNL     1      25.559 -39.065   1.036  1.00  0.00     0.078 A 
ATOM     10  C   UNL     1      26.670 -39.415   1.809  1.00  0.00     0.223 A 
ENDROOT
BRANCH   1  11
ATOM     11  C   UNL     1      28.692 -40.897   2.137  1.00  0.00     0.087 A 
ATOM     12  C   UNL     1      29.698 -41.676   1.537  1.00  0.00     0.022 A 
ATOM     13  C   UNL     1      30.813 -42.079   2.276  1.00  0.00     0.051 A 
ATOM     14  C   UNL     1      30.935 -41.723   3.625  1.00  0.00     0.157 A 
ATOM     15  C   UNL     1      28.807 -40.561   3.495  1.00  0.00     0.068 A 
ATOM     16  C   UNL     1      29.924 -40.962   4.238  1.00  0.00     0.158 A 
BRANCH  14  17
ATOM     17  O   UNL     1      32.050 -42.125   4.359  1.00  0.00    -0.504 OA
ATOM     18  H   UNL     1      32.298 -41.679   5.234  1.00  0.00     0.293 HD
ENDBRANCH  14  17
BRANCH  16  19
ATOM     19  O   UNL     1      30.011 -40.597   5.581  1.00  0.00    -0.504 OA
ATOM     20  H   UNL     1      29.707 -39.690   5.913  1.00  0.00     0.293 HD
ENDBRANCH  16  19
ENDBRANCH   1  11
BRANCH  10  21
ATOM     21  O   UNL     1      26.936 -38.736   2.999  1.00  0.00    -0.500 OA
ATOM     22  H   UNL     1      27.441 -39.174   3.759  1.00  0.00     0.294 HD
ENDBRANCH  10  21
BRANCH   5  23
ATOM     23  O   UNL     1      24.524 -42.078  -3.585  1.00  0.00    -0.507 OA
ATOM     24  H   UNL     1      23.601 -42.119  -4.000  1.00  0.00     0.293 HD
ENDBRANCH   5  23
BRANCH   7  25
ATOM     25  O   UNL     1      23.254 -38.450  -0.710  1.00  0.00    -0.507 OA
ATOM     26  H   UNL     1      22.619 -38.426   0.075  1.00  0.00     0.293 HD
ENDBRANCH   7  25
TORSDOF 6
ENDMDL
MODEL 7
REMARK VINA RESULT:    -6.609      1.902      3.363
REMARK INTER + INTRA:          -7.685
REMARK INTER:                  -7.991
REMARK INTRA:                   0.306
REMARK UNBOUND:                 0.276
REMARK SMILES Oc1cc(O)c2cc(O)c(-c3ccc(O)c(O)c3)[o+]c2c1
REMARK SMILES IDX 10 1 19 2 20 3 21 4 2 5 3 6 4 7 6 8 7 9 8 10 11 11 12 12
REMARK SMILES IDX 13 13 14 14 18 15 16 16 15 17 17 19 9 21 1 23 5 25
REMARK H PARENT 15 18 17 20 9 22 1 24 5 26
REMARK Flexibility Score: inf
ROOT
ATOM      1  C   UNL     1      25.899 -39.447   1.721  1.00  0.00     0.402 A 
ATOM      2  O   UNL     1      26.558 -39.507   2.874  1.00  0.00    -0.202 OA
ATOM      3  C   UNL     1      27.718 -40.138   3.020  1.00  0.00     0.368 A 
ATOM      4  C   UNL     1      28.337 -40.143   4.273  1.00  0.00     0.162 A 
ATOM      5  C   UNL     1      29.560 -40.797   4.453  1.00  0.00     0.128 A 
ATOM      6  C   UNL     1      30.167 -41.445   3.375  1.00  0.00     0.093 A 
ATOM      7  C   UNL     1      29.568 -41.455   2.109  1.00  0.00     0.136 A 
ATOM      8  C   UNL     1      28.325 -40.795   1.921  1.00  0.00     0.125 A 
ATOM      9  C   UNL     1      27.645 -40.763   0.693  1.00  0.00     0.078 A 
ATOM     10  C   UNL     1      26.421 -40.096   0.586  1.00  0.00     0.223 A 
ENDROOT
BRANCH   1  11
ATOM     11  C   UNL     1      24.617 -38.704   1.684  1.00  0.00     0.087 A 
ATOM     12  C   UNL     1      24.066 -38.254   0.470  1.00  0.00     0.022 A 
ATOM     13  C   UNL     1      22.869 -37.535   0.463  1.00  0.00     0.051 A 
ATOM     14  C   UNL     1      22.210 -37.244   1.665  1.00  0.00     0.157 A 
ATOM     15  C   UNL     1      23.966 -38.392   2.888  1.00  0.00     0.068 A 
ATOM     16  C   UNL     1      22.765 -37.673   2.884  1.00  0.00     0.158 A 
BRANCH  14  17
ATOM     17  O   UNL     1      21.014 -36.528   1.654  1.00  0.00    -0.504 OA
ATOM     18  H   UNL     1      20.438 -36.470   0.823  1.00  0.00     0.293 HD
ENDBRANCH  14  17
BRANCH  16  19
ATOM     19  O   UNL     1      22.139 -37.393   4.098  1.00  0.00    -0.504 OA
ATOM     20  H   UNL     1      22.619 -37.487   4.985  1.00  0.00     0.293 HD
ENDBRANCH  16  19
ENDBRANCH   1  11
BRANCH  10  21
ATOM     21  O   UNL     1      25.721 -40.108  -0.621  1.00  0.00    -0.500 OA
ATOM     22  H   UNL     1      25.227 -40.931  -0.942  1.00  0.00     0.294 HD
ENDBRANCH  10  21
BRANCH   5  23
ATOM     23  O   UNL     1      30.182 -40.806   5.699  1.00  0.00    -0.507 OA
ATOM     24  H   UNL     1      31.074 -41.262   5.843  1.00  0.00     0.293 HD
ENDBRANCH   5  23
BRANCH   7  25
ATOM     25  O   UNL     1      30.241 -42.123   1.083  1.00  0.00    -0.507 OA
ATOM     26  H   UNL     1      30.993 -41.725   0.540  1.00  0.00     0.293 HD
ENDBRANCH   7  25
TORSDOF 6
ENDMDL
MODEL 8
REMARK VINA RESULT:    -6.347      2.316      4.591
REMARK INTER + INTRA:          -7.370
REMARK INTER:                  -7.701
REMARK INTRA:                   0.331
REMARK UNBOUND:                 0.276
REMARK SMILES Oc1cc(O)c2cc(O)c(-c3ccc(O)c(O)c3)[o+]c2c1
REMARK SMILES IDX 10 1 19 2 20 3 21 4 2 5 3 6 4 7 6 8 7 9 8 10 11 11 12 12
REMARK SMILES IDX 13 13 14 14 18 15 16 16 15 17 17 19 9 21 1 23 5 25
REMARK H PARENT 15 18 17 20 9 22 1 24 5 26
REMARK Flexibility Score: inf
ROOT
ATOM      1  C   UNL     1      26.042 -40.611  -0.117  1.00  0.00     0.402 A 
ATOM      2  O   UNL     1      27.277 -41.090   0.000  1.00  0.00    -0.202 OA
ATOM      3  C   UNL     1      27.962 -41.071   1.139  1.00  0.00     0.368 A 
ATOM      4  C   UNL     1      29.255 -41.602   1.163  1.00  0.00     0.162 A 
ATOM      5  C   UNL     1      29.997 -41.598   2.349  1.00  0.00     0.128 A 
ATOM      6  C   UNL     1      29.442 -41.064   3.514  1.00  0.00     0.093 A 
ATOM      7  C   UNL     1      28.148 -40.526   3.516  1.00  0.00     0.136 A 
ATOM      8  C   UNL     1      27.392 -40.525   2.314  1.00  0.00     0.125 A 
ATOM      9  C   UNL     1      26.094 -39.997   2.219  1.00  0.00     0.078 A 
ATOM     10  C   UNL     1      25.413 -40.027   0.998  1.00  0.00     0.223 A 
ENDROOT
BRANCH   1  11
ATOM     11  C   UNL     1      25.380 -40.698  -1.439  1.00  0.00     0.087 A 
ATOM     12  C   UNL     1      23.989 -40.535  -1.574  1.00  0.00     0.022 A 
ATOM     13  C   UNL     1      23.384 -40.645  -2.829  1.00  0.00     0.051 A 
ATOM     14  C   UNL     1      24.154 -40.931  -3.963  1.00  0.00     0.157 A 
ATOM     15  C   UNL     1      26.145 -41.006  -2.576  1.00  0.00     0.068 A 
ATOM     16  C   UNL     1      25.542 -41.116  -3.834  1.00  0.00     0.158 A 
BRANCH  14  17
ATOM     17  O   UNL     1      23.548 -41.038  -5.214  1.00  0.00    -0.504 OA
ATOM     18  H   UNL     1      22.825 -40.393  -5.510  1.00  0.00     0.293 HD
ENDBRANCH  14  17
BRANCH  16  19
ATOM     19  O   UNL     1      26.335 -41.410  -4.942  1.00  0.00    -0.504 OA
ATOM     20  H   UNL     1      27.206 -40.925  -5.124  1.00  0.00     0.293 HD
ENDBRANCH  16  19
ENDBRANCH   1  11
BRANCH  10  21
ATOM     21  O   UNL     1      24.144 -39.457   0.891  1.00  0.00    -0.500 OA
ATOM     22  H   UNL     1      23.776 -38.840   1.605  1.00  0.00     0.294 HD
ENDBRANCH  10  21
BRANCH   5  23
ATOM     23  O   UNL     1      31.285 -42.125   2.380  1.00  0.00    -0.507 OA
ATOM     24  H   UNL     1      32.038 -41.716   1.840  1.00  0.00     0.293 HD
ENDBRANCH   5  23
BRANCH   7  25
ATOM     25  O   UNL     1      27.666 -40.014   4.723  1.00  0.00    -0.507 OA
ATOM     26  H   UNL     1      27.681 -39.036   4.974  1.00  0.00     0.293 HD
ENDBRANCH   7  25
TORSDOF 6
ENDMDL
MODEL 9
REMARK VINA RESULT:    -5.820      1.537      3.212
REMARK INTER + INTRA:          -6.734
REMARK INTER:                  -6.792
REMARK INTRA:                   0.058
REMARK UNBOUND:                 0.276
REMARK SMILES Oc1cc(O)c2cc(O)c(-c3ccc(O)c(O)c3)[o+]c2c1
REMARK SMILES IDX 10 1 19 2 20 3 21 4 2 5 3 6 4 7 6 8 7 9 8 10 11 11 12 12
REMARK SMILES IDX 13 13 14 14 18 15 16 16 15 17 17 19 9 21 1 23 5 25
REMARK H PARENT 15 18 17 20 9 22 1 24 5 26
REMARK Flexibility Score: inf
ROOT
ATOM      1  C   UNL     1      28.238 -40.767   3.236  1.00  0.00     0.402 A 
ATOM      2  O   UNL     1      29.482 -41.023   2.840  1.00  0.00    -0.202 OA
ATOM      3  C   UNL     1      30.472 -41.305   3.681  1.00  0.00     0.368 A 
ATOM      4  C   UNL     1      31.746 -41.564   3.168  1.00  0.00     0.162 A 
ATOM      5  C   UNL     1      32.805 -41.866   4.031  1.00  0.00     0.128 A 
ATOM      6  C   UNL     1      32.588 -41.911   5.409  1.00  0.00     0.093 A 
ATOM      7  C   UNL     1      31.320 -41.656   5.948  1.00  0.00     0.136 A 
ATOM      8  C   UNL     1      30.242 -41.346   5.078  1.00  0.00     0.125 A 
ATOM      9  C   UNL     1      28.942 -41.064   5.528  1.00  0.00     0.078 A 
ATOM     10  C   UNL     1      27.932 -40.762   4.609  1.00  0.00     0.223 A 
ENDROOT
BRANCH   1  11
ATOM     11  C   UNL     1      27.220 -40.475   2.200  1.00  0.00     0.087 A 
ATOM     12  C   UNL     1      26.305 -39.417   2.350  1.00  0.00     0.022 A 
ATOM     13  C   UNL     1      25.339 -39.177   1.370  1.00  0.00     0.051 A 
ATOM     14  C   UNL     1      25.262 -39.994   0.236  1.00  0.00     0.157 A 
ATOM     15  C   UNL     1      27.125 -41.306   1.072  1.00  0.00     0.068 A 
ATOM     16  C   UNL     1      26.158 -41.067   0.089  1.00  0.00     0.158 A 
BRANCH  14  17
ATOM     17  O   UNL     1      24.297 -39.750  -0.740  1.00  0.00    -0.504 OA
ATOM     18  H   UNL     1      24.490 -39.893  -1.725  1.00  0.00     0.293 HD
ENDBRANCH  14  17
BRANCH  16  19
ATOM     19  O   UNL     1      26.103 -41.904  -1.025  1.00  0.00    -0.504 OA
ATOM     20  H   UNL     1      25.273 -42.436  -1.257  1.00  0.00     0.293 HD
ENDBRANCH  16  19
ENDBRANCH   1  11
BRANCH  10  21
ATOM     21  O   UNL     1      26.654 -40.432   5.060  1.00  0.00    -0.500 OA
ATOM     22  H   UNL     1      26.432 -40.389   6.047  1.00  0.00     0.294 HD
ENDBRANCH  10  21
BRANCH   5  23
ATOM     23  O   UNL     1      34.077 -42.125   3.527  1.00  0.00    -0.507 OA
ATOM     24  H   UNL     1      34.722 -41.376   3.304  1.00  0.00     0.293 HD
ENDBRANCH   5  23
BRANCH   7  25
ATOM     25  O   UNL     1      31.186 -41.724   7.337  1.00  0.00    -0.507 OA
ATOM     26  H   UNL     1      31.440 -42.526   7.896  1.00  0.00     0.293 HD
ENDBRANCH   7  25
TORSDOF 6
ENDMDL
