MODEL 1
REMARK VINA RESULT:    -5.594      0.000      0.000
REMARK INTER + INTRA:         -17.679
REMARK INTER:                 -14.097
REMARK INTRA:                  -3.582
REMARK UNBOUND:                -3.582
REMARK SMILES CCCCCCCCCCCCCCCCCCCCCCCCCCCC(=O)[O-]
REMARK SMILES IDX 15 1 16 2 17 3 18 4 19 5 20 6 21 7 22 8 23 9 24 10 25 11
REMARK SMILES IDX 26 12 27 13 28 14 29 15 30 16 14 17 13 18 12 19 11 20 10 21
REMARK SMILES IDX 9 22 8 23 7 24 6 25 5 26 4 27 3 28 2 29 1 30
REMARK H PARENT
REMARK Flexibility Score: inf
ROOT
ATOM      1  C   UNL     1      -6.948 -14.915  30.970  1.00  0.00     0.000 C 
ENDROOT
BRANCH   1   2
ATOM      2  C   UNL     1      -7.649 -14.832  29.608  1.00  0.00     0.000 C 
BRANCH   2   3
ATOM      3  C   UNL     1      -6.815 -14.019  28.608  1.00  0.00     0.000 C 
BRANCH   3   4
ATOM      4  C   UNL     1      -6.978 -14.509  27.160  1.00  0.00     0.000 C 
BRANCH   4   5
ATOM      5  C   UNL     1      -8.289 -15.288  26.943  1.00  0.00     0.000 C 
BRANCH   5   6
ATOM      6  C   UNL     1      -9.357 -14.473  26.186  1.00  0.00     0.000 C 
BRANCH   6   7
ATOM      7  C   UNL     1     -10.708 -15.195  26.033  1.00  0.00     0.000 C 
BRANCH   7   8
ATOM      8  C   UNL     1     -11.063 -16.067  27.248  1.00  0.00     0.000 C 
BRANCH   8   9
ATOM      9  C   UNL     1     -12.579 -16.166  27.499  1.00  0.00     0.000 C 
BRANCH   9  10
ATOM     10  C   UNL     1     -13.017 -16.001  28.968  1.00  0.00     0.000 C 
BRANCH  10  11
ATOM     11  C   UNL     1     -13.390 -17.326  29.665  1.00  0.00     0.000 C 
BRANCH  11  12
ATOM     12  C   UNL     1     -12.557 -17.567  30.938  1.00  0.00     0.006 C 
BRANCH  12  13
ATOM     13  C   UNL     1     -11.064 -17.291  30.719  1.00  0.00     0.053 C 
BRANCH  13  14
ATOM     14  C   UNL     1     -10.298 -18.554  30.470  1.00  0.00     0.041 C 
ATOM     15  O   UNL     1     -10.202 -19.018  29.304  1.00  0.00    -0.550 OA
ATOM     16  O   UNL     1      -9.672 -19.206  31.526  1.00  0.00    -0.550 OA
ENDBRANCH  13  14
ENDBRANCH  12  13
ENDBRANCH  11  12
ENDBRANCH  10  11
ENDBRANCH   9  10
ENDBRANCH   8   9
ENDBRANCH   7   8
ENDBRANCH   6   7
ENDBRANCH   5   6
ENDBRANCH   4   5
ENDBRANCH   3   4
ENDBRANCH   2   3
ENDBRANCH   1   2
BRANCH   1  17
ATOM     17  C   UNL     1      -6.792 -13.522  31.591  1.00  0.00     0.000 C 
BRANCH  17  18
ATOM     18  C   UNL     1      -5.676 -13.510  32.647  1.00  0.00     0.000 C 
BRANCH  18  19
ATOM     19  C   UNL     1      -4.834 -12.220  32.623  1.00  0.00     0.000 C 
BRANCH  19  20
ATOM     20  C   UNL     1      -3.356 -12.393  33.021  1.00  0.00     0.000 C 
BRANCH  20  21
ATOM     21  C   UNL     1      -2.451 -11.270  32.490  1.00  0.00     0.000 C 
BRANCH  21  22
ATOM     22  C   UNL     1      -3.199 -10.400  31.470  1.00  0.00    -0.000 C 
BRANCH  22  23
ATOM     23  C   UNL     1      -2.696 -10.597  30.028  1.00  0.00    -0.000 C 
BRANCH  23  24
ATOM     24  C   UNL     1      -1.764 -11.808  29.813  1.00  0.00    -0.000 C 
BRANCH  24  25
ATOM     25  C   UNL     1      -2.305 -12.890  28.858  1.00  0.00    -0.000 C 
BRANCH  25  26
ATOM     26  C   UNL     1      -3.450 -13.738  29.439  1.00  0.00    -0.000 C 
BRANCH  26  27
ATOM     27  C   UNL     1      -2.976 -14.793  30.466  1.00  0.00    -0.000 C 
BRANCH  27  28
ATOM     28  C   UNL     1      -1.809 -15.660  29.961  1.00  0.00    -0.000 C 
BRANCH  28  29
ATOM     29  C   UNL     1      -0.728 -15.864  31.032  1.00  0.00    -0.003 C 
ATOM     30  C   UNL     1      -0.511 -14.591  31.844  1.00  0.00     0.004 C 
ENDBRANCH  28  29
ENDBRANCH  27  28
ENDBRANCH  26  27
ENDBRANCH  25  26
ENDBRANCH  24  25
ENDBRANCH  23  24
ENDBRANCH  22  23
ENDBRANCH  21  22
ENDBRANCH  20  21
ENDBRANCH  19  20
ENDBRANCH  18  19
ENDBRANCH  17  18
ENDBRANCH   1  17
TORSDOF 26
ENDMDL
MODEL 2
REMARK VINA RESULT:    -5.575      3.660      9.572
REMARK INTER + INTRA:         -17.630
REMARK INTER:                 -14.281
REMARK INTRA:                  -3.349
REMARK UNBOUND:                -3.582
REMARK SMILES CCCCCCCCCCCCCCCCCCCCCCCCCCCC(=O)[O-]
REMARK SMILES IDX 15 1 16 2 17 3 18 4 19 5 20 6 21 7 22 8 23 9 24 10 25 11
REMARK SMILES IDX 26 12 27 13 28 14 29 15 30 16 14 17 13 18 12 19 11 20 10 21
REMARK SMILES IDX 9 22 8 23 7 24 6 25 5 26 4 27 3 28 2 29 1 30
REMARK H PARENT
REMARK Flexibility Score: inf
ROOT
ATOM      1  C   UNL     1      -5.663 -13.688  32.663  1.00  0.00     0.000 C 
ENDROOT
BRANCH   1   2
ATOM      2  C   UNL     1      -5.198 -12.241  32.458  1.00  0.00     0.000 C 
BRANCH   2   3
ATOM      3  C   UNL     1      -6.248 -11.428  31.688  1.00  0.00     0.000 C 
BRANCH   3   4
ATOM      4  C   UNL     1      -5.679 -10.764  30.424  1.00  0.00     0.000 C 
BRANCH   4   5
ATOM      5  C   UNL     1      -4.173 -11.033  30.241  1.00  0.00     0.000 C 
BRANCH   5   6
ATOM      6  C   UNL     1      -3.870 -12.023  29.100  1.00  0.00     0.000 C 
BRANCH   6   7
ATOM      7  C   UNL     1      -2.731 -13.011  29.409  1.00  0.00     0.000 C 
BRANCH   7   8
ATOM      8  C   UNL     1      -1.852 -12.562  30.588  1.00  0.00     0.000 C 
BRANCH   8   9
ATOM      9  C   UNL     1      -1.858 -13.560  31.761  1.00  0.00     0.000 C 
BRANCH   9  10
ATOM     10  C   UNL     1      -1.666 -12.938  33.159  1.00  0.00     0.000 C 
BRANCH  10  11
ATOM     11  C   UNL     1      -0.192 -12.835  33.602  1.00  0.00     0.000 C 
BRANCH  11  12
ATOM     12  C   UNL     1       0.369 -14.192  34.067  1.00  0.00     0.006 C 
BRANCH  12  13
ATOM     13  C   UNL     1       1.419 -14.041  35.175  1.00  0.00     0.053 C 
BRANCH  13  14
ATOM     14  C   UNL     1       1.045 -14.814  36.402  1.00  0.00     0.041 C 
ATOM     15  O   UNL     1       0.988 -16.071  36.367  1.00  0.00    -0.550 OA
ATOM     16  O   UNL     1       0.779 -14.145  37.591  1.00  0.00    -0.550 OA
ENDBRANCH  13  14
ENDBRANCH  12  13
ENDBRANCH  11  12
ENDBRANCH  10  11
ENDBRANCH   9  10
ENDBRANCH   8   9
ENDBRANCH   7   8
ENDBRANCH   6   7
ENDBRANCH   5   6
ENDBRANCH   4   5
ENDBRANCH   3   4
ENDBRANCH   2   3
ENDBRANCH   1   2
BRANCH   1  17
ATOM     17  C   UNL     1      -5.634 -14.464  31.341  1.00  0.00     0.000 C 
BRANCH  17  18
ATOM     18  C   UNL     1      -6.898 -15.323  31.177  1.00  0.00     0.000 C 
BRANCH  18  19
ATOM     19  C   UNL     1      -7.807 -14.846  30.028  1.00  0.00     0.000 C 
BRANCH  19  20
ATOM     20  C   UNL     1      -7.099 -14.049  28.917  1.00  0.00     0.000 C 
BRANCH  20  21
ATOM     21  C   UNL     1      -7.354 -14.613  27.510  1.00  0.00     0.000 C 
BRANCH  21  22
ATOM     22  C   UNL     1      -8.726 -15.297  27.436  1.00  0.00    -0.000 C 
BRANCH  22  23
ATOM     23  C   UNL     1      -9.605 -14.760  26.291  1.00  0.00    -0.000 C 
BRANCH  23  24
ATOM     24  C   UNL     1     -11.046 -15.311  26.250  1.00  0.00    -0.000 C 
BRANCH  24  25
ATOM     25  C   UNL     1     -11.363 -16.394  27.298  1.00  0.00    -0.000 C 
BRANCH  25  26
ATOM     26  C   UNL     1     -12.345 -15.950  28.396  1.00  0.00    -0.000 C 
BRANCH  26  27
ATOM     27  C   UNL     1     -12.896 -17.123  29.241  1.00  0.00    -0.000 C 
BRANCH  27  28
ATOM     28  C   UNL     1     -11.825 -18.158  29.628  1.00  0.00    -0.000 C 
BRANCH  28  29
ATOM     29  C   UNL     1     -10.825 -17.607  30.655  1.00  0.00    -0.003 C 
ATOM     30  C   UNL     1      -9.712 -18.613  30.931  1.00  0.00     0.004 C 
ENDBRANCH  28  29
ENDBRANCH  27  28
ENDBRANCH  26  27
ENDBRANCH  25  26
ENDBRANCH  24  25
ENDBRANCH  23  24
ENDBRANCH  22  23
ENDBRANCH  21  22
ENDBRANCH  20  21
ENDBRANCH  19  20
ENDBRANCH  18  19
ENDBRANCH  17  18
ENDBRANCH   1  17
TORSDOF 26
ENDMDL
MODEL 3
REMARK VINA RESULT:    -5.574      1.486      2.312
REMARK INTER + INTRA:         -17.630
REMARK INTER:                 -13.547
REMARK INTRA:                  -4.083
REMARK UNBOUND:                -3.582
REMARK SMILES CCCCCCCCCCCCCCCCCCCCCCCCCCCC(=O)[O-]
REMARK SMILES IDX 15 1 16 2 17 3 18 4 19 5 20 6 21 7 22 8 23 9 24 10 25 11
REMARK SMILES IDX 26 12 27 13 28 14 29 15 30 16 14 17 13 18 12 19 11 20 10 21
REMARK SMILES IDX 9 22 8 23 7 24 6 25 5 26 4 27 3 28 2 29 1 30
REMARK H PARENT
REMARK Flexibility Score: inf
ROOT
ATOM      1  C   UNL     1      -7.176 -15.200  30.958  1.00  0.00     0.000 C 
ENDROOT
BRANCH   1   2
ATOM      2  C   UNL     1      -7.661 -15.229  29.503  1.00  0.00     0.000 C 
BRANCH   2   3
ATOM      3  C   UNL     1      -7.093 -14.044  28.710  1.00  0.00     0.000 C 
BRANCH   3   4
ATOM      4  C   UNL     1      -6.902 -14.363  27.219  1.00  0.00     0.000 C 
BRANCH   4   5
ATOM      5  C   UNL     1      -8.047 -15.219  26.645  1.00  0.00     0.000 C 
BRANCH   5   6
ATOM      6  C   UNL     1      -9.332 -14.410  26.380  1.00  0.00     0.000 C 
BRANCH   6   7
ATOM      7  C   UNL     1     -10.624 -15.247  26.424  1.00  0.00     0.000 C 
BRANCH   7   8
ATOM      8  C   UNL     1     -10.621 -16.294  27.550  1.00  0.00     0.000 C 
BRANCH   8   9
ATOM      9  C   UNL     1     -11.918 -16.290  28.381  1.00  0.00     0.000 C 
BRANCH   9  10
ATOM     10  C   UNL     1     -11.722 -16.352  29.909  1.00  0.00     0.000 C 
BRANCH  10  11
ATOM     11  C   UNL     1     -10.530 -17.224  30.355  1.00  0.00     0.000 C 
BRANCH  11  12
ATOM     12  C   UNL     1     -10.986 -18.573  30.942  1.00  0.00     0.006 C 
BRANCH  12  13
ATOM     13  C   UNL     1     -12.342 -18.472  31.652  1.00  0.00     0.053 C 
BRANCH  13  14
ATOM     14  C   UNL     1     -12.560 -19.613  32.597  1.00  0.00     0.041 C 
ATOM     15  O   UNL     1     -11.593 -20.092  33.245  1.00  0.00    -0.550 OA
ATOM     16  O   UNL     1     -13.836 -20.134  32.775  1.00  0.00    -0.550 OA
ENDBRANCH  13  14
ENDBRANCH  12  13
ENDBRANCH  11  12
ENDBRANCH  10  11
ENDBRANCH   9  10
ENDBRANCH   8   9
ENDBRANCH   7   8
ENDBRANCH   6   7
ENDBRANCH   5   6
ENDBRANCH   4   5
ENDBRANCH   3   4
ENDBRANCH   2   3
ENDBRANCH   1   2
BRANCH   1  17
ATOM     17  C   UNL     1      -7.158 -13.767  31.500  1.00  0.00     0.000 C 
BRANCH  17  18
ATOM     18  C   UNL     1      -6.075 -13.598  32.578  1.00  0.00     0.000 C 
BRANCH  18  19
ATOM     19  C   UNL     1      -5.422 -12.202  32.565  1.00  0.00     0.000 C 
BRANCH  19  20
ATOM     20  C   UNL     1      -5.975 -11.228  31.508  1.00  0.00     0.000 C 
BRANCH  20  21
ATOM     21  C   UNL     1      -4.879 -10.589  30.640  1.00  0.00     0.000 C 
BRANCH  21  22
ATOM     22  C   UNL     1      -4.628 -11.422  29.375  1.00  0.00    -0.000 C 
BRANCH  22  23
ATOM     23  C   UNL     1      -3.131 -11.609  29.065  1.00  0.00    -0.000 C 
BRANCH  23  24
ATOM     24  C   UNL     1      -2.720 -13.032  28.631  1.00  0.00    -0.000 C 
BRANCH  24  25
ATOM     25  C   UNL     1      -3.476 -14.176  29.334  1.00  0.00    -0.000 C 
BRANCH  25  26
ATOM     26  C   UNL     1      -3.097 -14.378  30.811  1.00  0.00    -0.000 C 
BRANCH  26  27
ATOM     27  C   UNL     1      -1.684 -13.854  31.161  1.00  0.00    -0.000 C 
BRANCH  27  28
ATOM     28  C   UNL     1      -1.585 -13.249  32.573  1.00  0.00    -0.000 C 
BRANCH  28  29
ATOM     29  C   UNL     1      -1.900 -11.746  32.588  1.00  0.00    -0.003 C 
ATOM     30  C   UNL     1      -0.665 -10.923  32.236  1.00  0.00     0.004 C 
ENDBRANCH  28  29
ENDBRANCH  27  28
ENDBRANCH  26  27
ENDBRANCH  25  26
ENDBRANCH  24  25
ENDBRANCH  23  24
ENDBRANCH  22  23
ENDBRANCH  21  22
ENDBRANCH  20  21
ENDBRANCH  19  20
ENDBRANCH  18  19
ENDBRANCH  17  18
ENDBRANCH   1  17
TORSDOF 26
ENDMDL
MODEL 4
REMARK VINA RESULT:    -5.574      3.394      9.229
REMARK INTER + INTRA:         -17.628
REMARK INTER:                 -13.485
REMARK INTRA:                  -4.143
REMARK UNBOUND:                -3.582
REMARK SMILES CCCCCCCCCCCCCCCCCCCCCCCCCCCC(=O)[O-]
REMARK SMILES IDX 15 1 16 2 17 3 18 4 19 5 20 6 21 7 22 8 23 9 24 10 25 11
REMARK SMILES IDX 26 12 27 13 28 14 29 15 30 16 14 17 13 18 12 19 11 20 10 21
REMARK SMILES IDX 9 22 8 23 7 24 6 25 5 26 4 27 3 28 2 29 1 30
REMARK H PARENT
REMARK Flexibility Score: inf
ROOT
ATOM      1  C   UNL     1      -6.772 -13.686  31.486  1.00  0.00     0.000 C 
ENDROOT
BRANCH   1   2
ATOM      2  C   UNL     1      -5.979 -13.712  32.799  1.00  0.00     0.000 C 
BRANCH   2   3
ATOM      3  C   UNL     1      -4.771 -12.766  32.731  1.00  0.00     0.000 C 
BRANCH   3   4
ATOM      4  C   UNL     1      -5.035 -11.525  31.865  1.00  0.00     0.000 C 
BRANCH   4   5
ATOM      5  C   UNL     1      -3.740 -10.783  31.483  1.00  0.00     0.000 C 
BRANCH   5   6
ATOM      6  C   UNL     1      -3.422 -10.859  29.976  1.00  0.00     0.000 C 
BRANCH   6   7
ATOM      7  C   UNL     1      -4.220 -11.935  29.217  1.00  0.00     0.000 C 
BRANCH   7   8
ATOM      8  C   UNL     1      -3.357 -13.139  28.804  1.00  0.00     0.000 C 
BRANCH   8   9
ATOM      9  C   UNL     1      -3.751 -14.441  29.526  1.00  0.00     0.000 C 
BRANCH   9  10
ATOM     10  C   UNL     1      -2.616 -15.129  30.311  1.00  0.00     0.000 C 
BRANCH  10  11
ATOM     11  C   UNL     1      -1.382 -14.234  30.544  1.00  0.00     0.000 C 
BRANCH  11  12
ATOM     12  C   UNL     1      -1.358 -13.637  31.965  1.00  0.00     0.006 C 
BRANCH  12  13
ATOM     13  C   UNL     1      -0.096 -12.806  32.227  1.00  0.00     0.053 C 
BRANCH  13  14
ATOM     14  C   UNL     1       0.860 -13.521  33.133  1.00  0.00     0.041 C 
ATOM     15  O   UNL     1       0.694 -13.491  34.381  1.00  0.00    -0.550 OA
ATOM     16  O   UNL     1       1.922 -14.238  32.595  1.00  0.00    -0.550 OA
ENDBRANCH  13  14
ENDBRANCH  12  13
ENDBRANCH  11  12
ENDBRANCH  10  11
ENDBRANCH   9  10
ENDBRANCH   8   9
ENDBRANCH   7   8
ENDBRANCH   6   7
ENDBRANCH   5   6
ENDBRANCH   4   5
ENDBRANCH   3   4
ENDBRANCH   2   3
ENDBRANCH   1   2
BRANCH   1  17
ATOM     17  C   UNL     1      -7.279 -15.087  31.127  1.00  0.00     0.000 C 
BRANCH  17  18
ATOM     18  C   UNL     1      -7.813 -15.128  29.686  1.00  0.00     0.000 C 
BRANCH  18  19
ATOM     19  C   UNL     1      -7.174 -14.062  28.774  1.00  0.00     0.000 C 
BRANCH  19  20
ATOM     20  C   UNL     1      -6.799 -14.547  27.361  1.00  0.00     0.000 C 
BRANCH  20  21
ATOM     21  C   UNL     1      -7.935 -15.308  26.661  1.00  0.00     0.000 C 
BRANCH  21  22
ATOM     22  C   UNL     1      -9.072 -14.354  26.268  1.00  0.00    -0.000 C 
BRANCH  22  23
ATOM     23  C   UNL     1     -10.451 -15.038  26.248  1.00  0.00    -0.000 C 
BRANCH  23  24
ATOM     24  C   UNL     1     -10.794 -15.871  27.500  1.00  0.00    -0.000 C 
BRANCH  24  25
ATOM     25  C   UNL     1     -12.189 -16.526  27.490  1.00  0.00    -0.000 C 
BRANCH  25  26
ATOM     26  C   UNL     1     -13.029 -16.254  28.750  1.00  0.00    -0.000 C 
BRANCH  26  27
ATOM     27  C   UNL     1     -12.937 -17.380  29.807  1.00  0.00    -0.000 C 
BRANCH  27  28
ATOM     28  C   UNL     1     -11.857 -17.131  30.875  1.00  0.00    -0.000 C 
BRANCH  28  29
ATOM     29  C   UNL     1     -10.922 -18.337  31.052  1.00  0.00    -0.003 C 
ATOM     30  C   UNL     1     -10.361 -18.798  29.710  1.00  0.00     0.004 C 
ENDBRANCH  28  29
ENDBRANCH  27  28
ENDBRANCH  26  27
ENDBRANCH  25  26
ENDBRANCH  24  25
ENDBRANCH  23  24
ENDBRANCH  22  23
ENDBRANCH  21  22
ENDBRANCH  20  21
ENDBRANCH  19  20
ENDBRANCH  18  19
ENDBRANCH  17  18
ENDBRANCH   1  17
TORSDOF 26
ENDMDL
MODEL 5
REMARK VINA RESULT:    -5.562      2.746      9.343
REMARK INTER + INTRA:         -17.599
REMARK INTER:                 -13.926
REMARK INTRA:                  -3.673
REMARK UNBOUND:                -3.582
REMARK SMILES CCCCCCCCCCCCCCCCCCCCCCCCCCCC(=O)[O-]
REMARK SMILES IDX 15 1 16 2 17 3 18 4 19 5 20 6 21 7 22 8 23 9 24 10 25 11
REMARK SMILES IDX 26 12 27 13 28 14 29 15 30 16 14 17 13 18 12 19 11 20 10 21
REMARK SMILES IDX 9 22 8 23 7 24 6 25 5 26 4 27 3 28 2 29 1 30
REMARK H PARENT
REMARK Flexibility Score: inf
ROOT
ATOM      1  C   UNL     1      -6.033 -14.644  30.549  1.00  0.00     0.000 C 
ENDROOT
BRANCH   1   2
ATOM      2  C   UNL     1      -6.470 -14.082  31.907  1.00  0.00     0.000 C 
BRANCH   2   3
ATOM      3  C   UNL     1      -6.548 -12.549  31.870  1.00  0.00     0.000 C 
BRANCH   3   4
ATOM      4  C   UNL     1      -5.304 -11.875  32.472  1.00  0.00     0.000 C 
BRANCH   4   5
ATOM      5  C   UNL     1      -4.219 -12.890  32.879  1.00  0.00     0.000 C 
BRANCH   5   6
ATOM      6  C   UNL     1      -2.831 -12.247  33.071  1.00  0.00     0.000 C 
BRANCH   6   7
ATOM      7  C   UNL     1      -2.764 -10.763  32.667  1.00  0.00     0.000 C 
BRANCH   7   8
ATOM      8  C   UNL     1      -1.513 -10.424  31.839  1.00  0.00     0.000 C 
BRANCH   8   9
ATOM      9  C   UNL     1      -1.825 -10.158  30.355  1.00  0.00     0.000 C 
BRANCH   9  10
ATOM     10  C   UNL     1      -3.303 -10.326  29.950  1.00  0.00     0.000 C 
BRANCH  10  11
ATOM     11  C   UNL     1      -3.546 -11.435  28.905  1.00  0.00     0.000 C 
BRANCH  11  12
ATOM     12  C   UNL     1      -3.034 -12.806  29.386  1.00  0.00     0.006 C 
BRANCH  12  13
ATOM     13  C   UNL     1      -1.824 -13.293  28.580  1.00  0.00     0.053 C 
BRANCH  13  14
ATOM     14  C   UNL     1      -2.176 -13.537  27.144  1.00  0.00     0.041 C 
ATOM     15  O   UNL     1      -3.050 -14.391  26.842  1.00  0.00    -0.550 OA
ATOM     16  O   UNL     1      -1.552 -12.804  26.142  1.00  0.00    -0.550 OA
ENDBRANCH  13  14
ENDBRANCH  12  13
ENDBRANCH  11  12
ENDBRANCH  10  11
ENDBRANCH   9  10
ENDBRANCH   8   9
ENDBRANCH   7   8
ENDBRANCH   6   7
ENDBRANCH   5   6
ENDBRANCH   4   5
ENDBRANCH   3   4
ENDBRANCH   2   3
ENDBRANCH   1   2
BRANCH   1  17
ATOM     17  C   UNL     1      -7.116 -14.412  29.488  1.00  0.00     0.000 C 
BRANCH  17  18
ATOM     18  C   UNL     1      -6.543 -13.676  28.267  1.00  0.00     0.000 C 
BRANCH  18  19
ATOM     19  C   UNL     1      -6.632 -14.501  26.968  1.00  0.00     0.000 C 
BRANCH  19  20
ATOM     20  C   UNL     1      -7.972 -15.225  26.740  1.00  0.00     0.000 C 
BRANCH  20  21
ATOM     21  C   UNL     1      -9.085 -14.294  26.235  1.00  0.00     0.000 C 
BRANCH  21  22
ATOM     22  C   UNL     1     -10.413 -15.052  26.098  1.00  0.00    -0.000 C 
BRANCH  22  23
ATOM     23  C   UNL     1     -10.794 -15.834  27.368  1.00  0.00    -0.000 C 
BRANCH  23  24
ATOM     24  C   UNL     1     -12.260 -16.312  27.435  1.00  0.00    -0.000 C 
BRANCH  24  25
ATOM     25  C   UNL     1     -12.984 -16.023  28.764  1.00  0.00    -0.000 C 
BRANCH  25  26
ATOM     26  C   UNL     1     -13.445 -17.278  29.524  1.00  0.00    -0.000 C 
BRANCH  26  27
ATOM     27  C   UNL     1     -12.339 -18.350  29.671  1.00  0.00    -0.000 C 
BRANCH  27  28
ATOM     28  C   UNL     1     -11.486 -18.183  30.941  1.00  0.00    -0.000 C 
BRANCH  28  29
ATOM     29  C   UNL     1      -9.984 -18.333  30.660  1.00  0.00    -0.003 C 
ATOM     30  C   UNL     1      -9.224 -17.070  31.052  1.00  0.00     0.004 C 
ENDBRANCH  28  29
ENDBRANCH  27  28
ENDBRANCH  26  27
ENDBRANCH  25  26
ENDBRANCH  24  25
ENDBRANCH  23  24
ENDBRANCH  22  23
ENDBRANCH  21  22
ENDBRANCH  20  21
ENDBRANCH  19  20
ENDBRANCH  18  19
ENDBRANCH  17  18
ENDBRANCH   1  17
TORSDOF 26
ENDMDL
MODEL 6
REMARK VINA RESULT:    -5.530      1.901      3.128
REMARK INTER + INTRA:         -17.518
REMARK INTER:                 -13.748
REMARK INTRA:                  -3.770
REMARK UNBOUND:                -3.582
REMARK SMILES CCCCCCCCCCCCCCCCCCCCCCCCCCCC(=O)[O-]
REMARK SMILES IDX 15 1 16 2 17 3 18 4 19 5 20 6 21 7 22 8 23 9 24 10 25 11
REMARK SMILES IDX 26 12 27 13 28 14 29 15 30 16 14 17 13 18 12 19 11 20 10 21
REMARK SMILES IDX 9 22 8 23 7 24 6 25 5 26 4 27 3 28 2 29 1 30
REMARK H PARENT
REMARK Flexibility Score: inf
ROOT
ATOM      1  C   UNL     1      -6.092 -13.808  32.570  1.00  0.00     0.000 C 
ENDROOT
BRANCH   1   2
ATOM      2  C   UNL     1      -6.740 -14.825  31.623  1.00  0.00     0.000 C 
BRANCH   2   3
ATOM      3  C   UNL     1      -7.511 -14.118  30.499  1.00  0.00     0.000 C 
BRANCH   3   4
ATOM      4  C   UNL     1      -7.391 -14.841  29.149  1.00  0.00     0.000 C 
BRANCH   4   5
ATOM      5  C   UNL     1      -6.960 -13.900  28.008  1.00  0.00     0.000 C 
BRANCH   5   6
ATOM      6  C   UNL     1      -7.374 -14.411  26.614  1.00  0.00     0.000 C 
BRANCH   6   7
ATOM      7  C   UNL     1      -8.846 -14.139  26.254  1.00  0.00     0.000 C 
BRANCH   7   8
ATOM      8  C   UNL     1      -9.673 -15.427  26.107  1.00  0.00     0.000 C 
BRANCH   8   9
ATOM      9  C   UNL     1     -11.127 -15.269  26.589  1.00  0.00     0.000 C 
BRANCH   9  10
ATOM     10  C   UNL     1     -11.558 -16.232  27.714  1.00  0.00     0.000 C 
BRANCH  10  11
ATOM     11  C   UNL     1     -10.388 -16.756  28.574  1.00  0.00     0.000 C 
BRANCH  11  12
ATOM     12  C   UNL     1     -10.756 -16.832  30.067  1.00  0.00     0.006 C 
BRANCH  12  13
ATOM     13  C   UNL     1     -10.740 -18.270  30.599  1.00  0.00     0.053 C 
BRANCH  13  14
ATOM     14  C   UNL     1     -11.929 -18.554  31.466  1.00  0.00     0.041 C 
ATOM     15  O   UNL     1     -13.006 -17.927  31.289  1.00  0.00    -0.550 OA
ATOM     16  O   UNL     1     -11.850 -19.526  32.456  1.00  0.00    -0.550 OA
ENDBRANCH  13  14
ENDBRANCH  12  13
ENDBRANCH  11  12
ENDBRANCH  10  11
ENDBRANCH   9  10
ENDBRANCH   8   9
ENDBRANCH   7   8
ENDBRANCH   6   7
ENDBRANCH   5   6
ENDBRANCH   4   5
ENDBRANCH   3   4
ENDBRANCH   2   3
ENDBRANCH   1   2
BRANCH   1  17
ATOM     17  C   UNL     1      -6.343 -12.374  32.088  1.00  0.00     0.000 C 
BRANCH  17  18
ATOM     18  C   UNL     1      -5.121 -11.481  32.354  1.00  0.00     0.000 C 
BRANCH  18  19
ATOM     19  C   UNL     1      -4.549 -10.844  31.073  1.00  0.00     0.000 C 
BRANCH  19  20
ATOM     20  C   UNL     1      -4.757 -11.660  29.784  1.00  0.00     0.000 C 
BRANCH  20  21
ATOM     21  C   UNL     1      -3.504 -12.435  29.348  1.00  0.00     0.000 C 
BRANCH  21  22
ATOM     22  C   UNL     1      -3.634 -13.925  29.694  1.00  0.00    -0.000 C 
BRANCH  22  23
ATOM     23  C   UNL     1      -2.799 -14.334  30.921  1.00  0.00    -0.000 C 
BRANCH  23  24
ATOM     24  C   UNL     1      -1.801 -13.270  31.425  1.00  0.00    -0.000 C 
BRANCH  24  25
ATOM     25  C   UNL     1      -1.857 -12.984  32.938  1.00  0.00    -0.000 C 
BRANCH  25  26
ATOM     26  C   UNL     1      -0.510 -13.142  33.666  1.00  0.00    -0.000 C 
BRANCH  26  27
ATOM     27  C   UNL     1       0.252 -14.431  33.278  1.00  0.00    -0.000 C 
BRANCH  27  28
ATOM     28  C   UNL     1       1.332 -14.836  34.296  1.00  0.00    -0.000 C 
BRANCH  28  29
ATOM     29  C   UNL     1       0.732 -15.426  35.581  1.00  0.00    -0.003 C 
ATOM     30  C   UNL     1       1.024 -14.533  36.783  1.00  0.00     0.004 C 
ENDBRANCH  28  29
ENDBRANCH  27  28
ENDBRANCH  26  27
ENDBRANCH  25  26
ENDBRANCH  24  25
ENDBRANCH  23  24
ENDBRANCH  22  23
ENDBRANCH  21  22
ENDBRANCH  20  21
ENDBRANCH  19  20
ENDBRANCH  18  19
ENDBRANCH  17  18
ENDBRANCH   1  17
TORSDOF 26
ENDMDL
MODEL 7
REMARK VINA RESULT:    -5.502      1.302      2.598
REMARK INTER + INTRA:         -17.448
REMARK INTER:                 -13.631
REMARK INTRA:                  -3.816
REMARK UNBOUND:                -3.582
REMARK SMILES CCCCCCCCCCCCCCCCCCCCCCCCCCCC(=O)[O-]
REMARK SMILES IDX 15 1 16 2 17 3 18 4 19 5 20 6 21 7 22 8 23 9 24 10 25 11
REMARK SMILES IDX 26 12 27 13 28 14 29 15 30 16 14 17 13 18 12 19 11 20 10 21
REMARK SMILES IDX 9 22 8 23 7 24 6 25 5 26 4 27 3 28 2 29 1 30
REMARK H PARENT
REMARK Flexibility Score: inf
ROOT
ATOM      1  C   UNL     1      -6.749 -13.705  32.021  1.00  0.00     0.000 C 
ENDROOT
BRANCH   1   2
ATOM      2  C   UNL     1      -6.678 -14.986  31.180  1.00  0.00     0.000 C 
BRANCH   2   3
ATOM      3  C   UNL     1      -7.606 -14.896  29.960  1.00  0.00     0.000 C 
BRANCH   3   4
ATOM      4  C   UNL     1      -7.130 -13.862  28.927  1.00  0.00     0.000 C 
BRANCH   4   5
ATOM      5  C   UNL     1      -6.459 -14.513  27.703  1.00  0.00     0.000 C 
BRANCH   5   6
ATOM      6  C   UNL     1      -7.460 -14.886  26.592  1.00  0.00     0.000 C 
BRANCH   6   7
ATOM      7  C   UNL     1      -8.377 -13.729  26.155  1.00  0.00     0.000 C 
BRANCH   7   8
ATOM      8  C   UNL     1      -9.793 -14.197  25.778  1.00  0.00     0.000 C 
BRANCH   8   9
ATOM      9  C   UNL     1     -10.213 -15.493  26.496  1.00  0.00     0.000 C 
BRANCH   9  10
ATOM     10  C   UNL     1     -11.729 -15.663  26.717  1.00  0.00     0.000 C 
BRANCH  10  11
ATOM     11  C   UNL     1     -12.093 -16.440  28.000  1.00  0.00     0.000 C 
BRANCH  11  12
ATOM     12  C   UNL     1     -10.844 -16.950  28.742  1.00  0.00     0.006 C 
BRANCH  12  13
ATOM     13  C   UNL     1     -11.035 -18.366  29.302  1.00  0.00     0.053 C 
BRANCH  13  14
ATOM     14  C   UNL     1     -11.086 -18.367  30.799  1.00  0.00     0.041 C 
ATOM     15  O   UNL     1     -11.882 -17.605  31.407  1.00  0.00    -0.550 OA
ATOM     16  O   UNL     1     -10.268 -19.228  31.521  1.00  0.00    -0.550 OA
ENDBRANCH  13  14
ENDBRANCH  12  13
ENDBRANCH  11  12
ENDBRANCH  10  11
ENDBRANCH   9  10
ENDBRANCH   8   9
ENDBRANCH   7   8
ENDBRANCH   6   7
ENDBRANCH   5   6
ENDBRANCH   4   5
ENDBRANCH   3   4
ENDBRANCH   2   3
ENDBRANCH   1   2
BRANCH   1  17
ATOM     17  C   UNL     1      -5.408 -13.431  32.712  1.00  0.00     0.000 C 
BRANCH  17  18
ATOM     18  C   UNL     1      -4.885 -12.028  32.364  1.00  0.00     0.000 C 
BRANCH  18  19
ATOM     19  C   UNL     1      -5.920 -11.165  31.618  1.00  0.00     0.000 C 
BRANCH  19  20
ATOM     20  C   UNL     1      -5.440 -10.575  30.278  1.00  0.00     0.000 C 
BRANCH  20  21
ATOM     21  C   UNL     1      -4.517 -11.522  29.496  1.00  0.00     0.000 C 
BRANCH  21  22
ATOM     22  C   UNL     1      -3.133 -10.891  29.289  1.00  0.00    -0.000 C 
BRANCH  22  23
ATOM     23  C   UNL     1      -2.996  -9.509  29.955  1.00  0.00    -0.000 C 
BRANCH  23  24
ATOM     24  C   UNL     1      -1.840  -9.376  30.968  1.00  0.00    -0.000 C 
BRANCH  24  25
ATOM     25  C   UNL     1      -1.948 -10.282  32.209  1.00  0.00    -0.000 C 
BRANCH  25  26
ATOM     26  C   UNL     1      -0.804 -11.301  32.356  1.00  0.00    -0.000 C 
BRANCH  26  27
ATOM     27  C   UNL     1      -1.217 -12.585  33.113  1.00  0.00    -0.000 C 
BRANCH  27  28
ATOM     28  C   UNL     1      -1.114 -13.861  32.260  1.00  0.00    -0.000 C 
BRANCH  28  29
ATOM     29  C   UNL     1      -2.046 -13.825  31.039  1.00  0.00    -0.003 C 
ATOM     30  C   UNL     1      -1.566 -14.784  29.954  1.00  0.00     0.004 C 
ENDBRANCH  28  29
ENDBRANCH  27  28
ENDBRANCH  26  27
ENDBRANCH  25  26
ENDBRANCH  24  25
ENDBRANCH  23  24
ENDBRANCH  22  23
ENDBRANCH  21  22
ENDBRANCH  20  21
ENDBRANCH  19  20
ENDBRANCH  18  19
ENDBRANCH  17  18
ENDBRANCH   1  17
TORSDOF 26
ENDMDL
MODEL 8
REMARK VINA RESULT:    -5.474      1.143      2.300
REMARK INTER + INTRA:         -17.376
REMARK INTER:                 -13.219
REMARK INTRA:                  -4.157
REMARK UNBOUND:                -3.582
REMARK SMILES CCCCCCCCCCCCCCCCCCCCCCCCCCCC(=O)[O-]
REMARK SMILES IDX 15 1 16 2 17 3 18 4 19 5 20 6 21 7 22 8 23 9 24 10 25 11
REMARK SMILES IDX 26 12 27 13 28 14 29 15 30 16 14 17 13 18 12 19 11 20 10 21
REMARK SMILES IDX 9 22 8 23 7 24 6 25 5 26 4 27 3 28 2 29 1 30
REMARK H PARENT
REMARK Flexibility Score: inf
ROOT
ATOM      1  C   UNL     1      -6.741 -14.030  31.903  1.00  0.00     0.000 C 
ENDROOT
BRANCH   1   2
ATOM      2  C   UNL     1      -6.458 -14.942  30.702  1.00  0.00     0.000 C 
BRANCH   2   3
ATOM      3  C   UNL     1      -7.294 -14.524  29.485  1.00  0.00     0.000 C 
BRANCH   3   4
ATOM      4  C   UNL     1      -6.486 -13.718  28.456  1.00  0.00     0.000 C 
BRANCH   4   5
ATOM      5  C   UNL     1      -6.309 -14.468  27.122  1.00  0.00     0.000 C 
BRANCH   5   6
ATOM      6  C   UNL     1      -7.610 -15.122  26.619  1.00  0.00     0.000 C 
BRANCH   6   7
ATOM      7  C   UNL     1      -8.689 -14.118  26.173  1.00  0.00     0.000 C 
BRANCH   7   8
ATOM      8  C   UNL     1     -10.095 -14.737  26.116  1.00  0.00     0.000 C 
BRANCH   8   9
ATOM      9  C   UNL     1     -10.384 -15.692  27.288  1.00  0.00     0.000 C 
BRANCH   9  10
ATOM     10  C   UNL     1     -11.842 -16.184  27.396  1.00  0.00     0.000 C 
BRANCH  10  11
ATOM     11  C   UNL     1     -12.012 -17.461  28.244  1.00  0.00     0.000 C 
BRANCH  11  12
ATOM     12  C   UNL     1     -12.788 -17.193  29.547  1.00  0.00     0.006 C 
BRANCH  12  13
ATOM     13  C   UNL     1     -11.879 -16.685  30.674  1.00  0.00     0.053 C 
BRANCH  13  14
ATOM     14  C   UNL     1     -10.634 -17.508  30.794  1.00  0.00     0.041 C 
ATOM     15  O   UNL     1      -9.504 -16.976  30.636  1.00  0.00    -0.550 OA
ATOM     16  O   UNL     1     -10.722 -18.861  31.102  1.00  0.00    -0.550 OA
ENDBRANCH  13  14
ENDBRANCH  12  13
ENDBRANCH  11  12
ENDBRANCH  10  11
ENDBRANCH   9  10
ENDBRANCH   8   9
ENDBRANCH   7   8
ENDBRANCH   6   7
ENDBRANCH   5   6
ENDBRANCH   4   5
ENDBRANCH   3   4
ENDBRANCH   2   3
ENDBRANCH   1   2
BRANCH   1  17
ATOM     17  C   UNL     1      -5.451 -13.369  32.403  1.00  0.00     0.000 C 
BRANCH  17  18
ATOM     18  C   UNL     1      -5.567 -11.837  32.367  1.00  0.00     0.000 C 
BRANCH  18  19
ATOM     19  C   UNL     1      -5.636 -11.269  30.936  1.00  0.00     0.000 C 
BRANCH  19  20
ATOM     20  C   UNL     1      -4.293 -10.784  30.357  1.00  0.00     0.000 C 
BRANCH  20  21
ATOM     21  C   UNL     1      -3.281 -10.372  31.438  1.00  0.00     0.000 C 
BRANCH  21  22
ATOM     22  C   UNL     1      -2.021 -11.245  31.368  1.00  0.00    -0.000 C 
BRANCH  22  23
ATOM     23  C   UNL     1      -1.910 -12.236  32.541  1.00  0.00    -0.000 C 
BRANCH  23  24
ATOM     24  C   UNL     1      -0.845 -13.341  32.373  1.00  0.00    -0.000 C 
BRANCH  24  25
ATOM     25  C   UNL     1      -0.894 -14.101  31.034  1.00  0.00    -0.000 C 
BRANCH  25  26
ATOM     26  C   UNL     1      -2.195 -14.886  30.794  1.00  0.00    -0.000 C 
BRANCH  26  27
ATOM     27  C   UNL     1      -3.074 -14.293  29.668  1.00  0.00    -0.000 C 
BRANCH  27  28
ATOM     28  C   UNL     1      -2.787 -14.896  28.282  1.00  0.00    -0.000 C 
BRANCH  28  29
ATOM     29  C   UNL     1      -2.642 -13.820  27.195  1.00  0.00    -0.003 C 
ATOM     30  C   UNL     1      -1.815 -12.641  27.698  1.00  0.00     0.004 C 
ENDBRANCH  28  29
ENDBRANCH  27  28
ENDBRANCH  26  27
ENDBRANCH  25  26
ENDBRANCH  24  25
ENDBRANCH  23  24
ENDBRANCH  22  23
ENDBRANCH  21  22
ENDBRANCH  20  21
ENDBRANCH  19  20
ENDBRANCH  18  19
ENDBRANCH  17  18
ENDBRANCH   1  17
TORSDOF 26
ENDMDL
MODEL 9
REMARK VINA RESULT:    -5.410      3.193      9.612
REMARK INTER + INTRA:         -17.216
REMARK INTER:                 -13.912
REMARK INTRA:                  -3.304
REMARK UNBOUND:                -3.582
REMARK SMILES CCCCCCCCCCCCCCCCCCCCCCCCCCCC(=O)[O-]
REMARK SMILES IDX 15 1 16 2 17 3 18 4 19 5 20 6 21 7 22 8 23 9 24 10 25 11
REMARK SMILES IDX 26 12 27 13 28 14 29 15 30 16 14 17 13 18 12 19 11 20 10 21
REMARK SMILES IDX 9 22 8 23 7 24 6 25 5 26 4 27 3 28 2 29 1 30
REMARK H PARENT
REMARK Flexibility Score: inf
ROOT
ATOM      1  C   UNL     1      -7.511 -14.873  29.608  1.00  0.00     0.000 C 
ENDROOT
BRANCH   1   2
ATOM      2  C   UNL     1      -6.848 -14.911  30.991  1.00  0.00     0.000 C 
BRANCH   2   3
ATOM      3  C   UNL     1      -6.923 -13.539  31.676  1.00  0.00     0.000 C 
BRANCH   3   4
ATOM      4  C   UNL     1      -5.700 -13.247  32.559  1.00  0.00     0.000 C 
BRANCH   4   5
ATOM      5  C   UNL     1      -5.153 -11.821  32.360  1.00  0.00     0.000 C 
BRANCH   5   6
ATOM      6  C   UNL     1      -5.801 -11.085  31.171  1.00  0.00     0.000 C 
BRANCH   6   7
ATOM      7  C   UNL     1      -4.845 -10.830  29.991  1.00  0.00     0.000 C 
BRANCH   7   8
ATOM      8  C   UNL     1      -3.553 -11.658  30.078  1.00  0.00     0.000 C 
BRANCH   8   9
ATOM      9  C   UNL     1      -3.454 -12.742  28.988  1.00  0.00     0.000 C 
BRANCH   9  10
ATOM     10  C   UNL     1      -3.376 -14.193  29.506  1.00  0.00     0.000 C 
BRANCH  10  11
ATOM     11  C   UNL     1      -2.746 -14.326  30.908  1.00  0.00     0.000 C 
BRANCH  11  12
ATOM     12  C   UNL     1      -1.327 -14.923  30.852  1.00  0.00     0.006 C 
BRANCH  12  13
ATOM     13  C   UNL     1      -0.289 -14.028  31.540  1.00  0.00     0.053 C 
BRANCH  13  14
ATOM     14  C   UNL     1      -0.092 -14.410  32.975  1.00  0.00     0.041 C 
ATOM     15  O   UNL     1       0.516 -15.472  33.270  1.00  0.00    -0.550 OA
ATOM     16  O   UNL     1      -0.563 -13.581  33.986  1.00  0.00    -0.550 OA
ENDBRANCH  13  14
ENDBRANCH  12  13
ENDBRANCH  11  12
ENDBRANCH  10  11
ENDBRANCH   9  10
ENDBRANCH   8   9
ENDBRANCH   7   8
ENDBRANCH   6   7
ENDBRANCH   5   6
ENDBRANCH   4   5
ENDBRANCH   3   4
ENDBRANCH   2   3
ENDBRANCH   1   2
BRANCH   1  17
ATOM     17  C   UNL     1      -6.911 -13.758  28.744  1.00  0.00     0.000 C 
BRANCH  17  18
ATOM     18  C   UNL     1      -6.531 -14.283  27.351  1.00  0.00     0.000 C 
BRANCH  18  19
ATOM     19  C   UNL     1      -7.686 -15.022  26.648  1.00  0.00     0.000 C 
BRANCH  19  20
ATOM     20  C   UNL     1      -8.896 -14.145  26.275  1.00  0.00     0.000 C 
BRANCH  20  21
ATOM     21  C   UNL     1     -10.216 -14.929  26.214  1.00  0.00     0.000 C 
BRANCH  21  22
ATOM     22  C   UNL     1     -10.270 -15.997  27.316  1.00  0.00    -0.000 C 
BRANCH  22  23
ATOM     23  C   UNL     1     -11.678 -16.588  27.513  1.00  0.00    -0.000 C 
BRANCH  23  24
ATOM     24  C   UNL     1     -11.833 -17.535  28.722  1.00  0.00    -0.000 C 
BRANCH  24  25
ATOM     25  C   UNL     1     -12.236 -16.851  30.042  1.00  0.00    -0.000 C 
BRANCH  25  26
ATOM     26  C   UNL     1     -13.440 -17.495  30.752  1.00  0.00    -0.000 C 
BRANCH  26  27
ATOM     27  C   UNL     1     -13.146 -17.902  32.216  1.00  0.00    -0.000 C 
BRANCH  27  28
ATOM     28  C   UNL     1     -12.270 -19.161  32.339  1.00  0.00    -0.000 C 
BRANCH  28  29
ATOM     29  C   UNL     1     -12.733 -20.085  33.475  1.00  0.00    -0.003 C 
ATOM     30  C   UNL     1     -13.906 -20.954  33.033  1.00  0.00     0.004 C 
ENDBRANCH  28  29
ENDBRANCH  27  28
ENDBRANCH  26  27
ENDBRANCH  25  26
ENDBRANCH  24  25
ENDBRANCH  23  24
ENDBRANCH  22  23
ENDBRANCH  21  22
ENDBRANCH  20  21
ENDBRANCH  19  20
ENDBRANCH  18  19
ENDBRANCH  17  18
ENDBRANCH   1  17
TORSDOF 26
ENDMDL
