MODEL 1
REMARK VINA RESULT:    -4.159      0.000      0.000
REMARK INTER + INTRA:          -4.159
REMARK INTER:                  -4.159
REMARK INTRA:                   0.000
REMARK UNBOUND:                 0.000
REMARK SMILES C=C1[C@H]2CC[C@H](C2)C1(C)C
REMARK SMILES IDX 9 1 8 2 6 3 5 4 4 5 3 6 7 7 2 8 1 9 10 10
REMARK H PARENT
REMARK Flexibility Score: inf
ROOT
ATOM      1  C   UNL     1     168.074 163.149 202.190  1.00  0.00     0.016 C 
ATOM      2  C   UNL     1     167.842 163.804 200.810  1.00  0.00    -0.012 C 
ATOM      3  C   UNL     1     169.152 164.479 200.271  1.00  0.00    -0.001 C 
ATOM      4  C   UNL     1     168.871 165.297 198.986  1.00  0.00     0.005 C 
ATOM      5  C   UNL     1     168.532 164.203 197.951  1.00  0.00     0.008 C 
ATOM      6  C   UNL     1     168.765 162.901 198.735  1.00  0.00     0.015 C 
ATOM      7  C   UNL     1     169.899 163.302 199.653  1.00  0.00     0.012 C 
ATOM      8  C   UNL     1     167.645 162.766 199.731  1.00  0.00    -0.068 C 
ATOM      9  C   UNL     1     166.625 161.905 199.633  1.00  0.00     0.008 C 
ATOM     10  C   UNL     1     166.635 164.768 200.908  1.00  0.00     0.016 C 
ENDROOT
TORSDOF 0
ENDMDL
MODEL 2
REMARK VINA RESULT:    -4.153      5.022      7.023
REMARK INTER + INTRA:          -4.153
REMARK INTER:                  -4.153
REMARK INTRA:                   0.000
REMARK UNBOUND:                 0.000
REMARK SMILES C=C1[C@H]2CC[C@H](C2)C1(C)C
REMARK SMILES IDX 9 1 8 2 6 3 5 4 4 5 3 6 7 7 2 8 1 9 10 10
REMARK H PARENT
REMARK Flexibility Score: inf
ROOT
ATOM      1  C   UNL     1     163.969 168.853 202.197  1.00  0.00     0.016 C 
ATOM      2  C   UNL     1     164.190 168.210 200.810  1.00  0.00    -0.012 C 
ATOM      3  C   UNL     1     162.879 167.525 200.284  1.00  0.00    -0.001 C 
ATOM      4  C   UNL     1     163.151 166.720 198.989  1.00  0.00     0.005 C 
ATOM      5  C   UNL     1     163.465 167.824 197.957  1.00  0.00     0.008 C 
ATOM      6  C   UNL     1     163.228 169.118 198.754  1.00  0.00     0.015 C 
ATOM      7  C   UNL     1     162.112 168.699 199.684  1.00  0.00     0.012 C 
ATOM      8  C   UNL     1     164.360 169.258 199.736  1.00  0.00    -0.068 C 
ATOM      9  C   UNL     1     165.369 170.130 199.630  1.00  0.00     0.008 C 
ATOM     10  C   UNL     1     165.407 167.259 200.884  1.00  0.00     0.016 C 
ENDROOT
TORSDOF 0
ENDMDL
MODEL 3
REMARK VINA RESULT:    -4.092      4.957      6.191
REMARK INTER + INTRA:          -4.092
REMARK INTER:                  -4.092
REMARK INTRA:                   0.000
REMARK UNBOUND:                 0.000
REMARK SMILES C=C1[C@H]2CC[C@H](C2)C1(C)C
REMARK SMILES IDX 9 1 8 2 6 3 5 4 4 5 3 6 7 7 2 8 1 9 10 10
REMARK H PARENT
REMARK Flexibility Score: inf
ROOT
ATOM      1  C   UNL     1     165.095 170.044 199.931  1.00  0.00     0.016 C 
ATOM      2  C   UNL     1     166.094 169.068 199.270  1.00  0.00    -0.012 C 
ATOM      3  C   UNL     1     166.363 169.456 197.774  1.00  0.00    -0.001 C 
ATOM      4  C   UNL     1     167.210 168.372 197.060  1.00  0.00     0.005 C 
ATOM      5  C   UNL     1     168.582 168.496 197.756  1.00  0.00     0.008 C 
ATOM      6  C   UNL     1     168.385 169.697 198.697  1.00  0.00     0.015 C 
ATOM      7  C   UNL     1     167.421 170.547 197.901  1.00  0.00     0.012 C 
ATOM      8  C   UNL     1     167.489 169.249 199.820  1.00  0.00    -0.068 C 
ATOM      9  C   UNL     1     167.887 169.004 201.073  1.00  0.00     0.008 C 
ATOM     10  C   UNL     1     165.584 167.620 199.461  1.00  0.00     0.016 C 
ENDROOT
TORSDOF 0
ENDMDL
MODEL 4
REMARK VINA RESULT:    -4.092      2.645      4.114
REMARK INTER + INTRA:          -4.092
REMARK INTER:                  -4.092
REMARK INTRA:                   0.000
REMARK UNBOUND:                 0.000
REMARK SMILES C=C1[C@H]2CC[C@H](C2)C1(C)C
REMARK SMILES IDX 9 1 8 2 6 3 5 4 4 5 3 6 7 7 2 8 1 9 10 10
REMARK H PARENT
REMARK Flexibility Score: inf
ROOT
ATOM      1  C   UNL     1     166.896 161.916 199.952  1.00  0.00     0.016 C 
ATOM      2  C   UNL     1     165.918 162.912 199.291  1.00  0.00    -0.012 C 
ATOM      3  C   UNL     1     165.649 162.538 197.791  1.00  0.00    -0.001 C 
ATOM      4  C   UNL     1     164.824 163.639 197.079  1.00  0.00     0.005 C 
ATOM      5  C   UNL     1     163.446 163.536 197.768  1.00  0.00     0.008 C 
ATOM      6  C   UNL     1     163.619 162.326 198.703  1.00  0.00     0.015 C 
ATOM      7  C   UNL     1     164.572 161.464 197.907  1.00  0.00     0.012 C 
ATOM      8  C   UNL     1     164.517 162.752 199.833  1.00  0.00    -0.068 C 
ATOM      9  C   UNL     1     164.117 162.998 201.086  1.00  0.00     0.008 C 
ATOM     10  C   UNL     1     166.451 164.350 199.492  1.00  0.00     0.016 C 
ENDROOT
TORSDOF 0
ENDMDL
MODEL 5
REMARK VINA RESULT:    -4.059      4.890      6.737
REMARK INTER + INTRA:          -4.059
REMARK INTER:                  -4.059
REMARK INTRA:                   0.000
REMARK UNBOUND:                 0.000
REMARK SMILES C=C1[C@H]2CC[C@H](C2)C1(C)C
REMARK SMILES IDX 9 1 8 2 6 3 5 4 4 5 3 6 7 7 2 8 1 9 10 10
REMARK H PARENT
REMARK Flexibility Score: inf
ROOT
ATOM      1  C   UNL     1     165.942 170.030 199.349  1.00  0.00     0.016 C 
ATOM      2  C   UNL     1     164.770 169.246 199.978  1.00  0.00    -0.012 C 
ATOM      3  C   UNL     1     163.496 169.294 199.063  1.00  0.00    -0.001 C 
ATOM      4  C   UNL     1     162.270 168.674 199.780  1.00  0.00     0.005 C 
ATOM      5  C   UNL     1     162.642 167.178 199.865  1.00  0.00     0.008 C 
ATOM      6  C   UNL     1     163.973 167.110 199.097  1.00  0.00     0.015 C 
ATOM      7  C   UNL     1     163.773 168.185 198.053  1.00  0.00     0.012 C 
ATOM      8  C   UNL     1     165.025 167.758 199.956  1.00  0.00    -0.068 C 
ATOM      9  C   UNL     1     165.984 167.106 200.625  1.00  0.00     0.008 C 
ATOM     10  C   UNL     1     164.530 169.766 201.414  1.00  0.00     0.016 C 
ENDROOT
TORSDOF 0
ENDMDL
MODEL 6
REMARK VINA RESULT:    -4.057      0.810      2.460
REMARK INTER + INTRA:          -4.057
REMARK INTER:                  -4.057
REMARK INTRA:                   0.000
REMARK UNBOUND:                 0.000
REMARK SMILES C=C1[C@H]2CC[C@H](C2)C1(C)C
REMARK SMILES IDX 9 1 8 2 6 3 5 4 4 5 3 6 7 7 2 8 1 9 10 10
REMARK H PARENT
REMARK Flexibility Score: inf
ROOT
ATOM      1  C   UNL     1     166.082 161.932 199.329  1.00  0.00     0.016 C 
ATOM      2  C   UNL     1     167.264 162.733 199.917  1.00  0.00    -0.012 C 
ATOM      3  C   UNL     1     168.535 162.629 199.003  1.00  0.00    -0.001 C 
ATOM      4  C   UNL     1     169.769 163.269 199.686  1.00  0.00     0.005 C 
ATOM      5  C   UNL     1     169.412 164.772 199.700  1.00  0.00     0.008 C 
ATOM      6  C   UNL     1     168.080 164.816 198.931  1.00  0.00     0.015 C 
ATOM      7  C   UNL     1     168.266 163.689 197.940  1.00  0.00     0.012 C 
ATOM      8  C   UNL     1     167.024 164.221 199.823  1.00  0.00    -0.068 C 
ATOM      9  C   UNL     1     166.074 164.915 200.462  1.00  0.00     0.008 C 
ATOM     10  C   UNL     1     167.503 162.281 201.377  1.00  0.00     0.016 C 
ENDROOT
TORSDOF 0
ENDMDL
MODEL 7
REMARK VINA RESULT:    -3.983      5.045      6.619
REMARK INTER + INTRA:          -3.983
REMARK INTER:                  -3.983
REMARK INTRA:                   0.000
REMARK UNBOUND:                 0.000
REMARK SMILES C=C1[C@H]2CC[C@H](C2)C1(C)C
REMARK SMILES IDX 9 1 8 2 6 3 5 4 4 5 3 6 7 7 2 8 1 9 10 10
REMARK H PARENT
REMARK Flexibility Score: inf
ROOT
ATOM      1  C   UNL     1     162.275 168.675 199.664  1.00  0.00     0.016 C 
ATOM      2  C   UNL     1     163.804 168.658 199.446  1.00  0.00    -0.012 C 
ATOM      3  C   UNL     1     164.465 169.992 199.941  1.00  0.00    -0.001 C 
ATOM      4  C   UNL     1     165.962 170.053 199.548  1.00  0.00     0.005 C 
ATOM      5  C   UNL     1     166.592 168.949 200.423  1.00  0.00     0.008 C 
ATOM      6  C   UNL     1     165.407 168.472 201.281  1.00  0.00     0.015 C 
ATOM      7  C   UNL     1     164.616 169.750 201.439  1.00  0.00     0.012 C 
ATOM      8  C   UNL     1     164.485 167.691 200.384  1.00  0.00    -0.068 C 
ATOM      9  C   UNL     1     164.347 166.360 200.391  1.00  0.00     0.008 C 
ATOM     10  C   UNL     1     164.097 168.326 197.964  1.00  0.00     0.016 C 
ENDROOT
TORSDOF 0
ENDMDL
MODEL 8
REMARK VINA RESULT:    -3.979      1.094      3.301
REMARK INTER + INTRA:          -3.979
REMARK INTER:                  -3.979
REMARK INTRA:                   0.000
REMARK UNBOUND:                 0.000
REMARK SMILES C=C1[C@H]2CC[C@H](C2)C1(C)C
REMARK SMILES IDX 9 1 8 2 6 3 5 4 4 5 3 6 7 7 2 8 1 9 10 10
REMARK H PARENT
REMARK Flexibility Score: inf
ROOT
ATOM      1  C   UNL     1     169.729 163.334 199.663  1.00  0.00     0.016 C 
ATOM      2  C   UNL     1     168.199 163.353 199.452  1.00  0.00    -0.012 C 
ATOM      3  C   UNL     1     167.537 162.023 199.955  1.00  0.00    -0.001 C 
ATOM      4  C   UNL     1     166.038 161.964 199.569  1.00  0.00     0.005 C 
ATOM      5  C   UNL     1     165.414 163.074 200.443  1.00  0.00     0.008 C 
ATOM      6  C   UNL     1     166.604 163.551 201.294  1.00  0.00     0.015 C 
ATOM      7  C   UNL     1     167.393 162.272 201.453  1.00  0.00     0.012 C 
ATOM      8  C   UNL     1     167.524 164.326 200.389  1.00  0.00    -0.068 C 
ATOM      9  C   UNL     1     167.666 165.657 200.390  1.00  0.00     0.008 C 
ATOM     10  C   UNL     1     167.899 163.681 197.970  1.00  0.00     0.016 C 
ENDROOT
TORSDOF 0
ENDMDL
MODEL 9
REMARK VINA RESULT:    -3.969      1.366      2.315
REMARK INTER + INTRA:          -3.969
REMARK INTER:                  -3.969
REMARK INTRA:                   0.000
REMARK UNBOUND:                 0.000
REMARK SMILES C=C1[C@H]2CC[C@H](C2)C1(C)C
REMARK SMILES IDX 9 1 8 2 6 3 5 4 4 5 3 6 7 7 2 8 1 9 10 10
REMARK H PARENT
REMARK Flexibility Score: inf
ROOT
ATOM      1  C   UNL     1     164.610 163.388 201.604  1.00  0.00     0.016 C 
ATOM      2  C   UNL     1     165.793 163.625 200.640  1.00  0.00    -0.012 C 
ATOM      3  C   UNL     1     167.155 163.700 201.415  1.00  0.00    -0.001 C 
ATOM      4  C   UNL     1     168.310 164.127 200.476  1.00  0.00     0.005 C 
ATOM      5  C   UNL     1     168.455 162.912 199.535  1.00  0.00     0.008 C 
ATOM      6  C   UNL     1     167.448 161.904 200.117  1.00  0.00     0.015 C 
ATOM      7  C   UNL     1     167.516 162.229 201.592  1.00  0.00     0.012 C 
ATOM      8  C   UNL     1     166.067 162.406 199.792  1.00  0.00    -0.068 C 
ATOM      9  C   UNL     1     165.255 161.882 198.866  1.00  0.00     0.008 C 
ATOM     10  C   UNL     1     165.494 164.871 199.774  1.00  0.00     0.016 C 
ENDROOT
TORSDOF 0
ENDMDL
