MODEL 1
REMARK VINA RESULT:    -6.120      0.000      0.000
REMARK INTER + INTRA:         -13.993
REMARK INTER:                 -11.128
REMARK INTRA:                  -2.865
REMARK UNBOUND:                -2.865
REMARK SMILES CCCCCC=CCC=CCCCCCCCC(=O)[O-]
REMARK SMILES IDX 11 1 12 2 13 3 14 4 15 5 16 6 17 7 18 8 19 9 20 10 10 11
REMARK SMILES IDX 9 12 8 13 7 14 6 15 5 16 4 17 3 18 2 19 1 20
REMARK H PARENT
REMARK Flexibility Score: inf
ROOT
ATOM      1  C   UNL     1     -41.179 -40.409 109.153  1.00  0.00     0.027 C 
ENDROOT
BRANCH   1   2
ATOM      2  C   UNL     1     -40.207 -40.871 108.061  1.00  0.00     0.004 C 
BRANCH   2   3
ATOM      3  C   UNL     1     -39.745 -39.688 107.197  1.00  0.00     0.000 C 
BRANCH   3   4
ATOM      4  C   UNL     1     -40.101 -39.880 105.707  1.00  0.00     0.000 C 
BRANCH   4   5
ATOM      5  C   UNL     1     -40.665 -41.273 105.380  1.00  0.00     0.000 C 
BRANCH   5   6
ATOM      6  C   UNL     1     -42.063 -41.218 104.742  1.00  0.00     0.006 C 
BRANCH   6   7
ATOM      7  C   UNL     1     -42.012 -40.782 103.272  1.00  0.00     0.053 C 
BRANCH   7   8
ATOM      8  C   UNL     1     -43.371 -40.785 102.643  1.00  0.00     0.041 C 
ATOM      9  O   UNL     1     -44.048 -39.724 102.589  1.00  0.00    -0.550 OA
ATOM     10  O   UNL     1     -43.904 -41.967 102.144  1.00  0.00    -0.550 OA
ENDBRANCH   7   8
ENDBRANCH   6   7
ENDBRANCH   5   6
ENDBRANCH   4   5
ENDBRANCH   3   4
ENDBRANCH   2   3
ENDBRANCH   1   2
BRANCH   1  11
ATOM     11  C   UNL     1     -42.509 -40.026 108.565  1.00  0.00    -0.031 C 
ATOM     12  C   UNL     1     -43.201 -38.972 109.023  1.00  0.00    -0.027 C 
BRANCH  12  13
ATOM     13  C   UNL     1     -44.525 -38.579 108.427  1.00  0.00     0.054 C 
BRANCH  13  14
ATOM     14  C   UNL     1     -44.920 -39.510 107.307  1.00  0.00    -0.027 C 
ATOM     15  C   UNL     1     -44.871 -39.198 105.999  1.00  0.00    -0.031 C 
BRANCH  15  16
ATOM     16  C   UNL     1     -44.483 -37.846 105.450  1.00  0.00     0.027 C 
BRANCH  16  17
ATOM     17  C   UNL     1     -42.962 -37.699 105.285  1.00  0.00     0.004 C 
BRANCH  17  18
ATOM     18  C   UNL     1     -42.349 -36.497 106.033  1.00  0.00     0.000 C 
BRANCH  18  19
ATOM     19  C   UNL     1     -43.347 -35.386 106.405  1.00  0.00    -0.003 C 
ATOM     20  C   UNL     1     -43.209 -34.923 107.854  1.00  0.00     0.004 C 
ENDBRANCH  18  19
ENDBRANCH  17  18
ENDBRANCH  16  17
ENDBRANCH  15  16
ENDBRANCH  13  14
ENDBRANCH  12  13
ENDBRANCH   1  11
TORSDOF 14
ENDMDL
MODEL 2
REMARK VINA RESULT:    -5.960      1.959      2.250
REMARK INTER + INTRA:         -13.702
REMARK INTER:                 -11.483
REMARK INTRA:                  -2.219
REMARK UNBOUND:                -2.865
REMARK SMILES CCCCCC=CCC=CCCCCCCCC(=O)[O-]
REMARK SMILES IDX 11 1 12 2 13 3 14 4 15 5 16 6 17 7 18 8 19 9 20 10 10 11
REMARK SMILES IDX 9 12 8 13 7 14 6 15 5 16 4 17 3 18 2 19 1 20
REMARK H PARENT
REMARK Flexibility Score: inf
ROOT
ATOM      1  C   UNL     1     -41.021 -40.404 109.411  1.00  0.00     0.027 C 
ENDROOT
BRANCH   1   2
ATOM      2  C   UNL     1     -40.041 -40.799 108.300  1.00  0.00     0.004 C 
BRANCH   2   3
ATOM      3  C   UNL     1     -39.869 -39.659 107.285  1.00  0.00     0.000 C 
BRANCH   3   4
ATOM      4  C   UNL     1     -40.388 -40.043 105.882  1.00  0.00     0.000 C 
BRANCH   4   5
ATOM      5  C   UNL     1     -41.093 -41.409 105.836  1.00  0.00     0.000 C 
BRANCH   5   6
ATOM      6  C   UNL     1     -40.992 -42.089 104.461  1.00  0.00     0.006 C 
BRANCH   6   7
ATOM      7  C   UNL     1     -40.058 -43.305 104.483  1.00  0.00     0.053 C 
BRANCH   7   8
ATOM      8  C   UNL     1     -39.985 -43.975 103.145  1.00  0.00     0.041 C 
ATOM      9  O   UNL     1     -40.666 -45.009 102.915  1.00  0.00    -0.550 OA
ATOM     10  O   UNL     1     -39.142 -43.474 102.162  1.00  0.00    -0.550 OA
ENDBRANCH   7   8
ENDBRANCH   6   7
ENDBRANCH   5   6
ENDBRANCH   4   5
ENDBRANCH   3   4
ENDBRANCH   2   3
ENDBRANCH   1   2
BRANCH   1  11
ATOM     11  C   UNL     1     -42.384 -40.105 108.850  1.00  0.00    -0.031 C 
ATOM     12  C   UNL     1     -43.027 -38.965 109.140  1.00  0.00    -0.027 C 
BRANCH  12  13
ATOM     13  C   UNL     1     -44.384 -38.658 108.568  1.00  0.00     0.054 C 
BRANCH  13  14
ATOM     14  C   UNL     1     -44.770 -39.659 107.507  1.00  0.00    -0.027 C 
ATOM     15  C   UNL     1     -44.836 -39.392 106.190  1.00  0.00    -0.031 C 
BRANCH  15  16
ATOM     16  C   UNL     1     -44.604 -38.033 105.575  1.00  0.00     0.027 C 
BRANCH  16  17
ATOM     17  C   UNL     1     -43.124 -37.793 105.234  1.00  0.00     0.004 C 
BRANCH  17  18
ATOM     18  C   UNL     1     -42.497 -36.566 105.927  1.00  0.00     0.000 C 
BRANCH  18  19
ATOM     19  C   UNL     1     -43.505 -35.506 106.406  1.00  0.00    -0.003 C 
ATOM     20  C   UNL     1     -43.212 -35.000 107.818  1.00  0.00     0.004 C 
ENDBRANCH  18  19
ENDBRANCH  17  18
ENDBRANCH  16  17
ENDBRANCH  15  16
ENDBRANCH  13  14
ENDBRANCH  12  13
ENDBRANCH   1  11
TORSDOF 14
ENDMDL
MODEL 3
REMARK VINA RESULT:    -5.947      3.262      7.166
REMARK INTER + INTRA:         -13.679
REMARK INTER:                 -12.055
REMARK INTRA:                  -1.624
REMARK UNBOUND:                -2.865
REMARK SMILES CCCCCC=CCC=CCCCCCCCC(=O)[O-]
REMARK SMILES IDX 11 1 12 2 13 3 14 4 15 5 16 6 17 7 18 8 19 9 20 10 10 11
REMARK SMILES IDX 9 12 8 13 7 14 6 15 5 16 4 17 3 18 2 19 1 20
REMARK H PARENT
REMARK Flexibility Score: inf
ROOT
ATOM      1  C   UNL     1     -43.776 -39.038 104.482  1.00  0.00     0.027 C 
ENDROOT
BRANCH   1   2
ATOM      2  C   UNL     1     -44.558 -40.240 105.024  1.00  0.00     0.004 C 
BRANCH   2   3
ATOM      3  C   UNL     1     -44.237 -40.484 106.506  1.00  0.00     0.000 C 
BRANCH   3   4
ATOM      4  C   UNL     1     -45.005 -39.521 107.436  1.00  0.00     0.000 C 
BRANCH   4   5
ATOM      5  C   UNL     1     -44.180 -39.031 108.638  1.00  0.00     0.000 C 
BRANCH   5   6
ATOM      6  C   UNL     1     -43.539 -37.654 108.402  1.00  0.00     0.006 C 
BRANCH   6   7
ATOM      7  C   UNL     1     -44.325 -36.816 107.385  1.00  0.00     0.053 C 
BRANCH   7   8
ATOM      8  C   UNL     1     -43.591 -35.566 107.009  1.00  0.00     0.041 C 
ATOM      9  O   UNL     1     -43.394 -35.285 105.798  1.00  0.00    -0.550 OA
ATOM     10  O   UNL     1     -43.098 -34.725 107.999  1.00  0.00    -0.550 OA
ENDBRANCH   7   8
ENDBRANCH   6   7
ENDBRANCH   5   6
ENDBRANCH   4   5
ENDBRANCH   3   4
ENDBRANCH   2   3
ENDBRANCH   1   2
BRANCH   1  11
ATOM     11  C   UNL     1     -42.296 -39.305 104.496  1.00  0.00    -0.031 C 
ATOM     12  C   UNL     1     -41.730 -40.161 103.632  1.00  0.00    -0.027 C 
BRANCH  12  13
ATOM     13  C   UNL     1     -40.248 -40.420 103.635  1.00  0.00     0.054 C 
BRANCH  13  14
ATOM     14  C   UNL     1     -39.710 -40.538 102.231  1.00  0.00    -0.027 C 
ATOM     15  C   UNL     1     -38.655 -41.295 101.876  1.00  0.00    -0.031 C 
BRANCH  15  16
ATOM     16  C   UNL     1     -37.803 -42.087 102.838  1.00  0.00     0.027 C 
BRANCH  16  17
ATOM     17  C   UNL     1     -37.881 -43.600 102.576  1.00  0.00     0.004 C 
BRANCH  17  18
ATOM     18  C   UNL     1     -38.862 -44.360 103.493  1.00  0.00     0.000 C 
BRANCH  18  19
ATOM     19  C   UNL     1     -40.065 -44.995 102.772  1.00  0.00    -0.003 C 
ATOM     20  C   UNL     1     -41.020 -43.960 102.181  1.00  0.00     0.004 C 
ENDBRANCH  18  19
ENDBRANCH  17  18
ENDBRANCH  16  17
ENDBRANCH  15  16
ENDBRANCH  13  14
ENDBRANCH  12  13
ENDBRANCH   1  11
TORSDOF 14
ENDMDL
MODEL 4
REMARK VINA RESULT:    -5.933      3.463      7.286
REMARK INTER + INTRA:         -13.654
REMARK INTER:                 -12.236
REMARK INTRA:                  -1.418
REMARK UNBOUND:                -2.865
REMARK SMILES CCCCCC=CCC=CCCCCCCCC(=O)[O-]
REMARK SMILES IDX 11 1 12 2 13 3 14 4 15 5 16 6 17 7 18 8 19 9 20 10 10 11
REMARK SMILES IDX 9 12 8 13 7 14 6 15 5 16 4 17 3 18 2 19 1 20
REMARK H PARENT
REMARK Flexibility Score: inf
ROOT
ATOM      1  C   UNL     1     -41.182 -40.965 106.066  1.00  0.00     0.027 C 
ENDROOT
BRANCH   1   2
ATOM      2  C   UNL     1     -42.488 -40.833 105.275  1.00  0.00     0.004 C 
BRANCH   2   3
ATOM      3  C   UNL     1     -43.708 -40.985 106.195  1.00  0.00     0.000 C 
BRANCH   3   4
ATOM      4  C   UNL     1     -44.735 -39.850 105.994  1.00  0.00     0.000 C 
BRANCH   4   5
ATOM      5  C   UNL     1     -44.372 -38.549 106.729  1.00  0.00     0.000 C 
BRANCH   5   6
ATOM      6  C   UNL     1     -44.147 -37.365 105.775  1.00  0.00     0.006 C 
BRANCH   6   7
ATOM      7  C   UNL     1     -44.346 -36.013 106.472  1.00  0.00     0.053 C 
BRANCH   7   8
ATOM      8  C   UNL     1     -43.072 -35.504 107.072  1.00  0.00     0.041 C 
ATOM      9  O   UNL     1     -43.103 -34.686 108.030  1.00  0.00    -0.550 OA
ATOM     10  O   UNL     1     -41.849 -35.909 106.554  1.00  0.00    -0.550 OA
ENDBRANCH   7   8
ENDBRANCH   6   7
ENDBRANCH   5   6
ENDBRANCH   4   5
ENDBRANCH   3   4
ENDBRANCH   2   3
ENDBRANCH   1   2
BRANCH   1  11
ATOM     11  C   UNL     1     -39.998 -40.576 105.224  1.00  0.00    -0.031 C 
ATOM     12  C   UNL     1     -38.985 -41.426 105.003  1.00  0.00    -0.027 C 
BRANCH  12  13
ATOM     13  C   UNL     1     -37.807 -41.044 104.149  1.00  0.00     0.054 C 
BRANCH  13  14
ATOM     14  C   UNL     1     -37.214 -42.250 103.462  1.00  0.00    -0.027 C 
ATOM     15  C   UNL     1     -37.793 -42.912 102.443  1.00  0.00    -0.031 C 
BRANCH  15  16
ATOM     16  C   UNL     1     -39.156 -42.597 101.876  1.00  0.00     0.027 C 
BRANCH  16  17
ATOM     17  C   UNL     1     -40.096 -43.813 101.910  1.00  0.00     0.004 C 
BRANCH  17  18
ATOM     18  C   UNL     1     -40.717 -44.106 103.291  1.00  0.00     0.000 C 
BRANCH  18  19
ATOM     19  C   UNL     1     -40.037 -45.237 104.083  1.00  0.00    -0.003 C 
ATOM     20  C   UNL     1     -39.422 -46.308 103.184  1.00  0.00     0.004 C 
ENDBRANCH  18  19
ENDBRANCH  17  18
ENDBRANCH  16  17
ENDBRANCH  15  16
ENDBRANCH  13  14
ENDBRANCH  12  13
ENDBRANCH   1  11
TORSDOF 14
ENDMDL
MODEL 5
REMARK VINA RESULT:    -5.932      2.644      3.146
REMARK INTER + INTRA:         -13.652
REMARK INTER:                 -11.671
REMARK INTRA:                  -1.981
REMARK UNBOUND:                -2.865
REMARK SMILES CCCCCC=CCC=CCCCCCCCC(=O)[O-]
REMARK SMILES IDX 11 1 12 2 13 3 14 4 15 5 16 6 17 7 18 8 19 9 20 10 10 11
REMARK SMILES IDX 9 12 8 13 7 14 6 15 5 16 4 17 3 18 2 19 1 20
REMARK H PARENT
REMARK Flexibility Score: inf
ROOT
ATOM      1  C   UNL     1     -40.253 -40.663 107.353  1.00  0.00     0.027 C 
ENDROOT
BRANCH   1   2
ATOM      2  C   UNL     1     -39.721 -40.461 105.929  1.00  0.00     0.004 C 
BRANCH   2   3
ATOM      3  C   UNL     1     -40.680 -41.061 104.891  1.00  0.00     0.000 C 
BRANCH   3   4
ATOM      4  C   UNL     1     -40.966 -40.087 103.728  1.00  0.00     0.000 C 
BRANCH   4   5
ATOM      5  C   UNL     1     -40.778 -40.714 102.336  1.00  0.00     0.000 C 
BRANCH   5   6
ATOM      6  C   UNL     1     -39.319 -41.100 102.045  1.00  0.00     0.006 C 
BRANCH   6   7
ATOM      7  C   UNL     1     -39.143 -42.614 101.875  1.00  0.00     0.053 C 
BRANCH   7   8
ATOM      8  C   UNL     1     -38.014 -43.140 102.708  1.00  0.00     0.041 C 
ATOM      9  O   UNL     1     -37.183 -42.347 103.224  1.00  0.00    -0.550 OA
ATOM     10  O   UNL     1     -37.863 -44.508 102.890  1.00  0.00    -0.550 OA
ENDBRANCH   7   8
ENDBRANCH   6   7
ENDBRANCH   5   6
ENDBRANCH   4   5
ENDBRANCH   3   4
ENDBRANCH   2   3
ENDBRANCH   1   2
BRANCH   1  11
ATOM     11  C   UNL     1     -41.724 -40.355 107.428  1.00  0.00    -0.031 C 
ATOM     12  C   UNL     1     -42.215 -39.499 108.336  1.00  0.00    -0.027 C 
BRANCH  12  13
ATOM     13  C   UNL     1     -43.683 -39.179 108.404  1.00  0.00     0.054 C 
BRANCH  13  14
ATOM     14  C   UNL     1     -44.458 -39.939 107.357  1.00  0.00    -0.027 C 
ATOM     15  C   UNL     1     -44.881 -39.418 106.189  1.00  0.00    -0.031 C 
BRANCH  15  16
ATOM     16  C   UNL     1     -44.708 -37.976 105.777  1.00  0.00     0.027 C 
BRANCH  16  17
ATOM     17  C   UNL     1     -43.322 -37.706 105.169  1.00  0.00     0.004 C 
BRANCH  17  18
ATOM     18  C   UNL     1     -42.633 -36.426 105.687  1.00  0.00     0.000 C 
BRANCH  18  19
ATOM     19  C   UNL     1     -43.557 -35.449 106.436  1.00  0.00    -0.003 C 
ATOM     20  C   UNL     1     -43.181 -35.281 107.907  1.00  0.00     0.004 C 
ENDBRANCH  18  19
ENDBRANCH  17  18
ENDBRANCH  16  17
ENDBRANCH  15  16
ENDBRANCH  13  14
ENDBRANCH  12  13
ENDBRANCH   1  11
TORSDOF 14
ENDMDL
MODEL 6
REMARK VINA RESULT:    -5.883      3.087      6.409
REMARK INTER + INTRA:         -13.563
REMARK INTER:                 -11.285
REMARK INTRA:                  -2.277
REMARK UNBOUND:                -2.865
REMARK SMILES CCCCCC=CCC=CCCCCCCCC(=O)[O-]
REMARK SMILES IDX 11 1 12 2 13 3 14 4 15 5 16 6 17 7 18 8 19 9 20 10 10 11
REMARK SMILES IDX 9 12 8 13 7 14 6 15 5 16 4 17 3 18 2 19 1 20
REMARK H PARENT
REMARK Flexibility Score: inf
ROOT
ATOM      1  C   UNL     1     -41.159 -39.398 106.552  1.00  0.00     0.027 C 
ENDROOT
BRANCH   1   2
ATOM      2  C   UNL     1     -42.068 -39.917 107.672  1.00  0.00     0.004 C 
BRANCH   2   3
ATOM      3  C   UNL     1     -43.405 -40.423 107.108  1.00  0.00     0.000 C 
BRANCH   3   4
ATOM      4  C   UNL     1     -44.492 -39.326 107.112  1.00  0.00     0.000 C 
BRANCH   4   5
ATOM      5  C   UNL     1     -44.633 -38.590 105.769  1.00  0.00     0.000 C 
BRANCH   5   6
ATOM      6  C   UNL     1     -44.404 -37.075 105.891  1.00  0.00     0.006 C 
BRANCH   6   7
ATOM      7  C   UNL     1     -43.920 -36.673 107.290  1.00  0.00     0.053 C 
BRANCH   7   8
ATOM      8  C   UNL     1     -42.892 -35.585 107.231  1.00  0.00     0.041 C 
ATOM      9  O   UNL     1     -41.735 -35.827 106.798  1.00  0.00    -0.550 OA
ATOM     10  O   UNL     1     -43.204 -34.309 107.683  1.00  0.00    -0.550 OA
ENDBRANCH   7   8
ENDBRANCH   6   7
ENDBRANCH   5   6
ENDBRANCH   4   5
ENDBRANCH   3   4
ENDBRANCH   2   3
ENDBRANCH   1   2
BRANCH   1  11
ATOM     11  C   UNL     1     -41.201 -40.310 105.356  1.00  0.00    -0.031 C 
ATOM     12  C   UNL     1     -41.370 -39.830 104.115  1.00  0.00    -0.027 C 
BRANCH  12  13
ATOM     13  C   UNL     1     -41.398 -40.739 102.916  1.00  0.00     0.054 C 
BRANCH  13  14
ATOM     14  C   UNL     1     -41.875 -42.121 103.288  1.00  0.00    -0.027 C 
ATOM     15  C   UNL     1     -41.309 -43.266 102.862  1.00  0.00    -0.031 C 
BRANCH  15  16
ATOM     16  C   UNL     1     -40.156 -43.347 101.892  1.00  0.00     0.027 C 
BRANCH  16  17
ATOM     17  C   UNL     1     -38.843 -43.755 102.580  1.00  0.00     0.004 C 
BRANCH  17  18
ATOM     18  C   UNL     1     -37.672 -42.775 102.360  1.00  0.00     0.000 C 
BRANCH  18  19
ATOM     19  C   UNL     1     -37.896 -41.359 102.920  1.00  0.00    -0.003 C 
ATOM     20  C   UNL     1     -37.728 -41.284 104.437  1.00  0.00     0.004 C 
ENDBRANCH  18  19
ENDBRANCH  17  18
ENDBRANCH  16  17
ENDBRANCH  15  16
ENDBRANCH  13  14
ENDBRANCH  12  13
ENDBRANCH   1  11
TORSDOF 14
ENDMDL
MODEL 7
REMARK VINA RESULT:    -5.873      3.167      6.690
REMARK INTER + INTRA:         -13.544
REMARK INTER:                 -11.813
REMARK INTRA:                  -1.730
REMARK UNBOUND:                -2.865
REMARK SMILES CCCCCC=CCC=CCCCCCCCC(=O)[O-]
REMARK SMILES IDX 11 1 12 2 13 3 14 4 15 5 16 6 17 7 18 8 19 9 20 10 10 11
REMARK SMILES IDX 9 12 8 13 7 14 6 15 5 16 4 17 3 18 2 19 1 20
REMARK H PARENT
REMARK Flexibility Score: inf
ROOT
ATOM      1  C   UNL     1     -41.556 -40.206 108.237  1.00  0.00     0.027 C 
ENDROOT
BRANCH   1   2
ATOM      2  C   UNL     1     -42.815 -39.418 108.617  1.00  0.00     0.004 C 
BRANCH   2   3
ATOM      3  C   UNL     1     -44.038 -39.923 107.837  1.00  0.00     0.000 C 
BRANCH   3   4
ATOM      4  C   UNL     1     -44.764 -38.784 107.089  1.00  0.00     0.000 C 
BRANCH   4   5
ATOM      5  C   UNL     1     -44.376 -38.672 105.605  1.00  0.00     0.000 C 
BRANCH   5   6
ATOM      6  C   UNL     1     -43.410 -37.509 105.326  1.00  0.00     0.006 C 
BRANCH   6   7
ATOM      7  C   UNL     1     -43.807 -36.233 106.078  1.00  0.00     0.053 C 
BRANCH   7   8
ATOM      8  C   UNL     1     -42.712 -35.756 106.981  1.00  0.00     0.041 C 
ATOM      9  O   UNL     1     -42.975 -35.004 107.957  1.00  0.00    -0.550 OA
ATOM     10  O   UNL     1     -41.395 -36.117 106.728  1.00  0.00    -0.550 OA
ENDBRANCH   7   8
ENDBRANCH   6   7
ENDBRANCH   5   6
ENDBRANCH   4   5
ENDBRANCH   3   4
ENDBRANCH   2   3
ENDBRANCH   1   2
BRANCH   1  11
ATOM     11  C   UNL     1     -41.062 -39.810 106.873  1.00  0.00    -0.031 C 
ATOM     12  C   UNL     1     -41.019 -40.689 105.860  1.00  0.00    -0.027 C 
BRANCH  12  13
ATOM     13  C   UNL     1     -40.539 -40.292 104.492  1.00  0.00     0.054 C 
BRANCH  13  14
ATOM     14  C   UNL     1     -39.334 -41.100 104.078  1.00  0.00    -0.027 C 
ATOM     15  C   UNL     1     -39.258 -41.840 102.955  1.00  0.00    -0.031 C 
BRANCH  15  16
ATOM     16  C   UNL     1     -40.388 -42.033 101.973  1.00  0.00     0.027 C 
BRANCH  16  17
ATOM     17  C   UNL     1     -40.994 -43.444 102.054  1.00  0.00     0.004 C 
BRANCH  17  18
ATOM     18  C   UNL     1     -40.469 -44.302 103.223  1.00  0.00     0.000 C 
BRANCH  18  19
ATOM     19  C   UNL     1     -40.186 -45.774 102.873  1.00  0.00    -0.003 C 
ATOM     20  C   UNL     1     -38.733 -46.177 103.119  1.00  0.00     0.004 C 
ENDBRANCH  18  19
ENDBRANCH  17  18
ENDBRANCH  16  17
ENDBRANCH  15  16
ENDBRANCH  13  14
ENDBRANCH  12  13
ENDBRANCH   1  11
TORSDOF 14
ENDMDL
MODEL 8
REMARK VINA RESULT:    -5.818      3.265      7.002
REMARK INTER + INTRA:         -13.444
REMARK INTER:                 -11.452
REMARK INTRA:                  -1.993
REMARK UNBOUND:                -2.865
REMARK SMILES CCCCCC=CCC=CCCCCCCCC(=O)[O-]
REMARK SMILES IDX 11 1 12 2 13 3 14 4 15 5 16 6 17 7 18 8 19 9 20 10 10 11
REMARK SMILES IDX 9 12 8 13 7 14 6 15 5 16 4 17 3 18 2 19 1 20
REMARK H PARENT
REMARK Flexibility Score: inf
ROOT
ATOM      1  C   UNL     1     -41.198 -39.877 105.698  1.00  0.00     0.027 C 
ENDROOT
BRANCH   1   2
ATOM      2  C   UNL     1     -41.949 -38.758 104.967  1.00  0.00     0.004 C 
BRANCH   2   3
ATOM      3  C   UNL     1     -43.408 -39.156 104.698  1.00  0.00     0.000 C 
BRANCH   3   4
ATOM      4  C   UNL     1     -44.380 -37.971 104.884  1.00  0.00     0.000 C 
BRANCH   4   5
ATOM      5  C   UNL     1     -43.766 -36.779 105.638  1.00  0.00     0.000 C 
BRANCH   5   6
ATOM      6  C   UNL     1     -44.388 -36.567 107.028  1.00  0.00     0.006 C 
BRANCH   6   7
ATOM      7  C   UNL     1     -43.447 -37.008 108.157  1.00  0.00     0.053 C 
BRANCH   7   8
ATOM      8  C   UNL     1     -43.798 -38.370 108.672  1.00  0.00     0.041 C 
ATOM      9  O   UNL     1     -44.821 -38.967 108.243  1.00  0.00    -0.550 OA
ATOM     10  O   UNL     1     -43.013 -38.968 109.649  1.00  0.00    -0.550 OA
ENDBRANCH   7   8
ENDBRANCH   6   7
ENDBRANCH   5   6
ENDBRANCH   4   5
ENDBRANCH   3   4
ENDBRANCH   2   3
ENDBRANCH   1   2
BRANCH   1  11
ATOM     11  C   UNL     1     -39.803 -40.033 105.159  1.00  0.00    -0.031 C 
ATOM     12  C   UNL     1     -39.260 -41.243 104.957  1.00  0.00    -0.027 C 
BRANCH  12  13
ATOM     13  C   UNL     1     -37.870 -41.400 104.405  1.00  0.00     0.054 C 
BRANCH  13  14
ATOM     14  C   UNL     1     -37.880 -41.429 102.896  1.00  0.00    -0.027 C 
ATOM     15  C   UNL     1     -37.963 -42.548 102.152  1.00  0.00    -0.031 C 
BRANCH  15  16
ATOM     16  C   UNL     1     -37.987 -43.951 102.708  1.00  0.00     0.027 C 
BRANCH  16  17
ATOM     17  C   UNL     1     -39.265 -44.711 102.316  1.00  0.00     0.004 C 
BRANCH  17  18
ATOM     18  C   UNL     1     -40.551 -44.197 102.997  1.00  0.00     0.000 C 
BRANCH  18  19
ATOM     19  C   UNL     1     -41.447 -43.315 102.109  1.00  0.00    -0.003 C 
ATOM     20  C   UNL     1     -42.090 -42.159 102.873  1.00  0.00     0.004 C 
ENDBRANCH  18  19
ENDBRANCH  17  18
ENDBRANCH  16  17
ENDBRANCH  15  16
ENDBRANCH  13  14
ENDBRANCH  12  13
ENDBRANCH   1  11
TORSDOF 14
ENDMDL
MODEL 9
REMARK VINA RESULT:    -5.729      2.896      3.888
REMARK INTER + INTRA:         -13.284
REMARK INTER:                 -11.233
REMARK INTRA:                  -2.051
REMARK UNBOUND:                -2.865
REMARK SMILES CCCCCC=CCC=CCCCCCCCC(=O)[O-]
REMARK SMILES IDX 11 1 12 2 13 3 14 4 15 5 16 6 17 7 18 8 19 9 20 10 10 11
REMARK SMILES IDX 9 12 8 13 7 14 6 15 5 16 4 17 3 18 2 19 1 20
REMARK H PARENT
REMARK Flexibility Score: inf
ROOT
ATOM      1  C   UNL     1     -39.589 -41.431 106.144  1.00  0.00     0.027 C 
ENDROOT
BRANCH   1   2
ATOM      2  C   UNL     1     -38.586 -40.555 105.383  1.00  0.00     0.004 C 
BRANCH   2   3
ATOM      3  C   UNL     1     -37.836 -41.372 104.320  1.00  0.00     0.000 C 
BRANCH   3   4
ATOM      4  C   UNL     1     -38.332 -41.064 102.891  1.00  0.00     0.000 C 
BRANCH   4   5
ATOM      5  C   UNL     1     -38.206 -42.253 101.923  1.00  0.00     0.000 C 
BRANCH   5   6
ATOM      6  C   UNL     1     -37.864 -43.572 102.637  1.00  0.00     0.006 C 
BRANCH   6   7
ATOM      7  C   UNL     1     -38.990 -44.607 102.512  1.00  0.00     0.053 C 
BRANCH   7   8
ATOM      8  C   UNL     1     -39.941 -44.537 103.667  1.00  0.00     0.041 C 
ATOM      9  O   UNL     1     -40.967 -43.810 103.601  1.00  0.00    -0.550 OA
ATOM     10  O   UNL     1     -39.678 -45.251 104.828  1.00  0.00    -0.550 OA
ENDBRANCH   7   8
ENDBRANCH   6   7
ENDBRANCH   5   6
ENDBRANCH   4   5
ENDBRANCH   3   4
ENDBRANCH   2   3
ENDBRANCH   1   2
BRANCH   1  11
ATOM     11  C   UNL     1     -41.004 -41.027 105.832  1.00  0.00    -0.031 C 
ATOM     12  C   UNL     1     -41.295 -39.814 105.340  1.00  0.00    -0.027 C 
BRANCH  12  13
ATOM     13  C   UNL     1     -42.707 -39.413 105.014  1.00  0.00     0.054 C 
BRANCH  13  14
ATOM     14  C   UNL     1     -43.651 -40.583 105.142  1.00  0.00    -0.027 C 
ATOM     15  C   UNL     1     -44.731 -40.610 105.946  1.00  0.00    -0.031 C 
BRANCH  15  16
ATOM     16  C   UNL     1     -45.124 -39.506 106.897  1.00  0.00     0.027 C 
BRANCH  16  17
ATOM     17  C   UNL     1     -44.336 -39.565 108.216  1.00  0.00     0.004 C 
BRANCH  17  18
ATOM     18  C   UNL     1     -43.623 -38.251 108.595  1.00  0.00     0.000 C 
BRANCH  18  19
ATOM     19  C   UNL     1     -43.948 -37.050 107.688  1.00  0.00    -0.003 C 
ATOM     20  C   UNL     1     -42.699 -36.349 107.157  1.00  0.00     0.004 C 
ENDBRANCH  18  19
ENDBRANCH  17  18
ENDBRANCH  16  17
ENDBRANCH  15  16
ENDBRANCH  13  14
ENDBRANCH  12  13
ENDBRANCH   1  11
TORSDOF 14
ENDMDL
