MODEL 1
REMARK VINA RESULT:    -9.101      0.000      0.000
REMARK INTER + INTRA:         -10.970
REMARK INTER:                 -10.697
REMARK INTRA:                  -0.273
REMARK UNBOUND:                -0.273
REMARK SMILES O=c1cc(-c2ccc(O)c(O)c2)oc2cc(O)cc(O)c12
REMARK SMILES IDX 4 1 3 2 2 3 1 4 21 5 19 6 18 7 16 8 15 9 14 10 13 11 5 12
REMARK SMILES IDX 6 13 7 14 8 15 12 16 10 17 9 18 11 20 20 22 17 24
REMARK H PARENT 9 19 11 21 20 23 17 25
REMARK Flexibility Score: inf
ROOT
ATOM      1  C   UNL     1     140.919 -20.497  78.923  1.00  0.00     0.138 A 
ATOM      2  C   UNL     1     139.680 -20.949  78.445  1.00  0.00     0.100 A 
ATOM      3  C   UNL     1     138.502 -20.448  78.999  1.00  0.00     0.197 A 
ATOM      4  O   UNL     1     137.408 -20.919  78.592  1.00  0.00    -0.289 OA
ATOM      5  C   UNL     1     138.565 -19.467  80.016  1.00  0.00     0.107 A 
ATOM      6  C   UNL     1     137.428 -18.854  80.626  1.00  0.00     0.134 A 
ATOM      7  C   UNL     1     137.611 -17.980  81.705  1.00  0.00     0.093 A 
ATOM      8  C   UNL     1     138.889 -17.649  82.155  1.00  0.00     0.123 A 
ATOM      9  C   UNL     1     140.009 -18.199  81.530  1.00  0.00     0.094 A 
ATOM     10  C   UNL     1     139.858 -19.102  80.475  1.00  0.00     0.146 A 
ATOM     11  O   UNL     1     140.950 -19.614  79.917  1.00  0.00    -0.456 OA
ENDROOT
BRANCH   1  12
ATOM     12  C   UNL     1     142.203 -20.995  78.369  1.00  0.00     0.021 A 
ATOM     13  C   UNL     1     142.653 -22.278  78.714  1.00  0.00     0.016 A 
ATOM     14  C   UNL     1     143.859 -22.767  78.212  1.00  0.00     0.051 A 
ATOM     15  C   UNL     1     144.648 -21.985  77.363  1.00  0.00     0.157 A 
ATOM     16  C   UNL     1     143.002 -20.201  77.526  1.00  0.00     0.062 A 
ATOM     17  C   UNL     1     144.216 -20.682  77.019  1.00  0.00     0.158 A 
BRANCH  15  18
ATOM     18  O   UNL     1     145.841 -22.534  76.890  1.00  0.00    -0.504 OA
ATOM     19  H   UNL     1     145.920 -23.057  76.029  1.00  0.00     0.293 HD
ENDBRANCH  15  18
BRANCH  17  20
ATOM     20  O   UNL     1     144.958 -19.837  76.190  1.00  0.00    -0.504 OA
ATOM     21  H   UNL     1     144.579 -19.360  75.385  1.00  0.00     0.293 HD
ENDBRANCH  17  20
ENDBRANCH   1  12
BRANCH   6  22
ATOM     22  O   UNL     1     136.111 -19.051  80.198  1.00  0.00    -0.507 OA
ATOM     23  H   UNL     1     135.330 -19.241  80.807  1.00  0.00     0.293 HD
ENDBRANCH   6  22
BRANCH   8  24
ATOM     24  O   UNL     1     139.033 -16.763  83.221  1.00  0.00    -0.508 OA
ATOM     25  H   UNL     1     138.786 -15.784  83.133  1.00  0.00     0.293 HD
ENDBRANCH   8  24
TORSDOF 5
ENDMDL
MODEL 2
REMARK VINA RESULT:    -8.803      3.844      6.358
REMARK INTER + INTRA:         -10.619
REMARK INTER:                 -10.302
REMARK INTRA:                  -0.318
REMARK UNBOUND:                -0.273
REMARK SMILES O=c1cc(-c2ccc(O)c(O)c2)oc2cc(O)cc(O)c12
REMARK SMILES IDX 4 1 3 2 2 3 1 4 21 5 19 6 18 7 16 8 15 9 14 10 13 11 5 12
REMARK SMILES IDX 6 13 7 14 8 15 12 16 10 17 9 18 11 20 20 22 17 24
REMARK H PARENT 9 19 11 21 20 23 17 25
REMARK Flexibility Score: inf
ROOT
ATOM      1  C   UNL     1     139.427 -17.744  80.772  1.00  0.00     0.138 A 
ATOM      2  C   UNL     1     140.248 -18.828  81.117  1.00  0.00     0.100 A 
ATOM      3  C   UNL     1     139.769 -20.130  80.972  1.00  0.00     0.197 A 
ATOM      4  O   UNL     1     140.505 -21.078  81.349  1.00  0.00    -0.289 OA
ATOM      5  C   UNL     1     138.472 -20.348  80.450  1.00  0.00     0.107 A 
ATOM      6  C   UNL     1     137.894 -21.634  80.220  1.00  0.00     0.134 A 
ATOM      7  C   UNL     1     136.558 -21.726  79.809  1.00  0.00     0.093 A 
ATOM      8  C   UNL     1     135.801 -20.582  79.561  1.00  0.00     0.123 A 
ATOM      9  C   UNL     1     136.372 -19.320  79.729  1.00  0.00     0.094 A 
ATOM     10  C   UNL     1     137.691 -19.195  80.172  1.00  0.00     0.146 A 
ATOM     11  O   UNL     1     138.194 -17.976  80.334  1.00  0.00    -0.456 OA
ENDROOT
BRANCH   1  12
ATOM     12  C   UNL     1     139.887 -16.339  80.904  1.00  0.00     0.021 A 
ATOM     13  C   UNL     1     141.204 -16.079  81.313  1.00  0.00     0.016 A 
ATOM     14  C   UNL     1     141.659 -14.767  81.451  1.00  0.00     0.051 A 
ATOM     15  C   UNL     1     140.809 -13.686  81.195  1.00  0.00     0.157 A 
ATOM     16  C   UNL     1     139.026 -15.252  80.660  1.00  0.00     0.062 A 
ATOM     17  C   UNL     1     139.473 -13.932  80.800  1.00  0.00     0.158 A 
BRANCH  15  18
ATOM     18  O   UNL     1     141.327 -12.398  81.347  1.00  0.00    -0.504 OA
ATOM     19  H   UNL     1     140.890 -11.676  81.901  1.00  0.00     0.293 HD
ENDBRANCH  15  18
BRANCH  17  20
ATOM     20  O   UNL     1     138.562 -12.905  80.543  1.00  0.00    -0.504 OA
ATOM     21  H   UNL     1     137.863 -12.939  79.815  1.00  0.00     0.293 HD
ENDBRANCH  17  20
ENDBRANCH   1  12
BRANCH   6  22
ATOM     22  O   UNL     1     138.590 -22.839  80.357  1.00  0.00    -0.507 OA
ATOM     23  H   UNL     1     139.563 -22.917  80.613  1.00  0.00     0.293 HD
ENDBRANCH   6  22
BRANCH   8  24
ATOM     24  O   UNL     1     134.479 -20.713  79.137  1.00  0.00    -0.508 OA
ATOM     25  H   UNL     1     134.130 -21.582  78.753  1.00  0.00     0.293 HD
ENDBRANCH   8  24
TORSDOF 5
ENDMDL
MODEL 3
REMARK VINA RESULT:    -8.772      3.755      5.527
REMARK INTER + INTRA:         -10.583
REMARK INTER:                 -10.319
REMARK INTRA:                  -0.264
REMARK UNBOUND:                -0.273
REMARK SMILES O=c1cc(-c2ccc(O)c(O)c2)oc2cc(O)cc(O)c12
REMARK SMILES IDX 4 1 3 2 2 3 1 4 21 5 19 6 18 7 16 8 15 9 14 10 13 11 5 12
REMARK SMILES IDX 6 13 7 14 8 15 12 16 10 17 9 18 11 20 20 22 17 24
REMARK H PARENT 9 19 11 21 20 23 17 25
REMARK Flexibility Score: inf
ROOT
ATOM      1  C   UNL     1     138.509 -18.652  79.845  1.00  0.00     0.138 A 
ATOM      2  C   UNL     1     137.992 -19.549  80.791  1.00  0.00     0.100 A 
ATOM      3  C   UNL     1     136.834 -20.269  80.498  1.00  0.00     0.197 A 
ATOM      4  O   UNL     1     136.360 -21.019  81.390  1.00  0.00    -0.289 OA
ATOM      5  C   UNL     1     136.208 -20.113  79.239  1.00  0.00     0.107 A 
ATOM      6  C   UNL     1     135.046 -20.826  78.815  1.00  0.00     0.134 A 
ATOM      7  C   UNL     1     134.446 -20.503  77.591  1.00  0.00     0.093 A 
ATOM      8  C   UNL     1     135.000 -19.539  76.750  1.00  0.00     0.123 A 
ATOM      9  C   UNL     1     136.167 -18.874  77.130  1.00  0.00     0.094 A 
ATOM     10  C   UNL     1     136.768 -19.149  78.360  1.00  0.00     0.146 A 
ATOM     11  O   UNL     1     137.871 -18.484  78.691  1.00  0.00    -0.456 OA
ENDROOT
BRANCH   1  12
ATOM     12  C   UNL     1     139.738 -17.861  80.104  1.00  0.00     0.021 A 
ATOM     13  C   UNL     1     140.948 -18.251  79.509  1.00  0.00     0.016 A 
ATOM     14  C   UNL     1     142.119 -17.528  79.741  1.00  0.00     0.051 A 
ATOM     15  C   UNL     1     142.113 -16.409  80.579  1.00  0.00     0.157 A 
ATOM     16  C   UNL     1     139.733 -16.744  80.959  1.00  0.00     0.062 A 
ATOM     17  C   UNL     1     140.905 -16.015  81.201  1.00  0.00     0.158 A 
BRANCH  15  18
ATOM     18  O   UNL     1     143.316 -15.727  80.766  1.00  0.00    -0.504 OA
ATOM     19  H   UNL     1     143.381 -14.780  81.110  1.00  0.00     0.293 HD
ENDBRANCH  15  18
BRANCH  17  20
ATOM     20  O   UNL     1     140.824 -14.918  82.062  1.00  0.00    -0.504 OA
ATOM     21  H   UNL     1     139.983 -14.382  82.218  1.00  0.00     0.293 HD
ENDBRANCH  17  20
ENDBRANCH   1  12
BRANCH   6  22
ATOM     22  O   UNL     1     134.460 -21.868  79.541  1.00  0.00    -0.507 OA
ATOM     23  H   UNL     1     134.919 -22.390  80.272  1.00  0.00     0.293 HD
ENDBRANCH   6  22
BRANCH   8  24
ATOM     24  O   UNL     1     134.385 -19.255  75.532  1.00  0.00    -0.508 OA
ATOM     25  H   UNL     1     134.770 -18.571  74.892  1.00  0.00     0.293 HD
ENDBRANCH   8  24
TORSDOF 5
ENDMDL
MODEL 4
REMARK VINA RESULT:    -8.728      3.081      6.228
REMARK INTER + INTRA:         -10.531
REMARK INTER:                 -10.266
REMARK INTRA:                  -0.265
REMARK UNBOUND:                -0.273
REMARK SMILES O=c1cc(-c2ccc(O)c(O)c2)oc2cc(O)cc(O)c12
REMARK SMILES IDX 4 1 3 2 2 3 1 4 21 5 19 6 18 7 16 8 15 9 14 10 13 11 5 12
REMARK SMILES IDX 6 13 7 14 8 15 12 16 10 17 9 18 11 20 20 22 17 24
REMARK H PARENT 9 19 11 21 20 23 17 25
REMARK Flexibility Score: inf
ROOT
ATOM      1  C   UNL     1     139.176 -18.630  79.610  1.00  0.00     0.138 A 
ATOM      2  C   UNL     1     140.340 -19.088  78.975  1.00  0.00     0.100 A 
ATOM      3  C   UNL     1     141.542 -18.405  79.162  1.00  0.00     0.197 A 
ATOM      4  O   UNL     1     142.555 -18.803  78.530  1.00  0.00    -0.289 OA
ATOM      5  C   UNL     1     141.585 -17.276  80.013  1.00  0.00     0.107 A 
ATOM      6  C   UNL     1     142.763 -16.526  80.310  1.00  0.00     0.134 A 
ATOM      7  C   UNL     1     142.662 -15.357  81.075  1.00  0.00     0.093 A 
ATOM      8  C   UNL     1     141.439 -14.945  81.603  1.00  0.00     0.123 A 
ATOM      9  C   UNL     1     140.290 -15.701  81.365  1.00  0.00     0.094 A 
ATOM     10  C   UNL     1     140.352 -16.852  80.577  1.00  0.00     0.146 A 
ATOM     11  O   UNL     1     139.233 -17.536  80.362  1.00  0.00    -0.456 OA
ENDROOT
BRANCH   1  12
ATOM     12  C   UNL     1     137.872 -19.320  79.447  1.00  0.00     0.021 A 
ATOM     13  C   UNL     1     137.417 -20.184  80.455  1.00  0.00     0.016 A 
ATOM     14  C   UNL     1     136.197 -20.849  80.324  1.00  0.00     0.051 A 
ATOM     15  C   UNL     1     135.409 -20.676  79.181  1.00  0.00     0.157 A 
ATOM     16  C   UNL     1     137.087 -19.156  78.291  1.00  0.00     0.062 A 
ATOM     17  C   UNL     1     135.863 -19.822  78.149  1.00  0.00     0.158 A 
BRANCH  15  18
ATOM     18  O   UNL     1     134.197 -21.366  79.114  1.00  0.00    -0.504 OA
ATOM     19  H   UNL     1     133.640 -21.608  79.920  1.00  0.00     0.293 HD
ENDBRANCH  15  18
BRANCH  17  20
ATOM     20  O   UNL     1     135.139 -19.612  76.972  1.00  0.00    -0.504 OA
ATOM     21  H   UNL     1     135.433 -18.994  76.230  1.00  0.00     0.293 HD
ENDBRANCH  17  20
ENDBRANCH   1  12
BRANCH   6  22
ATOM     22  O   UNL     1     144.048 -16.896  79.902  1.00  0.00    -0.507 OA
ATOM     23  H   UNL     1     144.337 -17.839  79.694  1.00  0.00     0.293 HD
ENDBRANCH   6  22
BRANCH   8  24
ATOM     24  O   UNL     1     141.379 -13.785  82.373  1.00  0.00    -0.508 OA
ATOM     25  H   UNL     1     141.495 -12.868  81.959  1.00  0.00     0.293 HD
ENDBRANCH   8  24
TORSDOF 5
ENDMDL
MODEL 5
REMARK VINA RESULT:    -8.587      1.298      2.593
REMARK INTER + INTRA:         -10.365
REMARK INTER:                 -10.085
REMARK INTRA:                  -0.280
REMARK UNBOUND:                -0.273
REMARK SMILES O=c1cc(-c2ccc(O)c(O)c2)oc2cc(O)cc(O)c12
REMARK SMILES IDX 4 1 3 2 2 3 1 4 21 5 19 6 18 7 16 8 15 9 14 10 13 11 5 12
REMARK SMILES IDX 6 13 7 14 8 15 12 16 10 17 9 18 11 20 20 22 17 24
REMARK H PARENT 9 19 11 21 20 23 17 25
REMARK Flexibility Score: inf
ROOT
ATOM      1  C   UNL     1     141.115 -20.080  78.973  1.00  0.00     0.138 A 
ATOM      2  C   UNL     1     141.189 -18.754  79.423  1.00  0.00     0.100 A 
ATOM      3  C   UNL     1     140.048 -18.132  79.931  1.00  0.00     0.197 A 
ATOM      4  O   UNL     1     140.131 -16.923  80.268  1.00  0.00    -0.289 OA
ATOM      5  C   UNL     1     138.834 -18.853  80.017  1.00  0.00     0.107 A 
ATOM      6  C   UNL     1     137.617 -18.335  80.555  1.00  0.00     0.134 A 
ATOM      7  C   UNL     1     136.448 -19.103  80.482  1.00  0.00     0.093 A 
ATOM      8  C   UNL     1     136.464 -20.390  79.946  1.00  0.00     0.123 A 
ATOM      9  C   UNL     1     137.659 -20.928  79.467  1.00  0.00     0.094 A 
ATOM     10  C   UNL     1     138.834 -20.174  79.494  1.00  0.00     0.146 A 
ATOM     11  O   UNL     1     139.949 -20.717  79.015  1.00  0.00    -0.456 OA
ENDROOT
BRANCH   1  12
ATOM     12  C   UNL     1     142.298 -20.789  78.425  1.00  0.00     0.021 A 
ATOM     13  C   UNL     1     142.533 -22.124  78.789  1.00  0.00     0.016 A 
ATOM     14  C   UNL     1     143.642 -22.811  78.293  1.00  0.00     0.051 A 
ATOM     15  C   UNL     1     144.546 -22.181  77.432  1.00  0.00     0.157 A 
ATOM     16  C   UNL     1     143.214 -20.149  77.570  1.00  0.00     0.062 A 
ATOM     17  C   UNL     1     144.332 -20.830  77.070  1.00  0.00     0.158 A 
BRANCH  15  18
ATOM     18  O   UNL     1     145.631 -22.925  76.967  1.00  0.00    -0.504 OA
ATOM     19  H   UNL     1     145.597 -23.917  76.781  1.00  0.00     0.293 HD
ENDBRANCH  15  18
BRANCH  17  20
ATOM     20  O   UNL     1     145.199 -20.130  76.228  1.00  0.00    -0.504 OA
ATOM     21  H   UNL     1     145.909 -20.567  75.658  1.00  0.00     0.293 HD
ENDBRANCH  17  20
ENDBRANCH   1  12
BRANCH   6  22
ATOM     22  O   UNL     1     137.510 -17.093  81.189  1.00  0.00    -0.507 OA
ATOM     23  H   UNL     1     136.663 -16.723  81.592  1.00  0.00     0.293 HD
ENDBRANCH   6  22
BRANCH   8  24
ATOM     24  O   UNL     1     135.284 -21.131  79.904  1.00  0.00    -0.508 OA
ATOM     25  H   UNL     1     134.623 -21.030  79.144  1.00  0.00     0.293 HD
ENDBRANCH   8  24
TORSDOF 5
ENDMDL
MODEL 6
REMARK VINA RESULT:    -8.578      3.997      9.969
REMARK INTER + INTRA:         -10.355
REMARK INTER:                 -10.044
REMARK INTRA:                  -0.311
REMARK UNBOUND:                -0.273
REMARK SMILES O=c1cc(-c2ccc(O)c(O)c2)oc2cc(O)cc(O)c12
REMARK SMILES IDX 4 1 3 2 2 3 1 4 21 5 19 6 18 7 16 8 15 9 14 10 13 11 5 12
REMARK SMILES IDX 6 13 7 14 8 15 12 16 10 17 9 18 11 20 20 22 17 24
REMARK H PARENT 9 19 11 21 20 23 17 25
REMARK Flexibility Score: inf
ROOT
ATOM      1  C   UNL     1     146.402 -22.848  77.327  1.00  0.00     0.138 A 
ATOM      2  C   UNL     1     146.995 -23.654  78.310  1.00  0.00     0.100 A 
ATOM      3  C   UNL     1     148.268 -24.181  78.094  1.00  0.00     0.197 A 
ATOM      4  O   UNL     1     148.747 -24.951  78.966  1.00  0.00    -0.289 OA
ATOM      5  C   UNL     1     148.964 -23.874  76.901  1.00  0.00     0.107 A 
ATOM      6  C   UNL     1     150.284 -24.323  76.591  1.00  0.00     0.134 A 
ATOM      7  C   UNL     1     150.826 -24.052  75.328  1.00  0.00     0.093 A 
ATOM      8  C   UNL     1     150.122 -23.299  74.389  1.00  0.00     0.123 A 
ATOM      9  C   UNL     1     148.853 -22.809  74.701  1.00  0.00     0.094 A 
ATOM     10  C   UNL     1     148.271 -23.092  75.939  1.00  0.00     0.146 A 
ATOM     11  O   UNL     1     147.055 -22.619  76.192  1.00  0.00    -0.456 OA
ENDROOT
BRANCH   1  12
ATOM     12  C   UNL     1     145.051 -22.260  77.506  1.00  0.00     0.021 A 
ATOM     13  C   UNL     1     144.147 -22.863  78.394  1.00  0.00     0.016 A 
ATOM     14  C   UNL     1     142.869 -22.333  78.575  1.00  0.00     0.051 A 
ATOM     15  C   UNL     1     142.459 -21.199  77.867  1.00  0.00     0.157 A 
ATOM     16  C   UNL     1     144.635 -21.127  76.782  1.00  0.00     0.062 A 
ATOM     17  C   UNL     1     143.353 -20.591  76.954  1.00  0.00     0.158 A 
BRANCH  15  18
ATOM     18  O   UNL     1     141.170 -20.716  78.098  1.00  0.00    -0.504 OA
ATOM     19  H   UNL     1     140.908 -20.165  78.903  1.00  0.00     0.293 HD
ENDBRANCH  15  18
BRANCH  17  20
ATOM     20  O   UNL     1     143.009 -19.466  76.201  1.00  0.00    -0.504 OA
ATOM     21  H   UNL     1     142.476 -18.686  76.559  1.00  0.00     0.293 HD
ENDBRANCH  17  20
ENDBRANCH   1  12
BRANCH   6  22
ATOM     22  O   UNL     1     151.106 -25.010  77.489  1.00  0.00    -0.507 OA
ATOM     23  H   UNL     1     151.287 -24.724  78.439  1.00  0.00     0.293 HD
ENDBRANCH   6  22
BRANCH   8  24
ATOM     24  O   UNL     1     150.699 -23.036  73.148  1.00  0.00    -0.508 OA
ATOM     25  H   UNL     1     151.687 -22.830  73.056  1.00  0.00     0.293 HD
ENDBRANCH   8  24
TORSDOF 5
ENDMDL
MODEL 7
REMARK VINA RESULT:    -8.533      4.104      6.414
REMARK INTER + INTRA:         -10.302
REMARK INTER:                 -10.037
REMARK INTRA:                  -0.265
REMARK UNBOUND:                -0.273
REMARK SMILES O=c1cc(-c2ccc(O)c(O)c2)oc2cc(O)cc(O)c12
REMARK SMILES IDX 4 1 3 2 2 3 1 4 21 5 19 6 18 7 16 8 15 9 14 10 13 11 5 12
REMARK SMILES IDX 6 13 7 14 8 15 12 16 10 17 9 18 11 20 20 22 17 24
REMARK H PARENT 9 19 11 21 20 23 17 25
REMARK Flexibility Score: inf
ROOT
ATOM      1  C   UNL     1     138.519 -17.481  80.200  1.00  0.00     0.138 A 
ATOM      2  C   UNL     1     137.998 -16.258  80.646  1.00  0.00     0.100 A 
ATOM      3  C   UNL     1     138.867 -15.240  81.040  1.00  0.00     0.197 A 
ATOM      4  O   UNL     1     138.370 -14.178  81.494  1.00  0.00    -0.289 OA
ATOM      5  C   UNL     1     140.266 -15.439  80.958  1.00  0.00     0.107 A 
ATOM      6  C   UNL     1     141.247 -14.457  81.293  1.00  0.00     0.134 A 
ATOM      7  C   UNL     1     142.604 -14.806  81.283  1.00  0.00     0.093 A 
ATOM      8  C   UNL     1     143.017 -16.079  80.891  1.00  0.00     0.123 A 
ATOM      9  C   UNL     1     142.069 -17.030  80.508  1.00  0.00     0.094 A 
ATOM     10  C   UNL     1     140.707 -16.723  80.542  1.00  0.00     0.146 A 
ATOM     11  O   UNL     1     139.836 -17.660  80.183  1.00  0.00    -0.456 OA
ENDROOT
BRANCH   1  12
ATOM     12  C   UNL     1     137.640 -18.596  79.767  1.00  0.00     0.021 A 
ATOM     13  C   UNL     1     137.168 -19.513  80.719  1.00  0.00     0.016 A 
ATOM     14  C   UNL     1     136.346 -20.574  80.338  1.00  0.00     0.051 A 
ATOM     15  C   UNL     1     135.984 -20.751  78.998  1.00  0.00     0.157 A 
ATOM     16  C   UNL     1     137.289 -18.781  78.417  1.00  0.00     0.062 A 
ATOM     17  C   UNL     1     136.467 -19.845  78.024  1.00  0.00     0.158 A 
BRANCH  15  18
ATOM     18  O   UNL     1     135.155 -21.828  78.683  1.00  0.00    -0.504 OA
ATOM     19  H   UNL     1     135.058 -22.214  77.755  1.00  0.00     0.293 HD
ENDBRANCH  15  18
BRANCH  17  20
ATOM     20  O   UNL     1     136.162 -19.967  76.666  1.00  0.00    -0.504 OA
ATOM     21  H   UNL     1     135.224 -19.932  76.293  1.00  0.00     0.293 HD
ENDBRANCH  17  20
ENDBRANCH   1  12
BRANCH   6  22
ATOM     22  O   UNL     1     140.946 -13.130  81.618  1.00  0.00    -0.507 OA
ATOM     23  H   UNL     1     140.575 -12.824  82.504  1.00  0.00     0.293 HD
ENDBRANCH   6  22
BRANCH   8  24
ATOM     24  O   UNL     1     144.376 -16.386  80.878  1.00  0.00    -0.508 OA
ATOM     25  H   UNL     1     145.062 -15.768  81.295  1.00  0.00     0.293 HD
ENDBRANCH   8  24
TORSDOF 5
ENDMDL
MODEL 8
REMARK VINA RESULT:    -8.142      2.284      2.812
REMARK INTER + INTRA:          -9.843
REMARK INTER:                  -9.566
REMARK INTRA:                  -0.277
REMARK UNBOUND:                -0.273
REMARK SMILES O=c1cc(-c2ccc(O)c(O)c2)oc2cc(O)cc(O)c12
REMARK SMILES IDX 4 1 3 2 2 3 1 4 21 5 19 6 18 7 16 8 15 9 14 10 13 11 5 12
REMARK SMILES IDX 6 13 7 14 8 15 12 16 10 17 9 18 11 20 20 22 17 24
REMARK H PARENT 9 19 11 21 20 23 17 25
REMARK Flexibility Score: inf
ROOT
ATOM      1  C   UNL     1     141.081 -18.752  79.365  1.00  0.00     0.138 A 
ATOM      2  C   UNL     1     139.680 -18.711  79.306  1.00  0.00     0.100 A 
ATOM      3  C   UNL     1     138.999 -17.614  79.831  1.00  0.00     0.197 A 
ATOM      4  O   UNL     1     137.741 -17.635  79.819  1.00  0.00    -0.289 OA
ATOM      5  C   UNL     1     139.726 -16.536  80.391  1.00  0.00     0.107 A 
ATOM      6  C   UNL     1     139.138 -15.347  80.919  1.00  0.00     0.134 A 
ATOM      7  C   UNL     1     139.951 -14.399  81.553  1.00  0.00     0.093 A 
ATOM      8  C   UNL     1     141.333 -14.568  81.624  1.00  0.00     0.123 A 
ATOM      9  C   UNL     1     141.925 -15.700  81.063  1.00  0.00     0.094 A 
ATOM     10  C   UNL     1     141.137 -16.681  80.455  1.00  0.00     0.146 A 
ATOM     11  O   UNL     1     141.737 -17.751  79.945  1.00  0.00    -0.456 OA
ENDROOT
BRANCH   1  12
ATOM     12  C   UNL     1     141.856 -19.895  78.821  1.00  0.00     0.021 A 
ATOM     13  C   UNL     1     141.660 -21.178  79.353  1.00  0.00     0.016 A 
ATOM     14  C   UNL     1     142.381 -22.268  78.863  1.00  0.00     0.051 A 
ATOM     15  C   UNL     1     143.320 -22.101  77.840  1.00  0.00     0.157 A 
ATOM     16  C   UNL     1     142.812 -19.723  77.802  1.00  0.00     0.062 A 
ATOM     17  C   UNL     1     143.542 -20.810  77.306  1.00  0.00     0.158 A 
BRANCH  15  18
ATOM     18  O   UNL     1     144.004 -23.232  77.391  1.00  0.00    -0.504 OA
ATOM     19  H   UNL     1     143.627 -24.168  77.420  1.00  0.00     0.293 HD
ENDBRANCH  15  18
BRANCH  17  20
ATOM     20  O   UNL     1     144.475 -20.563  76.296  1.00  0.00    -0.504 OA
ATOM     21  H   UNL     1     144.264 -20.067  75.442  1.00  0.00     0.293 HD
ENDBRANCH  17  20
ENDBRANCH   1  12
BRANCH   6  22
ATOM     22  O   UNL     1     137.777 -15.040  80.825  1.00  0.00    -0.507 OA
ATOM     23  H   UNL     1     137.167 -14.882  81.612  1.00  0.00     0.293 HD
ENDBRANCH   6  22
BRANCH   8  24
ATOM     24  O   UNL     1     142.113 -13.595  82.249  1.00  0.00    -0.508 OA
ATOM     25  H   UNL     1     142.475 -12.799  81.739  1.00  0.00     0.293 HD
ENDBRANCH   8  24
TORSDOF 5
ENDMDL
MODEL 9
REMARK VINA RESULT:    -8.044      5.163      7.588
REMARK INTER + INTRA:          -9.727
REMARK INTER:                  -9.422
REMARK INTRA:                  -0.305
REMARK UNBOUND:                -0.273
REMARK SMILES O=c1cc(-c2ccc(O)c(O)c2)oc2cc(O)cc(O)c12
REMARK SMILES IDX 4 1 3 2 2 3 1 4 21 5 19 6 18 7 16 8 15 9 14 10 13 11 5 12
REMARK SMILES IDX 6 13 7 14 8 15 12 16 10 17 9 18 11 20 20 22 17 24
REMARK H PARENT 9 19 11 21 20 23 17 25
REMARK Flexibility Score: inf
ROOT
ATOM      1  C   UNL     1     135.384 -19.845  77.191  1.00  0.00     0.138 A 
ATOM      2  C   UNL     1     134.177 -19.309  77.662  1.00  0.00     0.100 A 
ATOM      3  C   UNL     1     133.190 -18.928  76.753  1.00  0.00     0.197 A 
ATOM      4  O   UNL     1     132.144 -18.392  77.203  1.00  0.00    -0.289 OA
ATOM      5  C   UNL     1     133.401 -19.113  75.366  1.00  0.00     0.107 A 
ATOM      6  C   UNL     1     132.448 -18.799  74.350  1.00  0.00     0.134 A 
ATOM      7  C   UNL     1     132.813 -18.917  73.003  1.00  0.00     0.093 A 
ATOM      8  C   UNL     1     134.071 -19.394  72.636  1.00  0.00     0.123 A 
ATOM      9  C   UNL     1     134.991 -19.756  73.621  1.00  0.00     0.094 A 
ATOM     10  C   UNL     1     134.669 -19.617  74.973  1.00  0.00     0.146 A 
ATOM     11  O   UNL     1     135.578 -19.959  75.881  1.00  0.00    -0.456 OA
ENDROOT
BRANCH   1  12
ATOM     12  C   UNL     1     136.467 -20.269  78.113  1.00  0.00     0.021 A 
ATOM     13  C   UNL     1     136.137 -20.769  79.382  1.00  0.00     0.016 A 
ATOM     14  C   UNL     1     137.137 -21.168  80.271  1.00  0.00     0.051 A 
ATOM     15  C   UNL     1     138.486 -21.067  79.918  1.00  0.00     0.157 A 
ATOM     16  C   UNL     1     137.825 -20.153  77.763  1.00  0.00     0.062 A 
ATOM     17  C   UNL     1     138.835 -20.548  78.650  1.00  0.00     0.158 A 
BRANCH  15  18
ATOM     18  O   UNL     1     139.437 -21.488  80.850  1.00  0.00    -0.504 OA
ATOM     19  H   UNL     1     139.712 -20.950  81.659  1.00  0.00     0.293 HD
ENDBRANCH  15  18
BRANCH  17  20
ATOM     20  O   UNL     1     140.161 -20.402  78.234  1.00  0.00    -0.504 OA
ATOM     21  H   UNL     1     140.938 -20.908  78.636  1.00  0.00     0.293 HD
ENDBRANCH  17  20
ENDBRANCH   1  12
BRANCH   6  22
ATOM     22  O   UNL     1     131.135 -18.394  74.608  1.00  0.00    -0.507 OA
ATOM     23  H   UNL     1     130.373 -19.017  74.827  1.00  0.00     0.293 HD
ENDBRANCH   6  22
BRANCH   8  24
ATOM     24  O   UNL     1     134.393 -19.513  71.285  1.00  0.00    -0.508 OA
ATOM     25  H   UNL     1     135.265 -19.155  70.915  1.00  0.00     0.293 HD
ENDBRANCH   8  24
TORSDOF 5
ENDMDL
