MODEL 1
REMARK VINA RESULT:    -3.086      0.000      0.000
REMARK INTER + INTRA:          -3.599
REMARK INTER:                  -3.537
REMARK INTRA:                  -0.062
REMARK UNBOUND:                -0.062
REMARK SMILES CC(C)[C@@H]([NH3+])C(=O)[O-]
REMARK SMILES IDX 4 1 5 2 6 6 7 7 8 8 2 9 1 10 3 11
REMARK H PARENT 5 3 5 4 5 5
REMARK Flexibility Score: inf
ROOT
ATOM      1  C   UNL     1      48.714  34.333  85.554  1.00  0.00     0.230 C 
ENDROOT
BRANCH   1   2
ATOM      2  N   UNL     1      47.878  35.461  85.111  1.00  0.00    -0.350 N 
ATOM      3  H   UNL     1      47.783  36.150  85.893  1.00  0.00     0.345 HD
ATOM      4  H   UNL     1      48.328  35.955  84.309  1.00  0.00     0.345 HD
ATOM      5  H   UNL     1      46.922  35.143  84.832  1.00  0.00     0.345 HD
ENDBRANCH   1   2
BRANCH   1   6
ATOM      6  C   UNL     1      50.000  34.273  84.767  1.00  0.00     0.099 C 
ATOM      7  O   UNL     1      49.994  34.344  83.509  1.00  0.00    -0.544 OA
ATOM      8  O   UNL     1      51.214  34.189  85.439  1.00  0.00    -0.544 OA
ENDBRANCH   1   6
BRANCH   1   9
ATOM      9  C   UNL     1      48.998  34.348  87.086  1.00  0.00     0.047 C 
ATOM     10  C   UNL     1      48.761  35.717  87.743  1.00  0.00     0.014 C 
ATOM     11  C   UNL     1      48.205  33.261  87.827  1.00  0.00     0.014 C 
ENDBRANCH   1   9
TORSDOF 3
ENDMDL
MODEL 2
REMARK VINA RESULT:    -2.957     16.583     17.175
REMARK INTER + INTRA:          -3.451
REMARK INTER:                  -3.387
REMARK INTRA:                  -0.064
REMARK UNBOUND:                -0.062
REMARK SMILES CC(C)[C@@H]([NH3+])C(=O)[O-]
REMARK SMILES IDX 4 1 5 2 6 6 7 7 8 8 2 9 1 10 3 11
REMARK H PARENT 5 3 5 4 5 5
REMARK Flexibility Score: inf
ROOT
ATOM      1  C   UNL     1      47.098  19.649  78.539  1.00  0.00     0.230 C 
ENDROOT
BRANCH   1   2
ATOM      2  N   UNL     1      47.723  18.482  79.182  1.00  0.00    -0.350 N 
ATOM      3  H   UNL     1      47.855  17.724  78.473  1.00  0.00     0.345 HD
ATOM      4  H   UNL     1      48.667  18.732  79.554  1.00  0.00     0.345 HD
ATOM      5  H   UNL     1      47.131  18.110  79.959  1.00  0.00     0.345 HD
ENDBRANCH   1   2
BRANCH   1   6
ATOM      6  C   UNL     1      48.101  20.406  77.703  1.00  0.00     0.099 C 
ATOM      7  O   UNL     1      47.797  20.833  76.557  1.00  0.00    -0.544 OA
ATOM      8  O   UNL     1      49.361  20.680  78.221  1.00  0.00    -0.544 OA
ENDBRANCH   1   6
BRANCH   1   9
ATOM      9  C   UNL     1      45.838  19.281  77.699  1.00  0.00     0.047 C 
ATOM     10  C   UNL     1      45.751  17.788  77.340  1.00  0.00     0.014 C 
ATOM     11  C   UNL     1      44.541  19.737  78.382  1.00  0.00     0.014 C 
ENDBRANCH   1   9
TORSDOF 3
ENDMDL
MODEL 3
REMARK VINA RESULT:    -2.873     17.214     17.773
REMARK INTER + INTRA:          -3.355
REMARK INTER:                  -3.286
REMARK INTRA:                  -0.069
REMARK UNBOUND:                -0.062
REMARK SMILES CC(C)[C@@H]([NH3+])C(=O)[O-]
REMARK SMILES IDX 4 1 5 2 6 6 7 7 8 8 2 9 1 10 3 11
REMARK H PARENT 5 3 5 4 5 5
REMARK Flexibility Score: inf
ROOT
ATOM      1  C   UNL     1      46.520  19.336  77.738  1.00  0.00     0.230 C 
ENDROOT
BRANCH   1   2
ATOM      2  N   UNL     1      47.011  18.532  78.869  1.00  0.00    -0.350 N 
ATOM      3  H   UNL     1      46.960  17.517  78.622  1.00  0.00     0.345 HD
ATOM      4  H   UNL     1      48.011  18.757  79.070  1.00  0.00     0.345 HD
ATOM      5  H   UNL     1      46.440  18.693  79.730  1.00  0.00     0.345 HD
ENDBRANCH   1   2
BRANCH   1   6
ATOM      6  C   UNL     1      45.931  18.453  76.665  1.00  0.00     0.099 C 
ATOM      7  O   UNL     1      45.769  18.882  75.491  1.00  0.00    -0.544 OA
ATOM      8  O   UNL     1      45.608  17.134  76.959  1.00  0.00    -0.544 OA
ENDBRANCH   1   6
BRANCH   1   9
ATOM      9  C   UNL     1      45.508  20.440  78.168  1.00  0.00     0.047 C 
ATOM     10  C   UNL     1      44.116  19.894  78.527  1.00  0.00     0.014 C 
ATOM     11  C   UNL     1      46.052  21.299  79.319  1.00  0.00     0.014 C 
ENDBRANCH   1   9
TORSDOF 3
ENDMDL
MODEL 4
REMARK VINA RESULT:    -2.868     17.153     17.663
REMARK INTER + INTRA:          -3.350
REMARK INTER:                  -3.296
REMARK INTRA:                  -0.054
REMARK UNBOUND:                -0.062
REMARK SMILES CC(C)[C@@H]([NH3+])C(=O)[O-]
REMARK SMILES IDX 4 1 5 2 6 6 7 7 8 8 2 9 1 10 3 11
REMARK H PARENT 5 3 5 4 5 5
REMARK Flexibility Score: inf
ROOT
ATOM      1  C   UNL     1      54.931  18.132  86.011  1.00  0.00     0.230 C 
ENDROOT
BRANCH   1   2
ATOM      2  N   UNL     1      54.239  17.746  87.251  1.00  0.00    -0.350 N 
ATOM      3  H   UNL     1      53.933  18.607  87.761  1.00  0.00     0.345 HD
ATOM      4  H   UNL     1      53.383  17.189  87.033  1.00  0.00     0.345 HD
ATOM      5  H   UNL     1      54.862  17.192  87.882  1.00  0.00     0.345 HD
ENDBRANCH   1   2
BRANCH   1   6
ATOM      6  C   UNL     1      55.719  16.973  85.450  1.00  0.00     0.099 C 
ATOM      7  O   UNL     1      56.125  16.984  84.257  1.00  0.00    -0.544 OA
ATOM      8  O   UNL     1      56.046  15.901  86.272  1.00  0.00    -0.544 OA
ENDBRANCH   1   6
BRANCH   1   9
ATOM      9  C   UNL     1      53.972  18.725  84.936  1.00  0.00     0.047 C 
ATOM     10  C   UNL     1      52.483  18.587  85.294  1.00  0.00     0.014 C 
ATOM     11  C   UNL     1      54.305  20.190  84.617  1.00  0.00     0.014 C 
ENDBRANCH   1   9
TORSDOF 3
ENDMDL
MODEL 5
REMARK VINA RESULT:    -2.851     18.120     18.812
REMARK INTER + INTRA:          -3.330
REMARK INTER:                  -3.279
REMARK INTRA:                  -0.051
REMARK UNBOUND:                -0.062
REMARK SMILES CC(C)[C@@H]([NH3+])C(=O)[O-]
REMARK SMILES IDX 4 1 5 2 6 6 7 7 8 8 2 9 1 10 3 11
REMARK H PARENT 5 3 5 4 5 5
REMARK Flexibility Score: inf
ROOT
ATOM      1  C   UNL     1      39.157  20.195  80.381  1.00  0.00     0.230 C 
ENDROOT
BRANCH   1   2
ATOM      2  N   UNL     1      40.133  19.212  79.885  1.00  0.00    -0.350 N 
ATOM      3  H   UNL     1      40.456  18.612  80.680  1.00  0.00     0.345 HD
ATOM      4  H   UNL     1      39.692  18.584  79.177  1.00  0.00     0.345 HD
ATOM      5  H   UNL     1      40.968  19.679  79.464  1.00  0.00     0.345 HD
ENDBRANCH   1   2
BRANCH   1   6
ATOM      6  C   UNL     1      39.108  21.407  79.482  1.00  0.00     0.099 C 
ATOM      7  O   UNL     1      40.047  21.655  78.680  1.00  0.00    -0.544 OA
ATOM      8  O   UNL     1      37.992  22.234  79.503  1.00  0.00    -0.544 OA
ENDBRANCH   1   6
BRANCH   1   9
ATOM      9  C   UNL     1      37.733  19.593  80.581  1.00  0.00     0.047 C 
ATOM     10  C   UNL     1      37.630  18.110  80.191  1.00  0.00     0.014 C 
ATOM     11  C   UNL     1      37.221  19.800  82.015  1.00  0.00     0.014 C 
ENDBRANCH   1   9
TORSDOF 3
ENDMDL
MODEL 6
REMARK VINA RESULT:    -2.822     18.032     18.704
REMARK INTER + INTRA:          -3.297
REMARK INTER:                  -3.273
REMARK INTRA:                  -0.024
REMARK UNBOUND:                -0.062
REMARK SMILES CC(C)[C@@H]([NH3+])C(=O)[O-]
REMARK SMILES IDX 4 1 5 2 6 6 7 7 8 8 2 9 1 10 3 11
REMARK H PARENT 5 3 5 4 5 5
REMARK Flexibility Score: inf
ROOT
ATOM      1  C   UNL     1      46.100  19.259  75.614  1.00  0.00     0.230 C 
ENDROOT
BRANCH   1   2
ATOM      2  N   UNL     1      46.308  18.316  74.503  1.00  0.00    -0.350 N 
ATOM      3  H   UNL     1      46.501  17.363  74.888  1.00  0.00     0.345 HD
ATOM      4  H   UNL     1      45.447  18.250  73.915  1.00  0.00     0.345 HD
ATOM      5  H   UNL     1      47.117  18.601  73.904  1.00  0.00     0.345 HD
ENDBRANCH   1   2
BRANCH   1   6
ATOM      6  C   UNL     1      45.124  20.343  75.226  1.00  0.00     0.099 C 
ATOM      7  O   UNL     1      45.083  20.784  74.046  1.00  0.00    -0.544 OA
ATOM      8  O   UNL     1      44.225  20.828  76.167  1.00  0.00    -0.544 OA
ENDBRANCH   1   6
BRANCH   1   9
ATOM      9  C   UNL     1      45.659  18.559  76.934  1.00  0.00     0.047 C 
ATOM     10  C   UNL     1      45.757  17.025  76.881  1.00  0.00     0.014 C 
ATOM     11  C   UNL     1      46.426  19.096  78.151  1.00  0.00     0.014 C 
ENDBRANCH   1   9
TORSDOF 3
ENDMDL
MODEL 7
REMARK VINA RESULT:    -2.775     18.290     18.937
REMARK INTER + INTRA:          -3.243
REMARK INTER:                  -3.176
REMARK INTRA:                  -0.066
REMARK UNBOUND:                -0.062
REMARK SMILES CC(C)[C@@H]([NH3+])C(=O)[O-]
REMARK SMILES IDX 4 1 5 2 6 6 7 7 8 8 2 9 1 10 3 11
REMARK H PARENT 5 3 5 4 5 5
REMARK Flexibility Score: inf
ROOT
ATOM      1  C   UNL     1      38.341  20.802  80.451  1.00  0.00     0.230 C 
ENDROOT
BRANCH   1   2
ATOM      2  N   UNL     1      37.341  21.675  79.816  1.00  0.00    -0.350 N 
ATOM      3  H   UNL     1      37.695  22.659  79.805  1.00  0.00     0.345 HD
ATOM      4  H   UNL     1      37.182  21.387  78.824  1.00  0.00     0.345 HD
ATOM      5  H   UNL     1      36.432  21.656  80.332  1.00  0.00     0.345 HD
ENDBRANCH   1   2
BRANCH   1   6
ATOM      6  C   UNL     1      37.692  19.565  81.023  1.00  0.00     0.099 C 
ATOM      7  O   UNL     1      37.354  19.514  82.236  1.00  0.00    -0.544 OA
ATOM      8  O   UNL     1      37.417  18.486  80.193  1.00  0.00    -0.544 OA
ENDBRANCH   1   6
BRANCH   1   9
ATOM      9  C   UNL     1      39.515  20.424  79.498  1.00  0.00     0.047 C 
ATOM     10  C   UNL     1      39.998  21.592  78.622  1.00  0.00     0.014 C 
ATOM     11  C   UNL     1      40.698  19.812  80.262  1.00  0.00     0.014 C 
ENDBRANCH   1   9
TORSDOF 3
ENDMDL
MODEL 8
REMARK VINA RESULT:    -2.763      8.673      9.518
REMARK INTER + INTRA:          -3.229
REMARK INTER:                  -3.158
REMARK INTRA:                  -0.072
REMARK UNBOUND:                -0.062
REMARK SMILES CC(C)[C@@H]([NH3+])C(=O)[O-]
REMARK SMILES IDX 4 1 5 2 6 6 7 7 8 8 2 9 1 10 3 11
REMARK H PARENT 5 3 5 4 5 5
REMARK Flexibility Score: inf
ROOT
ATOM      1  C   UNL     1      44.698  29.485  92.060  1.00  0.00     0.230 C 
ENDROOT
BRANCH   1   2
ATOM      2  N   UNL     1      45.362  28.545  92.978  1.00  0.00    -0.350 N 
ATOM      3  H   UNL     1      46.373  28.467  92.723  1.00  0.00     0.345 HD
ATOM      4  H   UNL     1      45.311  28.898  93.960  1.00  0.00     0.345 HD
ATOM      5  H   UNL     1      44.933  27.593  92.929  1.00  0.00     0.345 HD
ENDBRANCH   1   2
BRANCH   1   6
ATOM      6  C   UNL     1      43.518  30.148  92.727  1.00  0.00     0.099 C 
ATOM      7  O   UNL     1      42.345  29.726  92.537  1.00  0.00    -0.544 OA
ATOM      8  O   UNL     1      43.727  31.207  93.601  1.00  0.00    -0.544 OA
ENDBRANCH   1   6
BRANCH   1   9
ATOM      9  C   UNL     1      45.671  30.547  91.465  1.00  0.00     0.047 C 
ATOM     10  C   UNL     1      47.049  29.979  91.089  1.00  0.00     0.014 C 
ATOM     11  C   UNL     1      45.055  31.279  90.264  1.00  0.00     0.014 C 
ENDBRANCH   1   9
TORSDOF 3
ENDMDL
MODEL 9
REMARK VINA RESULT:    -2.744      2.044      2.911
REMARK INTER + INTRA:          -3.208
REMARK INTER:                  -3.190
REMARK INTRA:                  -0.017
REMARK UNBOUND:                -0.062
REMARK SMILES CC(C)[C@@H]([NH3+])C(=O)[O-]
REMARK SMILES IDX 4 1 5 2 6 6 7 7 8 8 2 9 1 10 3 11
REMARK H PARENT 5 3 5 4 5 5
REMARK Flexibility Score: inf
ROOT
ATOM      1  C   UNL     1      49.031  34.307  86.442  1.00  0.00     0.230 C 
ENDROOT
BRANCH   1   2
ATOM      2  N   UNL     1      48.240  35.003  85.414  1.00  0.00    -0.350 N 
ATOM      3  H   UNL     1      48.776  35.831  85.065  1.00  0.00     0.345 HD
ATOM      4  H   UNL     1      48.067  34.373  84.599  1.00  0.00     0.345 HD
ATOM      5  H   UNL     1      47.326  35.337  85.796  1.00  0.00     0.345 HD
ENDBRANCH   1   2
BRANCH   1   6
ATOM      6  C   UNL     1      49.534  35.276  87.484  1.00  0.00     0.099 C 
ATOM      7  O   UNL     1      50.763  35.359  87.751  1.00  0.00    -0.544 OA
ATOM      8  O   UNL     1      48.639  36.125  88.123  1.00  0.00    -0.544 OA
ENDBRANCH   1   6
BRANCH   1   9
ATOM      9  C   UNL     1      48.264  33.124  87.107  1.00  0.00     0.047 C 
ATOM     10  C   UNL     1      47.888  32.004  86.123  1.00  0.00     0.014 C 
ATOM     11  C   UNL     1      49.032  32.543  88.302  1.00  0.00     0.014 C 
ENDBRANCH   1   9
TORSDOF 3
ENDMDL
