MODEL 1
REMARK VINA RESULT:    -7.901      0.000      0.000
REMARK INTER + INTRA:          -8.643
REMARK INTER:                  -8.594
REMARK INTRA:                  -0.049
REMARK UNBOUND:                -0.049
REMARK SMILES CC1(C)CC[C@@]2(C(=O)[O-])CC[C@@]3(C)C(=CC[C@@H]4[C@]5(C)CC[C@H](O)C(C)(C)[C@@H]5CC[C@]43C)[C@H]2C1
REMARK SMILES IDX 6 1 5 2 10 3 32 4 4 5 11 6 14 7 33 8 2 9 12 10 15 11 1 12
REMARK SMILES IDX 3 13 13 14 30 15 16 16 17 17 29 18 31 19 18 20 28 21 27 22
REMARK SMILES IDX 20 23 19 24 24 25 21 26 22 27 25 28 26 29 7 30 8 31 9 32
REMARK SMILES IDX 23 33
REMARK H PARENT 23 34
REMARK Flexibility Score: inf
ROOT
ATOM      1  C   UNL     1      55.276 -41.594 -25.759  1.00  0.00     0.017 C 
ATOM      2  C   UNL     1      56.236 -42.712 -26.284  1.00  0.00     0.014 C 
ATOM      3  C   UNL     1      55.653 -41.256 -24.280  1.00  0.00     0.014 C 
ATOM      4  C   UNL     1      55.354 -40.327 -26.706  1.00  0.00     0.028 C 
ATOM      5  C   UNL     1      56.160 -42.854 -27.813  1.00  0.00     0.007 C 
ATOM      6  C   UNL     1      56.671 -40.113 -24.182  1.00  0.00     0.013 C 
ATOM      7  C   UNL     1      55.200 -39.018 -25.916  1.00  0.00    -0.064 C 
ATOM      8  C   UNL     1      56.598 -40.319 -27.626  1.00  0.00     0.015 C 
ATOM      9  C   UNL     1      56.657 -41.570 -28.556  1.00  0.00    -0.035 C 
ATOM     10  C   UNL     1      56.098 -38.728 -24.675  1.00  0.00    -0.006 C 
ATOM     11  C   UNL     1      54.110 -38.265 -26.198  1.00  0.00    -0.027 C 
ATOM     12  C   UNL     1      55.794 -41.336 -29.818  1.00  0.00     0.011 C 
ATOM     13  C   UNL     1      58.120 -41.776 -29.013  1.00  0.00     0.011 C 
ATOM     14  C   UNL     1      57.336 -37.944 -25.213  1.00  0.00     0.017 C 
ATOM     15  C   UNL     1      55.302 -37.867 -23.505  1.00  0.00    -0.020 C 
ATOM     16  C   UNL     1      53.465 -37.387 -25.175  1.00  0.00     0.032 C 
ATOM     17  C   UNL     1      53.750 -37.955 -23.760  1.00  0.00     0.006 C 
ATOM     18  C   UNL     1      55.549 -38.423 -22.080  1.00  0.00     0.008 C 
ATOM     19  C   UNL     1      55.795 -36.373 -23.483  1.00  0.00     0.012 C 
ATOM     20  C   UNL     1      52.708 -37.496 -22.633  1.00  0.00    -0.025 C 
ATOM     21  C   UNL     1      54.753 -37.702 -20.991  1.00  0.00     0.005 C 
ATOM     22  C   UNL     1      53.217 -37.851 -21.159  1.00  0.00     0.003 C 
ATOM     23  C   UNL     1      52.348 -35.980 -22.780  1.00  0.00     0.010 C 
ATOM     24  C   UNL     1      51.398 -38.318 -22.911  1.00  0.00     0.012 C 
ATOM     25  C   UNL     1      52.412 -37.146 -19.969  1.00  0.00    -0.006 C 
ATOM     26  C   UNL     1      51.508 -35.404 -21.635  1.00  0.00     0.033 C 
ATOM     27  C   UNL     1      52.159 -35.637 -20.267  1.00  0.00     0.120 C 
ATOM     28  C   UNL     1      53.168 -37.248 -18.611  1.00  0.00     0.014 C 
ATOM     29  C   UNL     1      51.056 -37.872 -19.708  1.00  0.00     0.014 C 
ENDROOT
BRANCH   1  30
ATOM     30  C   UNL     1      53.838 -42.112 -25.744  1.00  0.00     0.048 C 
ATOM     31  O   UNL     1      52.937 -41.458 -25.153  1.00  0.00    -0.550 OA
ATOM     32  O   UNL     1      53.501 -43.334 -26.321  1.00  0.00    -0.550 OA
ENDBRANCH   1  30
BRANCH  27  33
ATOM     33  O   UNL     1      53.363 -34.913 -20.200  1.00  0.00    -0.393 OA
ATOM     34  H   UNL     1      53.307 -34.323 -19.403  1.00  0.00     0.210 HD
ENDBRANCH  27  33
TORSDOF 2
ENDMDL
MODEL 2
REMARK VINA RESULT:    -7.883      2.049      7.993
REMARK INTER + INTRA:          -8.624
REMARK INTER:                  -8.345
REMARK INTRA:                  -0.279
REMARK UNBOUND:                -0.049
REMARK SMILES CC1(C)CC[C@@]2(C(=O)[O-])CC[C@@]3(C)C(=CC[C@@H]4[C@]5(C)CC[C@H](O)C(C)(C)[C@@H]5CC[C@]43C)[C@H]2C1
REMARK SMILES IDX 6 1 5 2 10 3 32 4 4 5 11 6 14 7 33 8 2 9 12 10 15 11 1 12
REMARK SMILES IDX 3 13 13 14 30 15 16 16 17 17 29 18 31 19 18 20 28 21 27 22
REMARK SMILES IDX 20 23 19 24 24 25 21 26 22 27 25 28 26 29 7 30 8 31 9 32
REMARK SMILES IDX 23 33
REMARK H PARENT 23 34
REMARK Flexibility Score: inf
ROOT
ATOM      1  C   UNL     1      55.713 -37.703 -23.252  1.00  0.00     0.017 C 
ATOM      2  C   UNL     1      55.837 -37.305 -21.745  1.00  0.00     0.014 C 
ATOM      3  C   UNL     1      56.145 -39.197 -23.418  1.00  0.00     0.014 C 
ATOM      4  C   UNL     1      54.235 -37.444 -23.759  1.00  0.00     0.028 C 
ATOM      5  C   UNL     1      55.113 -35.982 -21.445  1.00  0.00     0.007 C 
ATOM      6  C   UNL     1      54.962 -40.166 -23.297  1.00  0.00     0.013 C 
ATOM      7  C   UNL     1      53.794 -38.497 -24.788  1.00  0.00    -0.064 C 
ATOM      8  C   UNL     1      53.209 -37.274 -22.613  1.00  0.00     0.015 C 
ATOM      9  C   UNL     1      53.568 -36.086 -21.667  1.00  0.00    -0.035 C 
ATOM     10  C   UNL     1      53.918 -40.018 -24.471  1.00  0.00    -0.006 C 
ATOM     11  C   UNL     1      53.533 -38.050 -26.039  1.00  0.00    -0.027 C 
ATOM     12  C   UNL     1      53.040 -34.758 -22.259  1.00  0.00     0.011 C 
ATOM     13  C   UNL     1      52.868 -36.310 -20.306  1.00  0.00     0.011 C 
ATOM     14  C   UNL     1      52.549 -40.442 -23.851  1.00  0.00     0.017 C 
ATOM     15  C   UNL     1      54.274 -40.918 -25.814  1.00  0.00    -0.020 C 
ATOM     16  C   UNL     1      53.733 -38.906 -27.247  1.00  0.00     0.032 C 
ATOM     17  C   UNL     1      54.822 -39.969 -26.945  1.00  0.00     0.006 C 
ATOM     18  C   UNL     1      55.375 -41.977 -25.552  1.00  0.00     0.008 C 
ATOM     19  C   UNL     1      53.007 -41.716 -26.301  1.00  0.00     0.012 C 
ATOM     20  C   UNL     1      55.545 -40.573 -28.242  1.00  0.00    -0.025 C 
ATOM     21  C   UNL     1      55.786 -42.759 -26.800  1.00  0.00     0.005 C 
ATOM     22  C   UNL     1      56.421 -41.865 -27.899  1.00  0.00     0.003 C 
ATOM     23  C   UNL     1      54.513 -40.851 -29.386  1.00  0.00     0.010 C 
ATOM     24  C   UNL     1      56.512 -39.443 -28.749  1.00  0.00     0.012 C 
ATOM     25  C   UNL     1      56.906 -42.718 -29.163  1.00  0.00    -0.006 C 
ATOM     26  C   UNL     1      55.079 -41.605 -30.594  1.00  0.00     0.033 C 
ATOM     27  C   UNL     1      55.751 -42.922 -30.190  1.00  0.00     0.120 C 
ATOM     28  C   UNL     1      57.435 -44.125 -28.751  1.00  0.00     0.014 C 
ATOM     29  C   UNL     1      58.125 -42.040 -29.859  1.00  0.00     0.014 C 
ENDROOT
BRANCH   1  30
ATOM     30  C   UNL     1      56.677 -36.865 -24.090  1.00  0.00     0.048 C 
ATOM     31  O   UNL     1      56.263 -35.835 -24.688  1.00  0.00    -0.550 OA
ATOM     32  O   UNL     1      58.005 -37.244 -24.264  1.00  0.00    -0.550 OA
ENDBRANCH   1  30
BRANCH  27  33
ATOM     33  O   UNL     1      54.778 -43.796 -29.672  1.00  0.00    -0.393 OA
ATOM     34  H   UNL     1      53.902 -43.331 -29.737  1.00  0.00     0.210 HD
ENDBRANCH  27  33
TORSDOF 2
ENDMDL
MODEL 3
REMARK VINA RESULT:    -7.313      4.316      6.893
REMARK INTER + INTRA:          -8.003
REMARK INTER:                  -7.712
REMARK INTRA:                  -0.291
REMARK UNBOUND:                -0.049
REMARK SMILES CC1(C)CC[C@@]2(C(=O)[O-])CC[C@@]3(C)C(=CC[C@@H]4[C@]5(C)CC[C@H](O)C(C)(C)[C@@H]5CC[C@]43C)[C@H]2C1
REMARK SMILES IDX 6 1 5 2 10 3 32 4 4 5 11 6 14 7 33 8 2 9 12 10 15 11 1 12
REMARK SMILES IDX 3 13 13 14 30 15 16 16 17 17 29 18 31 19 18 20 28 21 27 22
REMARK SMILES IDX 20 23 19 24 24 25 21 26 22 27 25 28 26 29 7 30 8 31 9 32
REMARK SMILES IDX 23 33
REMARK H PARENT 23 34
REMARK Flexibility Score: inf
ROOT
ATOM      1  C   UNL     1      53.758 -41.173 -26.947  1.00  0.00     0.017 C 
ATOM      2  C   UNL     1      55.038 -40.975 -27.824  1.00  0.00     0.014 C 
ATOM      3  C   UNL     1      52.531 -40.558 -27.696  1.00  0.00     0.014 C 
ATOM      4  C   UNL     1      53.558 -42.710 -26.624  1.00  0.00     0.028 C 
ATOM      5  C   UNL     1      56.207 -41.843 -27.328  1.00  0.00     0.007 C 
ATOM      6  C   UNL     1      51.810 -41.584 -28.580  1.00  0.00     0.013 C 
ATOM      7  C   UNL     1      52.070 -43.091 -26.572  1.00  0.00    -0.064 C 
ATOM      8  C   UNL     1      54.375 -43.647 -27.545  1.00  0.00     0.015 C 
ATOM      9  C   UNL     1      55.909 -43.373 -27.461  1.00  0.00    -0.035 C 
ATOM     10  C   UNL     1      51.118 -42.736 -27.754  1.00  0.00    -0.006 C 
ATOM     11  C   UNL     1      51.595 -43.516 -25.377  1.00  0.00    -0.027 C 
ATOM     12  C   UNL     1      56.517 -44.125 -26.253  1.00  0.00     0.011 C 
ATOM     13  C   UNL     1      56.578 -43.917 -28.744  1.00  0.00     0.011 C 
ATOM     14  C   UNL     1      51.126 -43.977 -28.701  1.00  0.00     0.017 C 
ATOM     15  C   UNL     1      49.583 -42.378 -27.244  1.00  0.00    -0.020 C 
ATOM     16  C   UNL     1      50.173 -43.306 -24.968  1.00  0.00     0.032 C 
ATOM     17  C   UNL     1      49.609 -42.062 -25.701  1.00  0.00     0.006 C 
ATOM     18  C   UNL     1      48.997 -41.125 -27.943  1.00  0.00     0.008 C 
ATOM     19  C   UNL     1      48.599 -43.562 -27.570  1.00  0.00     0.012 C 
ATOM     20  C   UNL     1      48.348 -41.378 -24.984  1.00  0.00    -0.025 C 
ATOM     21  C   UNL     1      47.616 -40.720 -27.424  1.00  0.00     0.005 C 
ATOM     22  C   UNL     1      47.625 -40.309 -25.926  1.00  0.00     0.003 C 
ATOM     23  C   UNL     1      47.350 -42.457 -24.447  1.00  0.00     0.010 C 
ATOM     24  C   UNL     1      48.933 -40.619 -23.739  1.00  0.00     0.012 C 
ATOM     25  C   UNL     1      46.183 -39.823 -25.429  1.00  0.00    -0.006 C 
ATOM     26  C   UNL     1      46.025 -41.900 -23.917  1.00  0.00     0.033 C 
ATOM     27  C   UNL     1      45.310 -41.024 -24.952  1.00  0.00     0.120 C 
ATOM     28  C   UNL     1      45.399 -39.075 -26.549  1.00  0.00     0.014 C 
ATOM     29  C   UNL     1      46.314 -38.772 -24.285  1.00  0.00     0.014 C 
ENDROOT
BRANCH   1  30
ATOM     30  C   UNL     1      53.907 -40.406 -25.634  1.00  0.00     0.048 C 
ATOM     31  O   UNL     1      54.070 -39.156 -25.647  1.00  0.00    -0.550 OA
ATOM     32  O   UNL     1      53.927 -41.065 -24.408  1.00  0.00    -0.550 OA
ENDBRANCH   1  30
BRANCH  27  33
ATOM     33  O   UNL     1      44.928 -41.821 -26.046  1.00  0.00    -0.393 OA
ATOM     34  H   UNL     1      45.203 -42.754 -25.839  1.00  0.00     0.210 HD
ENDBRANCH  27  33
TORSDOF 2
ENDMDL
MODEL 4
REMARK VINA RESULT:    -7.210      1.690      2.491
REMARK INTER + INTRA:          -7.891
REMARK INTER:                  -7.821
REMARK INTRA:                  -0.070
REMARK UNBOUND:                -0.049
REMARK SMILES CC1(C)CC[C@@]2(C(=O)[O-])CC[C@@]3(C)C(=CC[C@@H]4[C@]5(C)CC[C@H](O)C(C)(C)[C@@H]5CC[C@]43C)[C@H]2C1
REMARK SMILES IDX 6 1 5 2 10 3 32 4 4 5 11 6 14 7 33 8 2 9 12 10 15 11 1 12
REMARK SMILES IDX 3 13 13 14 30 15 16 16 17 17 29 18 31 19 18 20 28 21 27 22
REMARK SMILES IDX 20 23 19 24 24 25 21 26 22 27 25 28 26 29 7 30 8 31 9 32
REMARK SMILES IDX 23 33
REMARK H PARENT 23 34
REMARK Flexibility Score: inf
ROOT
ATOM      1  C   UNL     1      54.035 -41.108 -27.547  1.00  0.00     0.017 C 
ATOM      2  C   UNL     1      53.990 -42.514 -28.231  1.00  0.00     0.014 C 
ATOM      3  C   UNL     1      53.295 -41.191 -26.172  1.00  0.00     0.014 C 
ATOM      4  C   UNL     1      55.537 -40.629 -27.394  1.00  0.00     0.028 C 
ATOM      5  C   UNL     1      54.978 -42.605 -29.406  1.00  0.00     0.007 C 
ATOM      6  C   UNL     1      54.243 -41.534 -25.015  1.00  0.00     0.013 C 
ATOM      7  C   UNL     1      55.748 -39.824 -26.103  1.00  0.00    -0.064 C 
ATOM      8  C   UNL     1      56.569 -41.771 -27.553  1.00  0.00     0.015 C 
ATOM      9  C   UNL     1      56.467 -42.474 -28.943  1.00  0.00    -0.035 C 
ATOM     10  C   UNL     1      55.302 -40.400 -24.725  1.00  0.00    -0.006 C 
ATOM     11  C   UNL     1      56.105 -38.526 -26.250  1.00  0.00    -0.027 C 
ATOM     12  C   UNL     1      57.269 -41.680 -30.000  1.00  0.00     0.011 C 
ATOM     13  C   UNL     1      57.096 -43.882 -28.830  1.00  0.00     0.011 C 
ATOM     14  C   UNL     1      56.545 -41.145 -24.146  1.00  0.00     0.017 C 
ATOM     15  C   UNL     1      54.769 -39.223 -23.689  1.00  0.00    -0.020 C 
ATOM     16  C   UNL     1      55.733 -37.481 -25.247  1.00  0.00     0.032 C 
ATOM     17  C   UNL     1      54.441 -37.918 -24.509  1.00  0.00     0.006 C 
ATOM     18  C   UNL     1      53.465 -39.620 -22.950  1.00  0.00     0.008 C 
ATOM     19  C   UNL     1      55.838 -38.942 -22.569  1.00  0.00     0.012 C 
ATOM     20  C   UNL     1      53.614 -36.718 -23.843  1.00  0.00    -0.025 C 
ATOM     21  C   UNL     1      52.903 -38.514 -22.056  1.00  0.00     0.005 C 
ATOM     22  C   UNL     1      52.480 -37.247 -22.847  1.00  0.00     0.003 C 
ATOM     23  C   UNL     1      54.568 -35.689 -23.151  1.00  0.00     0.010 C 
ATOM     24  C   UNL     1      52.912 -35.977 -25.037  1.00  0.00     0.012 C 
ATOM     25  C   UNL     1      51.831 -36.134 -21.897  1.00  0.00    -0.006 C 
ATOM     26  C   UNL     1      53.861 -34.610 -22.324  1.00  0.00     0.033 C 
ATOM     27  C   UNL     1      52.921 -35.211 -21.273  1.00  0.00     0.120 C 
ATOM     28  C   UNL     1      51.012 -36.765 -20.732  1.00  0.00     0.014 C 
ATOM     29  C   UNL     1      50.788 -35.276 -22.677  1.00  0.00     0.014 C 
ENDROOT
BRANCH   1  30
ATOM     30  C   UNL     1      53.276 -40.093 -28.400  1.00  0.00     0.048 C 
ATOM     31  O   UNL     1      53.199 -38.890 -28.031  1.00  0.00    -0.550 OA
ATOM     32  O   UNL     1      52.607 -40.475 -29.559  1.00  0.00    -0.550 OA
ENDBRANCH   1  30
BRANCH  27  33
ATOM     33  O   UNL     1      53.683 -35.919 -20.325  1.00  0.00    -0.393 OA
ATOM     34  H   UNL     1      54.581 -35.495 -20.294  1.00  0.00     0.210 HD
ENDBRANCH  27  33
TORSDOF 2
ENDMDL
MODEL 5
REMARK VINA RESULT:    -6.941      3.070      4.551
REMARK INTER + INTRA:          -7.600
REMARK INTER:                  -7.476
REMARK INTRA:                  -0.124
REMARK UNBOUND:                -0.049
REMARK SMILES CC1(C)CC[C@@]2(C(=O)[O-])CC[C@@]3(C)C(=CC[C@@H]4[C@]5(C)CC[C@H](O)C(C)(C)[C@@H]5CC[C@]43C)[C@H]2C1
REMARK SMILES IDX 6 1 5 2 10 3 32 4 4 5 11 6 14 7 33 8 2 9 12 10 15 11 1 12
REMARK SMILES IDX 3 13 13 14 30 15 16 16 17 17 29 18 31 19 18 20 28 21 27 22
REMARK SMILES IDX 20 23 19 24 24 25 21 26 22 27 25 28 26 29 7 30 8 31 9 32
REMARK SMILES IDX 23 33
REMARK H PARENT 23 34
REMARK Flexibility Score: inf
ROOT
ATOM      1  C   UNL     1      56.210 -39.778 -24.269  1.00  0.00     0.017 C 
ATOM      2  C   UNL     1      56.844 -41.207 -24.271  1.00  0.00     0.014 C 
ATOM      3  C   UNL     1      57.339 -38.723 -24.032  1.00  0.00     0.014 C 
ATOM      4  C   UNL     1      55.430 -39.531 -25.626  1.00  0.00     0.028 C 
ATOM      5  C   UNL     1      55.874 -42.258 -24.835  1.00  0.00     0.007 C 
ATOM      6  C   UNL     1      57.944 -38.206 -25.344  1.00  0.00     0.013 C 
ATOM      7  C   UNL     1      55.534 -38.067 -26.082  1.00  0.00    -0.064 C 
ATOM      8  C   UNL     1      55.810 -40.527 -26.747  1.00  0.00     0.015 C 
ATOM      9  C   UNL     1      55.536 -42.009 -26.342  1.00  0.00    -0.035 C 
ATOM     10  C   UNL     1      56.924 -37.371 -26.211  1.00  0.00    -0.006 C 
ATOM     11  C   UNL     1      54.379 -37.363 -26.127  1.00  0.00    -0.027 C 
ATOM     12  C   UNL     1      54.054 -42.366 -26.606  1.00  0.00     0.011 C 
ATOM     13  C   UNL     1      56.410 -42.931 -27.223  1.00  0.00     0.011 C 
ATOM     14  C   UNL     1      57.377 -37.584 -27.689  1.00  0.00     0.017 C 
ATOM     15  C   UNL     1      56.863 -35.762 -25.825  1.00  0.00    -0.020 C 
ATOM     16  C   UNL     1      54.340 -35.885 -25.905  1.00  0.00     0.032 C 
ATOM     17  C   UNL     1      55.542 -35.470 -25.019  1.00  0.00     0.006 C 
ATOM     18  C   UNL     1      58.042 -35.318 -24.921  1.00  0.00     0.008 C 
ATOM     19  C   UNL     1      56.950 -34.876 -27.123  1.00  0.00     0.012 C 
ATOM     20  C   UNL     1      55.349 -34.083 -24.238  1.00  0.00    -0.025 C 
ATOM     21  C   UNL     1      57.959 -33.857 -24.476  1.00  0.00     0.005 C 
ATOM     22  C   UNL     1      56.716 -33.556 -23.597  1.00  0.00     0.003 C 
ATOM     23  C   UNL     1      54.678 -33.007 -25.154  1.00  0.00     0.010 C 
ATOM     24  C   UNL     1      54.347 -34.395 -23.069  1.00  0.00     0.012 C 
ATOM     25  C   UNL     1      56.692 -32.039 -23.089  1.00  0.00    -0.006 C 
ATOM     26  C   UNL     1      54.626 -31.596 -24.559  1.00  0.00     0.033 C 
ATOM     27  C   UNL     1      56.012 -31.099 -24.130  1.00  0.00     0.120 C 
ATOM     28  C   UNL     1      58.125 -31.492 -22.813  1.00  0.00     0.014 C 
ATOM     29  C   UNL     1      55.967 -31.924 -21.712  1.00  0.00     0.014 C 
ENDROOT
BRANCH   1  30
ATOM     30  C   UNL     1      55.229 -39.648 -23.105  1.00  0.00     0.048 C 
ATOM     31  O   UNL     1      54.110 -40.227 -23.154  1.00  0.00    -0.550 OA
ATOM     32  O   UNL     1      55.515 -38.850 -22.000  1.00  0.00    -0.550 OA
ENDBRANCH   1  30
BRANCH  27  33
ATOM     33  O   UNL     1      56.823 -30.956 -25.269  1.00  0.00    -0.393 OA
ATOM     34  H   UNL     1      56.741 -31.795 -25.795  1.00  0.00     0.210 HD
ENDBRANCH  27  33
TORSDOF 2
ENDMDL
MODEL 6
REMARK VINA RESULT:    -6.886      2.147      3.962
REMARK INTER + INTRA:          -7.539
REMARK INTER:                  -7.267
REMARK INTRA:                  -0.272
REMARK UNBOUND:                -0.049
REMARK SMILES CC1(C)CC[C@@]2(C(=O)[O-])CC[C@@]3(C)C(=CC[C@@H]4[C@]5(C)CC[C@H](O)C(C)(C)[C@@H]5CC[C@]43C)[C@H]2C1
REMARK SMILES IDX 6 1 5 2 10 3 32 4 4 5 11 6 14 7 33 8 2 9 12 10 15 11 1 12
REMARK SMILES IDX 3 13 13 14 30 15 16 16 17 17 29 18 31 19 18 20 28 21 27 22
REMARK SMILES IDX 20 23 19 24 24 25 21 26 22 27 25 28 26 29 7 30 8 31 9 32
REMARK SMILES IDX 23 33
REMARK H PARENT 23 34
REMARK Flexibility Score: inf
ROOT
ATOM      1  C   UNL     1      55.732 -40.201 -28.450  1.00  0.00     0.017 C 
ATOM      2  C   UNL     1      55.442 -40.703 -29.903  1.00  0.00     0.014 C 
ATOM      3  C   UNL     1      54.572 -39.254 -28.000  1.00  0.00     0.014 C 
ATOM      4  C   UNL     1      55.911 -41.438 -27.477  1.00  0.00     0.028 C 
ATOM      5  C   UNL     1      56.340 -41.891 -30.283  1.00  0.00     0.007 C 
ATOM      6  C   UNL     1      53.449 -40.007 -27.273  1.00  0.00     0.013 C 
ATOM      7  C   UNL     1      55.358 -41.143 -26.074  1.00  0.00    -0.064 C 
ATOM      8  C   UNL     1      55.368 -42.765 -28.058  1.00  0.00     0.015 C 
ATOM      9  C   UNL     1      56.062 -43.154 -29.401  1.00  0.00    -0.035 C 
ATOM     10  C   UNL     1      53.904 -40.612 -25.889  1.00  0.00    -0.006 C 
ATOM     11  C   UNL     1      56.254 -41.133 -25.060  1.00  0.00    -0.027 C 
ATOM     12  C   UNL     1      57.393 -43.889 -29.118  1.00  0.00     0.011 C 
ATOM     13  C   UNL     1      55.138 -44.125 -30.171  1.00  0.00     0.011 C 
ATOM     14  C   UNL     1      53.008 -41.874 -25.684  1.00  0.00     0.017 C 
ATOM     15  C   UNL     1      53.770 -39.565 -24.613  1.00  0.00    -0.020 C 
ATOM     16  C   UNL     1      56.070 -40.281 -23.845  1.00  0.00     0.032 C 
ATOM     17  C   UNL     1      55.203 -39.049 -24.212  1.00  0.00     0.006 C 
ATOM     18  C   UNL     1      52.926 -38.310 -24.954  1.00  0.00     0.008 C 
ATOM     19  C   UNL     1      53.050 -40.259 -23.398  1.00  0.00     0.012 C 
ATOM     20  C   UNL     1      55.376 -37.794 -23.230  1.00  0.00    -0.025 C 
ATOM     21  C   UNL     1      52.864 -37.285 -23.821  1.00  0.00     0.005 C 
ATOM     22  C   UNL     1      54.250 -36.683 -23.466  1.00  0.00     0.003 C 
ATOM     23  C   UNL     1      55.445 -38.251 -21.735  1.00  0.00     0.010 C 
ATOM     24  C   UNL     1      56.770 -37.164 -23.593  1.00  0.00     0.012 C 
ATOM     25  C   UNL     1      54.145 -35.563 -22.327  1.00  0.00    -0.006 C 
ATOM     26  C   UNL     1      55.419 -37.111 -20.712  1.00  0.00     0.033 C 
ATOM     27  C   UNL     1      54.206 -36.192 -20.902  1.00  0.00     0.120 C 
ATOM     28  C   UNL     1      52.825 -34.743 -22.433  1.00  0.00     0.014 C 
ATOM     29  C   UNL     1      55.272 -34.498 -22.489  1.00  0.00     0.014 C 
ENDROOT
BRANCH   1  30
ATOM     30  C   UNL     1      57.015 -39.371 -28.436  1.00  0.00     0.048 C 
ATOM     31  O   UNL     1      58.008 -39.755 -27.760  1.00  0.00    -0.550 OA
ATOM     32  O   UNL     1      57.100 -38.156 -29.109  1.00  0.00    -0.550 OA
ENDBRANCH   1  30
BRANCH  27  33
ATOM     33  O   UNL     1      53.032 -36.917 -20.632  1.00  0.00    -0.393 OA
ATOM     34  H   UNL     1      53.143 -37.332 -19.736  1.00  0.00     0.210 HD
ENDBRANCH  27  33
TORSDOF 2
ENDMDL
MODEL 7
REMARK VINA RESULT:    -6.869      2.716      7.553
REMARK INTER + INTRA:          -7.520
REMARK INTER:                  -7.459
REMARK INTRA:                  -0.062
REMARK UNBOUND:                -0.049
REMARK SMILES CC1(C)CC[C@@]2(C(=O)[O-])CC[C@@]3(C)C(=CC[C@@H]4[C@]5(C)CC[C@H](O)C(C)(C)[C@@H]5CC[C@]43C)[C@H]2C1
REMARK SMILES IDX 6 1 5 2 10 3 32 4 4 5 11 6 14 7 33 8 2 9 12 10 15 11 1 12
REMARK SMILES IDX 3 13 13 14 30 15 16 16 17 17 29 18 31 19 18 20 28 21 27 22
REMARK SMILES IDX 20 23 19 24 24 25 21 26 22 27 25 28 26 29 7 30 8 31 9 32
REMARK SMILES IDX 23 33
REMARK H PARENT 23 34
REMARK Flexibility Score: inf
ROOT
ATOM      1  C   UNL     1      57.274 -35.753 -25.097  1.00  0.00     0.017 C 
ATOM      2  C   UNL     1      58.124 -34.750 -24.249  1.00  0.00     0.014 C 
ATOM      3  C   UNL     1      57.735 -37.211 -24.768  1.00  0.00     0.014 C 
ATOM      4  C   UNL     1      55.732 -35.531 -24.812  1.00  0.00     0.028 C 
ATOM      5  C   UNL     1      57.509 -33.341 -24.252  1.00  0.00     0.007 C 
ATOM      6  C   UNL     1      56.924 -37.839 -23.627  1.00  0.00     0.013 C 
ATOM      7  C   UNL     1      54.950 -36.853 -24.853  1.00  0.00    -0.064 C 
ATOM      8  C   UNL     1      55.453 -34.719 -23.524  1.00  0.00     0.015 C 
ATOM      9  C   UNL     1      56.105 -33.302 -23.562  1.00  0.00    -0.035 C 
ATOM     10  C   UNL     1      55.409 -38.074 -24.000  1.00  0.00    -0.006 C 
ATOM     11  C   UNL     1      54.017 -36.974 -25.826  1.00  0.00    -0.027 C 
ATOM     12  C   UNL     1      55.185 -32.313 -24.316  1.00  0.00     0.011 C 
ATOM     13  C   UNL     1      56.261 -32.792 -22.110  1.00  0.00     0.011 C 
ATOM     14  C   UNL     1      54.637 -37.970 -22.648  1.00  0.00     0.017 C 
ATOM     15  C   UNL     1      55.112 -39.519 -24.753  1.00  0.00    -0.020 C 
ATOM     16  C   UNL     1      53.654 -38.297 -26.419  1.00  0.00     0.032 C 
ATOM     17  C   UNL     1      54.860 -39.263 -26.287  1.00  0.00     0.006 C 
ATOM     18  C   UNL     1      56.308 -40.501 -24.659  1.00  0.00     0.008 C 
ATOM     19  C   UNL     1      53.890 -40.253 -24.087  1.00  0.00     0.012 C 
ATOM     20  C   UNL     1      54.859 -40.480 -27.331  1.00  0.00    -0.025 C 
ATOM     21  C   UNL     1      56.093 -41.808 -25.424  1.00  0.00     0.005 C 
ATOM     22  C   UNL     1      55.937 -41.599 -26.955  1.00  0.00     0.003 C 
ATOM     23  C   UNL     1      53.424 -41.081 -27.497  1.00  0.00     0.010 C 
ATOM     24  C   UNL     1      55.266 -39.850 -28.712  1.00  0.00     0.012 C 
ATOM     25  C   UNL     1      55.784 -42.987 -27.738  1.00  0.00    -0.006 C 
ATOM     26  C   UNL     1      53.356 -42.367 -28.326  1.00  0.00     0.033 C 
ATOM     27  C   UNL     1      54.297 -43.452 -27.789  1.00  0.00     0.120 C 
ATOM     28  C   UNL     1      56.621 -44.125 -27.080  1.00  0.00     0.014 C 
ATOM     29  C   UNL     1      56.359 -42.877 -29.183  1.00  0.00     0.014 C 
ENDROOT
BRANCH   1  30
ATOM     30  C   UNL     1      57.540 -35.528 -26.584  1.00  0.00     0.048 C 
ATOM     31  O   UNL     1      58.067 -36.440 -27.277  1.00  0.00    -0.550 OA
ATOM     32  O   UNL     1      57.268 -34.306 -27.193  1.00  0.00    -0.550 OA
ENDBRANCH   1  30
BRANCH  27  33
ATOM     33  O   UNL     1      53.860 -43.849 -26.513  1.00  0.00    -0.393 OA
ATOM     34  H   UNL     1      52.908 -43.578 -26.431  1.00  0.00     0.210 HD
ENDBRANCH  27  33
TORSDOF 2
ENDMDL
MODEL 8
REMARK VINA RESULT:    -6.852      2.428      7.608
REMARK INTER + INTRA:          -7.502
REMARK INTER:                  -7.201
REMARK INTRA:                  -0.301
REMARK UNBOUND:                -0.049
REMARK SMILES CC1(C)CC[C@@]2(C(=O)[O-])CC[C@@]3(C)C(=CC[C@@H]4[C@]5(C)CC[C@H](O)C(C)(C)[C@@H]5CC[C@]43C)[C@H]2C1
REMARK SMILES IDX 6 1 5 2 10 3 32 4 4 5 11 6 14 7 33 8 2 9 12 10 15 11 1 12
REMARK SMILES IDX 3 13 13 14 30 15 16 16 17 17 29 18 31 19 18 20 28 21 27 22
REMARK SMILES IDX 20 23 19 24 24 25 21 26 22 27 25 28 26 29 7 30 8 31 9 32
REMARK SMILES IDX 23 33
REMARK H PARENT 23 34
REMARK Flexibility Score: inf
ROOT
ATOM      1  C   UNL     1      53.971 -34.933 -24.050  1.00  0.00     0.017 C 
ATOM      2  C   UNL     1      53.672 -33.401 -24.150  1.00  0.00     0.014 C 
ATOM      3  C   UNL     1      53.959 -35.546 -25.488  1.00  0.00     0.014 C 
ATOM      4  C   UNL     1      55.350 -35.167 -23.307  1.00  0.00     0.028 C 
ATOM      5  C   UNL     1      54.004 -32.671 -22.838  1.00  0.00     0.007 C 
ATOM      6  C   UNL     1      55.350 -35.547 -26.137  1.00  0.00     0.013 C 
ATOM      7  C   UNL     1      56.104 -36.379 -23.876  1.00  0.00    -0.064 C 
ATOM      8  C   UNL     1      56.237 -33.901 -23.237  1.00  0.00     0.015 C 
ATOM      9  C   UNL     1      55.530 -32.721 -22.498  1.00  0.00    -0.035 C 
ATOM     10  C   UNL     1      56.374 -36.500 -25.407  1.00  0.00    -0.006 C 
ATOM     11  C   UNL     1      56.297 -37.422 -23.035  1.00  0.00    -0.027 C 
ATOM     12  C   UNL     1      55.715 -32.865 -20.969  1.00  0.00     0.011 C 
ATOM     13  C   UNL     1      56.197 -31.396 -22.934  1.00  0.00     0.011 C 
ATOM     14  C   UNL     1      57.774 -35.854 -25.650  1.00  0.00     0.017 C 
ATOM     15  C   UNL     1      56.335 -38.069 -25.934  1.00  0.00    -0.020 C 
ATOM     16  C   UNL     1      56.391 -38.831 -23.524  1.00  0.00     0.032 C 
ATOM     17  C   UNL     1      55.610 -38.961 -24.858  1.00  0.00     0.006 C 
ATOM     18  C   UNL     1      55.542 -38.238 -27.256  1.00  0.00     0.008 C 
ATOM     19  C   UNL     1      57.790 -38.593 -26.227  1.00  0.00     0.012 C 
ATOM     20  C   UNL     1      55.138 -40.452 -25.213  1.00  0.00    -0.025 C 
ATOM     21  C   UNL     1      55.415 -39.691 -27.716  1.00  0.00     0.005 C 
ATOM     22  C   UNL     1      54.619 -40.578 -26.720  1.00  0.00     0.003 C 
ATOM     23  C   UNL     1      56.261 -41.493 -24.889  1.00  0.00     0.010 C 
ATOM     24  C   UNL     1      53.931 -40.751 -24.252  1.00  0.00     0.012 C 
ATOM     25  C   UNL     1      54.441 -42.074 -27.258  1.00  0.00    -0.006 C 
ATOM     26  C   UNL     1      55.975 -42.918 -25.371  1.00  0.00     0.033 C 
ATOM     27  C   UNL     1      55.657 -42.969 -26.870  1.00  0.00     0.120 C 
ATOM     28  C   UNL     1      54.285 -42.124 -28.808  1.00  0.00     0.014 C 
ATOM     29  C   UNL     1      53.121 -42.706 -26.720  1.00  0.00     0.014 C 
ENDROOT
BRANCH   1  30
ATOM     30  C   UNL     1      52.861 -35.627 -23.262  1.00  0.00     0.048 C 
ATOM     31  O   UNL     1      51.751 -35.866 -23.811  1.00  0.00    -0.550 OA
ATOM     32  O   UNL     1      53.021 -35.954 -21.918  1.00  0.00    -0.550 OA
ENDBRANCH   1  30
BRANCH  27  33
ATOM     33  O   UNL     1      56.801 -42.590 -27.596  1.00  0.00    -0.393 OA
ATOM     34  H   UNL     1      56.696 -41.629 -27.828  1.00  0.00     0.210 HD
ENDBRANCH  27  33
TORSDOF 2
ENDMDL
MODEL 9
REMARK VINA RESULT:    -6.699      1.958      7.809
REMARK INTER + INTRA:          -7.335
REMARK INTER:                  -7.039
REMARK INTRA:                  -0.296
REMARK UNBOUND:                -0.049
REMARK SMILES CC1(C)CC[C@@]2(C(=O)[O-])CC[C@@]3(C)C(=CC[C@@H]4[C@]5(C)CC[C@H](O)C(C)(C)[C@@H]5CC[C@]43C)[C@H]2C1
REMARK SMILES IDX 6 1 5 2 10 3 32 4 4 5 11 6 14 7 33 8 2 9 12 10 15 11 1 12
REMARK SMILES IDX 3 13 13 14 30 15 16 16 17 17 29 18 31 19 18 20 28 21 27 22
REMARK SMILES IDX 20 23 19 24 24 25 21 26 22 27 25 28 26 29 7 30 8 31 9 32
REMARK SMILES IDX 23 33
REMARK H PARENT 23 34
REMARK Flexibility Score: inf
ROOT
ATOM      1  C   UNL     1      51.674 -35.817 -22.584  1.00  0.00     0.017 C 
ATOM      2  C   UNL     1      51.041 -34.414 -22.307  1.00  0.00     0.014 C 
ATOM      3  C   UNL     1      52.134 -35.880 -24.077  1.00  0.00     0.014 C 
ATOM      4  C   UNL     1      52.865 -36.082 -21.574  1.00  0.00     0.028 C 
ATOM      5  C   UNL     1      50.882 -34.149 -20.801  1.00  0.00     0.007 C 
ATOM      6  C   UNL     1      53.592 -35.438 -24.259  1.00  0.00     0.013 C 
ATOM      7  C   UNL     1      53.999 -36.885 -22.231  1.00  0.00    -0.064 C 
ATOM      8  C   UNL     1      53.378 -34.801 -20.875  1.00  0.00     0.015 C 
ATOM      9  C   UNL     1      52.259 -34.080 -20.060  1.00  0.00    -0.035 C 
ATOM     10  C   UNL     1      54.626 -36.417 -23.579  1.00  0.00    -0.006 C 
ATOM     11  C   UNL     1      54.245 -38.114 -21.720  1.00  0.00    -0.027 C 
ATOM     12  C   UNL     1      52.125 -34.722 -18.659  1.00  0.00     0.011 C 
ATOM     13  C   UNL     1      52.664 -32.600 -19.867  1.00  0.00     0.011 C 
ATOM     14  C   UNL     1      55.845 -35.519 -23.199  1.00  0.00     0.017 C 
ATOM     15  C   UNL     1      55.089 -37.687 -24.536  1.00  0.00    -0.020 C 
ATOM     16  C   UNL     1      54.786 -39.228 -22.556  1.00  0.00     0.032 C 
ATOM     17  C   UNL     1      54.380 -39.001 -24.035  1.00  0.00     0.006 C 
ATOM     18  C   UNL     1      54.679 -37.500 -26.019  1.00  0.00     0.008 C 
ATOM     19  C   UNL     1      56.655 -37.844 -24.532  1.00  0.00     0.012 C 
ATOM     20  C   UNL     1      54.376 -40.325 -24.939  1.00  0.00    -0.025 C 
ATOM     21  C   UNL     1      55.015 -38.700 -26.906  1.00  0.00     0.005 C 
ATOM     22  C   UNL     1      54.256 -39.992 -26.497  1.00  0.00     0.003 C 
ATOM     23  C   UNL     1      55.616 -41.227 -24.625  1.00  0.00     0.010 C 
ATOM     24  C   UNL     1      53.094 -41.125 -24.507  1.00  0.00     0.012 C 
ATOM     25  C   UNL     1      54.573 -41.212 -27.484  1.00  0.00    -0.006 C 
ATOM     26  C   UNL     1      55.801 -42.418 -25.570  1.00  0.00     0.033 C 
ATOM     27  C   UNL     1      55.850 -41.987 -27.041  1.00  0.00     0.120 C 
ATOM     28  C   UNL     1      54.785 -40.737 -28.953  1.00  0.00     0.014 C 
ATOM     29  C   UNL     1      53.359 -42.188 -27.569  1.00  0.00     0.014 C 
ENDROOT
BRANCH   1  30
ATOM     30  C   UNL     1      50.618 -36.906 -22.398  1.00  0.00     0.048 C 
ATOM     31  O   UNL     1      49.587 -36.916 -23.125  1.00  0.00    -0.550 OA
ATOM     32  O   UNL     1      50.733 -37.866 -21.397  1.00  0.00    -0.550 OA
ENDBRANCH   1  30
BRANCH  27  33
ATOM     33  O   UNL     1      57.000 -41.205 -27.253  1.00  0.00    -0.393 OA
ATOM     34  H   UNL     1      56.706 -40.364 -27.692  1.00  0.00     0.210 HD
ENDBRANCH  27  33
TORSDOF 2
ENDMDL
