MODEL 1
REMARK VINA RESULT:    -6.470      0.000      0.000
REMARK INTER + INTRA:          -8.124
REMARK INTER:                  -7.794
REMARK INTRA:                  -0.330
REMARK UNBOUND:                -0.330
REMARK SMILES O=c1c(O)c(-c2ccc(O)c(O)c2)oc2cc(O)cc(O)c12
REMARK SMILES IDX 5 1 3 2 2 3 1 4 22 5 20 6 19 7 17 8 16 9 15 10 14 11 6 12
REMARK SMILES IDX 7 13 8 14 9 15 13 16 11 17 10 18 12 20 4 22 21 24 18 26
REMARK H PARENT 10 19 12 21 4 23 21 25 18 27
REMARK Flexibility Score: inf
ROOT
ATOM      1  C   UNL     1      38.226   4.343   8.028  1.00  0.00     0.180 A 
ATOM      2  C   UNL     1      39.081   4.465   6.919  1.00  0.00     0.208 A 
ATOM      3  C   UNL     1      39.465   5.746   6.494  1.00  0.00     0.238 A 
ATOM      4  O   UNL     1      40.289   5.845   5.547  1.00  0.00    -0.285 OA
ATOM      5  C   UNL     1      38.946   6.892   7.144  1.00  0.00     0.111 A 
ATOM      6  C   UNL     1      39.231   8.239   6.769  1.00  0.00     0.134 A 
ATOM      7  C   UNL     1      38.745   9.292   7.553  1.00  0.00     0.093 A 
ATOM      8  C   UNL     1      37.932   9.051   8.660  1.00  0.00     0.123 A 
ATOM      9  C   UNL     1      37.602   7.740   9.005  1.00  0.00     0.094 A 
ATOM     10  C   UNL     1      38.103   6.666   8.264  1.00  0.00     0.146 A 
ATOM     11  O   UNL     1      37.782   5.434   8.640  1.00  0.00    -0.452 OA
ENDROOT
BRANCH   1  12
ATOM     12  C   UNL     1      37.790   3.026   8.546  1.00  0.00     0.025 A 
ATOM     13  C   UNL     1      38.566   2.309   9.472  1.00  0.00     0.016 A 
ATOM     14  C   UNL     1      38.121   1.080   9.965  1.00  0.00     0.051 A 
ATOM     15  C   UNL     1      36.892   0.555   9.553  1.00  0.00     0.157 A 
ATOM     16  C   UNL     1      36.546   2.507   8.151  1.00  0.00     0.062 A 
ATOM     17  C   UNL     1      36.098   1.274   8.644  1.00  0.00     0.158 A 
BRANCH  15  18
ATOM     18  O   UNL     1      36.476  -0.675  10.061  1.00  0.00    -0.504 OA
ATOM     19  H   UNL     1      37.113  -1.455  10.170  1.00  0.00     0.293 HD
ENDBRANCH  15  18
BRANCH  17  20
ATOM     20  O   UNL     1      34.868   0.760   8.234  1.00  0.00    -0.504 OA
ATOM     21  H   UNL     1      34.235   1.297   7.653  1.00  0.00     0.293 HD
ENDBRANCH  17  20
ENDBRANCH   1  12
BRANCH   2  22
ATOM     22  O   UNL     1      39.522   3.324   6.242  1.00  0.00    -0.502 OA
ATOM     23  H   UNL     1      40.146   3.372   5.446  1.00  0.00     0.293 HD
ENDBRANCH   2  22
BRANCH   6  24
ATOM     24  O   UNL     1      39.959   8.597   5.630  1.00  0.00    -0.507 OA
ATOM     25  H   UNL     1      40.321   9.519   5.441  1.00  0.00     0.293 HD
ENDBRANCH   6  24
BRANCH   8  26
ATOM     26  O   UNL     1      37.452  10.125   9.407  1.00  0.00    -0.508 OA
ATOM     27  H   UNL     1      38.048  10.628  10.055  1.00  0.00     0.293 HD
ENDBRANCH   8  26
TORSDOF 6
ENDMDL
MODEL 2
REMARK VINA RESULT:    -5.922      1.917      7.014
REMARK INTER + INTRA:          -7.464
REMARK INTER:                  -7.173
REMARK INTRA:                  -0.291
REMARK UNBOUND:                -0.330
REMARK SMILES O=c1c(O)c(-c2ccc(O)c(O)c2)oc2cc(O)cc(O)c12
REMARK SMILES IDX 5 1 3 2 2 3 1 4 22 5 20 6 19 7 17 8 16 9 15 10 14 11 6 12
REMARK SMILES IDX 7 13 8 14 9 15 13 16 11 17 10 18 12 20 4 22 21 24 18 26
REMARK H PARENT 10 19 12 21 4 23 21 25 18 27
REMARK Flexibility Score: inf
ROOT
ATOM      1  C   UNL     1      37.760   4.810   8.566  1.00  0.00     0.180 A 
ATOM      2  C   UNL     1      36.485   5.308   8.886  1.00  0.00     0.208 A 
ATOM      3  C   UNL     1      35.506   4.418   9.357  1.00  0.00     0.238 A 
ATOM      4  O   UNL     1      34.391   4.883   9.712  1.00  0.00    -0.285 OA
ATOM      5  C   UNL     1      35.794   3.035   9.449  1.00  0.00     0.111 A 
ATOM      6  C   UNL     1      34.864   2.037   9.871  1.00  0.00     0.134 A 
ATOM      7  C   UNL     1      35.294   0.714  10.025  1.00  0.00     0.093 A 
ATOM      8  C   UNL     1      36.600   0.339   9.713  1.00  0.00     0.123 A 
ATOM      9  C   UNL     1      37.502   1.295   9.247  1.00  0.00     0.094 A 
ATOM     10  C   UNL     1      37.114   2.631   9.119  1.00  0.00     0.146 A 
ATOM     11  O   UNL     1      38.011   3.513   8.694  1.00  0.00    -0.452 OA
ENDROOT
BRANCH   1  12
ATOM     12  C   UNL     1      38.848   5.687   8.077  1.00  0.00     0.025 A 
ATOM     13  C   UNL     1      39.571   6.515   8.954  1.00  0.00     0.016 A 
ATOM     14  C   UNL     1      40.610   7.315   8.472  1.00  0.00     0.051 A 
ATOM     15  C   UNL     1      40.953   7.292   7.117  1.00  0.00     0.157 A 
ATOM     16  C   UNL     1      39.208   5.650   6.720  1.00  0.00     0.062 A 
ATOM     17  C   UNL     1      40.250   6.453   6.236  1.00  0.00     0.158 A 
BRANCH  15  18
ATOM     18  O   UNL     1      41.993   8.104   6.666  1.00  0.00    -0.504 OA
ATOM     19  H   UNL     1      42.282   8.935   7.168  1.00  0.00     0.293 HD
ENDBRANCH  15  18
BRANCH  17  20
ATOM     20  O   UNL     1      40.591   6.420   4.884  1.00  0.00    -0.504 OA
ATOM     21  H   UNL     1      40.495   7.237   4.292  1.00  0.00     0.293 HD
ENDBRANCH  17  20
ENDBRANCH   1  12
BRANCH   2  22
ATOM     22  O   UNL     1      36.196   6.665   8.715  1.00  0.00    -0.502 OA
ATOM     23  H   UNL     1      36.917   7.376   8.697  1.00  0.00     0.293 HD
ENDBRANCH   2  22
BRANCH   6  24
ATOM     24  O   UNL     1      33.511   2.285  10.125  1.00  0.00    -0.507 OA
ATOM     25  H   UNL     1      33.058   3.179  10.022  1.00  0.00     0.293 HD
ENDBRANCH   6  24
BRANCH   8  26
ATOM     26  O   UNL     1      36.987  -0.991   9.862  1.00  0.00    -0.508 OA
ATOM     27  H   UNL     1      37.541  -1.464   9.156  1.00  0.00     0.293 HD
ENDBRANCH   8  26
TORSDOF 6
ENDMDL
MODEL 3
REMARK VINA RESULT:    -5.585      1.597      2.095
REMARK INTER + INTRA:          -7.058
REMARK INTER:                  -7.365
REMARK INTRA:                   0.307
REMARK UNBOUND:                -0.330
REMARK SMILES O=c1c(O)c(-c2ccc(O)c(O)c2)oc2cc(O)cc(O)c12
REMARK SMILES IDX 5 1 3 2 2 3 1 4 22 5 20 6 19 7 17 8 16 9 15 10 14 11 6 12
REMARK SMILES IDX 7 13 8 14 9 15 13 16 11 17 10 18 12 20 4 22 21 24 18 26
REMARK H PARENT 10 19 12 21 4 23 21 25 18 27
REMARK Flexibility Score: inf
ROOT
ATOM      1  C   UNL     1      38.079   4.456   8.195  1.00  0.00     0.180 A 
ATOM      2  C   UNL     1      39.420   4.058   8.054  1.00  0.00     0.208 A 
ATOM      3  C   UNL     1      40.356   4.982   7.563  1.00  0.00     0.238 A 
ATOM      4  O   UNL     1      41.567   4.643   7.510  1.00  0.00    -0.285 OA
ATOM      5  C   UNL     1      39.931   6.273   7.164  1.00  0.00     0.111 A 
ATOM      6  C   UNL     1      40.785   7.275   6.611  1.00  0.00     0.134 A 
ATOM      7  C   UNL     1      40.273   8.552   6.353  1.00  0.00     0.093 A 
ATOM      8  C   UNL     1      38.927   8.847   6.568  1.00  0.00     0.123 A 
ATOM      9  C   UNL     1      38.072   7.860   7.057  1.00  0.00     0.094 A 
ATOM     10  C   UNL     1      38.561   6.586   7.360  1.00  0.00     0.146 A 
ATOM     11  O   UNL     1      37.716   5.683   7.845  1.00  0.00    -0.452 OA
ENDROOT
BRANCH   1  12
ATOM     12  C   UNL     1      37.038   3.543   8.720  1.00  0.00     0.025 A 
ATOM     13  C   UNL     1      35.921   4.032   9.419  1.00  0.00     0.016 A 
ATOM     14  C   UNL     1      34.939   3.153   9.884  1.00  0.00     0.051 A 
ATOM     15  C   UNL     1      35.049   1.779   9.647  1.00  0.00     0.157 A 
ATOM     16  C   UNL     1      37.135   2.166   8.465  1.00  0.00     0.062 A 
ATOM     17  C   UNL     1      36.151   1.282   8.930  1.00  0.00     0.158 A 
BRANCH  15  18
ATOM     18  O   UNL     1      34.054   0.927  10.125  1.00  0.00    -0.504 OA
ATOM     19  H   UNL     1      33.595   0.249   9.528  1.00  0.00     0.293 HD
ENDBRANCH  15  18
BRANCH  17  20
ATOM     20  O   UNL     1      36.263  -0.086   8.684  1.00  0.00    -0.504 OA
ATOM     21  H   UNL     1      37.064  -0.619   9.004  1.00  0.00     0.293 HD
ENDBRANCH  17  20
ENDBRANCH   1  12
BRANCH   2  22
ATOM     22  O   UNL     1      39.806   2.755   8.381  1.00  0.00    -0.502 OA
ATOM     23  H   UNL     1      40.772   2.499   8.544  1.00  0.00     0.293 HD
ENDBRANCH   2  22
BRANCH   6  24
ATOM     24  O   UNL     1      42.125   7.062   6.273  1.00  0.00    -0.507 OA
ATOM     25  H   UNL     1      42.907   7.201   6.893  1.00  0.00     0.293 HD
ENDBRANCH   6  24
BRANCH   8  26
ATOM     26  O   UNL     1      38.449  10.125   6.283  1.00  0.00    -0.508 OA
ATOM     27  H   UNL     1      38.553  10.536   5.362  1.00  0.00     0.293 HD
ENDBRANCH   8  26
TORSDOF 6
ENDMDL
MODEL 4
REMARK VINA RESULT:    -5.133      2.421      6.633
REMARK INTER + INTRA:          -6.514
REMARK INTER:                  -6.308
REMARK INTRA:                  -0.205
REMARK UNBOUND:                -0.330
REMARK SMILES O=c1c(O)c(-c2ccc(O)c(O)c2)oc2cc(O)cc(O)c12
REMARK SMILES IDX 5 1 3 2 2 3 1 4 22 5 20 6 19 7 17 8 16 9 15 10 14 11 6 12
REMARK SMILES IDX 7 13 8 14 9 15 13 16 11 17 10 18 12 20 4 22 21 24 18 26
REMARK H PARENT 10 19 12 21 4 23 21 25 18 27
REMARK Flexibility Score: inf
ROOT
ATOM      1  C   UNL     1      36.807   5.448   8.761  1.00  0.00     0.180 A 
ATOM      2  C   UNL     1      38.211   5.506   8.708  1.00  0.00     0.208 A 
ATOM      3  C   UNL     1      38.949   4.337   8.950  1.00  0.00     0.238 A 
ATOM      4  O   UNL     1      40.202   4.380   8.828  1.00  0.00    -0.285 OA
ATOM      5  C   UNL     1      38.281   3.138   9.298  1.00  0.00     0.111 A 
ATOM      6  C   UNL     1      38.931   1.906   9.608  1.00  0.00     0.134 A 
ATOM      7  C   UNL     1      38.163   0.758   9.834  1.00  0.00     0.093 A 
ATOM      8  C   UNL     1      36.769   0.809   9.824  1.00  0.00     0.123 A 
ATOM      9  C   UNL     1      36.122   2.020   9.576  1.00  0.00     0.094 A 
ATOM     10  C   UNL     1      36.862   3.175   9.309  1.00  0.00     0.146 A 
ATOM     11  O   UNL     1      36.206   4.302   9.057  1.00  0.00    -0.452 OA
ENDROOT
BRANCH   1  12
ATOM     12  C   UNL     1      35.959   6.634   8.503  1.00  0.00     0.025 A 
ATOM     13  C   UNL     1      35.258   7.273   9.540  1.00  0.00     0.016 A 
ATOM     14  C   UNL     1      34.484   8.406   9.276  1.00  0.00     0.051 A 
ATOM     15  C   UNL     1      34.408   8.925   7.979  1.00  0.00     0.157 A 
ATOM     16  C   UNL     1      35.898   7.170   7.207  1.00  0.00     0.062 A 
ATOM     17  C   UNL     1      35.122   8.306   6.939  1.00  0.00     0.158 A 
BRANCH  15  18
ATOM     18  O   UNL     1      33.625  10.055   7.746  1.00  0.00    -0.504 OA
ATOM     19  H   UNL     1      33.609  10.839   8.388  1.00  0.00     0.293 HD
ENDBRANCH  15  18
BRANCH  17  20
ATOM     20  O   UNL     1      35.056   8.822   5.645  1.00  0.00    -0.504 OA
ATOM     21  H   UNL     1      35.174   9.812   5.462  1.00  0.00     0.293 HD
ENDBRANCH  17  20
ENDBRANCH   1  12
BRANCH   2  22
ATOM     22  O   UNL     1      38.855   6.717   8.439  1.00  0.00    -0.502 OA
ATOM     23  H   UNL     1      38.403   7.614   8.572  1.00  0.00     0.293 HD
ENDBRANCH   2  22
BRANCH   6  24
ATOM     24  O   UNL     1      40.316   1.761   9.732  1.00  0.00    -0.507 OA
ATOM     25  H   UNL     1      40.982   2.516   9.698  1.00  0.00     0.293 HD
ENDBRANCH   6  24
BRANCH   8  26
ATOM     26  O   UNL     1      36.037  -0.351  10.070  1.00  0.00    -0.508 OA
ATOM     27  H   UNL     1      35.352  -0.696   9.406  1.00  0.00     0.293 HD
ENDBRANCH   8  26
TORSDOF 6
ENDMDL
MODEL 5
REMARK VINA RESULT:    -5.033      3.252      5.521
REMARK INTER + INTRA:          -6.393
REMARK INTER:                  -6.353
REMARK INTRA:                  -0.040
REMARK UNBOUND:                -0.330
REMARK SMILES O=c1c(O)c(-c2ccc(O)c(O)c2)oc2cc(O)cc(O)c12
REMARK SMILES IDX 5 1 3 2 2 3 1 4 22 5 20 6 19 7 17 8 16 9 15 10 14 11 6 12
REMARK SMILES IDX 7 13 8 14 9 15 13 16 11 17 10 18 12 20 4 22 21 24 18 26
REMARK H PARENT 10 19 12 21 4 23 21 25 18 27
REMARK Flexibility Score: inf
ROOT
ATOM      1  C   UNL     1      37.323   7.065   7.548  1.00  0.00     0.180 A 
ATOM      2  C   UNL     1      38.098   8.193   7.228  1.00  0.00     0.208 A 
ATOM      3  C   UNL     1      39.332   8.009   6.583  1.00  0.00     0.238 A 
ATOM      4  O   UNL     1      39.986   9.027   6.234  1.00  0.00    -0.285 OA
ATOM      5  C   UNL     1      39.802   6.700   6.317  1.00  0.00     0.111 A 
ATOM      6  C   UNL     1      41.058   6.395   5.710  1.00  0.00     0.134 A 
ATOM      7  C   UNL     1      41.370   5.067   5.399  1.00  0.00     0.093 A 
ATOM      8  C   UNL     1      40.503   4.026   5.730  1.00  0.00     0.123 A 
ATOM      9  C   UNL     1      39.297   4.307   6.373  1.00  0.00     0.094 A 
ATOM     10  C   UNL     1      38.940   5.626   6.662  1.00  0.00     0.146 A 
ATOM     11  O   UNL     1      37.774   5.851   7.256  1.00  0.00    -0.452 OA
ENDROOT
BRANCH   1  12
ATOM     12  C   UNL     1      36.005   7.178   8.213  1.00  0.00     0.025 A 
ATOM     13  C   UNL     1      35.747   6.543   9.441  1.00  0.00     0.016 A 
ATOM     14  C   UNL     1      34.504   6.684  10.061  1.00  0.00     0.051 A 
ATOM     15  C   UNL     1      33.506   7.471   9.477  1.00  0.00     0.157 A 
ATOM     16  C   UNL     1      35.009   7.984   7.639  1.00  0.00     0.062 A 
ATOM     17  C   UNL     1      33.760   8.127   8.261  1.00  0.00     0.158 A 
BRANCH  15  18
ATOM     18  O   UNL     1      32.274   7.592  10.119  1.00  0.00    -0.504 OA
ATOM     19  H   UNL     1      32.001   6.977  10.877  1.00  0.00     0.293 HD
ENDBRANCH  15  18
BRANCH  17  20
ATOM     20  O   UNL     1      32.772   8.918   7.675  1.00  0.00    -0.504 OA
ATOM     21  H   UNL     1      31.959   9.226   8.197  1.00  0.00     0.293 HD
ENDBRANCH  17  20
ENDBRANCH   1  12
BRANCH   2  22
ATOM     22  O   UNL     1      37.652   9.473   7.568  1.00  0.00    -0.502 OA
ATOM     23  H   UNL     1      38.288  10.222   7.815  1.00  0.00     0.293 HD
ENDBRANCH   2  22
BRANCH   6  24
ATOM     24  O   UNL     1      42.038   7.349   5.417  1.00  0.00    -0.507 OA
ATOM     25  H   UNL     1      43.007   7.283   5.686  1.00  0.00     0.293 HD
ENDBRANCH   6  24
BRANCH   8  26
ATOM     26  O   UNL     1      40.854   2.713   5.420  1.00  0.00    -0.508 OA
ATOM     27  H   UNL     1      41.301   2.478   4.541  1.00  0.00     0.293 HD
ENDBRANCH   8  26
TORSDOF 6
ENDMDL
MODEL 6
REMARK VINA RESULT:    -5.010      1.896      6.715
REMARK INTER + INTRA:          -6.366
REMARK INTER:                  -6.045
REMARK INTRA:                  -0.321
REMARK UNBOUND:                -0.330
REMARK SMILES O=c1c(O)c(-c2ccc(O)c(O)c2)oc2cc(O)cc(O)c12
REMARK SMILES IDX 5 1 3 2 2 3 1 4 22 5 20 6 19 7 17 8 16 9 15 10 14 11 6 12
REMARK SMILES IDX 7 13 8 14 9 15 13 16 11 17 10 18 12 20 4 22 21 24 18 26
REMARK H PARENT 10 19 12 21 4 23 21 25 18 27
REMARK Flexibility Score: inf
ROOT
ATOM      1  C   UNL     1      38.110   4.548   8.953  1.00  0.00     0.180 A 
ATOM      2  C   UNL     1      38.812   3.331   9.003  1.00  0.00     0.208 A 
ATOM      3  C   UNL     1      38.107   2.150   9.282  1.00  0.00     0.238 A 
ATOM      4  O   UNL     1      38.730   1.056   9.251  1.00  0.00    -0.285 OA
ATOM      5  C   UNL     1      36.721   2.204   9.564  1.00  0.00     0.111 A 
ATOM      6  C   UNL     1      35.915   1.075   9.903  1.00  0.00     0.134 A 
ATOM      7  C   UNL     1      34.533   1.234  10.057  1.00  0.00     0.093 A 
ATOM      8  C   UNL     1      33.935   2.489   9.947  1.00  0.00     0.123 A 
ATOM      9  C   UNL     1      34.720   3.609   9.670  1.00  0.00     0.094 A 
ATOM     10  C   UNL     1      36.097   3.476   9.473  1.00  0.00     0.146 A 
ATOM     11  O   UNL     1      36.803   4.564   9.189  1.00  0.00    -0.452 OA
ENDROOT
BRANCH   1  12
ATOM     12  C   UNL     1      38.780   5.833   8.651  1.00  0.00     0.025 A 
ATOM     13  C   UNL     1      39.393   6.595   9.660  1.00  0.00     0.016 A 
ATOM     14  C   UNL     1      40.040   7.792   9.346  1.00  0.00     0.051 A 
ATOM     15  C   UNL     1      40.099   8.240   8.022  1.00  0.00     0.157 A 
ATOM     16  C   UNL     1      38.859   6.274   7.320  1.00  0.00     0.062 A 
ATOM     17  C   UNL     1      39.508   7.475   7.003  1.00  0.00     0.158 A 
BRANCH  15  18
ATOM     18  O   UNL     1      40.751   9.440   7.740  1.00  0.00    -0.504 OA
ATOM     19  H   UNL     1      41.410   9.858   8.386  1.00  0.00     0.293 HD
ENDBRANCH  15  18
BRANCH  17  20
ATOM     20  O   UNL     1      39.568   7.912   5.680  1.00  0.00    -0.504 OA
ATOM     21  H   UNL     1      39.853   8.855   5.444  1.00  0.00     0.293 HD
ENDBRANCH  17  20
ENDBRANCH   1  12
BRANCH   2  22
ATOM     22  O   UNL     1      40.195   3.308   8.797  1.00  0.00    -0.502 OA
ATOM     23  H   UNL     1      40.797   2.617   9.228  1.00  0.00     0.293 HD
ENDBRANCH   2  22
BRANCH   6  24
ATOM     24  O   UNL     1      36.421  -0.209  10.125  1.00  0.00    -0.507 OA
ATOM     25  H   UNL     1      36.344  -0.720  10.991  1.00  0.00     0.293 HD
ENDBRANCH   6  24
BRANCH   8  26
ATOM     26  O   UNL     1      32.558   2.613  10.124  1.00  0.00    -0.508 OA
ATOM     27  H   UNL     1      32.011   3.269   9.578  1.00  0.00     0.293 HD
ENDBRANCH   8  26
TORSDOF 6
ENDMDL
MODEL 7
REMARK VINA RESULT:    -4.880      3.159      4.763
REMARK INTER + INTRA:          -6.209
REMARK INTER:                  -5.963
REMARK INTRA:                  -0.247
REMARK UNBOUND:                -0.330
REMARK SMILES O=c1c(O)c(-c2ccc(O)c(O)c2)oc2cc(O)cc(O)c12
REMARK SMILES IDX 5 1 3 2 2 3 1 4 22 5 20 6 19 7 17 8 16 9 15 10 14 11 6 12
REMARK SMILES IDX 7 13 8 14 9 15 13 16 11 17 10 18 12 20 4 22 21 24 18 26
REMARK H PARENT 10 19 12 21 4 23 21 25 18 27
REMARK Flexibility Score: inf
ROOT
ATOM      1  C   UNL     1      37.033   6.442   8.063  1.00  0.00     0.180 A 
ATOM      2  C   UNL     1      37.144   7.650   7.354  1.00  0.00     0.208 A 
ATOM      3  C   UNL     1      36.046   8.525   7.325  1.00  0.00     0.238 A 
ATOM      4  O   UNL     1      36.178   9.638   6.751  1.00  0.00    -0.285 OA
ATOM      5  C   UNL     1      34.833   8.158   7.957  1.00  0.00     0.111 A 
ATOM      6  C   UNL     1      33.644   8.947   7.954  1.00  0.00     0.134 A 
ATOM      7  C   UNL     1      32.537   8.530   8.703  1.00  0.00     0.093 A 
ATOM      8  C   UNL     1      32.552   7.325   9.404  1.00  0.00     0.123 A 
ATOM      9  C   UNL     1      33.690   6.519   9.370  1.00  0.00     0.094 A 
ATOM     10  C   UNL     1      34.825   6.926   8.662  1.00  0.00     0.146 A 
ATOM     11  O   UNL     1      35.894   6.139   8.674  1.00  0.00    -0.452 OA
ENDROOT
BRANCH   1  12
ATOM     12  C   UNL     1      38.151   5.475   8.151  1.00  0.00     0.025 A 
ATOM     13  C   UNL     1      38.870   5.294   9.345  1.00  0.00     0.016 A 
ATOM     14  C   UNL     1      39.905   4.358   9.411  1.00  0.00     0.051 A 
ATOM     15  C   UNL     1      40.229   3.580   8.295  1.00  0.00     0.157 A 
ATOM     16  C   UNL     1      38.463   4.677   7.039  1.00  0.00     0.062 A 
ATOM     17  C   UNL     1      39.502   3.737   7.103  1.00  0.00     0.158 A 
BRANCH  15  18
ATOM     18  O   UNL     1      41.268   2.655   8.390  1.00  0.00    -0.504 OA
ATOM     19  H   UNL     1      41.245   1.888   9.051  1.00  0.00     0.293 HD
ENDBRANCH  15  18
BRANCH  17  20
ATOM     20  O   UNL     1      39.814   2.960   5.988  1.00  0.00    -0.504 OA
ATOM     21  H   UNL     1      40.516   2.231   6.028  1.00  0.00     0.293 HD
ENDBRANCH  17  20
ENDBRANCH   1  12
BRANCH   2  22
ATOM     22  O   UNL     1      38.324   7.960   6.672  1.00  0.00    -0.502 OA
ATOM     23  H   UNL     1      38.829   7.277   6.120  1.00  0.00     0.293 HD
ENDBRANCH   2  22
BRANCH   6  24
ATOM     24  O   UNL     1      33.487  10.125   7.217  1.00  0.00    -0.507 OA
ATOM     25  H   UNL     1      33.134  10.995   7.584  1.00  0.00     0.293 HD
ENDBRANCH   6  24
BRANCH   8  26
ATOM     26  O   UNL     1      31.426   6.934  10.125  1.00  0.00    -0.508 OA
ATOM     27  H   UNL     1      30.837   7.612  10.596  1.00  0.00     0.293 HD
ENDBRANCH   8  26
TORSDOF 6
ENDMDL
MODEL 8
REMARK VINA RESULT:    -4.788      2.672      5.560
REMARK INTER + INTRA:          -6.098
REMARK INTER:                  -6.253
REMARK INTRA:                   0.155
REMARK UNBOUND:                -0.330
REMARK SMILES O=c1c(O)c(-c2ccc(O)c(O)c2)oc2cc(O)cc(O)c12
REMARK SMILES IDX 5 1 3 2 2 3 1 4 22 5 20 6 19 7 17 8 16 9 15 10 14 11 6 12
REMARK SMILES IDX 7 13 8 14 9 15 13 16 11 17 10 18 12 20 4 22 21 24 18 26
REMARK H PARENT 10 19 12 21 4 23 21 25 18 27
REMARK Flexibility Score: inf
ROOT
ATOM      1  C   UNL     1      36.924   6.094   7.920  1.00  0.00     0.180 A 
ATOM      2  C   UNL     1      37.120   4.728   8.190  1.00  0.00     0.208 A 
ATOM      3  C   UNL     1      38.324   4.123   7.797  1.00  0.00     0.238 A 
ATOM      4  O   UNL     1      38.523   2.919   8.109  1.00  0.00    -0.285 OA
ATOM      5  C   UNL     1      39.293   4.874   7.088  1.00  0.00     0.111 A 
ATOM      6  C   UNL     1      40.530   4.351   6.602  1.00  0.00     0.134 A 
ATOM      7  C   UNL     1      41.458   5.214   6.008  1.00  0.00     0.093 A 
ATOM      8  C   UNL     1      41.171   6.566   5.824  1.00  0.00     0.123 A 
ATOM      9  C   UNL     1      39.944   7.077   6.246  1.00  0.00     0.094 A 
ATOM     10  C   UNL     1      39.012   6.249   6.877  1.00  0.00     0.146 A 
ATOM     11  O   UNL     1      37.865   6.781   7.284  1.00  0.00    -0.452 OA
ENDROOT
BRANCH   1  12
ATOM     12  C   UNL     1      35.688   6.806   8.317  1.00  0.00     0.025 A 
ATOM     13  C   UNL     1      35.037   6.524   9.530  1.00  0.00     0.016 A 
ATOM     14  C   UNL     1      33.886   7.226   9.894  1.00  0.00     0.051 A 
ATOM     15  C   UNL     1      33.376   8.229   9.063  1.00  0.00     0.157 A 
ATOM     16  C   UNL     1      35.186   7.828   7.495  1.00  0.00     0.062 A 
ATOM     17  C   UNL     1      34.031   8.534   7.858  1.00  0.00     0.158 A 
BRANCH  15  18
ATOM     18  O   UNL     1      32.224   8.912   9.452  1.00  0.00    -0.504 OA
ATOM     19  H   UNL     1      32.209   9.523  10.260  1.00  0.00     0.293 HD
ENDBRANCH  15  18
BRANCH  17  20
ATOM     20  O   UNL     1      33.532   9.537   7.028  1.00  0.00    -0.504 OA
ATOM     21  H   UNL     1      34.133  10.258   6.646  1.00  0.00     0.293 HD
ENDBRANCH  17  20
ENDBRANCH   1  12
BRANCH   2  22
ATOM     22  O   UNL     1      36.119   3.986   8.823  1.00  0.00    -0.502 OA
ATOM     23  H   UNL     1      35.818   4.176   9.771  1.00  0.00     0.293 HD
ENDBRANCH   2  22
BRANCH   6  24
ATOM     24  O   UNL     1      40.882   2.999   6.652  1.00  0.00    -0.507 OA
ATOM     25  H   UNL     1      41.491   2.535   5.996  1.00  0.00     0.293 HD
ENDBRANCH   6  24
BRANCH   8  26
ATOM     26  O   UNL     1      42.113   7.392   5.213  1.00  0.00    -0.508 OA
ATOM     27  H   UNL     1      43.105   7.192   5.264  1.00  0.00     0.293 HD
ENDBRANCH   8  26
TORSDOF 6
ENDMDL
