MODEL 1
REMARK VINA RESULT:    -4.268      0.000      0.000
REMARK INTER + INTRA:          -4.669
REMARK INTER:                  -4.642
REMARK INTRA:                  -0.027
REMARK UNBOUND:                -0.027
REMARK SMILES O=C([O-])c1ccc(O)cc1
REMARK SMILES IDX 4 1 5 2 10 3 6 4 9 5 7 6 2 7 1 8 3 9 8 10
REMARK H PARENT 8 11
REMARK Flexibility Score: inf
ROOT
ATOM      1  C   UNL     1      -5.318  -9.082 -15.636  1.00  0.00    -0.003 A 
ATOM      2  C   UNL     1      -5.346 -10.271 -16.389  1.00  0.00     0.014 A 
ATOM      3  C   UNL     1      -6.223  -8.929 -14.571  1.00  0.00     0.014 A 
ATOM      4  C   UNL     1      -6.260 -11.283 -16.079  1.00  0.00     0.047 A 
ATOM      5  C   UNL     1      -7.136  -9.944 -14.265  1.00  0.00     0.047 A 
ATOM      6  C   UNL     1      -7.157 -11.122 -15.015  1.00  0.00     0.115 A 
ENDROOT
BRANCH   1   7
ATOM      7  C   UNL     1      -4.354  -8.007 -15.958  1.00  0.00     0.071 C 
ATOM      8  O   UNL     1      -3.159  -8.080 -15.568  1.00  0.00    -0.545 OA
ATOM      9  O   UNL     1      -4.755  -6.900 -16.698  1.00  0.00    -0.545 OA
ENDBRANCH   1   7
BRANCH   6  10
ATOM     10  O   UNL     1      -8.071 -12.124 -14.699  1.00  0.00    -0.508 OA
ATOM     11  H   UNL     1      -9.024 -12.098 -15.042  1.00  0.00     0.293 HD
ENDBRANCH   6  10
TORSDOF 2
ENDMDL
MODEL 2
REMARK VINA RESULT:    -4.260      0.113      1.844
REMARK INTER + INTRA:          -4.661
REMARK INTER:                  -4.634
REMARK INTRA:                  -0.027
REMARK UNBOUND:                -0.027
REMARK SMILES O=C([O-])c1ccc(O)cc1
REMARK SMILES IDX 4 1 5 2 10 3 6 4 9 5 7 6 2 7 1 8 3 9 8 10
REMARK H PARENT 8 11
REMARK Flexibility Score: inf
ROOT
ATOM      1  C   UNL     1      -5.282  -9.095 -15.725  1.00  0.00    -0.003 A 
ATOM      2  C   UNL     1      -6.187  -8.915 -14.662  1.00  0.00     0.014 A 
ATOM      3  C   UNL     1      -5.313 -10.299 -16.450  1.00  0.00     0.014 A 
ATOM      4  C   UNL     1      -7.103  -9.920 -14.336  1.00  0.00     0.047 A 
ATOM      5  C   UNL     1      -6.230 -11.302 -16.120  1.00  0.00     0.047 A 
ATOM      6  C   UNL     1      -7.127 -11.116 -15.064  1.00  0.00     0.115 A 
ENDROOT
BRANCH   1   7
ATOM      7  C   UNL     1      -4.311  -8.036 -16.076  1.00  0.00     0.071 C 
ATOM      8  O   UNL     1      -4.670  -7.034 -16.749  1.00  0.00    -0.545 OA
ATOM      9  O   UNL     1      -2.985  -8.132 -15.666  1.00  0.00    -0.545 OA
ENDBRANCH   1   7
BRANCH   6  10
ATOM     10  O   UNL     1      -8.034 -12.124 -14.747  1.00  0.00    -0.508 OA
ATOM     11  H   UNL     1      -8.982 -12.114 -15.105  1.00  0.00     0.293 HD
ENDBRANCH   6  10
TORSDOF 2
ENDMDL
MODEL 3
REMARK VINA RESULT:    -4.185     16.135     16.758
REMARK INTER + INTRA:          -4.579
REMARK INTER:                  -4.545
REMARK INTRA:                  -0.034
REMARK UNBOUND:                -0.027
REMARK SMILES O=C([O-])c1ccc(O)cc1
REMARK SMILES IDX 4 1 5 2 10 3 6 4 9 5 7 6 2 7 1 8 3 9 8 10
REMARK H PARENT 8 11
REMARK Flexibility Score: inf
ROOT
ATOM      1  C   UNL     1     -17.828  -1.359 -21.571  1.00  0.00    -0.003 A 
ATOM      2  C   UNL     1     -17.087  -0.452 -22.353  1.00  0.00     0.014 A 
ATOM      3  C   UNL     1     -19.167  -1.617 -21.914  1.00  0.00     0.014 A 
ATOM      4  C   UNL     1     -17.676   0.178 -23.453  1.00  0.00     0.047 A 
ATOM      5  C   UNL     1     -19.752  -0.983 -23.015  1.00  0.00     0.047 A 
ATOM      6  C   UNL     1     -19.010  -0.086 -23.787  1.00  0.00     0.115 A 
ENDROOT
BRANCH   1   7
ATOM      7  C   UNL     1     -17.212  -2.030 -20.406  1.00  0.00     0.071 C 
ATOM      8  O   UNL     1     -17.917  -2.393 -19.429  1.00  0.00    -0.545 OA
ATOM      9  O   UNL     1     -15.842  -2.269 -20.375  1.00  0.00    -0.545 OA
ENDBRANCH   1   7
BRANCH   6  10
ATOM     10  O   UNL     1     -19.606   0.538 -24.881  1.00  0.00    -0.508 OA
ATOM     11  H   UNL     1     -19.935   0.007 -25.678  1.00  0.00     0.293 HD
ENDBRANCH   6  10
TORSDOF 2
ENDMDL
MODEL 4
REMARK VINA RESULT:    -4.175     16.115     16.750
REMARK INTER + INTRA:          -4.568
REMARK INTER:                  -4.535
REMARK INTRA:                  -0.033
REMARK UNBOUND:                -0.027
REMARK SMILES O=C([O-])c1ccc(O)cc1
REMARK SMILES IDX 4 1 5 2 10 3 6 4 9 5 7 6 2 7 1 8 3 9 8 10
REMARK H PARENT 8 11
REMARK Flexibility Score: inf
ROOT
ATOM      1  C   UNL     1     -17.834  -1.377 -21.558  1.00  0.00    -0.003 A 
ATOM      2  C   UNL     1     -19.151  -1.681 -21.949  1.00  0.00     0.014 A 
ATOM      3  C   UNL     1     -17.097  -0.447 -22.313  1.00  0.00     0.014 A 
ATOM      4  C   UNL     1     -19.717  -1.065 -23.069  1.00  0.00     0.047 A 
ATOM      5  C   UNL     1     -17.667   0.167 -23.433  1.00  0.00     0.047 A 
ATOM      6  C   UNL     1     -18.976  -0.139 -23.815  1.00  0.00     0.115 A 
ENDROOT
BRANCH   1   7
ATOM      7  C   UNL     1     -17.229  -2.024 -20.373  1.00  0.00     0.071 C 
ATOM      8  O   UNL     1     -17.944  -2.363 -19.394  1.00  0.00    -0.545 OA
ATOM      9  O   UNL     1     -15.861  -2.267 -20.325  1.00  0.00    -0.545 OA
ENDBRANCH   1   7
BRANCH   6  10
ATOM     10  O   UNL     1     -19.530   0.479 -24.933  1.00  0.00    -0.508 OA
ATOM     11  H   UNL     1     -19.418   1.472 -25.099  1.00  0.00     0.293 HD
ENDBRANCH   6  10
TORSDOF 2
ENDMDL
MODEL 5
REMARK VINA RESULT:    -4.119      1.904      2.579
REMARK INTER + INTRA:          -4.508
REMARK INTER:                  -4.476
REMARK INTRA:                  -0.032
REMARK UNBOUND:                -0.027
REMARK SMILES O=C([O-])c1ccc(O)cc1
REMARK SMILES IDX 4 1 5 2 10 3 6 4 9 5 7 6 2 7 1 8 3 9 8 10
REMARK H PARENT 8 11
REMARK Flexibility Score: inf
ROOT
ATOM      1  C   UNL     1      -5.271  -9.508 -16.651  1.00  0.00    -0.003 A 
ATOM      2  C   UNL     1      -5.270  -8.456 -15.716  1.00  0.00     0.014 A 
ATOM      3  C   UNL     1      -5.879 -10.728 -16.304  1.00  0.00     0.014 A 
ATOM      4  C   UNL     1      -5.867  -8.623 -14.463  1.00  0.00     0.047 A 
ATOM      5  C   UNL     1      -6.475 -10.890 -15.048  1.00  0.00     0.047 A 
ATOM      6  C   UNL     1      -6.471  -9.841 -14.126  1.00  0.00     0.115 A 
ENDROOT
BRANCH   1   7
ATOM      7  C   UNL     1      -4.642  -9.339 -17.979  1.00  0.00     0.071 C 
ATOM      8  O   UNL     1      -5.190  -9.806 -19.012  1.00  0.00    -0.545 OA
ATOM      9  O   UNL     1      -3.435  -8.659 -18.105  1.00  0.00    -0.545 OA
ENDBRANCH   1   7
BRANCH   6  10
ATOM     10  O   UNL     1      -7.067 -10.017 -12.880  1.00  0.00    -0.508 OA
ATOM     11  H   UNL     1      -6.674  -9.605 -12.042  1.00  0.00     0.293 HD
ENDBRANCH   6  10
TORSDOF 2
ENDMDL
MODEL 6
REMARK VINA RESULT:    -4.076      3.421      4.590
REMARK INTER + INTRA:          -4.460
REMARK INTER:                  -4.432
REMARK INTRA:                  -0.028
REMARK UNBOUND:                -0.027
REMARK SMILES O=C([O-])c1ccc(O)cc1
REMARK SMILES IDX 4 1 5 2 10 3 6 4 9 5 7 6 2 7 1 8 3 9 8 10
REMARK H PARENT 8 11
REMARK Flexibility Score: inf
ROOT
ATOM      1  C   UNL     1      -2.774  -8.069 -15.766  1.00  0.00    -0.003 A 
ATOM      2  C   UNL     1      -2.078  -7.617 -16.903  1.00  0.00     0.014 A 
ATOM      3  C   UNL     1      -4.180  -8.070 -15.783  1.00  0.00     0.014 A 
ATOM      4  C   UNL     1      -2.778  -7.179 -18.032  1.00  0.00     0.047 A 
ATOM      5  C   UNL     1      -4.875  -7.630 -16.914  1.00  0.00     0.047 A 
ATOM      6  C   UNL     1      -4.178  -7.184 -18.040  1.00  0.00     0.115 A 
ENDROOT
BRANCH   1   7
ATOM      7  C   UNL     1      -2.040  -8.534 -14.569  1.00  0.00     0.071 C 
ATOM      8  O   UNL     1      -1.383  -7.723 -13.864  1.00  0.00    -0.545 OA
ATOM      9  O   UNL     1      -2.067  -9.876 -14.204  1.00  0.00    -0.545 OA
ENDBRANCH   1   7
BRANCH   6  10
ATOM     10  O   UNL     1      -4.884  -6.749 -19.159  1.00  0.00    -0.508 OA
ATOM     11  H   UNL     1      -5.073  -7.367 -19.939  1.00  0.00     0.293 HD
ENDBRANCH   6  10
TORSDOF 2
ENDMDL
MODEL 7
REMARK VINA RESULT:    -4.056      1.981      4.108
REMARK INTER + INTRA:          -4.439
REMARK INTER:                  -4.412
REMARK INTRA:                  -0.027
REMARK UNBOUND:                -0.027
REMARK SMILES O=C([O-])c1ccc(O)cc1
REMARK SMILES IDX 4 1 5 2 10 3 6 4 9 5 7 6 2 7 1 8 3 9 8 10
REMARK H PARENT 8 11
REMARK Flexibility Score: inf
ROOT
ATOM      1  C   UNL     1      -5.502  -9.310 -16.017  1.00  0.00    -0.003 A 
ATOM      2  C   UNL     1      -5.250 -10.020 -17.206  1.00  0.00     0.014 A 
ATOM      3  C   UNL     1      -5.242  -7.929 -15.980  1.00  0.00     0.014 A 
ATOM      4  C   UNL     1      -4.751  -9.359 -18.332  1.00  0.00     0.047 A 
ATOM      5  C   UNL     1      -4.742  -7.272 -17.109  1.00  0.00     0.047 A 
ATOM      6  C   UNL     1      -4.496  -7.982 -18.287  1.00  0.00     0.115 A 
ENDROOT
BRANCH   1   7
ATOM      7  C   UNL     1      -6.031 -10.003 -14.822  1.00  0.00     0.071 C 
ATOM      8  O   UNL     1      -5.275 -10.709 -14.104  1.00  0.00    -0.545 OA
ATOM      9  O   UNL     1      -7.372  -9.883 -14.474  1.00  0.00    -0.545 OA
ENDBRANCH   1   7
BRANCH   6  10
ATOM     10  O   UNL     1      -3.997  -7.315 -19.403  1.00  0.00    -0.508 OA
ATOM     11  H   UNL     1      -4.531  -7.248 -20.261  1.00  0.00     0.293 HD
ENDBRANCH   6  10
TORSDOF 2
ENDMDL
MODEL 8
REMARK VINA RESULT:    -4.017     16.464     17.015
REMARK INTER + INTRA:          -4.397
REMARK INTER:                  -4.370
REMARK INTRA:                  -0.027
REMARK UNBOUND:                -0.027
REMARK SMILES O=C([O-])c1ccc(O)cc1
REMARK SMILES IDX 4 1 5 2 10 3 6 4 9 5 7 6 2 7 1 8 3 9 8 10
REMARK H PARENT 8 11
REMARK Flexibility Score: inf
ROOT
ATOM      1  C   UNL     1     -18.971  -1.149 -22.889  1.00  0.00    -0.003 A 
ATOM      2  C   UNL     1     -17.571  -1.149 -22.749  1.00  0.00     0.014 A 
ATOM      3  C   UNL     1     -19.766  -1.512 -21.787  1.00  0.00     0.014 A 
ATOM      4  C   UNL     1     -16.982  -1.504 -21.531  1.00  0.00     0.047 A 
ATOM      5  C   UNL     1     -19.172  -1.867 -20.571  1.00  0.00     0.047 A 
ATOM      6  C   UNL     1     -17.782  -1.864 -20.439  1.00  0.00     0.115 A 
ENDROOT
BRANCH   1   7
ATOM      7  C   UNL     1     -19.601  -0.775 -24.174  1.00  0.00     0.071 C 
ATOM      8  O   UNL     1     -20.071   0.381 -24.344  1.00  0.00    -0.545 OA
ATOM      9  O   UNL     1     -19.683  -1.695 -25.212  1.00  0.00    -0.545 OA
ENDBRANCH   1   7
BRANCH   6  10
ATOM     10  O   UNL     1     -17.205  -2.220 -19.222  1.00  0.00    -0.508 OA
ATOM     11  H   UNL     1     -16.337  -1.803 -18.906  1.00  0.00     0.293 HD
ENDBRANCH   6  10
TORSDOF 2
ENDMDL
MODEL 9
REMARK VINA RESULT:    -3.994      1.430      4.315
REMARK INTER + INTRA:          -4.371
REMARK INTER:                  -4.344
REMARK INTRA:                  -0.027
REMARK UNBOUND:                -0.027
REMARK SMILES O=C([O-])c1ccc(O)cc1
REMARK SMILES IDX 4 1 5 2 10 3 6 4 9 5 7 6 2 7 1 8 3 9 8 10
REMARK H PARENT 8 11
REMARK Flexibility Score: inf
ROOT
ATOM      1  C   UNL     1      -5.905 -10.150 -14.330  1.00  0.00    -0.003 A 
ATOM      2  C   UNL     1      -4.579 -10.615 -14.406  1.00  0.00     0.014 A 
ATOM      3  C   UNL     1      -6.194  -8.841 -14.754  1.00  0.00     0.014 A 
ATOM      4  C   UNL     1      -3.566  -9.786 -14.900  1.00  0.00     0.047 A 
ATOM      5  C   UNL     1      -5.177  -8.016 -15.246  1.00  0.00     0.047 A 
ATOM      6  C   UNL     1      -3.863  -8.484 -15.321  1.00  0.00     0.115 A 
ENDROOT
BRANCH   1   7
ATOM      7  C   UNL     1      -6.981 -11.022 -13.810  1.00  0.00     0.071 C 
ATOM      8  O   UNL     1      -7.314 -10.974 -12.596  1.00  0.00    -0.545 OA
ATOM      9  O   UNL     1      -7.641 -11.906 -14.655  1.00  0.00    -0.545 OA
ENDBRANCH   1   7
BRANCH   6  10
ATOM     10  O   UNL     1      -2.862  -7.650 -15.813  1.00  0.00    -0.508 OA
ATOM     11  H   UNL     1      -1.918  -7.987 -15.961  1.00  0.00     0.293 HD
ENDBRANCH   6  10
TORSDOF 2
ENDMDL
