MODEL 1
REMARK VINA RESULT:    -3.937      0.000      0.000
REMARK INTER + INTRA:          -6.029
REMARK INTER:                  -5.433
REMARK INTRA:                  -0.596
REMARK UNBOUND:                -0.596
REMARK SMILES O=C([O-])[C@@H]1O[C@H](Oc2cc3oc(-c4ccccc4)cc(=O)c3c(O)c2O)[C@@H](O)[C@H](O)[C@H]1O
REMARK SMILES IDX 7 1 6 2 4 3 31 4 5 5 29 6 27 7 2 8 1 9 3 10 32 11 30 13
REMARK SMILES IDX 28 15 8 17 25 18 9 19 23 20 10 21 22 22 11 23 20 24 12 25
REMARK SMILES IDX 19 26 21 27 26 28 24 30 13 32 14 33 18 34 15 35 17 36 16 37
REMARK H PARENT 32 12 30 14 28 16 26 29 24 31
REMARK Flexibility Score: inf
ROOT
ATOM      1  O   UNL     1      43.212  21.317  11.449  1.00  0.00    -0.458 OA
ENDROOT
BRANCH   1   2
ATOM      2  C   UNL     1      43.962  20.481  12.339  1.00  0.00     0.339 C 
ATOM      3  C   UNL     1      42.596  21.086  14.201  1.00  0.00     0.199 C 
ATOM      4  C   UNL     1      41.575  20.070  13.613  1.00  0.00     0.180 C 
ATOM      5  O   UNL     1      43.916  21.002  13.658  1.00  0.00    -0.328 OA
ATOM      6  C   UNL     1      42.294  18.751  13.281  1.00  0.00     0.181 C 
ATOM      7  C   UNL     1      43.459  19.011  12.295  1.00  0.00     0.214 C 
BRANCH   3   8
ATOM      8  C   UNL     1      42.070  22.493  14.122  1.00  0.00     0.073 C 
ATOM      9  O   UNL     1      42.015  23.103  13.020  1.00  0.00    -0.547 OA
ATOM     10  O   UNL     1      41.617  23.124  15.274  1.00  0.00    -0.547 OA
ENDBRANCH   3   8
BRANCH   4  11
ATOM     11  O   UNL     1      40.507  19.857  14.506  1.00  0.00    -0.387 OA
ATOM     12  H   UNL     1      40.891  19.654  15.399  1.00  0.00     0.211 HD
ENDBRANCH   4  11
BRANCH   6  13
ATOM     13  O   UNL     1      41.393  17.837  12.706  1.00  0.00    -0.387 OA
ATOM     14  H   UNL     1      41.864  17.401  11.948  1.00  0.00     0.211 HD
ENDBRANCH   6  13
BRANCH   7  15
ATOM     15  O   UNL     1      44.513  18.115  12.543  1.00  0.00    -0.384 OA
ATOM     16  H   UNL     1      45.282  18.391  11.977  1.00  0.00     0.211 HD
ENDBRANCH   7  15
ENDBRANCH   1   2
BRANCH   1  17
ATOM     17  C   UNL     1      43.144  21.116  10.066  1.00  0.00     0.172 A 
ATOM     18  C   UNL     1      42.045  20.483   9.468  1.00  0.00     0.201 A 
ATOM     19  C   UNL     1      44.213  21.541   9.282  1.00  0.00     0.098 A 
ATOM     20  C   UNL     1      41.990  20.321   8.068  1.00  0.00     0.176 A 
ATOM     21  C   UNL     1      44.200  21.358   7.900  1.00  0.00     0.146 A 
ATOM     22  C   UNL     1      43.098  20.726   7.265  1.00  0.00     0.111 A 
ATOM     23  O   UNL     1      45.244  21.780   7.195  1.00  0.00    -0.456 OA
ATOM     24  C   UNL     1      43.204  20.518   5.868  1.00  0.00     0.197 A 
ATOM     25  C   UNL     1      45.350  21.631   5.879  1.00  0.00     0.138 A 
ATOM     26  C   UNL     1      44.321  20.990   5.177  1.00  0.00     0.100 A 
ATOM     27  O   UNL     1      42.327  19.891   5.218  1.00  0.00    -0.289 OA
BRANCH  18  28
ATOM     28  O   UNL     1      41.012  20.004  10.277  1.00  0.00    -0.502 OA
ATOM     29  H   UNL     1      41.168  19.349  11.033  1.00  0.00     0.293 HD
ENDBRANCH  18  28
BRANCH  20  30
ATOM     30  O   UNL     1      40.814  19.777   7.538  1.00  0.00    -0.504 OA
ATOM     31  H   UNL     1      40.771  19.111   6.781  1.00  0.00     0.293 HD
ENDBRANCH  20  30
BRANCH  25  32
ATOM     32  C   UNL     1      46.558  22.156   5.196  1.00  0.00     0.017 A 
ATOM     33  C   UNL     1      47.795  22.139   5.868  1.00  0.00     0.012 A 
ATOM     34  C   UNL     1      46.510  22.647   3.875  1.00  0.00     0.012 A 
ATOM     35  C   UNL     1      48.949  22.621   5.243  1.00  0.00     0.001 A 
ATOM     36  C   UNL     1      47.668  23.125   3.255  1.00  0.00     0.001 A 
ATOM     37  C   UNL     1      48.886  23.116   3.938  1.00  0.00     0.000 A 
ENDBRANCH  25  32
ENDBRANCH   1  17
TORSDOF 9
ENDMDL
MODEL 2
REMARK VINA RESULT:    -2.748      1.198      1.761
REMARK INTER + INTRA:          -4.388
REMARK INTER:                  -3.352
REMARK INTRA:                  -1.036
REMARK UNBOUND:                -0.596
REMARK SMILES O=C([O-])[C@@H]1O[C@H](Oc2cc3oc(-c4ccccc4)cc(=O)c3c(O)c2O)[C@@H](O)[C@H](O)[C@H]1O
REMARK SMILES IDX 7 1 6 2 4 3 31 4 5 5 29 6 27 7 2 8 1 9 3 10 32 11 30 13
REMARK SMILES IDX 28 15 8 17 25 18 9 19 23 20 10 21 22 22 11 23 20 24 12 25
REMARK SMILES IDX 19 26 21 27 26 28 24 30 13 32 14 33 18 34 15 35 17 36 16 37
REMARK H PARENT 32 12 30 14 28 16 26 29 24 31
REMARK Flexibility Score: inf
ROOT
ATOM      1  O   UNL     1      42.258  21.062  11.724  1.00  0.00    -0.458 OA
ENDROOT
BRANCH   1   2
ATOM      2  C   UNL     1      43.291  20.736  12.662  1.00  0.00     0.339 C 
ATOM      3  C   UNL     1      41.897  19.154  13.782  1.00  0.00     0.199 C 
ATOM      4  C   UNL     1      42.246  18.207  12.598  1.00  0.00     0.180 C 
ATOM      5  O   UNL     1      42.722  20.316  13.892  1.00  0.00    -0.328 OA
ATOM      6  C   UNL     1      43.766  18.216  12.362  1.00  0.00     0.181 C 
ATOM      7  C   UNL     1      44.256  19.659  12.090  1.00  0.00     0.214 C 
BRANCH   3   8
ATOM      8  C   UNL     1      40.440  19.529  13.766  1.00  0.00     0.073 C 
ATOM      9  O   UNL     1      39.728  19.319  12.748  1.00  0.00    -0.547 OA
ATOM     10  O   UNL     1      39.862  20.094  14.897  1.00  0.00    -0.547 OA
ENDBRANCH   3   8
BRANCH   4  11
ATOM     11  O   UNL     1      41.777  16.902  12.843  1.00  0.00    -0.387 OA
ATOM     12  H   UNL     1      42.092  16.320  12.104  1.00  0.00     0.211 HD
ENDBRANCH   4  11
BRANCH   6  13
ATOM     13  O   UNL     1      44.094  17.399  11.266  1.00  0.00    -0.387 OA
ATOM     14  H   UNL     1      44.441  16.544  11.634  1.00  0.00     0.211 HD
ENDBRANCH   6  13
BRANCH   7  15
ATOM     15  O   UNL     1      45.556  19.835  12.598  1.00  0.00    -0.384 OA
ATOM     16  H   UNL     1      46.180  19.856  11.825  1.00  0.00     0.211 HD
ENDBRANCH   7  15
ENDBRANCH   1   2
BRANCH   1  17
ATOM     17  C   UNL     1      42.388  20.906  10.339  1.00  0.00     0.172 A 
ATOM     18  C   UNL     1      41.389  20.289   9.572  1.00  0.00     0.201 A 
ATOM     19  C   UNL     1      43.554  21.359   9.728  1.00  0.00     0.098 A 
ATOM     20  C   UNL     1      41.534  20.173   8.174  1.00  0.00     0.176 A 
ATOM     21  C   UNL     1      43.738  21.221   8.353  1.00  0.00     0.146 A 
ATOM     22  C   UNL     1      42.742  20.607   7.549  1.00  0.00     0.111 A 
ATOM     23  O   UNL     1      44.868  21.668   7.818  1.00  0.00    -0.456 OA
ATOM     24  C   UNL     1      43.045  20.445   6.175  1.00  0.00     0.197 A 
ATOM     25  C   UNL     1      45.161  21.563   6.526  1.00  0.00     0.138 A 
ATOM     26  C   UNL     1      44.245  20.942   5.665  1.00  0.00     0.100 A 
ATOM     27  O   UNL     1      42.274  19.837   5.388  1.00  0.00    -0.289 OA
BRANCH  18  28
ATOM     28  O   UNL     1      40.256  19.782  10.211  1.00  0.00    -0.502 OA
ATOM     29  H   UNL     1      40.066  19.937  11.194  1.00  0.00     0.293 HD
ENDBRANCH  18  28
BRANCH  20  30
ATOM     30  O   UNL     1      40.449  19.643   7.466  1.00  0.00    -0.504 OA
ATOM     31  H   UNL     1      39.481  19.876   7.625  1.00  0.00     0.293 HD
ENDBRANCH  20  30
BRANCH  25  32
ATOM     32  C   UNL     1      46.449  22.113   6.038  1.00  0.00     0.017 A 
ATOM     33  C   UNL     1      47.562  22.139   6.900  1.00  0.00     0.012 A 
ATOM     34  C   UNL     1      46.602  22.587   4.718  1.00  0.00     0.012 A 
ATOM     35  C   UNL     1      48.788  22.645   6.461  1.00  0.00     0.001 A 
ATOM     36  C   UNL     1      47.833  23.089   4.285  1.00  0.00     0.001 A 
ATOM     37  C   UNL     1      48.924  23.123   5.155  1.00  0.00     0.000 A 
ENDBRANCH  25  32
ENDBRANCH   1  17
TORSDOF 9
ENDMDL
