MODEL 1
REMARK VINA RESULT:    -2.979      0.000      0.000
REMARK INTER + INTRA:          -2.979
REMARK INTER:                  -2.979
REMARK INTRA:                   0.000
REMARK UNBOUND:                 0.000
REMARK SMILES CC(=O)[O-]
REMARK SMILES IDX 1 1 2 2 3 3 4 4
REMARK H PARENT
REMARK Flexibility Score: inf
ROOT
ATOM      1  C   UNL     1       0.306 -21.749 -25.141  1.00  0.00     0.063 C 
ATOM      2  C   UNL     1      -0.354 -20.690 -25.956  1.00  0.00     0.038 C 
ATOM      3  O   UNL     1      -1.286 -20.991 -26.748  1.00  0.00    -0.550 OA
ATOM      4  O   UNL     1       0.019 -19.362 -25.805  1.00  0.00    -0.550 OA
ENDROOT
TORSDOF 0
ENDMDL
MODEL 2
REMARK VINA RESULT:    -2.844      5.281      6.068
REMARK INTER + INTRA:          -2.844
REMARK INTER:                  -2.844
REMARK INTRA:                   0.000
REMARK UNBOUND:                 0.000
REMARK SMILES CC(=O)[O-]
REMARK SMILES IDX 1 1 2 2 3 3 4 4
REMARK H PARENT
REMARK Flexibility Score: inf
ROOT
ATOM      1  C   UNL     1      -0.235 -14.570 -28.108  1.00  0.00     0.063 C 
ATOM      2  C   UNL     1      -0.851 -15.161 -26.885  1.00  0.00     0.038 C 
ATOM      3  O   UNL     1      -0.969 -14.468 -25.840  1.00  0.00    -0.550 OA
ATOM      4  O   UNL     1      -1.344 -16.458 -26.912  1.00  0.00    -0.550 OA
ENDROOT
TORSDOF 0
ENDMDL
MODEL 3
REMARK VINA RESULT:    -2.729      5.448      5.718
REMARK INTER + INTRA:          -2.729
REMARK INTER:                  -2.729
REMARK INTRA:                   0.000
REMARK UNBOUND:                 0.000
REMARK SMILES CC(=O)[O-]
REMARK SMILES IDX 1 1 2 2 3 3 4 4
REMARK H PARENT
REMARK Flexibility Score: inf
ROOT
ATOM      1  C   UNL     1      -2.125 -16.466 -25.873  1.00  0.00     0.063 C 
ATOM      2  C   UNL     1      -1.688 -15.220 -26.565  1.00  0.00     0.038 C 
ATOM      3  O   UNL     1      -1.963 -15.043 -27.781  1.00  0.00    -0.550 OA
ATOM      4  O   UNL     1      -1.023 -14.228 -25.857  1.00  0.00    -0.550 OA
ENDROOT
TORSDOF 0
ENDMDL
MODEL 4
REMARK VINA RESULT:    -2.603      4.876      5.486
REMARK INTER + INTRA:          -2.603
REMARK INTER:                  -2.603
REMARK INTRA:                   0.000
REMARK UNBOUND:                 0.000
REMARK SMILES CC(=O)[O-]
REMARK SMILES IDX 1 1 2 2 3 3 4 4
REMARK H PARENT
REMARK Flexibility Score: inf
ROOT
ATOM      1  C   UNL     1      -1.530 -14.468 -26.240  1.00  0.00     0.063 C 
ATOM      2  C   UNL     1      -1.185 -15.731 -26.952  1.00  0.00     0.038 C 
ATOM      3  O   UNL     1      -1.609 -16.836 -26.520  1.00  0.00    -0.550 OA
ATOM      4  O   UNL     1      -0.442 -15.689 -28.124  1.00  0.00    -0.550 OA
ENDROOT
TORSDOF 0
ENDMDL
MODEL 5
REMARK VINA RESULT:    -2.291      1.360      2.025
REMARK INTER + INTRA:          -2.291
REMARK INTER:                  -2.291
REMARK INTRA:                   0.000
REMARK UNBOUND:                 0.000
REMARK SMILES CC(=O)[O-]
REMARK SMILES IDX 1 1 2 2 3 3 4 4
REMARK H PARENT
REMARK Flexibility Score: inf
ROOT
ATOM      1  C   UNL     1       0.368 -19.466 -25.832  1.00  0.00     0.063 C 
ATOM      2  C   UNL     1      -0.295 -20.801 -25.874  1.00  0.00     0.038 C 
ATOM      3  O   UNL     1       0.033 -21.695 -25.051  1.00  0.00    -0.550 OA
ATOM      4  O   UNL     1      -1.314 -21.043 -26.786  1.00  0.00    -0.550 OA
ENDROOT
TORSDOF 0
ENDMDL
MODEL 6
REMARK VINA RESULT:    -1.743      1.698      2.675
REMARK INTER + INTRA:          -1.743
REMARK INTER:                  -1.743
REMARK INTRA:                   0.000
REMARK UNBOUND:                 0.000
REMARK SMILES CC(=O)[O-]
REMARK SMILES IDX 1 1 2 2 3 3 4 4
REMARK H PARENT
REMARK Flexibility Score: inf
ROOT
ATOM      1  C   UNL     1      -1.609 -18.255 -25.536  1.00  0.00     0.063 C 
ATOM      2  C   UNL     1      -0.584 -19.289 -25.853  1.00  0.00     0.038 C 
ATOM      3  O   UNL     1       0.592 -18.945 -26.144  1.00  0.00    -0.550 OA
ATOM      4  O   UNL     1      -0.909 -20.637 -25.777  1.00  0.00    -0.550 OA
ENDROOT
TORSDOF 0
ENDMDL
MODEL 7
REMARK VINA RESULT:    -1.681      9.974     10.473
REMARK INTER + INTRA:          -1.681
REMARK INTER:                  -1.681
REMARK INTRA:                   0.000
REMARK UNBOUND:                 0.000
REMARK SMILES CC(=O)[O-]
REMARK SMILES IDX 1 1 2 2 3 3 4 4
REMARK H PARENT
REMARK Flexibility Score: inf
ROOT
ATOM      1  C   UNL     1       2.528 -14.513 -17.702  1.00  0.00     0.063 C 
ATOM      2  C   UNL     1       3.153 -13.856 -18.886  1.00  0.00     0.038 C 
ATOM      3  O   UNL     1       3.340 -14.510 -19.946  1.00  0.00    -0.550 OA
ATOM      4  O   UNL     1       3.481 -12.508 -18.841  1.00  0.00    -0.550 OA
ENDROOT
TORSDOF 0
ENDMDL
MODEL 8
REMARK VINA RESULT:    -1.579     10.007     10.530
REMARK INTER + INTRA:          -1.579
REMARK INTER:                  -1.579
REMARK INTRA:                   0.000
REMARK UNBOUND:                 0.000
REMARK SMILES CC(=O)[O-]
REMARK SMILES IDX 1 1 2 2 3 3 4 4
REMARK H PARENT
REMARK Flexibility Score: inf
ROOT
ATOM      1  C   UNL     1       3.532 -12.549 -18.782  1.00  0.00     0.063 C 
ATOM      2  C   UNL     1       3.185 -13.994 -18.906  1.00  0.00     0.038 C 
ATOM      3  O   UNL     1       3.276 -14.572 -20.022  1.00  0.00    -0.550 OA
ATOM      4  O   UNL     1       2.813 -14.719 -17.783  1.00  0.00    -0.550 OA
ENDROOT
TORSDOF 0
ENDMDL
MODEL 9
REMARK VINA RESULT:    -1.556     13.640     13.932
REMARK INTER + INTRA:          -1.556
REMARK INTER:                  -1.556
REMARK INTRA:                   0.000
REMARK UNBOUND:                 0.000
REMARK SMILES CC(=O)[O-]
REMARK SMILES IDX 1 1 2 2 3 3 4 4
REMARK H PARENT
REMARK Flexibility Score: inf
ROOT
ATOM      1  C   UNL     1       5.363 -23.950 -15.079  1.00  0.00     0.063 C 
ATOM      2  C   UNL     1       5.526 -23.528 -13.659  1.00  0.00     0.038 C 
ATOM      3  O   UNL     1       4.743 -23.967 -12.775  1.00  0.00    -0.550 OA
ATOM      4  O   UNL     1       6.574 -22.693 -13.297  1.00  0.00    -0.550 OA
ENDROOT
TORSDOF 0
ENDMDL
