MODEL 1
REMARK VINA RESULT:    -3.953      0.000      0.000
REMARK INTER + INTRA:          -6.567
REMARK INTER:                  -6.034
REMARK INTRA:                  -0.533
REMARK UNBOUND:                -0.533
REMARK SMILES CCCCCCCCCCC(=O)[O-]
REMARK SMILES IDX 7 1 8 2 9 3 10 4 11 5 12 6 13 7 6 8 5 9 4 10 3 11 2 12 1 13
REMARK H PARENT
REMARK Flexibility Score: inf
ROOT
ATOM      1  C   UNL     1     -45.944 -26.518   1.957  1.00  0.00     0.000 C 
ENDROOT
BRANCH   1   2
ATOM      2  C   UNL     1     -46.658 -27.743   2.553  1.00  0.00     0.000 C 
BRANCH   2   3
ATOM      3  C   UNL     1     -46.188 -28.057   3.989  1.00  0.00     0.006 C 
BRANCH   3   4
ATOM      4  C   UNL     1     -46.202 -26.834   4.919  1.00  0.00     0.053 C 
BRANCH   4   5
ATOM      5  C   UNL     1     -45.525 -27.107   6.226  1.00  0.00     0.041 C 
ATOM      6  O   UNL     1     -45.299 -26.166   7.032  1.00  0.00    -0.550 OA
ATOM      7  O   UNL     1     -45.168 -28.406   6.566  1.00  0.00    -0.550 OA
ENDBRANCH   4   5
ENDBRANCH   3   4
ENDBRANCH   2   3
ENDBRANCH   1   2
BRANCH   1   8
ATOM      8  C   UNL     1     -44.902 -26.891   0.887  1.00  0.00     0.000 C 
BRANCH   8   9
ATOM      9  C   UNL     1     -44.863 -28.381   0.498  1.00  0.00    -0.000 C 
BRANCH   9  10
ATOM     10  C   UNL     1     -43.668 -28.735  -0.402  1.00  0.00    -0.000 C 
BRANCH  10  11
ATOM     11  C   UNL     1     -42.528 -27.701  -0.319  1.00  0.00    -0.000 C 
BRANCH  11  12
ATOM     12  C   UNL     1     -41.108 -28.295  -0.303  1.00  0.00    -0.003 C 
ATOM     13  C   UNL     1     -41.063 -29.727   0.229  1.00  0.00     0.004 C 
ENDBRANCH  11  12
ENDBRANCH  10  11
ENDBRANCH   9  10
ENDBRANCH   8   9
ENDBRANCH   1   8
TORSDOF 9
ENDMDL
MODEL 2
REMARK VINA RESULT:    -3.780      3.359      6.242
REMARK INTER + INTRA:          -6.302
REMARK INTER:                  -5.858
REMARK INTRA:                  -0.444
REMARK UNBOUND:                -0.533
REMARK SMILES CCCCCCCCCCC(=O)[O-]
REMARK SMILES IDX 7 1 8 2 9 3 10 4 11 5 12 6 13 7 6 8 5 9 4 10 3 11 2 12 1 13
REMARK H PARENT
REMARK Flexibility Score: inf
ROOT
ATOM      1  C   UNL     1     -45.220 -26.032   1.488  1.00  0.00     0.000 C 
ENDROOT
BRANCH   1   2
ATOM      2  C   UNL     1     -45.089 -27.256   0.565  1.00  0.00     0.000 C 
BRANCH   2   3
ATOM      3  C   UNL     1     -43.703 -27.340  -0.107  1.00  0.00     0.006 C 
BRANCH   3   4
ATOM      4  C   UNL     1     -43.223 -28.780  -0.345  1.00  0.00     0.053 C 
BRANCH   4   5
ATOM      5  C   UNL     1     -41.738 -28.912  -0.221  1.00  0.00     0.041 C 
ATOM      6  O   UNL     1     -41.225 -30.007   0.130  1.00  0.00    -0.550 OA
ATOM      7  O   UNL     1     -40.916 -27.832  -0.519  1.00  0.00    -0.550 OA
ENDBRANCH   4   5
ENDBRANCH   3   4
ENDBRANCH   2   3
ENDBRANCH   1   2
BRANCH   1   8
ATOM      8  C   UNL     1     -46.261 -26.229   2.606  1.00  0.00     0.000 C 
BRANCH   8   9
ATOM      9  C   UNL     1     -46.399 -27.672   3.127  1.00  0.00    -0.000 C 
BRANCH   9  10
ATOM     10  C   UNL     1     -46.781 -27.737   4.615  1.00  0.00    -0.000 C 
BRANCH  10  11
ATOM     11  C   UNL     1     -45.954 -26.775   5.489  1.00  0.00    -0.000 C 
BRANCH  11  12
ATOM     12  C   UNL     1     -45.514 -27.345   6.850  1.00  0.00    -0.003 C 
ATOM     13  C   UNL     1     -45.062 -28.803   6.772  1.00  0.00     0.004 C 
ENDBRANCH  11  12
ENDBRANCH  10  11
ENDBRANCH   9  10
ENDBRANCH   8   9
ENDBRANCH   1   8
TORSDOF 9
ENDMDL
MODEL 3
REMARK VINA RESULT:    -3.652      4.009      6.559
REMARK INTER + INTRA:          -6.106
REMARK INTER:                  -5.637
REMARK INTRA:                  -0.469
REMARK UNBOUND:                -0.533
REMARK SMILES CCCCCCCCCCC(=O)[O-]
REMARK SMILES IDX 7 1 8 2 9 3 10 4 11 5 12 6 13 7 6 8 5 9 4 10 3 11 2 12 1 13
REMARK H PARENT
REMARK Flexibility Score: inf
ROOT
ATOM      1  C   UNL     1     -45.092 -26.693   1.017  1.00  0.00     0.000 C 
ENDROOT
BRANCH   1   2
ATOM      2  C   UNL     1     -45.234 -28.215   0.840  1.00  0.00     0.000 C 
BRANCH   2   3
ATOM      3  C   UNL     1     -44.249 -28.780  -0.204  1.00  0.00     0.006 C 
BRANCH   3   4
ATOM      4  C   UNL     1     -44.923 -29.197  -1.521  1.00  0.00     0.053 C 
BRANCH   4   5
ATOM      5  C   UNL     1     -45.516 -28.032  -2.249  1.00  0.00     0.041 C 
ATOM      6  O   UNL     1     -46.757 -27.979  -2.459  1.00  0.00    -0.550 OA
ATOM      7  O   UNL     1     -44.701 -26.989  -2.673  1.00  0.00    -0.550 OA
ENDBRANCH   4   5
ENDBRANCH   3   4
ENDBRANCH   2   3
ENDBRANCH   1   2
BRANCH   1   8
ATOM      8  C   UNL     1     -46.148 -26.096   1.965  1.00  0.00     0.000 C 
BRANCH   8   9
ATOM      9  C   UNL     1     -46.764 -27.088   2.969  1.00  0.00    -0.000 C 
BRANCH   9  10
ATOM     10  C   UNL     1     -46.149 -26.977   4.374  1.00  0.00    -0.000 C 
BRANCH  10  11
ATOM     11  C   UNL     1     -45.981 -28.343   5.065  1.00  0.00    -0.000 C 
BRANCH  11  12
ATOM     12  C   UNL     1     -45.340 -28.294   6.463  1.00  0.00    -0.003 C 
ATOM     13  C   UNL     1     -45.428 -26.914   7.115  1.00  0.00     0.004 C 
ENDBRANCH  11  12
ENDBRANCH  10  11
ENDBRANCH   9  10
ENDBRANCH   8   9
ENDBRANCH   1   8
TORSDOF 9
ENDMDL
MODEL 4
REMARK VINA RESULT:    -3.595      3.620      6.379
REMARK INTER + INTRA:          -6.021
REMARK INTER:                  -5.466
REMARK INTRA:                  -0.555
REMARK UNBOUND:                -0.533
REMARK SMILES CCCCCCCCCCC(=O)[O-]
REMARK SMILES IDX 7 1 8 2 9 3 10 4 11 5 12 6 13 7 6 8 5 9 4 10 3 11 2 12 1 13
REMARK H PARENT
REMARK Flexibility Score: inf
ROOT
ATOM      1  C   UNL     1     -46.404 -26.659   3.206  1.00  0.00     0.000 C 
ENDROOT
BRANCH   1   2
ATOM      2  C   UNL     1     -46.561 -26.131   1.769  1.00  0.00     0.000 C 
BRANCH   2   3
ATOM      3  C   UNL     1     -45.884 -27.045   0.728  1.00  0.00     0.006 C 
BRANCH   3   4
ATOM      4  C   UNL     1     -44.361 -26.856   0.643  1.00  0.00     0.053 C 
BRANCH   4   5
ATOM      5  C   UNL     1     -43.817 -27.222  -0.702  1.00  0.00     0.041 C 
ATOM      6  O   UNL     1     -44.544 -27.133  -1.726  1.00  0.00    -0.550 OA
ATOM      7  O   UNL     1     -42.497 -27.637  -0.829  1.00  0.00    -0.550 OA
ENDBRANCH   4   5
ENDBRANCH   3   4
ENDBRANCH   2   3
ENDBRANCH   1   2
BRANCH   1   8
ATOM      8  C   UNL     1     -46.613 -28.181   3.313  1.00  0.00     0.000 C 
BRANCH   8   9
ATOM      9  C   UNL     1     -46.792 -28.719   4.745  1.00  0.00    -0.000 C 
BRANCH   9  10
ATOM     10  C   UNL     1     -45.456 -29.036   5.437  1.00  0.00    -0.000 C 
BRANCH  10  11
ATOM     11  C   UNL     1     -45.295 -28.315   6.789  1.00  0.00    -0.000 C 
BRANCH  11  12
ATOM     12  C   UNL     1     -45.533 -26.794   6.750  1.00  0.00    -0.003 C 
ATOM     13  C   UNL     1     -46.473 -26.306   7.852  1.00  0.00     0.004 C 
ENDBRANCH  11  12
ENDBRANCH  10  11
ENDBRANCH   9  10
ENDBRANCH   8   9
ENDBRANCH   1   8
TORSDOF 9
ENDMDL
MODEL 5
REMARK VINA RESULT:    -3.475      3.435      6.196
REMARK INTER + INTRA:          -5.837
REMARK INTER:                  -5.245
REMARK INTRA:                  -0.592
REMARK UNBOUND:                -0.533
REMARK SMILES CCCCCCCCCCC(=O)[O-]
REMARK SMILES IDX 7 1 8 2 9 3 10 4 11 5 12 6 13 7 6 8 5 9 4 10 3 11 2 12 1 13
REMARK H PARENT
REMARK Flexibility Score: inf
ROOT
ATOM      1  C   UNL     1     -47.034 -27.751   2.668  1.00  0.00     0.000 C 
ENDROOT
BRANCH   1   2
ATOM      2  C   UNL     1     -46.100 -28.392   1.627  1.00  0.00     0.000 C 
BRANCH   2   3
ATOM      3  C   UNL     1     -45.759 -27.431   0.471  1.00  0.00     0.006 C 
BRANCH   3   4
ATOM      4  C   UNL     1     -44.341 -26.845   0.558  1.00  0.00     0.053 C 
BRANCH   4   5
ATOM      5  C   UNL     1     -43.476 -27.277  -0.584  1.00  0.00     0.041 C 
ATOM      6  O   UNL     1     -42.722 -28.278  -0.466  1.00  0.00    -0.550 OA
ATOM      7  O   UNL     1     -43.524 -26.590  -1.791  1.00  0.00    -0.550 OA
ENDBRANCH   4   5
ENDBRANCH   3   4
ENDBRANCH   2   3
ENDBRANCH   1   2
BRANCH   1   8
ATOM      8  C   UNL     1     -46.298 -26.810   3.639  1.00  0.00     0.000 C 
BRANCH   8   9
ATOM      9  C   UNL     1     -46.886 -26.743   5.061  1.00  0.00    -0.000 C 
BRANCH   9  10
ATOM     10  C   UNL     1     -45.831 -26.413   6.130  1.00  0.00    -0.000 C 
BRANCH  10  11
ATOM     11  C   UNL     1     -45.245 -27.669   6.802  1.00  0.00    -0.000 C 
BRANCH  11  12
ATOM     12  C   UNL     1     -45.988 -28.981   6.493  1.00  0.00    -0.003 C 
ATOM     13  C   UNL     1     -45.142 -29.977   5.702  1.00  0.00     0.004 C 
ENDBRANCH  11  12
ENDBRANCH  10  11
ENDBRANCH   9  10
ENDBRANCH   8   9
ENDBRANCH   1   8
TORSDOF 9
ENDMDL
MODEL 6
REMARK VINA RESULT:    -3.320      7.468      9.439
REMARK INTER + INTRA:          -5.600
REMARK INTER:                  -5.227
REMARK INTRA:                  -0.373
REMARK UNBOUND:                -0.533
REMARK SMILES CCCCCCCCCCC(=O)[O-]
REMARK SMILES IDX 7 1 8 2 9 3 10 4 11 5 12 6 13 7 6 8 5 9 4 10 3 11 2 12 1 13
REMARK H PARENT
REMARK Flexibility Score: inf
ROOT
ATOM      1  C   UNL     1     -45.740 -27.586  -4.738  1.00  0.00     0.000 C 
ENDROOT
BRANCH   1   2
ATOM      2  C   UNL     1     -46.262 -27.495  -6.183  1.00  0.00     0.000 C 
BRANCH   2   3
ATOM      3  C   UNL     1     -45.121 -27.495  -7.221  1.00  0.00     0.006 C 
BRANCH   3   4
ATOM      4  C   UNL     1     -44.107 -28.631  -7.018  1.00  0.00     0.053 C 
BRANCH   4   5
ATOM      5  C   UNL     1     -43.000 -28.591  -8.024  1.00  0.00     0.041 C 
ATOM      6  O   UNL     1     -41.799 -28.551  -7.645  1.00  0.00    -0.550 OA
ATOM      7  O   UNL     1     -43.292 -28.627  -9.382  1.00  0.00    -0.550 OA
ENDBRANCH   4   5
ENDBRANCH   3   4
ENDBRANCH   2   3
ENDBRANCH   1   2
BRANCH   1   8
ATOM      8  C   UNL     1     -46.423 -28.698  -3.921  1.00  0.00     0.000 C 
BRANCH   8   9
ATOM      9  C   UNL     1     -45.639 -29.182  -2.687  1.00  0.00    -0.000 C 
BRANCH   9  10
ATOM     10  C   UNL     1     -45.122 -28.025  -1.814  1.00  0.00    -0.000 C 
BRANCH  10  11
ATOM     11  C   UNL     1     -44.154 -28.493  -0.712  1.00  0.00    -0.000 C 
BRANCH  11  12
ATOM     12  C   UNL     1     -43.039 -27.493  -0.355  1.00  0.00    -0.003 C 
ATOM     13  C   UNL     1     -41.658 -28.141  -0.270  1.00  0.00     0.004 C 
ENDBRANCH  11  12
ENDBRANCH  10  11
ENDBRANCH   9  10
ENDBRANCH   8   9
ENDBRANCH   1   8
TORSDOF 9
ENDMDL
MODEL 7
REMARK VINA RESULT:    -3.315      1.081      2.034
REMARK INTER + INTRA:          -5.592
REMARK INTER:                  -5.213
REMARK INTRA:                  -0.379
REMARK UNBOUND:                -0.533
REMARK SMILES CCCCCCCCCCC(=O)[O-]
REMARK SMILES IDX 7 1 8 2 9 3 10 4 11 5 12 6 13 7 6 8 5 9 4 10 3 11 2 12 1 13
REMARK H PARENT
REMARK Flexibility Score: inf
ROOT
ATOM      1  C   UNL     1     -46.899 -27.662   3.942  1.00  0.00     0.000 C 
ENDROOT
BRANCH   1   2
ATOM      2  C   UNL     1     -45.903 -28.758   4.359  1.00  0.00     0.000 C 
BRANCH   2   3
ATOM      3  C   UNL     1     -45.527 -28.674   5.853  1.00  0.00     0.006 C 
BRANCH   3   4
ATOM      4  C   UNL     1     -46.579 -27.951   6.710  1.00  0.00     0.053 C 
BRANCH   4   5
ATOM      5  C   UNL     1     -46.062 -26.670   7.283  1.00  0.00     0.041 C 
ATOM      6  O   UNL     1     -44.919 -26.247   6.963  1.00  0.00    -0.550 OA
ATOM      7  O   UNL     1     -46.853 -25.926   8.151  1.00  0.00    -0.550 OA
ENDBRANCH   4   5
ENDBRANCH   3   4
ENDBRANCH   2   3
ENDBRANCH   1   2
BRANCH   1   8
ATOM      8  C   UNL     1     -46.656 -27.139   2.514  1.00  0.00     0.000 C 
BRANCH   8   9
ATOM      9  C   UNL     1     -46.061 -28.165   1.532  1.00  0.00    -0.000 C 
BRANCH   9  10
ATOM     10  C   UNL     1     -45.168 -27.519   0.459  1.00  0.00    -0.000 C 
BRANCH  10  11
ATOM     11  C   UNL     1     -43.956 -28.390   0.082  1.00  0.00    -0.000 C 
BRANCH  11  12
ATOM     12  C   UNL     1     -42.718 -27.614  -0.400  1.00  0.00    -0.003 C 
ATOM     13  C   UNL     1     -41.415 -28.393  -0.224  1.00  0.00     0.004 C 
ENDBRANCH  11  12
ENDBRANCH  10  11
ENDBRANCH   9  10
ENDBRANCH   8   9
ENDBRANCH   1   8
TORSDOF 9
ENDMDL
MODEL 8
REMARK VINA RESULT:    -3.242      5.398      7.065
REMARK INTER + INTRA:          -5.481
REMARK INTER:                  -4.656
REMARK INTRA:                  -0.825
REMARK UNBOUND:                -0.533
REMARK SMILES CCCCCCCCCCC(=O)[O-]
REMARK SMILES IDX 7 1 8 2 9 3 10 4 11 5 12 6 13 7 6 8 5 9 4 10 3 11 2 12 1 13
REMARK H PARENT
REMARK Flexibility Score: inf
ROOT
ATOM      1  C   UNL     1     -45.045 -30.125  -1.698  1.00  0.00     0.000 C 
ENDROOT
BRANCH   1   2
ATOM      2  C   UNL     1     -46.302 -29.948  -2.566  1.00  0.00     0.000 C 
BRANCH   2   3
ATOM      3  C   UNL     1     -45.965 -29.760  -4.060  1.00  0.00     0.006 C 
BRANCH   3   4
ATOM      4  C   UNL     1     -46.553 -28.476  -4.665  1.00  0.00     0.053 C 
BRANCH   4   5
ATOM      5  C   UNL     1     -45.499 -27.464  -4.986  1.00  0.00     0.041 C 
ATOM      6  O   UNL     1     -45.029 -26.728  -4.079  1.00  0.00    -0.550 OA
ATOM      7  O   UNL     1     -45.014 -27.352  -6.284  1.00  0.00    -0.550 OA
ENDBRANCH   4   5
ENDBRANCH   3   4
ENDBRANCH   2   3
ENDBRANCH   1   2
BRANCH   1   8
ATOM      8  C   UNL     1     -45.029 -29.201  -0.466  1.00  0.00     0.000 C 
BRANCH   8   9
ATOM      9  C   UNL     1     -44.862 -27.701  -0.772  1.00  0.00    -0.000 C 
BRANCH   9  10
ATOM     10  C   UNL     1     -43.399 -27.301  -1.027  1.00  0.00    -0.000 C 
BRANCH  10  11
ATOM     11  C   UNL     1     -42.457 -27.709   0.120  1.00  0.00    -0.000 C 
BRANCH  11  12
ATOM     12  C   UNL     1     -41.189 -28.465  -0.314  1.00  0.00    -0.003 C 
ATOM     13  C   UNL     1     -41.259 -29.966  -0.031  1.00  0.00     0.004 C 
ENDBRANCH  11  12
ENDBRANCH  10  11
ENDBRANCH   9  10
ENDBRANCH   8   9
ENDBRANCH   1   8
TORSDOF 9
ENDMDL
MODEL 9
REMARK VINA RESULT:    -3.235      4.875      7.272
REMARK INTER + INTRA:          -5.470
REMARK INTER:                  -4.976
REMARK INTRA:                  -0.495
REMARK UNBOUND:                -0.533
REMARK SMILES CCCCCCCCCCC(=O)[O-]
REMARK SMILES IDX 7 1 8 2 9 3 10 4 11 5 12 6 13 7 6 8 5 9 4 10 3 11 2 12 1 13
REMARK H PARENT
REMARK Flexibility Score: inf
ROOT
ATOM      1  C   UNL     1     -43.868 -27.258   0.083  1.00  0.00     0.000 C 
ENDROOT
BRANCH   1   2
ATOM      2  C   UNL     1     -44.037 -27.520  -1.424  1.00  0.00     0.000 C 
BRANCH   2   3
ATOM      3  C   UNL     1     -45.477 -27.934  -1.792  1.00  0.00     0.006 C 
BRANCH   3   4
ATOM      4  C   UNL     1     -45.546 -28.983  -2.912  1.00  0.00     0.053 C 
BRANCH   4   5
ATOM      5  C   UNL     1     -45.778 -28.367  -4.255  1.00  0.00     0.041 C 
ATOM      6  O   UNL     1     -46.069 -27.145  -4.351  1.00  0.00    -0.550 OA
ATOM      7  O   UNL     1     -45.646 -29.135  -5.406  1.00  0.00    -0.550 OA
ENDBRANCH   4   5
ENDBRANCH   3   4
ENDBRANCH   2   3
ENDBRANCH   1   2
BRANCH   1   8
ATOM      8  C   UNL     1     -45.187 -27.388   0.868  1.00  0.00     0.000 C 
BRANCH   8   9
ATOM      9  C   UNL     1     -45.592 -26.145   1.681  1.00  0.00    -0.000 C 
BRANCH   9  10
ATOM     10  C   UNL     1     -46.368 -26.494   2.962  1.00  0.00    -0.000 C 
BRANCH  10  11
ATOM     11  C   UNL     1     -46.309 -27.994   3.309  1.00  0.00    -0.000 C 
BRANCH  11  12
ATOM     12  C   UNL     1     -46.051 -28.311   4.793  1.00  0.00    -0.003 C 
ATOM     13  C   UNL     1     -45.955 -27.060   5.666  1.00  0.00     0.004 C 
ENDBRANCH  11  12
ENDBRANCH  10  11
ENDBRANCH   9  10
ENDBRANCH   8   9
ENDBRANCH   1   8
TORSDOF 9
ENDMDL
