MODEL 1
REMARK VINA RESULT:    -4.393      0.000      0.000
REMARK INTER + INTRA:          -5.130
REMARK INTER:                  -5.035
REMARK INTRA:                  -0.095
REMARK UNBOUND:                -0.095
REMARK SMILES COc1cc(C(=O)[O-])ccc1O
REMARK SMILES IDX 5 1 9 2 4 3 10 4 3 5 11 6 6 7 7 8 8 9 2 10 1 11 12 12
REMARK H PARENT 12 13
REMARK Flexibility Score: inf
ROOT
ATOM      1  C   UNL     1     -28.313 -17.773 -21.674  1.00  0.00     0.001 A 
ATOM      2  C   UNL     1     -29.168 -17.399 -20.625  1.00  0.00     0.014 A 
ATOM      3  C   UNL     1     -28.360 -17.059 -22.884  1.00  0.00     0.060 A 
ATOM      4  C   UNL     1     -30.053 -16.330 -20.781  1.00  0.00     0.051 A 
ATOM      5  C   UNL     1     -29.253 -15.980 -23.046  1.00  0.00     0.161 A 
ATOM      6  C   UNL     1     -30.097 -15.620 -21.987  1.00  0.00     0.157 A 
ENDROOT
BRANCH   1   7
ATOM      7  C   UNL     1     -27.374 -18.907 -21.511  1.00  0.00     0.072 C 
ATOM      8  O   UNL     1     -27.199 -19.733 -22.446  1.00  0.00    -0.545 OA
ATOM      9  O   UNL     1     -26.671 -19.075 -20.323  1.00  0.00    -0.545 OA
ENDBRANCH   1   7
BRANCH   5  10
ATOM     10  O   UNL     1     -29.327 -15.243 -24.239  1.00  0.00    -0.493 OA
ATOM     11  C   UNL     1     -28.252 -14.488 -24.790  1.00  0.00     0.278 C 
ENDBRANCH   5  10
BRANCH   6  12
ATOM     12  O   UNL     1     -30.982 -14.554 -22.142  1.00  0.00    -0.504 OA
ATOM     13  H   UNL     1     -31.117 -14.103 -23.040  1.00  0.00     0.293 HD
ENDBRANCH   6  12
TORSDOF 3
ENDMDL
MODEL 2
REMARK VINA RESULT:    -4.387     16.034     17.675
REMARK INTER + INTRA:          -5.123
REMARK INTER:                  -5.026
REMARK INTRA:                  -0.098
REMARK UNBOUND:                -0.095
REMARK SMILES COc1cc(C(=O)[O-])ccc1O
REMARK SMILES IDX 5 1 9 2 4 3 10 4 3 5 11 6 6 7 7 8 8 9 2 10 1 11 12 12
REMARK H PARENT 12 13
REMARK Flexibility Score: inf
ROOT
ATOM      1  C   UNL     1     -18.917 -20.797 -34.912  1.00  0.00     0.001 A 
ATOM      2  C   UNL     1     -20.162 -20.515 -35.497  1.00  0.00     0.014 A 
ATOM      3  C   UNL     1     -18.311 -22.041 -35.160  1.00  0.00     0.060 A 
ATOM      4  C   UNL     1     -20.790 -21.457 -36.314  1.00  0.00     0.051 A 
ATOM      5  C   UNL     1     -18.941 -22.996 -35.984  1.00  0.00     0.161 A 
ATOM      6  C   UNL     1     -20.183 -22.695 -36.559  1.00  0.00     0.157 A 
ENDROOT
BRANCH   1   7
ATOM      7  C   UNL     1     -18.250 -19.800 -34.044  1.00  0.00     0.072 C 
ATOM      8  O   UNL     1     -18.834 -19.346 -33.024  1.00  0.00    -0.545 OA
ATOM      9  O   UNL     1     -16.968 -19.351 -34.343  1.00  0.00    -0.545 OA
ENDBRANCH   1   7
BRANCH   5  10
ATOM     10  O   UNL     1     -18.365 -24.247 -36.255  1.00  0.00    -0.493 OA
ATOM     11  C   UNL     1     -17.327 -24.470 -37.204  1.00  0.00     0.278 C 
ENDBRANCH   5  10
BRANCH   6  12
ATOM     12  O   UNL     1     -20.810 -23.635 -37.375  1.00  0.00    -0.504 OA
ATOM     13  H   UNL     1     -21.206 -23.379 -38.273  1.00  0.00     0.293 HD
ENDBRANCH   6  12
TORSDOF 3
ENDMDL
MODEL 3
REMARK VINA RESULT:    -4.372     11.782     13.054
REMARK INTER + INTRA:          -5.106
REMARK INTER:                  -5.012
REMARK INTRA:                  -0.094
REMARK UNBOUND:                -0.095
REMARK SMILES COc1cc(C(=O)[O-])ccc1O
REMARK SMILES IDX 5 1 9 2 4 3 10 4 3 5 11 6 6 7 7 8 8 9 2 10 1 11 12 12
REMARK H PARENT 12 13
REMARK Flexibility Score: inf
ROOT
ATOM      1  C   UNL     1     -27.209 -17.122 -35.092  1.00  0.00     0.001 A 
ATOM      2  C   UNL     1     -26.861 -18.152 -34.203  1.00  0.00     0.014 A 
ATOM      3  C   UNL     1     -28.569 -16.857 -35.334  1.00  0.00     0.060 A 
ATOM      4  C   UNL     1     -27.852 -18.902 -33.568  1.00  0.00     0.051 A 
ATOM      5  C   UNL     1     -29.573 -17.612 -34.695  1.00  0.00     0.161 A 
ATOM      6  C   UNL     1     -29.206 -18.635 -33.811  1.00  0.00     0.157 A 
ENDROOT
BRANCH   1   7
ATOM      7  C   UNL     1     -26.160 -16.325 -35.768  1.00  0.00     0.072 C 
ATOM      8  O   UNL     1     -26.200 -15.065 -35.748  1.00  0.00    -0.545 OA
ATOM      9  O   UNL     1     -25.116 -16.954 -36.436  1.00  0.00    -0.545 OA
ENDBRANCH   1   7
BRANCH   5  10
ATOM     10  O   UNL     1     -30.940 -17.375 -34.912  1.00  0.00    -0.493 OA
ATOM     11  C   UNL     1     -31.606 -16.155 -34.604  1.00  0.00     0.278 C 
ENDBRANCH   5  10
BRANCH   6  12
ATOM     12  O   UNL     1     -30.194 -19.385 -33.176  1.00  0.00    -0.504 OA
ATOM     13  H   UNL     1     -30.953 -19.811 -33.696  1.00  0.00     0.293 HD
ENDBRANCH   6  12
TORSDOF 3
ENDMDL
MODEL 4
REMARK VINA RESULT:    -4.355     12.818     13.419
REMARK INTER + INTRA:          -5.087
REMARK INTER:                  -4.992
REMARK INTRA:                  -0.095
REMARK UNBOUND:                -0.095
REMARK SMILES COc1cc(C(=O)[O-])ccc1O
REMARK SMILES IDX 5 1 9 2 4 3 10 4 3 5 11 6 6 7 7 8 8 9 2 10 1 11 12 12
REMARK H PARENT 12 13
REMARK Flexibility Score: inf
ROOT
ATOM      1  C   UNL     1     -27.857 -16.321 -35.349  1.00  0.00     0.001 A 
ATOM      2  C   UNL     1     -29.097 -16.882 -35.004  1.00  0.00     0.014 A 
ATOM      3  C   UNL     1     -27.764 -14.932 -35.546  1.00  0.00     0.060 A 
ATOM      4  C   UNL     1     -30.224 -16.070 -34.858  1.00  0.00     0.051 A 
ATOM      5  C   UNL     1     -28.899 -14.109 -35.401  1.00  0.00     0.161 A 
ATOM      6  C   UNL     1     -30.128 -14.687 -35.055  1.00  0.00     0.157 A 
ENDROOT
BRANCH   1   7
ATOM      7  C   UNL     1     -26.660 -17.180 -35.504  1.00  0.00     0.072 C 
ATOM      8  O   UNL     1     -26.280 -17.926 -34.562  1.00  0.00    -0.545 OA
ATOM      9  O   UNL     1     -25.938 -17.176 -36.693  1.00  0.00    -0.545 OA
ENDBRANCH   1   7
BRANCH   5  10
ATOM     10  O   UNL     1     -28.844 -12.719 -35.590  1.00  0.00    -0.493 OA
ATOM     11  C   UNL     1     -28.908 -12.073 -36.857  1.00  0.00     0.278 C 
ENDBRANCH   5  10
BRANCH   6  12
ATOM     12  O   UNL     1     -31.253 -13.877 -34.910  1.00  0.00    -0.504 OA
ATOM     13  H   UNL     1     -31.923 -13.759 -35.663  1.00  0.00     0.293 HD
ENDBRANCH   6  12
TORSDOF 3
ENDMDL
MODEL 5
REMARK VINA RESULT:    -4.328      3.786      6.412
REMARK INTER + INTRA:          -5.056
REMARK INTER:                  -4.965
REMARK INTRA:                  -0.091
REMARK UNBOUND:                -0.095
REMARK SMILES COc1cc(C(=O)[O-])ccc1O
REMARK SMILES IDX 5 1 9 2 4 3 10 4 3 5 11 6 6 7 7 8 8 9 2 10 1 11 12 12
REMARK H PARENT 12 13
REMARK Flexibility Score: inf
ROOT
ATOM      1  C   UNL     1     -25.748 -14.199 -27.262  1.00  0.00     0.001 A 
ATOM      2  C   UNL     1     -26.365 -12.957 -27.043  1.00  0.00     0.014 A 
ATOM      3  C   UNL     1     -26.246 -15.337 -26.603  1.00  0.00     0.060 A 
ATOM      4  C   UNL     1     -27.459 -12.853 -26.182  1.00  0.00     0.051 A 
ATOM      5  C   UNL     1     -27.349 -15.237 -25.732  1.00  0.00     0.161 A 
ATOM      6  C   UNL     1     -27.953 -13.989 -25.526  1.00  0.00     0.157 A 
ENDROOT
BRANCH   1   7
ATOM      7  C   UNL     1     -24.588 -14.312 -28.175  1.00  0.00     0.072 C 
ATOM      8  O   UNL     1     -24.068 -13.282 -28.681  1.00  0.00    -0.545 OA
ATOM      9  O   UNL     1     -24.054 -15.558 -28.487  1.00  0.00    -0.545 OA
ENDBRANCH   1   7
BRANCH   5  10
ATOM     10  O   UNL     1     -27.873 -16.351 -25.057  1.00  0.00    -0.493 OA
ATOM     11  C   UNL     1     -27.090 -17.318 -24.365  1.00  0.00     0.278 C 
ENDBRANCH   5  10
BRANCH   6  12
ATOM     12  O   UNL     1     -29.044 -13.884 -24.666  1.00  0.00    -0.504 OA
ATOM     13  H   UNL     1     -29.940 -14.301 -24.893  1.00  0.00     0.293 HD
ENDBRANCH   6  12
TORSDOF 3
ENDMDL
MODEL 6
REMARK VINA RESULT:    -4.314      4.153      6.686
REMARK INTER + INTRA:          -5.040
REMARK INTER:                  -4.962
REMARK INTRA:                  -0.077
REMARK UNBOUND:                -0.095
REMARK SMILES COc1cc(C(=O)[O-])ccc1O
REMARK SMILES IDX 5 1 9 2 4 3 10 4 3 5 11 6 6 7 7 8 8 9 2 10 1 11 12 12
REMARK H PARENT 12 13
REMARK Flexibility Score: inf
ROOT
ATOM      1  C   UNL     1     -25.874 -14.934 -27.896  1.00  0.00     0.001 A 
ATOM      2  C   UNL     1     -25.920 -13.719 -28.599  1.00  0.00     0.014 A 
ATOM      3  C   UNL     1     -26.553 -15.041 -26.669  1.00  0.00     0.060 A 
ATOM      4  C   UNL     1     -26.632 -12.632 -28.087  1.00  0.00     0.051 A 
ATOM      5  C   UNL     1     -27.272 -13.947 -26.148  1.00  0.00     0.161 A 
ATOM      6  C   UNL     1     -27.308 -12.743 -26.865  1.00  0.00     0.157 A 
ENDROOT
BRANCH   1   7
ATOM      7  C   UNL     1     -25.119 -16.087 -28.437  1.00  0.00     0.072 C 
ATOM      8  O   UNL     1     -23.893 -15.980 -28.708  1.00  0.00    -0.545 OA
ATOM      9  O   UNL     1     -25.753 -17.306 -28.653  1.00  0.00    -0.545 OA
ENDBRANCH   1   7
BRANCH   5  10
ATOM     10  O   UNL     1     -27.963 -14.018 -24.928  1.00  0.00    -0.493 OA
ATOM     11  C   UNL     1     -28.344 -15.231 -24.286  1.00  0.00     0.278 C 
ENDBRANCH   5  10
BRANCH   6  12
ATOM     12  O   UNL     1     -28.018 -11.658 -26.354  1.00  0.00    -0.504 OA
ATOM     13  H   UNL     1     -28.617 -11.091 -26.944  1.00  0.00     0.293 HD
ENDBRANCH   6  12
TORSDOF 3
ENDMDL
MODEL 7
REMARK VINA RESULT:    -4.309      2.921      5.823
REMARK INTER + INTRA:          -5.034
REMARK INTER:                  -4.952
REMARK INTRA:                  -0.082
REMARK UNBOUND:                -0.095
REMARK SMILES COc1cc(C(=O)[O-])ccc1O
REMARK SMILES IDX 5 1 9 2 4 3 10 4 3 5 11 6 6 7 7 8 8 9 2 10 1 11 12 12
REMARK H PARENT 12 13
REMARK Flexibility Score: inf
ROOT
ATOM      1  C   UNL     1     -27.625 -18.993 -23.744  1.00  0.00     0.001 A 
ATOM      2  C   UNL     1     -28.052 -19.793 -24.817  1.00  0.00     0.014 A 
ATOM      3  C   UNL     1     -27.349 -19.599 -22.506  1.00  0.00     0.060 A 
ATOM      4  C   UNL     1     -28.199 -21.172 -24.656  1.00  0.00     0.051 A 
ATOM      5  C   UNL     1     -27.496 -20.991 -22.339  1.00  0.00     0.161 A 
ATOM      6  C   UNL     1     -27.922 -21.772 -23.422  1.00  0.00     0.157 A 
ENDROOT
BRANCH   1   7
ATOM      7  C   UNL     1     -27.469 -17.530 -23.912  1.00  0.00     0.072 C 
ATOM      8  O   UNL     1     -27.963 -16.733 -23.071  1.00  0.00    -0.545 OA
ATOM      9  O   UNL     1     -26.774 -17.015 -25.001  1.00  0.00    -0.545 OA
ENDBRANCH   1   7
BRANCH   5  10
ATOM     10  O   UNL     1     -27.228 -21.631 -21.118  1.00  0.00    -0.493 OA
ATOM     11  C   UNL     1     -26.187 -21.256 -20.222  1.00  0.00     0.278 C 
ENDBRANCH   5  10
BRANCH   6  12
ATOM     12  O   UNL     1     -28.070 -23.149 -23.262  1.00  0.00    -0.504 OA
ATOM     13  H   UNL     1     -27.294 -23.786 -23.404  1.00  0.00     0.293 HD
ENDBRANCH   6  12
TORSDOF 3
ENDMDL
MODEL 8
REMARK VINA RESULT:    -4.259     12.439     13.432
REMARK INTER + INTRA:          -4.977
REMARK INTER:                  -4.898
REMARK INTRA:                  -0.079
REMARK UNBOUND:                -0.095
REMARK SMILES COc1cc(C(=O)[O-])ccc1O
REMARK SMILES IDX 5 1 9 2 4 3 10 4 3 5 11 6 6 7 7 8 8 9 2 10 1 11 12 12
REMARK H PARENT 12 13
REMARK Flexibility Score: inf
ROOT
ATOM      1  C   UNL     1     -29.291 -15.457 -35.234  1.00  0.00     0.001 A 
ATOM      2  C   UNL     1     -30.605 -15.953 -35.222  1.00  0.00     0.014 A 
ATOM      3  C   UNL     1     -28.233 -16.313 -34.882  1.00  0.00     0.060 A 
ATOM      4  C   UNL     1     -30.857 -17.279 -34.866  1.00  0.00     0.051 A 
ATOM      5  C   UNL     1     -28.483 -17.653 -34.521  1.00  0.00     0.161 A 
ATOM      6  C   UNL     1     -29.801 -18.130 -34.516  1.00  0.00     0.157 A 
ENDROOT
BRANCH   1   7
ATOM      7  C   UNL     1     -29.021 -14.051 -35.611  1.00  0.00     0.072 C 
ATOM      8  O   UNL     1     -29.819 -13.134 -35.277  1.00  0.00    -0.545 OA
ATOM      9  O   UNL     1     -27.883 -13.721 -36.338  1.00  0.00    -0.545 OA
ENDBRANCH   1   7
BRANCH   5  10
ATOM     10  O   UNL     1     -27.452 -18.536 -34.164  1.00  0.00    -0.493 OA
ATOM     11  C   UNL     1     -26.069 -18.195 -34.137  1.00  0.00     0.278 C 
ENDBRANCH   5  10
BRANCH   6  12
ATOM     12  O   UNL     1     -30.053 -19.453 -34.160  1.00  0.00    -0.504 OA
ATOM     13  H   UNL     1     -30.891 -19.716 -33.653  1.00  0.00     0.293 HD
ENDBRANCH   6  12
TORSDOF 3
ENDMDL
MODEL 9
REMARK VINA RESULT:    -4.258     11.877     13.317
REMARK INTER + INTRA:          -4.976
REMARK INTER:                  -4.891
REMARK INTRA:                  -0.085
REMARK UNBOUND:                -0.095
REMARK SMILES COc1cc(C(=O)[O-])ccc1O
REMARK SMILES IDX 5 1 9 2 4 3 10 4 3 5 11 6 6 7 7 8 8 9 2 10 1 11 12 12
REMARK H PARENT 12 13
REMARK Flexibility Score: inf
ROOT
ATOM      1  C   UNL     1     -24.391 -18.110 -34.822  1.00  0.00     0.001 A 
ATOM      2  C   UNL     1     -24.462 -17.370 -36.013  1.00  0.00     0.014 A 
ATOM      3  C   UNL     1     -25.539 -18.227 -34.019  1.00  0.00     0.060 A 
ATOM      4  C   UNL     1     -25.657 -16.759 -36.396  1.00  0.00     0.051 A 
ATOM      5  C   UNL     1     -26.748 -17.611 -34.401  1.00  0.00     0.161 A 
ATOM      6  C   UNL     1     -26.800 -16.878 -35.594  1.00  0.00     0.157 A 
ENDROOT
BRANCH   1   7
ATOM      7  C   UNL     1     -23.124 -18.759 -34.413  1.00  0.00     0.072 C 
ATOM      8  O   UNL     1     -22.452 -19.431 -35.242  1.00  0.00    -0.545 OA
ATOM      9  O   UNL     1     -22.657 -18.637 -33.109  1.00  0.00    -0.545 OA
ENDBRANCH   1   7
BRANCH   5  10
ATOM     10  O   UNL     1     -27.914 -17.707 -33.625  1.00  0.00    -0.493 OA
ATOM     11  C   UNL     1     -28.863 -18.764 -33.720  1.00  0.00     0.278 C 
ENDBRANCH   5  10
BRANCH   6  12
ATOM     12  O   UNL     1     -27.992 -16.267 -35.976  1.00  0.00    -0.504 OA
ATOM     13  H   UNL     1     -28.533 -15.705 -35.328  1.00  0.00     0.293 HD
ENDBRANCH   6  12
TORSDOF 3
ENDMDL
