MODEL 1
REMARK VINA RESULT:    -2.808      0.000      0.000
REMARK INTER + INTRA:          -3.708
REMARK INTER:                  -3.957
REMARK INTRA:                   0.249
REMARK UNBOUND:                 0.249
REMARK SMILES CC1=CCC(=C(C)C)C(=O)CC(C)=CCC1
REMARK SMILES IDX 12 1 14 2 13 3 15 4 16 5 2 6 1 7 3 8 11 10 9 11 10 12 5 13
REMARK SMILES IDX 6 14 7 15 8 16 4 17
REMARK H PARENT
REMARK Flexibility Score: 60.00
ROOT
ATOM      1  C   UNL     1      28.296  36.962  19.015  1.00  0.00    -0.070 C 
ATOM      2  C   UNL     1      29.125  38.012  18.809  1.00  0.00    -0.027 C 
ATOM      3  C   UNL     1      28.894  35.579  19.036  1.00  0.00     0.039 C 
ENDROOT
BRANCH   2   4
ATOM      4  C   UNL     1      28.691  39.455  18.698  1.00  0.00     0.032 C 
BRANCH   4   5
ATOM      5  C   UNL     1      28.458  40.085  20.079  1.00  0.00     0.034 C 
BRANCH   5   6
ATOM      6  C   UNL     1      27.175  40.898  20.168  1.00  0.00    -0.077 C 
ATOM      7  C   UNL     1      27.022  42.114  19.289  1.00  0.00     0.039 C 
ATOM      8  C   UNL     1      26.161  40.598  21.012  1.00  0.00    -0.023 CG0
ATOM      9  G   UNL     1      26.101  39.388  21.914  1.00  0.00     0.000 G0
ENDBRANCH   5   6
ENDBRANCH   4   5
ENDBRANCH   2   4
BRANCH   1  10
ATOM     10  C   UNL     1      26.802  37.119  19.227  1.00  0.00     0.111 C 
BRANCH  10  11
ATOM     11  C   UNL     1      26.459  37.109  20.691  1.00  0.00     0.163 C 
ATOM     12  O   UNL     1      26.955  36.222  21.436  1.00  0.00    -0.294 OA
BRANCH  11  13
ATOM     13  C   UNL     1      25.529  38.110  21.272  1.00  0.00    -0.002 C 
ATOM     14  C   UNL     1      24.184  37.908  21.223  1.00  0.00    -0.069 C 
ATOM     15  C   UNL     1      23.224  38.890  21.855  1.00  0.00     0.039 C 
ATOM     16  C   UNL     1      23.597  36.716  20.500  1.00  0.00     0.039 C 
BRANCH  13  17
ATOM     17  C   UNL     1      26.101  39.366  21.921  1.00  0.00     0.066 CG0
ATOM     18  G   UNL     1      26.118  40.569  21.008  1.00  0.00     0.000 G0
ENDBRANCH  13  17
ENDBRANCH  11  13
ENDBRANCH  10  11
ENDBRANCH   1  10
TORSDOF 0
ENDMDL
MODEL 2
REMARK VINA RESULT:    -2.771      1.708      4.042
REMARK INTER + INTRA:          -3.656
REMARK INTER:                  -4.268
REMARK INTRA:                   0.612
REMARK UNBOUND:                 0.249
REMARK SMILES CC1=CCC(=C(C)C)C(=O)CC(C)=CCC1
REMARK SMILES IDX 12 1 14 2 13 3 15 4 16 5 2 6 1 7 3 8 11 10 9 11 10 12 5 13
REMARK SMILES IDX 6 14 7 15 8 16 4 17
REMARK H PARENT
REMARK Flexibility Score: 60.00
ROOT
ATOM      1  C   UNL     1      24.395  38.751  21.700  1.00  0.00    -0.070 C 
ATOM      2  C   UNL     1      24.832  40.020  21.522  1.00  0.00    -0.027 C 
ATOM      3  C   UNL     1      22.931  38.540  21.991  1.00  0.00     0.039 C 
ENDROOT
BRANCH   2   4
ATOM      4  C   UNL     1      26.270  40.419  21.283  1.00  0.00     0.032 C 
BRANCH   4   5
ATOM      5  C   UNL     1      26.513  40.814  19.819  1.00  0.00     0.034 C 
BRANCH   5   6
ATOM      6  C   UNL     1      27.857  40.347  19.279  1.00  0.00    -0.077 C 
ATOM      7  C   UNL     1      29.065  41.230  19.471  1.00  0.00     0.039 C 
ATOM      8  C   UNL     1      28.027  39.182  18.613  1.00  0.00    -0.023 CG0
ATOM      9  G   UNL     1      26.957  38.139  18.384  1.00  0.00     0.000 G0
ENDBRANCH   5   6
ENDBRANCH   4   5
ENDBRANCH   2   4
BRANCH   1  10
ATOM     10  C   UNL     1      25.309  37.543  21.618  1.00  0.00     0.111 C 
BRANCH  10  11
ATOM     11  C   UNL     1      25.464  37.078  20.197  1.00  0.00     0.163 C 
ATOM     12  O   UNL     1      24.467  36.609  19.588  1.00  0.00    -0.294 OA
BRANCH  11  13
ATOM     13  C   UNL     1      26.777  37.141  19.504  1.00  0.00    -0.002 C 
ATOM     14  C   UNL     1      27.794  36.322  19.887  1.00  0.00    -0.069 C 
ATOM     15  C   UNL     1      29.120  36.334  19.160  1.00  0.00     0.039 C 
ATOM     16  C   UNL     1      27.652  35.400  21.077  1.00  0.00     0.039 C 
BRANCH  13  17
ATOM     17  C   UNL     1      26.967  38.133  18.362  1.00  0.00     0.066 CG0
ATOM     18  G   UNL     1      28.019  39.182  18.638  1.00  0.00     0.000 G0
ENDBRANCH  13  17
ENDBRANCH  11  13
ENDBRANCH  10  11
ENDBRANCH   1  10
TORSDOF 0
ENDMDL
MODEL 3
REMARK VINA RESULT:    -2.272      2.088      4.942
REMARK INTER + INTRA:          -2.953
REMARK INTER:                  -4.606
REMARK INTRA:                   1.652
REMARK UNBOUND:                 0.249
REMARK SMILES CC1=CCC(=C(C)C)C(=O)CC(C)=CCC1
REMARK SMILES IDX 12 1 14 2 13 3 15 4 16 5 2 6 1 7 3 8 11 10 9 11 10 12 5 13
REMARK SMILES IDX 6 14 7 15 8 16 4 17
REMARK H PARENT
REMARK Flexibility Score: 60.00
ROOT
ATOM      1  C   UNL     1      25.603  38.635  21.602  1.00  0.00    -0.070 C 
ATOM      2  C   UNL     1      25.647  37.286  21.494  1.00  0.00    -0.027 C 
ATOM      3  C   UNL     1      24.251  39.294  21.704  1.00  0.00     0.039 C 
ENDROOT
BRANCH   2   4
ATOM      4  C   UNL     1      26.905  36.467  21.321  1.00  0.00     0.032 C 
BRANCH   4   5
ATOM      5  C   UNL     1      27.166  36.133  19.845  1.00  0.00     0.034 C 
BRANCH   5   6
ATOM      6  C   UNL     1      26.305  36.935  18.879  1.00  0.00    -0.077 C 
ATOM      7  C   UNL     1      24.993  36.351  18.418  1.00  0.00     0.039 C 
ATOM      8  C   UNL     1      26.663  38.144  18.391  1.00  0.00    -0.023 CG0
ATOM      9  G   UNL     1      27.899  38.917  18.788  1.00  0.00     0.000 G0
ENDBRANCH   5   6
ENDBRANCH   4   5
ENDBRANCH   2   4
BRANCH   1  10
ATOM     10  C   UNL     1      26.847  39.502  21.627  1.00  0.00     0.111 C 
BRANCH  10  11
ATOM     11  C   UNL     1      26.819  40.521  20.521  1.00  0.00     0.163 C 
ATOM     12  O   UNL     1      26.092  41.542  20.641  1.00  0.00    -0.294 OA
BRANCH  11  13
ATOM     13  C   UNL     1      27.614  40.335  19.281  1.00  0.00    -0.002 C 
ATOM     14  C   UNL     1      28.080  41.415  18.597  1.00  0.00    -0.069 C 
ATOM     15  C   UNL     1      28.936  41.245  17.362  1.00  0.00     0.039 C 
ATOM     16  C   UNL     1      27.725  42.823  19.019  1.00  0.00     0.039 C 
BRANCH  13  17
ATOM     17  C   UNL     1      27.900  38.921  18.788  1.00  0.00     0.066 CG0
ATOM     18  G   UNL     1      26.663  38.159  18.375  1.00  0.00     0.000 G0
ENDBRANCH  13  17
ENDBRANCH  11  13
ENDBRANCH  10  11
ENDBRANCH   1  10
TORSDOF 0
ENDMDL
MODEL 4
REMARK VINA RESULT:    -2.119      1.439      3.745
REMARK INTER + INTRA:          -2.736
REMARK INTER:                  -4.394
REMARK INTRA:                   1.658
REMARK UNBOUND:                 0.249
REMARK SMILES CC1=CCC(=C(C)C)C(=O)CC(C)=CCC1
REMARK SMILES IDX 12 1 14 2 13 3 15 4 16 5 2 6 1 7 3 8 11 10 9 11 10 12 5 13
REMARK SMILES IDX 6 14 7 15 8 16 4 17
REMARK H PARENT
REMARK Flexibility Score: 60.00
ROOT
ATOM      1  C   UNL     1      28.503  36.492  19.707  1.00  0.00    -0.070 C 
ATOM      2  C   UNL     1      27.740  36.327  20.813  1.00  0.00    -0.027 C 
ATOM      3  C   UNL     1      29.002  35.259  18.999  1.00  0.00     0.039 C 
ENDROOT
BRANCH   2   4
ATOM      4  C   UNL     1      27.206  37.445  21.678  1.00  0.00     0.032 C 
BRANCH   4   5
ATOM      5  C   UNL     1      25.715  37.256  21.994  1.00  0.00     0.034 C 
BRANCH   5   6
ATOM      6  C   UNL     1      24.828  38.349  21.417  1.00  0.00    -0.077 C 
ATOM      7  C   UNL     1      23.337  38.124  21.362  1.00  0.00     0.039 C 
ATOM      8  C   UNL     1      25.307  39.516  20.928  1.00  0.00    -0.023 CG0
ATOM      9  G   UNL     1      26.754  39.950  20.959  1.00  0.00     0.000 G0
ENDBRANCH   5   6
ENDBRANCH   4   5
ENDBRANCH   2   4
BRANCH   1  10
ATOM     10  C   UNL     1      28.869  37.857  19.154  1.00  0.00     0.111 C 
BRANCH  10  11
ATOM     11  C   UNL     1      27.640  38.680  18.885  1.00  0.00     0.163 C 
ATOM     12  O   UNL     1      26.798  38.275  18.040  1.00  0.00    -0.294 OA
BRANCH  11  13
ATOM     13  C   UNL     1      27.410  39.971  19.581  1.00  0.00    -0.002 C 
ATOM     14  C   UNL     1      27.792  41.141  19.000  1.00  0.00    -0.069 C 
ATOM     15  C   UNL     1      27.519  42.469  19.669  1.00  0.00     0.039 C 
ATOM     16  C   UNL     1      28.539  41.156  17.685  1.00  0.00     0.039 C 
BRANCH  13  17
ATOM     17  C   UNL     1      26.743  39.967  20.952  1.00  0.00     0.066 CG0
ATOM     18  G   UNL     1      25.297  39.530  20.924  1.00  0.00     0.000 G0
ENDBRANCH  13  17
ENDBRANCH  11  13
ENDBRANCH  10  11
ENDBRANCH   1  10
TORSDOF 0
ENDMDL
MODEL 5
REMARK VINA RESULT:    -1.784      1.750      3.381
REMARK INTER + INTRA:          -2.265
REMARK INTER:                  -2.924
REMARK INTRA:                   0.659
REMARK UNBOUND:                 0.249
REMARK SMILES CC1=CCC(=C(C)C)C(=O)CC(C)=CCC1
REMARK SMILES IDX 12 1 14 2 13 3 15 4 16 5 2 6 1 7 3 8 11 10 9 11 10 12 5 13
REMARK SMILES IDX 6 14 7 15 8 16 4 17
REMARK H PARENT
REMARK Flexibility Score: 60.00
ROOT
ATOM      1  C   UNL     1      24.927  38.580  21.473  1.00  0.00    -0.070 C 
ATOM      2  C   UNL     1      25.816  39.602  21.462  1.00  0.00    -0.027 C 
ATOM      3  C   UNL     1      23.476  38.899  21.226  1.00  0.00     0.039 C 
ENDROOT
BRANCH   2   4
ATOM      4  C   UNL     1      27.293  39.473  21.750  1.00  0.00     0.032 C 
BRANCH   4   5
ATOM      5  C   UNL     1      28.132  39.592  20.468  1.00  0.00     0.034 C 
BRANCH   5   6
ATOM      6  C   UNL     1      27.327  40.031  19.253  1.00  0.00    -0.077 C 
ATOM      7  C   UNL     1      27.077  41.503  19.039  1.00  0.00     0.039 C 
ATOM      8  C   UNL     1      26.802  39.165  18.357  1.00  0.00    -0.023 CG0
ATOM      9  G   UNL     1      27.002  37.668  18.364  1.00  0.00     0.000 G0
ENDBRANCH   5   6
ENDBRANCH   4   5
ENDBRANCH   2   4
BRANCH   1  10
ATOM     10  C   UNL     1      25.331  37.138  21.719  1.00  0.00     0.111 C 
BRANCH  10  11
ATOM     11  C   UNL     1      26.263  36.647  20.647  1.00  0.00     0.163 C 
ATOM     12  O   UNL     1      27.312  36.032  20.974  1.00  0.00    -0.294 OA
BRANCH  11  13
ATOM     13  C   UNL     1      25.981  36.891  19.209  1.00  0.00    -0.002 C 
ATOM     14  C   UNL     1      24.828  36.434  18.649  1.00  0.00    -0.069 C 
ATOM     15  C   UNL     1      24.499  36.718  17.201  1.00  0.00     0.039 C 
ATOM     16  C   UNL     1      23.854  35.590  19.439  1.00  0.00     0.039 C 
BRANCH  13  17
ATOM     17  C   UNL     1      26.999  37.659  18.373  1.00  0.00     0.066 CG0
ATOM     18  G   UNL     1      26.786  39.154  18.378  1.00  0.00     0.000 G0
ENDBRANCH  13  17
ENDBRANCH  11  13
ENDBRANCH  10  11
ENDBRANCH   1  10
TORSDOF 0
ENDMDL
MODEL 6
REMARK VINA RESULT:    -1.769     10.407     12.247
REMARK INTER + INTRA:          -2.244
REMARK INTER:                  -3.556
REMARK INTRA:                   1.312
REMARK UNBOUND:                 0.249
REMARK SMILES CC1=CCC(=C(C)C)C(=O)CC(C)=CCC1
REMARK SMILES IDX 12 1 14 2 13 3 15 4 16 5 2 6 1 7 3 8 11 10 9 11 10 12 5 13
REMARK SMILES IDX 6 14 7 15 8 16 4 17
REMARK H PARENT
REMARK Flexibility Score: 60.00
ROOT
ATOM      1  C   UNL     1      28.426  29.341  23.966  1.00  0.00    -0.070 C 
ATOM      2  C   UNL     1      29.125  28.315  24.508  1.00  0.00    -0.027 C 
ATOM      3  C   UNL     1      28.688  29.695  22.526  1.00  0.00     0.039 C 
ENDROOT
BRANCH   2   4
ATOM      4  C   UNL     1      29.035  27.863  25.947  1.00  0.00     0.032 C 
BRANCH   4   5
ATOM      5  C   UNL     1      28.981  26.332  26.058  1.00  0.00     0.034 C 
BRANCH   5   6
ATOM      6  C   UNL     1      27.565  25.776  26.116  1.00  0.00    -0.077 C 
ATOM      7  C   UNL     1      27.330  24.342  25.713  1.00  0.00     0.039 C 
ATOM      8  C   UNL     1      26.493  26.509  26.494  1.00  0.00    -0.023 CG0
ATOM      9  G   UNL     1      26.539  27.933  26.996  1.00  0.00     0.000 G0
ENDBRANCH   5   6
ENDBRANCH   4   5
ENDBRANCH   2   4
BRANCH   1  10
ATOM     10  C   UNL     1      27.397  30.139  24.744  1.00  0.00     0.111 C 
BRANCH  10  11
ATOM     11  C   UNL     1      26.102  29.384  24.861  1.00  0.00     0.163 C 
ATOM     12  O   UNL     1      25.404  29.192  23.831  1.00  0.00    -0.294 OA
BRANCH  11  13
ATOM     13  C   UNL     1      25.620  28.879  26.172  1.00  0.00    -0.002 C 
ATOM     14  C   UNL     1      24.402  29.256  26.647  1.00  0.00    -0.069 C 
ATOM     15  C   UNL     1      23.872  28.711  27.954  1.00  0.00     0.039 C 
ATOM     16  C   UNL     1      23.551  30.264  25.908  1.00  0.00     0.039 C 
BRANCH  13  17
ATOM     17  C   UNL     1      26.509  27.935  26.976  1.00  0.00     0.066 CG0
ATOM     18  G   UNL     1      26.478  26.507  26.487  1.00  0.00     0.000 G0
ENDBRANCH  13  17
ENDBRANCH  11  13
ENDBRANCH  10  11
ENDBRANCH   1  10
TORSDOF 0
ENDMDL
MODEL 7
REMARK VINA RESULT:    -1.621      1.874      3.413
REMARK INTER + INTRA:          -2.035
REMARK INTER:                  -2.783
REMARK INTRA:                   0.748
REMARK UNBOUND:                 0.249
REMARK SMILES CC1=CCC(=C(C)C)C(=O)CC(C)=CCC1
REMARK SMILES IDX 12 1 14 2 13 3 15 4 16 5 2 6 1 7 3 8 11 10 9 11 10 12 5 13
REMARK SMILES IDX 6 14 7 15 8 16 4 17
REMARK H PARENT
REMARK Flexibility Score: 60.00
ROOT
ATOM      1  C   UNL     1      26.178  39.249  21.532  1.00  0.00    -0.070 C 
ATOM      2  C   UNL     1      26.830  40.434  21.580  1.00  0.00    -0.027 C 
ATOM      3  C   UNL     1      24.676  39.270  21.420  1.00  0.00     0.039 C 
ENDROOT
BRANCH   2   4
ATOM      4  C   UNL     1      28.322  40.601  21.752  1.00  0.00     0.032 C 
BRANCH   4   5
ATOM      5  C   UNL     1      29.017  40.897  20.414  1.00  0.00     0.034 C 
BRANCH   5   6
ATOM      6  C   UNL     1      28.057  41.313  19.309  1.00  0.00    -0.077 C 
ATOM      7  C   UNL     1      27.537  42.729  19.292  1.00  0.00     0.039 C 
ATOM      8  C   UNL     1      27.624  40.471  18.343  1.00  0.00    -0.023 CG0
ATOM      9  G   UNL     1      28.083  39.044  18.155  1.00  0.00     0.000 G0
ENDBRANCH   5   6
ENDBRANCH   4   5
ENDBRANCH   2   4
BRANCH   1  10
ATOM     10  C   UNL     1      26.893  37.911  21.584  1.00  0.00     0.111 C 
BRANCH  10  11
ATOM     11  C   UNL     1      27.783  37.727  20.387  1.00  0.00     0.163 C 
ATOM     12  O   UNL     1      28.965  37.325  20.551  1.00  0.00    -0.294 OA
BRANCH  11  13
ATOM     13  C   UNL     1      27.302  38.030  19.015  1.00  0.00    -0.002 C 
ATOM     14  C   UNL     1      26.187  37.420  18.528  1.00  0.00    -0.069 C 
ATOM     15  C   UNL     1      25.653  37.755  17.154  1.00  0.00     0.039 C 
ATOM     16  C   UNL     1      25.466  36.355  19.324  1.00  0.00     0.039 C 
BRANCH  13  17
ATOM     17  C   UNL     1      28.074  39.032  18.162  1.00  0.00     0.066 CG0
ATOM     18  G   UNL     1      27.613  40.460  18.335  1.00  0.00     0.000 G0
ENDBRANCH  13  17
ENDBRANCH  11  13
ENDBRANCH  10  11
ENDBRANCH   1  10
TORSDOF 0
ENDMDL
MODEL 8
REMARK VINA RESULT:    -1.552      2.293      4.354
REMARK INTER + INTRA:          -1.937
REMARK INTER:                  -3.621
REMARK INTRA:                   1.684
REMARK UNBOUND:                 0.249
REMARK SMILES CC1=CCC(=C(C)C)C(=O)CC(C)=CCC1
REMARK SMILES IDX 12 1 14 2 13 3 15 4 16 5 2 6 1 7 3 8 11 10 9 11 10 12 5 13
REMARK SMILES IDX 6 14 7 15 8 16 4 17
REMARK H PARENT
REMARK Flexibility Score: 60.00
ROOT
ATOM      1  C   UNL     1      28.458  35.261  21.306  1.00  0.00    -0.070 C 
ATOM      2  C   UNL     1      27.870  34.604  20.279  1.00  0.00    -0.027 C 
ATOM      3  C   UNL     1      28.801  34.477  22.547  1.00  0.00     0.039 C 
ENDROOT
BRANCH   2   4
ATOM      4  C   UNL     1      27.406  35.241  18.990  1.00  0.00     0.032 C 
BRANCH   4   5
ATOM      5  C   UNL     1      25.940  34.901  18.686  1.00  0.00     0.034 C 
BRANCH   5   6
ATOM      6  C   UNL     1      25.002  36.094  18.801  1.00  0.00    -0.077 C 
ATOM      7  C   UNL     1      23.533  35.845  19.037  1.00  0.00     0.039 C 
ATOM      8  C   UNL     1      25.413  37.377  18.685  1.00  0.00    -0.023 CG0
ATOM      9  G   UNL     1      26.846  37.826  18.518  1.00  0.00     0.000 G0
ENDBRANCH   5   6
ENDBRANCH   4   5
ENDBRANCH   2   4
BRANCH   1  10
ATOM     10  C   UNL     1      28.786  36.742  21.259  1.00  0.00     0.111 C 
BRANCH  10  11
ATOM     11  C   UNL     1      27.552  37.561  21.002  1.00  0.00     0.163 C 
ATOM     12  O   UNL     1      26.592  37.504  21.814  1.00  0.00    -0.294 OA
BRANCH  11  13
ATOM     13  C   UNL     1      27.436  38.420  19.796  1.00  0.00    -0.002 C 
ATOM     14  C   UNL     1      27.864  39.712  19.830  1.00  0.00    -0.069 C 
ATOM     15  C   UNL     1      27.801  40.586  18.598  1.00  0.00     0.039 C 
ATOM     16  C   UNL     1      28.378  40.333  21.109  1.00  0.00     0.039 C 
BRANCH  13  17
ATOM     17  C   UNL     1      26.830  37.836  18.524  1.00  0.00     0.066 CG0
ATOM     18  G   UNL     1      25.396  37.390  18.683  1.00  0.00     0.000 G0
ENDBRANCH  13  17
ENDBRANCH  11  13
ENDBRANCH  10  11
ENDBRANCH   1  10
TORSDOF 0
ENDMDL
MODEL 9
REMARK VINA RESULT:    -1.227      2.955      5.297
REMARK INTER + INTRA:          -1.480
REMARK INTER:                  -3.594
REMARK INTRA:                   2.115
REMARK UNBOUND:                 0.249
REMARK SMILES CC1=CCC(=C(C)C)C(=O)CC(C)=CCC1
REMARK SMILES IDX 12 1 14 2 13 3 15 4 16 5 2 6 1 7 3 8 11 10 9 11 10 12 5 13
REMARK SMILES IDX 6 14 7 15 8 16 4 17
REMARK H PARENT
REMARK Flexibility Score: 60.00
ROOT
ATOM      1  C   UNL     1      25.154  36.516  22.608  1.00  0.00    -0.070 C 
ATOM      2  C   UNL     1      24.330  37.102  21.707  1.00  0.00    -0.027 C 
ATOM      3  C   UNL     1      24.549  35.565  23.609  1.00  0.00     0.039 C 
ENDROOT
BRANCH   2   4
ATOM      4  C   UNL     1      24.752  38.122  20.676  1.00  0.00     0.032 C 
BRANCH   4   5
ATOM      5  C   UNL     1      26.020  37.680  19.929  1.00  0.00     0.034 C 
BRANCH   5   6
ATOM      6  C   UNL     1      25.910  36.293  19.313  1.00  0.00    -0.077 C 
ATOM      7  C   UNL     1      24.727  35.979  18.431  1.00  0.00     0.039 C 
ATOM      8  C   UNL     1      26.813  35.309  19.530  1.00  0.00    -0.023 CG0
ATOM      9  G   UNL     1      28.091  35.453  20.323  1.00  0.00     0.000 G0
ENDBRANCH   5   6
ENDBRANCH   4   5
ENDBRANCH   2   4
BRANCH   1  10
ATOM     10  C   UNL     1      26.648  36.773  22.648  1.00  0.00     0.111 C 
BRANCH  10  11
ATOM     11  C   UNL     1      27.412  35.493  22.850  1.00  0.00     0.163 C 
ATOM     12  O   UNL     1      27.547  35.031  24.013  1.00  0.00    -0.294 OA
BRANCH  11  13
ATOM     13  C   UNL     1      28.029  34.776  21.705  1.00  0.00    -0.002 C 
ATOM     14  C   UNL     1      28.539  33.525  21.874  1.00  0.00    -0.069 C 
ATOM     15  C   UNL     1      29.124  32.759  20.710  1.00  0.00     0.039 C 
ATOM     16  C   UNL     1      28.580  32.873  23.237  1.00  0.00     0.039 C 
BRANCH  13  17
ATOM     17  C   UNL     1      28.083  35.459  20.343  1.00  0.00     0.066 CG0
ATOM     18  G   UNL     1      26.813  35.311  19.538  1.00  0.00     0.000 G0
ENDBRANCH  13  17
ENDBRANCH  11  13
ENDBRANCH  10  11
ENDBRANCH   1  10
TORSDOF 0
ENDMDL
