MODEL 1
REMARK VINA RESULT:    -3.831      0.000      0.000
REMARK INTER + INTRA:          -5.544
REMARK INTER:                  -5.174
REMARK INTRA:                  -0.370
REMARK UNBOUND:                -0.370
REMARK SMILES CCCCCCCC(=O)[O-]
REMARK SMILES IDX 5 1 6 2 7 3 8 4 9 5 10 6 4 7 3 8 2 9 1 10
REMARK H PARENT
REMARK Flexibility Score: inf
ROOT
ATOM      1  C   UNL     1       2.044  50.369   0.363  1.00  0.00     0.000 C 
ENDROOT
BRANCH   1   2
ATOM      2  C   UNL     1       2.025  51.456  -0.733  1.00  0.00     0.006 C 
BRANCH   2   3
ATOM      3  C   UNL     1       2.060  50.854  -2.145  1.00  0.00     0.053 C 
BRANCH   3   4
ATOM      4  C   UNL     1       3.146  51.487  -2.957  1.00  0.00     0.041 C 
ATOM      5  O   UNL     1       3.278  51.196  -4.175  1.00  0.00    -0.550 OA
ATOM      6  O   UNL     1       4.045  52.359  -2.356  1.00  0.00    -0.550 OA
ENDBRANCH   3   4
ENDBRANCH   2   3
ENDBRANCH   1   2
BRANCH   1   7
ATOM      7  C   UNL     1       3.055  50.646   1.489  1.00  0.00     0.000 C 
BRANCH   7   8
ATOM      8  C   UNL     1       3.823  51.962   1.291  1.00  0.00    -0.000 C 
BRANCH   8   9
ATOM      9  C   UNL     1       5.335  51.802   1.519  1.00  0.00    -0.003 C 
ATOM     10  C   UNL     1       6.172  52.533   0.469  1.00  0.00     0.004 C 
ENDBRANCH   8   9
ENDBRANCH   7   8
ENDBRANCH   1   7
TORSDOF 6
ENDMDL
MODEL 2
REMARK VINA RESULT:    -3.812     13.569     15.135
REMARK INTER + INTRA:          -5.519
REMARK INTER:                  -5.343
REMARK INTRA:                  -0.177
REMARK UNBOUND:                -0.370
REMARK SMILES CCCCCCCC(=O)[O-]
REMARK SMILES IDX 5 1 6 2 7 3 8 4 9 5 10 6 4 7 3 8 2 9 1 10
REMARK H PARENT
REMARK Flexibility Score: inf
ROOT
ATOM      1  C   UNL     1      12.187  44.008  -9.593  1.00  0.00     0.000 C 
ENDROOT
BRANCH   1   2
ATOM      2  C   UNL     1      13.603  43.642 -10.089  1.00  0.00     0.006 C 
BRANCH   2   3
ATOM      3  C   UNL     1      14.603  44.787  -9.880  1.00  0.00     0.053 C 
BRANCH   3   4
ATOM      4  C   UNL     1      14.279  45.936 -10.781  1.00  0.00     0.041 C 
ATOM      5  O   UNL     1      14.200  45.763 -12.026  1.00  0.00    -0.550 OA
ATOM      6  O   UNL     1      14.113  47.209 -10.252  1.00  0.00    -0.550 OA
ENDBRANCH   3   4
ENDBRANCH   2   3
ENDBRANCH   1   2
BRANCH   1   7
ATOM      7  C   UNL     1      11.064  43.234 -10.303  1.00  0.00     0.000 C 
BRANCH   7   8
ATOM      8  C   UNL     1       9.781  43.139  -9.462  1.00  0.00    -0.000 C 
BRANCH   8   9
ATOM      9  C   UNL     1       8.509  43.318 -10.306  1.00  0.00    -0.003 C 
ATOM     10  C   UNL     1       7.231  43.259  -9.470  1.00  0.00     0.004 C 
ENDBRANCH   8   9
ENDBRANCH   7   8
ENDBRANCH   1   7
TORSDOF 6
ENDMDL
MODEL 3
REMARK VINA RESULT:    -3.809      1.538      3.640
REMARK INTER + INTRA:          -5.515
REMARK INTER:                  -4.910
REMARK INTRA:                  -0.605
REMARK UNBOUND:                -0.370
REMARK SMILES CCCCCCCC(=O)[O-]
REMARK SMILES IDX 5 1 6 2 7 3 8 4 9 5 10 6 4 7 3 8 2 9 1 10
REMARK H PARENT
REMARK Flexibility Score: inf
ROOT
ATOM      1  C   UNL     1       3.854  52.093   1.421  1.00  0.00     0.000 C 
ENDROOT
BRANCH   1   2
ATOM      2  C   UNL     1       5.333  52.058   0.981  1.00  0.00     0.006 C 
BRANCH   2   3
ATOM      3  C   UNL     1       5.495  52.308  -0.525  1.00  0.00     0.053 C 
BRANCH   3   4
ATOM      4  C   UNL     1       5.150  53.725  -0.860  1.00  0.00     0.041 C 
ATOM      5  O   UNL     1       5.883  54.668  -0.459  1.00  0.00    -0.550 OA
ATOM      6  O   UNL     1       3.991  54.009  -1.572  1.00  0.00    -0.550 OA
ENDBRANCH   3   4
ENDBRANCH   2   3
ENDBRANCH   1   2
BRANCH   1   7
ATOM      7  C   UNL     1       3.276  50.708   1.758  1.00  0.00     0.000 C 
BRANCH   7   8
ATOM      8  C   UNL     1       2.234  50.231   0.734  1.00  0.00    -0.000 C 
BRANCH   8   9
ATOM      9  C   UNL     1       1.875  51.318  -0.292  1.00  0.00    -0.003 C 
ATOM     10  C   UNL     1       2.178  50.897  -1.730  1.00  0.00     0.004 C 
ENDBRANCH   8   9
ENDBRANCH   7   8
ENDBRANCH   1   7
TORSDOF 6
ENDMDL
MODEL 4
REMARK VINA RESULT:    -3.765      0.782      1.384
REMARK INTER + INTRA:          -5.455
REMARK INTER:                  -5.116
REMARK INTRA:                  -0.340
REMARK UNBOUND:                -0.370
REMARK SMILES CCCCCCCC(=O)[O-]
REMARK SMILES IDX 5 1 6 2 7 3 8 4 9 5 10 6 4 7 3 8 2 9 1 10
REMARK H PARENT
REMARK Flexibility Score: inf
ROOT
ATOM      1  C   UNL     1       3.004  50.641   1.333  1.00  0.00     0.000 C 
ENDROOT
BRANCH   1   2
ATOM      2  C   UNL     1       2.105  50.432   0.096  1.00  0.00     0.006 C 
BRANCH   2   3
ATOM      3  C   UNL     1       2.041  51.682  -0.791  1.00  0.00     0.053 C 
BRANCH   3   4
ATOM      4  C   UNL     1       2.674  51.414  -2.120  1.00  0.00     0.041 C 
ATOM      5  O   UNL     1       2.170  50.566  -2.903  1.00  0.00    -0.550 OA
ATOM      6  O   UNL     1       3.850  52.064  -2.474  1.00  0.00    -0.550 OA
ENDBRANCH   3   4
ENDBRANCH   2   3
ENDBRANCH   1   2
BRANCH   1   7
ATOM      7  C   UNL     1       3.733  51.996   1.344  1.00  0.00     0.000 C 
BRANCH   7   8
ATOM      8  C   UNL     1       5.259  51.851   1.463  1.00  0.00    -0.000 C 
BRANCH   8   9
ATOM      9  C   UNL     1       6.004  52.480   0.275  1.00  0.00    -0.003 C 
ATOM     10  C   UNL     1       7.510  52.588   0.512  1.00  0.00     0.004 C 
ENDBRANCH   8   9
ENDBRANCH   7   8
ENDBRANCH   1   7
TORSDOF 6
ENDMDL
MODEL 5
REMARK VINA RESULT:    -3.765      1.947      3.916
REMARK INTER + INTRA:          -5.455
REMARK INTER:                  -5.012
REMARK INTRA:                  -0.443
REMARK UNBOUND:                -0.370
REMARK SMILES CCCCCCCC(=O)[O-]
REMARK SMILES IDX 5 1 6 2 7 3 8 4 9 5 10 6 4 7 3 8 2 9 1 10
REMARK H PARENT
REMARK Flexibility Score: inf
ROOT
ATOM      1  C   UNL     1       3.926  52.111   1.497  1.00  0.00     0.000 C 
ENDROOT
BRANCH   1   2
ATOM      2  C   UNL     1       5.393  52.144   1.016  1.00  0.00     0.006 C 
BRANCH   2   3
ATOM      3  C   UNL     1       5.498  52.287  -0.509  1.00  0.00     0.053 C 
BRANCH   3   4
ATOM      4  C   UNL     1       6.919  52.522  -0.916  1.00  0.00     0.041 C 
ATOM      5  O   UNL     1       7.719  53.090  -0.126  1.00  0.00    -0.550 OA
ATOM      6  O   UNL     1       7.347  52.158  -2.186  1.00  0.00    -0.550 OA
ENDBRANCH   3   4
ENDBRANCH   2   3
ENDBRANCH   1   2
BRANCH   1   7
ATOM      7  C   UNL     1       3.382  50.690   1.721  1.00  0.00     0.000 C 
BRANCH   7   8
ATOM      8  C   UNL     1       2.224  50.338   0.774  1.00  0.00    -0.000 C 
BRANCH   8   9
ATOM      9  C   UNL     1       1.876  51.489  -0.185  1.00  0.00    -0.003 C 
ATOM     10  C   UNL     1       2.071  51.114  -1.654  1.00  0.00     0.004 C 
ENDBRANCH   8   9
ENDBRANCH   7   8
ENDBRANCH   1   7
TORSDOF 6
ENDMDL
MODEL 6
REMARK VINA RESULT:    -3.738      1.327      1.775
REMARK INTER + INTRA:          -5.419
REMARK INTER:                  -5.065
REMARK INTRA:                  -0.354
REMARK UNBOUND:                -0.370
REMARK SMILES CCCCCCCC(=O)[O-]
REMARK SMILES IDX 5 1 6 2 7 3 8 4 9 5 10 6 4 7 3 8 2 9 1 10
REMARK H PARENT
REMARK Flexibility Score: inf
ROOT
ATOM      1  C   UNL     1       1.875  51.258  -0.746  1.00  0.00     0.000 C 
ENDROOT
BRANCH   1   2
ATOM      2  C   UNL     1       2.207  50.795  -2.181  1.00  0.00     0.006 C 
BRANCH   2   3
ATOM      3  C   UNL     1       3.326  51.632  -2.814  1.00  0.00     0.053 C 
BRANCH   3   4
ATOM      4  C   UNL     1       3.107  51.770  -4.288  1.00  0.00     0.041 C 
ATOM      5  O   UNL     1       1.969  52.077  -4.733  1.00  0.00    -0.550 OA
ATOM      6  O   UNL     1       4.146  51.510  -5.173  1.00  0.00    -0.550 OA
ENDBRANCH   3   4
ENDBRANCH   2   3
ENDBRANCH   1   2
BRANCH   1   7
ATOM      7  C   UNL     1       2.176  50.200   0.330  1.00  0.00     0.000 C 
BRANCH   7   8
ATOM      8  C   UNL     1       3.058  50.740   1.467  1.00  0.00    -0.000 C 
BRANCH   8   9
ATOM      9  C   UNL     1       4.253  51.557   0.949  1.00  0.00    -0.003 C 
ATOM     10  C   UNL     1       4.208  53.019   1.393  1.00  0.00     0.004 C 
ENDBRANCH   8   9
ENDBRANCH   7   8
ENDBRANCH   1   7
TORSDOF 6
ENDMDL
MODEL 7
REMARK VINA RESULT:    -3.676      3.007      4.559
REMARK INTER + INTRA:          -5.335
REMARK INTER:                  -5.008
REMARK INTRA:                  -0.327
REMARK UNBOUND:                -0.370
REMARK SMILES CCCCCCCC(=O)[O-]
REMARK SMILES IDX 5 1 6 2 7 3 8 4 9 5 10 6 4 7 3 8 2 9 1 10
REMARK H PARENT
REMARK Flexibility Score: inf
ROOT
ATOM      1  C   UNL     1       4.289  52.002   0.885  1.00  0.00     0.000 C 
ENDROOT
BRANCH   1   2
ATOM      2  C   UNL     1       4.134  53.393   1.537  1.00  0.00     0.006 C 
BRANCH   2   3
ATOM      3  C   UNL     1       3.586  54.435   0.553  1.00  0.00     0.053 C 
BRANCH   3   4
ATOM      4  C   UNL     1       4.231  55.765   0.786  1.00  0.00     0.041 C 
ATOM      5  O   UNL     1       5.349  55.835   1.362  1.00  0.00    -0.550 OA
ATOM      6  O   UNL     1       3.574  56.931   0.413  1.00  0.00    -0.550 OA
ENDBRANCH   3   4
ENDBRANCH   2   3
ENDBRANCH   1   2
BRANCH   1   7
ATOM      7  C   UNL     1       3.421  50.913   1.537  1.00  0.00     0.000 C 
BRANCH   7   8
ATOM      8  C   UNL     1       2.383  50.319   0.572  1.00  0.00    -0.000 C 
BRANCH   8   9
ATOM      9  C   UNL     1       1.876  51.346  -0.452  1.00  0.00    -0.003 C 
ATOM     10  C   UNL     1       2.211  50.960  -1.893  1.00  0.00     0.004 C 
ENDBRANCH   8   9
ENDBRANCH   7   8
ENDBRANCH   1   7
TORSDOF 6
ENDMDL
MODEL 8
REMARK VINA RESULT:    -1.544      1.506      2.635
REMARK INTER + INTRA:          -2.455
REMARK INTER:                  -2.182
REMARK INTRA:                  -0.273
REMARK UNBOUND:                -0.370
REMARK SMILES CCCCCCCC(=O)[O-]
REMARK SMILES IDX 5 1 6 2 7 3 8 4 9 5 10 6 4 7 3 8 2 9 1 10
REMARK H PARENT
REMARK Flexibility Score: inf
ROOT
ATOM      1  C   UNL     1       2.075  50.882  -0.570  1.00  0.00     0.000 C 
ENDROOT
BRANCH   1   2
ATOM      2  C   UNL     1       1.875  51.700  -1.864  1.00  0.00     0.006 C 
BRANCH   2   3
ATOM      3  C   UNL     1       2.201  50.882  -3.121  1.00  0.00     0.053 C 
BRANCH   3   4
ATOM      4  C   UNL     1       3.446  51.397  -3.772  1.00  0.00     0.041 C 
ATOM      5  O   UNL     1       4.485  51.592  -3.087  1.00  0.00    -0.550 OA
ATOM      6  O   UNL     1       3.445  51.709  -5.126  1.00  0.00    -0.550 OA
ENDBRANCH   3   4
ENDBRANCH   2   3
ENDBRANCH   1   2
BRANCH   1   7
ATOM      7  C   UNL     1       3.262  51.359   0.284  1.00  0.00     0.000 C 
BRANCH   7   8
ATOM      8  C   UNL     1       3.279  50.729   1.686  1.00  0.00    -0.000 C 
BRANCH   8   9
ATOM      9  C   UNL     1       2.249  49.598   1.837  1.00  0.00    -0.003 C 
ATOM     10  C   UNL     1       2.296  48.935   3.213  1.00  0.00     0.004 C 
ENDBRANCH   8   9
ENDBRANCH   7   8
ENDBRANCH   1   7
TORSDOF 6
ENDMDL
