MODEL 1
REMARK VINA RESULT:    -5.834      0.000      0.000
REMARK INTER + INTRA:          -8.702
REMARK INTER:                  -8.222
REMARK INTRA:                  -0.481
REMARK UNBOUND:                -0.481
REMARK SMILES C[C@@H](CO)CCC(=O)[C@@H](C)[C@H]1C(=O)C[C@H]2[C@H]3CC=C4C[C@@H](O)CC[C@@]4(C)[C@H]3CC[C@]12C
REMARK SMILES IDX 6 1 5 2 2 3 1 4 3 5 4 6 7 8 8 9 9 10 10 11 11 12 12 13 30 14
REMARK SMILES IDX 13 15 14 16 15 17 29 18 31 19 16 20 28 21 27 22 17 23 25 24
REMARK SMILES IDX 18 25 19 26 24 27 26 28 20 29 23 30 21 31 22 32
REMARK H PARENT 4 7 22 33
REMARK Flexibility Score: inf
ROOT
ATOM      1  C   UNL     1      -6.579  31.955  58.357  1.00  0.00     0.076 C 
ENDROOT
BRANCH   1   2
ATOM      2  C   UNL     1      -6.096  31.687  59.791  1.00  0.00     0.013 C 
BRANCH   2   3
ATOM      3  C   UNL     1      -4.819  30.815  59.840  1.00  0.00     0.012 C 
ATOM      4  C   UNL     1      -4.728  29.959  58.568  1.00  0.00     0.010 C 
BRANCH   3   5
ATOM      5  C   UNL     1      -3.546  31.674  60.004  1.00  0.00     0.159 C 
BRANCH   5   6
ATOM      6  O   UNL     1      -2.645  31.442  58.954  1.00  0.00    -0.396 OA
ATOM      7  H   UNL     1      -3.109  31.700  58.116  1.00  0.00     0.210 HD
ENDBRANCH   5   6
ENDBRANCH   3   5
ENDBRANCH   2   3
ENDBRANCH   1   2
BRANCH   1   8
ATOM      8  C   UNL     1      -8.072  32.201  58.321  1.00  0.00     0.136 C 
ATOM      9  O   UNL     1      -8.705  31.981  59.344  1.00  0.00    -0.299 OA
BRANCH   8  10
ATOM     10  C   UNL     1      -8.785  32.844  57.137  1.00  0.00     0.064 C 
ATOM     11  C   UNL     1      -7.863  33.710  56.242  1.00  0.00     0.017 C 
BRANCH  10  12
ATOM     12  C   UNL     1      -9.713  31.835  56.366  1.00  0.00     0.072 C 
ATOM     13  C   UNL     1     -10.467  32.471  55.222  1.00  0.00     0.137 C 
ATOM     14  C   UNL     1      -9.129  30.537  55.699  1.00  0.00    -0.019 C 
ATOM     15  O   UNL     1     -10.958  33.588  55.273  1.00  0.00    -0.299 OA
ATOM     16  C   UNL     1     -10.643  31.562  54.051  1.00  0.00     0.080 C 
ATOM     17  C   UNL     1     -10.239  30.228  54.668  1.00  0.00     0.007 C 
ATOM     18  C   UNL     1      -9.037  29.306  56.629  1.00  0.00     0.008 C 
ATOM     19  C   UNL     1      -7.744  30.805  55.056  1.00  0.00     0.012 C 
ATOM     20  C   UNL     1     -10.024  28.996  53.765  1.00  0.00     0.001 C 
ATOM     21  C   UNL     1      -8.777  27.999  55.840  1.00  0.00     0.005 C 
ATOM     22  C   UNL     1      -9.765  27.725  54.651  1.00  0.00     0.003 C 
ATOM     23  C   UNL     1      -9.034  29.187  52.576  1.00  0.00     0.031 C 
ATOM     24  C   UNL     1      -9.334  26.506  53.751  1.00  0.00    -0.008 C 
ATOM     25  C   UNL     1      -7.947  28.145  52.488  1.00  0.00    -0.027 C 
ATOM     26  C   UNL     1      -8.091  26.893  52.962  1.00  0.00    -0.065 C 
ATOM     27  C   UNL     1      -9.024  25.244  54.616  1.00  0.00     0.014 C 
ATOM     28  C   UNL     1     -10.479  26.151  52.765  1.00  0.00     0.016 C 
ATOM     29  C   UNL     1      -6.947  25.908  52.835  1.00  0.00     0.063 C 
ATOM     30  C   UNL     1      -8.465  24.054  53.808  1.00  0.00     0.033 C 
ATOM     31  C   UNL     1      -7.483  24.472  52.682  1.00  0.00     0.118 C 
BRANCH  31  32
ATOM     32  O   UNL     1      -6.420  23.558  52.583  1.00  0.00    -0.393 OA
ATOM     33  H   UNL     1      -6.626  22.942  51.832  1.00  0.00     0.210 HD
ENDBRANCH  31  32
ENDBRANCH  10  12
ENDBRANCH   8  10
ENDBRANCH   1   8
TORSDOF 8
ENDMDL
MODEL 2
REMARK VINA RESULT:    -5.696      3.184      4.843
REMARK INTER + INTRA:          -8.507
REMARK INTER:                  -8.064
REMARK INTRA:                  -0.444
REMARK UNBOUND:                -0.481
REMARK SMILES C[C@@H](CO)CCC(=O)[C@@H](C)[C@H]1C(=O)C[C@H]2[C@H]3CC=C4C[C@@H](O)CC[C@@]4(C)[C@H]3CC[C@]12C
REMARK SMILES IDX 6 1 5 2 2 3 1 4 3 5 4 6 7 8 8 9 9 10 10 11 11 12 12 13 30 14
REMARK SMILES IDX 13 15 14 16 15 17 29 18 31 19 16 20 28 21 27 22 17 23 25 24
REMARK SMILES IDX 18 25 19 26 24 27 26 28 20 29 23 30 21 31 22 32
REMARK H PARENT 4 7 22 33
REMARK Flexibility Score: inf
ROOT
ATOM      1  C   UNL     1      -6.745  29.512  57.123  1.00  0.00     0.076 C 
ENDROOT
BRANCH   1   2
ATOM      2  C   UNL     1      -5.723  29.514  58.271  1.00  0.00     0.013 C 
BRANCH   2   3
ATOM      3  C   UNL     1      -5.902  30.714  59.231  1.00  0.00     0.012 C 
ATOM      4  C   UNL     1      -4.529  31.173  59.746  1.00  0.00     0.010 C 
BRANCH   3   5
ATOM      5  C   UNL     1      -6.640  31.887  58.548  1.00  0.00     0.159 C 
BRANCH   5   6
ATOM      6  O   UNL     1      -7.789  32.244  59.268  1.00  0.00    -0.396 OA
ATOM      7  H   UNL     1      -7.567  32.146  60.230  1.00  0.00     0.210 HD
ENDBRANCH   5   6
ENDBRANCH   3   5
ENDBRANCH   2   3
ENDBRANCH   1   2
BRANCH   1   8
ATOM      8  C   UNL     1      -7.560  28.236  57.120  1.00  0.00     0.136 C 
ATOM      9  O   UNL     1      -7.184  27.324  57.844  1.00  0.00    -0.299 OA
BRANCH   8  10
ATOM     10  C   UNL     1      -8.890  28.095  56.387  1.00  0.00     0.064 C 
ATOM     11  C   UNL     1      -9.629  29.438  56.164  1.00  0.00     0.017 C 
BRANCH  10  12
ATOM     12  C   UNL     1      -8.790  27.167  55.122  1.00  0.00     0.072 C 
ATOM     13  C   UNL     1     -10.126  26.892  54.475  1.00  0.00     0.137 C 
ATOM     14  C   UNL     1      -7.897  27.560  53.889  1.00  0.00    -0.019 C 
ATOM     15  O   UNL     1     -11.154  26.691  55.104  1.00  0.00    -0.299 OA
ATOM     16  C   UNL     1     -10.055  26.790  52.987  1.00  0.00     0.080 C 
ATOM     17  C   UNL     1      -8.547  26.693  52.786  1.00  0.00     0.007 C 
ATOM     18  C   UNL     1      -6.419  27.120  53.982  1.00  0.00     0.008 C 
ATOM     19  C   UNL     1      -7.968  29.082  53.603  1.00  0.00     0.012 C 
ATOM     20  C   UNL     1      -7.951  26.815  51.368  1.00  0.00     0.001 C 
ATOM     21  C   UNL     1      -5.691  27.238  52.620  1.00  0.00     0.005 C 
ATOM     22  C   UNL     1      -6.407  26.533  51.413  1.00  0.00     0.003 C 
ATOM     23  C   UNL     1      -8.369  28.080  50.559  1.00  0.00     0.031 C 
ATOM     24  C   UNL     1      -5.747  26.859  50.021  1.00  0.00    -0.008 C 
ATOM     25  C   UNL     1      -7.219  28.869  49.983  1.00  0.00    -0.027 C 
ATOM     26  C   UNL     1      -6.034  28.312  49.670  1.00  0.00    -0.065 C 
ATOM     27  C   UNL     1      -4.203  26.632  50.057  1.00  0.00     0.014 C 
ATOM     28  C   UNL     1      -6.349  25.938  48.926  1.00  0.00     0.016 C 
ATOM     29  C   UNL     1      -4.929  29.177  49.097  1.00  0.00     0.063 C 
ATOM     30  C   UNL     1      -3.477  27.062  48.766  1.00  0.00     0.033 C 
ATOM     31  C   UNL     1      -4.046  28.361  48.134  1.00  0.00     0.118 C 
BRANCH  31  32
ATOM     32  O   UNL     1      -3.011  29.160  47.619  1.00  0.00    -0.393 OA
ATOM     33  H   UNL     1      -2.171  28.888  48.071  1.00  0.00     0.210 HD
ENDBRANCH  31  32
ENDBRANCH  10  12
ENDBRANCH   8  10
ENDBRANCH   1   8
TORSDOF 8
ENDMDL
MODEL 3
REMARK VINA RESULT:    -5.596     12.219     14.595
REMARK INTER + INTRA:          -8.367
REMARK INTER:                  -7.266
REMARK INTRA:                  -1.101
REMARK UNBOUND:                -0.481
REMARK SMILES C[C@@H](CO)CCC(=O)[C@@H](C)[C@H]1C(=O)C[C@H]2[C@H]3CC=C4C[C@@H](O)CC[C@@]4(C)[C@H]3CC[C@]12C
REMARK SMILES IDX 6 1 5 2 2 3 1 4 3 5 4 6 7 8 8 9 9 10 10 11 11 12 12 13 30 14
REMARK SMILES IDX 13 15 14 16 15 17 29 18 31 19 16 20 28 21 27 22 17 23 25 24
REMARK SMILES IDX 18 25 19 26 24 27 26 28 20 29 23 30 21 31 22 32
REMARK H PARENT 4 7 22 33
REMARK Flexibility Score: inf
ROOT
ATOM      1  C   UNL     1      -7.070  36.148  44.010  1.00  0.00     0.076 C 
ENDROOT
BRANCH   1   2
ATOM      2  C   UNL     1      -7.209  35.013  45.037  1.00  0.00     0.013 C 
BRANCH   2   3
ATOM      3  C   UNL     1      -7.950  33.779  44.469  1.00  0.00     0.012 C 
ATOM      4  C   UNL     1      -7.777  33.727  42.944  1.00  0.00     0.010 C 
BRANCH   3   5
ATOM      5  C   UNL     1      -7.450  32.466  45.112  1.00  0.00     0.159 C 
BRANCH   5   6
ATOM      6  O   UNL     1      -7.112  31.523  44.131  1.00  0.00    -0.396 OA
ATOM      7  H   UNL     1      -6.122  31.522  44.061  1.00  0.00     0.210 HD
ENDBRANCH   5   6
ENDBRANCH   3   5
ENDBRANCH   2   3
ENDBRANCH   1   2
BRANCH   1   8
ATOM      8  C   UNL     1      -5.675  36.734  44.030  1.00  0.00     0.136 C 
ATOM      9  O   UNL     1      -5.138  36.879  45.120  1.00  0.00    -0.299 OA
BRANCH   8  10
ATOM     10  C   UNL     1      -4.863  37.003  42.767  1.00  0.00     0.064 C 
ATOM     11  C   UNL     1      -3.732  38.044  42.957  1.00  0.00     0.017 C 
BRANCH  10  12
ATOM     12  C   UNL     1      -4.441  35.682  42.025  1.00  0.00     0.072 C 
ATOM     13  C   UNL     1      -3.735  35.934  40.714  1.00  0.00     0.137 C 
ATOM     14  C   UNL     1      -3.503  34.624  42.711  1.00  0.00    -0.019 C 
ATOM     15  O   UNL     1      -4.059  36.811  39.927  1.00  0.00    -0.299 OA
ATOM     16  C   UNL     1      -2.661  34.940  40.419  1.00  0.00     0.080 C 
ATOM     17  C   UNL     1      -2.968  33.877  41.468  1.00  0.00     0.007 C 
ATOM     18  C   UNL     1      -4.226  33.572  43.580  1.00  0.00     0.008 C 
ATOM     19  C   UNL     1      -2.392  35.312  43.546  1.00  0.00     0.012 C 
ATOM     20  C   UNL     1      -1.961  32.736  41.725  1.00  0.00     0.001 C 
ATOM     21  C   UNL     1      -3.300  32.385  43.946  1.00  0.00     0.005 C 
ATOM     22  C   UNL     1      -2.575  31.701  42.733  1.00  0.00     0.003 C 
ATOM     23  C   UNL     1      -0.498  33.175  42.036  1.00  0.00     0.031 C 
ATOM     24  C   UNL     1      -1.489  30.648  43.171  1.00  0.00    -0.008 C 
ATOM     25  C   UNL     1       0.087  32.574  43.289  1.00  0.00    -0.027 C 
ATOM     26  C   UNL     1      -0.309  31.386  43.786  1.00  0.00    -0.065 C 
ATOM     27  C   UNL     1      -2.065  29.637  44.211  1.00  0.00     0.014 C 
ATOM     28  C   UNL     1      -1.004  29.848  41.931  1.00  0.00     0.016 C 
ATOM     29  C   UNL     1       0.330  30.854  45.053  1.00  0.00     0.063 C 
ATOM     30  C   UNL     1      -1.015  28.662  44.783  1.00  0.00     0.033 C 
ATOM     31  C   UNL     1       0.370  29.315  45.034  1.00  0.00     0.118 C 
BRANCH  31  32
ATOM     32  O   UNL     1       0.947  28.823  46.218  1.00  0.00    -0.393 OA
ATOM     33  H   UNL     1       1.661  28.184  45.959  1.00  0.00     0.210 HD
ENDBRANCH  31  32
ENDBRANCH  10  12
ENDBRANCH   8  10
ENDBRANCH   1   8
TORSDOF 8
ENDMDL
MODEL 4
REMARK VINA RESULT:    -5.556      9.903     13.494
REMARK INTER + INTRA:          -8.310
REMARK INTER:                  -7.097
REMARK INTRA:                  -1.213
REMARK UNBOUND:                -0.481
REMARK SMILES C[C@@H](CO)CCC(=O)[C@@H](C)[C@H]1C(=O)C[C@H]2[C@H]3CC=C4C[C@@H](O)CC[C@@]4(C)[C@H]3CC[C@]12C
REMARK SMILES IDX 6 1 5 2 2 3 1 4 3 5 4 6 7 8 8 9 9 10 10 11 11 12 12 13 30 14
REMARK SMILES IDX 13 15 14 16 15 17 29 18 31 19 16 20 28 21 27 22 17 23 25 24
REMARK SMILES IDX 18 25 19 26 24 27 26 28 20 29 23 30 21 31 22 32
REMARK H PARENT 4 7 22 33
REMARK Flexibility Score: inf
ROOT
ATOM      1  C   UNL     1     -11.802  27.563  42.924  1.00  0.00     0.076 C 
ENDROOT
BRANCH   1   2
ATOM      2  C   UNL     1     -11.321  28.035  41.543  1.00  0.00     0.013 C 
BRANCH   2   3
ATOM      3  C   UNL     1      -9.841  28.485  41.544  1.00  0.00     0.012 C 
ATOM      4  C   UNL     1      -8.946  27.319  41.988  1.00  0.00     0.010 C 
BRANCH   3   5
ATOM      5  C   UNL     1      -9.401  29.004  40.157  1.00  0.00     0.159 C 
BRANCH   5   6
ATOM      6  O   UNL     1      -9.181  30.389  40.186  1.00  0.00    -0.396 OA
ATOM      7  H   UNL     1      -8.904  30.655  39.271  1.00  0.00     0.210 HD
ENDBRANCH   5   6
ENDBRANCH   3   5
ENDBRANCH   2   3
ENDBRANCH   1   2
BRANCH   1   8
ATOM      8  C   UNL     1     -12.666  28.613  43.590  1.00  0.00     0.136 C 
ATOM      9  O   UNL     1     -13.524  29.154  42.907  1.00  0.00    -0.299 OA
BRANCH   8  10
ATOM     10  C   UNL     1     -12.617  28.910  45.085  1.00  0.00     0.064 C 
ATOM     11  C   UNL     1     -12.076  27.739  45.942  1.00  0.00     0.017 C 
BRANCH  10  12
ATOM     12  C   UNL     1     -11.991  30.318  45.403  1.00  0.00     0.072 C 
ATOM     13  C   UNL     1     -12.010  30.662  46.873  1.00  0.00     0.137 C 
ATOM     14  C   UNL     1     -10.512  30.664  44.998  1.00  0.00    -0.019 C 
ATOM     15  O   UNL     1     -12.944  30.403  47.617  1.00  0.00    -0.299 OA
ATOM     16  C   UNL     1     -10.816  31.442  47.315  1.00  0.00     0.080 C 
ATOM     17  C   UNL     1     -10.225  31.835  45.966  1.00  0.00     0.007 C 
ATOM     18  C   UNL     1     -10.336  31.221  43.568  1.00  0.00     0.008 C 
ATOM     19  C   UNL     1      -9.572  29.448  45.201  1.00  0.00     0.012 C 
ATOM     20  C   UNL     1      -8.816  32.462  45.897  1.00  0.00     0.001 C 
ATOM     21  C   UNL     1      -8.934  31.844  43.356  1.00  0.00     0.005 C 
ATOM     22  C   UNL     1      -8.505  32.911  44.425  1.00  0.00     0.003 C 
ATOM     23  C   UNL     1      -7.678  31.660  46.599  1.00  0.00     0.031 C 
ATOM     24  C   UNL     1      -7.000  33.356  44.292  1.00  0.00    -0.008 C 
ATOM     25  C   UNL     1      -6.469  31.397  45.737  1.00  0.00    -0.027 C 
ATOM     26  C   UNL     1      -6.107  32.199  44.718  1.00  0.00    -0.065 C 
ATOM     27  C   UNL     1      -6.655  33.761  42.825  1.00  0.00     0.014 C 
ATOM     28  C   UNL     1      -6.730  34.578  45.211  1.00  0.00     0.016 C 
ATOM     29  C   UNL     1      -4.878  31.861  43.899  1.00  0.00     0.063 C 
ATOM     30  C   UNL     1      -5.163  34.077  42.597  1.00  0.00     0.033 C 
ATOM     31  C   UNL     1      -4.202  33.144  43.380  1.00  0.00     0.118 C 
BRANCH  31  32
ATOM     32  O   UNL     1      -3.072  32.827  42.606  1.00  0.00    -0.393 OA
ATOM     33  H   UNL     1      -2.326  32.634  43.232  1.00  0.00     0.210 HD
ENDBRANCH  31  32
ENDBRANCH  10  12
ENDBRANCH   8  10
ENDBRANCH   1   8
TORSDOF 8
ENDMDL
MODEL 5
REMARK VINA RESULT:    -5.513     12.408     14.635
REMARK INTER + INTRA:          -8.249
REMARK INTER:                  -7.492
REMARK INTRA:                  -0.757
REMARK UNBOUND:                -0.481
REMARK SMILES C[C@@H](CO)CCC(=O)[C@@H](C)[C@H]1C(=O)C[C@H]2[C@H]3CC=C4C[C@@H](O)CC[C@@]4(C)[C@H]3CC[C@]12C
REMARK SMILES IDX 6 1 5 2 2 3 1 4 3 5 4 6 7 8 8 9 9 10 10 11 11 12 12 13 30 14
REMARK SMILES IDX 13 15 14 16 15 17 29 18 31 19 16 20 28 21 27 22 17 23 25 24
REMARK SMILES IDX 18 25 19 26 24 27 26 28 20 29 23 30 21 31 22 32
REMARK H PARENT 4 7 22 33
REMARK Flexibility Score: inf
ROOT
ATOM      1  C   UNL     1      -6.801  36.752  44.118  1.00  0.00     0.076 C 
ENDROOT
BRANCH   1   2
ATOM      2  C   UNL     1      -7.746  37.964  44.095  1.00  0.00     0.013 C 
BRANCH   2   3
ATOM      3  C   UNL     1      -8.380  38.256  45.476  1.00  0.00     0.012 C 
ATOM      4  C   UNL     1      -8.114  37.080  46.427  1.00  0.00     0.010 C 
BRANCH   3   5
ATOM      5  C   UNL     1      -7.842  39.572  46.083  1.00  0.00     0.159 C 
BRANCH   5   6
ATOM      6  O   UNL     1      -6.504  39.432  46.479  1.00  0.00    -0.396 OA
ATOM      7  H   UNL     1      -6.490  38.769  47.217  1.00  0.00     0.210 HD
ENDBRANCH   5   6
ENDBRANCH   3   5
ENDBRANCH   2   3
ENDBRANCH   1   2
BRANCH   1   8
ATOM      8  C   UNL     1      -5.353  37.187  44.056  1.00  0.00     0.136 C 
ATOM      9  O   UNL     1      -4.760  37.326  45.117  1.00  0.00    -0.299 OA
BRANCH   8  10
ATOM     10  C   UNL     1      -4.572  37.308  42.753  1.00  0.00     0.064 C 
ATOM     11  C   UNL     1      -3.326  38.224  42.849  1.00  0.00     0.017 C 
BRANCH  10  12
ATOM     12  C   UNL     1      -4.329  35.918  42.059  1.00  0.00     0.072 C 
ATOM     13  C   UNL     1      -3.708  36.034  40.688  1.00  0.00     0.137 C 
ATOM     14  C   UNL     1      -3.438  34.813  42.736  1.00  0.00    -0.019 C 
ATOM     15  O   UNL     1      -4.012  36.896  39.878  1.00  0.00    -0.299 OA
ATOM     16  C   UNL     1      -2.752  34.930  40.374  1.00  0.00     0.080 C 
ATOM     17  C   UNL     1      -3.071  33.956  41.503  1.00  0.00     0.007 C 
ATOM     18  C   UNL     1      -4.183  33.879  43.716  1.00  0.00     0.008 C 
ATOM     19  C   UNL     1      -2.209  35.435  43.446  1.00  0.00     0.012 C 
ATOM     20  C   UNL     1      -2.153  32.741  41.752  1.00  0.00     0.001 C 
ATOM     21  C   UNL     1      -3.341  32.631  44.081  1.00  0.00     0.005 C 
ATOM     22  C   UNL     1      -2.777  31.821  42.861  1.00  0.00     0.003 C 
ATOM     23  C   UNL     1      -0.637  33.056  41.929  1.00  0.00     0.031 C 
ATOM     24  C   UNL     1      -1.759  30.694  43.278  1.00  0.00    -0.008 C 
ATOM     25  C   UNL     1      -0.012  32.468  43.169  1.00  0.00    -0.027 C 
ATOM     26  C   UNL     1      -0.473  31.349  43.762  1.00  0.00    -0.065 C 
ATOM     27  C   UNL     1      -2.339  29.796  44.415  1.00  0.00     0.014 C 
ATOM     28  C   UNL     1      -1.446  29.790  42.056  1.00  0.00     0.016 C 
ATOM     29  C   UNL     1       0.213  30.825  45.007  1.00  0.00     0.063 C 
ATOM     30  C   UNL     1      -1.340  28.758  44.965  1.00  0.00     0.033 C 
ATOM     31  C   UNL     1       0.114  29.290  45.076  1.00  0.00     0.118 C 
BRANCH  31  32
ATOM     32  O   UNL     1       0.734  28.808  46.241  1.00  0.00    -0.393 OA
ATOM     33  H   UNL     1       1.646  28.506  45.990  1.00  0.00     0.210 HD
ENDBRANCH  31  32
ENDBRANCH  10  12
ENDBRANCH   8  10
ENDBRANCH   1   8
TORSDOF 8
ENDMDL
MODEL 6
REMARK VINA RESULT:    -5.458     11.951     14.373
REMARK INTER + INTRA:          -8.172
REMARK INTER:                  -7.039
REMARK INTRA:                  -1.133
REMARK UNBOUND:                -0.481
REMARK SMILES C[C@@H](CO)CCC(=O)[C@@H](C)[C@H]1C(=O)C[C@H]2[C@H]3CC=C4C[C@@H](O)CC[C@@]4(C)[C@H]3CC[C@]12C
REMARK SMILES IDX 6 1 5 2 2 3 1 4 3 5 4 6 7 8 8 9 9 10 10 11 11 12 12 13 30 14
REMARK SMILES IDX 13 15 14 16 15 17 29 18 31 19 16 20 28 21 27 22 17 23 25 24
REMARK SMILES IDX 18 25 19 26 24 27 26 28 20 29 23 30 21 31 22 32
REMARK H PARENT 4 7 22 33
REMARK Flexibility Score: inf
ROOT
ATOM      1  C   UNL     1      -5.036  36.478  42.846  1.00  0.00     0.076 C 
ENDROOT
BRANCH   1   2
ATOM      2  C   UNL     1      -3.588  36.291  42.364  1.00  0.00     0.013 C 
BRANCH   2   3
ATOM      3  C   UNL     1      -3.499  35.587  40.989  1.00  0.00     0.012 C 
ATOM      4  C   UNL     1      -3.867  36.579  39.875  1.00  0.00     0.010 C 
BRANCH   3   5
ATOM      5  C   UNL     1      -2.094  34.995  40.740  1.00  0.00     0.159 C 
BRANCH   5   6
ATOM      6  O   UNL     1      -2.156  33.601  40.594  1.00  0.00    -0.396 OA
ATOM      7  H   UNL     1      -1.227  33.286  40.446  1.00  0.00     0.210 HD
ENDBRANCH   5   6
ENDBRANCH   3   5
ENDBRANCH   2   3
ENDBRANCH   1   2
BRANCH   1   8
ATOM      8  C   UNL     1      -5.200  36.009  44.276  1.00  0.00     0.136 C 
ATOM      9  O   UNL     1      -4.725  36.712  45.158  1.00  0.00    -0.299 OA
BRANCH   8  10
ATOM     10  C   UNL     1      -6.047  34.804  44.669  1.00  0.00     0.064 C 
ATOM     11  C   UNL     1      -7.013  34.325  43.556  1.00  0.00     0.017 C 
BRANCH  10  12
ATOM     12  C   UNL     1      -5.205  33.670  45.359  1.00  0.00     0.072 C 
ATOM     13  C   UNL     1      -6.043  32.505  45.830  1.00  0.00     0.137 C 
ATOM     14  C   UNL     1      -4.029  32.950  44.603  1.00  0.00    -0.019 C 
ATOM     15  O   UNL     1      -7.145  32.628  46.344  1.00  0.00    -0.299 OA
ATOM     16  C   UNL     1      -5.354  31.187  45.698  1.00  0.00     0.080 C 
ATOM     17  C   UNL     1      -3.926  31.645  45.425  1.00  0.00     0.007 C 
ATOM     18  C   UNL     1      -2.655  33.648  44.710  1.00  0.00     0.008 C 
ATOM     19  C   UNL     1      -4.377  32.717  43.111  1.00  0.00     0.012 C 
ATOM     20  C   UNL     1      -2.864  30.621  44.970  1.00  0.00     0.001 C 
ATOM     21  C   UNL     1      -1.500  32.732  44.238  1.00  0.00     0.005 C 
ATOM     22  C   UNL     1      -1.455  31.311  44.904  1.00  0.00     0.003 C 
ATOM     23  C   UNL     1      -3.238  29.758  43.728  1.00  0.00     0.031 C 
ATOM     24  C   UNL     1      -0.401  30.346  44.241  1.00  0.00    -0.008 C 
ATOM     25  C   UNL     1      -2.206  29.756  42.628  1.00  0.00    -0.027 C 
ATOM     26  C   UNL     1      -0.894  29.958  42.854  1.00  0.00    -0.065 C 
ATOM     27  C   UNL     1       0.997  31.028  44.120  1.00  0.00     0.014 C 
ATOM     28  C   UNL     1      -0.245  29.066  45.106  1.00  0.00     0.016 C 
ATOM     29  C   UNL     1       0.078  29.943  41.691  1.00  0.00     0.063 C 
ATOM     30  C   UNL     1       2.041  30.187  43.357  1.00  0.00     0.033 C 
ATOM     31  C   UNL     1       1.454  29.420  42.142  1.00  0.00     0.118 C 
BRANCH  31  32
ATOM     32  O   UNL     1       2.358  29.424  41.066  1.00  0.00    -0.393 OA
ATOM     33  H   UNL     1       2.916  28.607  41.142  1.00  0.00     0.210 HD
ENDBRANCH  31  32
ENDBRANCH  10  12
ENDBRANCH   8  10
ENDBRANCH   1   8
TORSDOF 8
ENDMDL
MODEL 7
REMARK VINA RESULT:    -5.362     12.880     16.208
REMARK INTER + INTRA:          -8.037
REMARK INTER:                  -7.463
REMARK INTRA:                  -0.574
REMARK UNBOUND:                -0.481
REMARK SMILES C[C@@H](CO)CCC(=O)[C@@H](C)[C@H]1C(=O)C[C@H]2[C@H]3CC=C4C[C@@H](O)CC[C@@]4(C)[C@H]3CC[C@]12C
REMARK SMILES IDX 6 1 5 2 2 3 1 4 3 5 4 6 7 8 8 9 9 10 10 11 11 12 12 13 30 14
REMARK SMILES IDX 13 15 14 16 15 17 29 18 31 19 16 20 28 21 27 22 17 23 25 24
REMARK SMILES IDX 18 25 19 26 24 27 26 28 20 29 23 30 21 31 22 32
REMARK H PARENT 4 7 22 33
REMARK Flexibility Score: inf
ROOT
ATOM      1  C   UNL     1       2.173  29.357  41.831  1.00  0.00     0.076 C 
ENDROOT
BRANCH   1   2
ATOM      2  C   UNL     1       1.023  29.637  40.850  1.00  0.00     0.013 C 
BRANCH   2   3
ATOM      3  C   UNL     1       0.116  28.404  40.623  1.00  0.00     0.012 C 
ATOM      4  C   UNL     1       0.970  27.127  40.621  1.00  0.00     0.010 C 
BRANCH   3   5
ATOM      5  C   UNL     1      -0.994  28.307  41.693  1.00  0.00     0.159 C 
BRANCH   5   6
ATOM      6  O   UNL     1      -2.048  29.186  41.403  1.00  0.00    -0.396 OA
ATOM      7  H   UNL     1      -1.680  30.106  41.461  1.00  0.00     0.210 HD
ENDBRANCH   5   6
ENDBRANCH   3   5
ENDBRANCH   2   3
ENDBRANCH   1   2
BRANCH   1   8
ATOM      8  C   UNL     1       2.102  30.277  43.031  1.00  0.00     0.136 C 
ATOM      9  O   UNL     1       2.675  31.355  42.951  1.00  0.00    -0.299 OA
BRANCH   8  10
ATOM     10  C   UNL     1       1.236  29.991  44.253  1.00  0.00     0.064 C 
ATOM     11  C   UNL     1       1.827  30.527  45.581  1.00  0.00     0.017 C 
BRANCH  10  12
ATOM     12  C   UNL     1      -0.282  30.324  44.012  1.00  0.00     0.072 C 
ATOM     13  C   UNL     1      -1.184  29.835  45.120  1.00  0.00     0.137 C 
ATOM     14  C   UNL     1      -0.771  31.804  43.813  1.00  0.00    -0.019 C 
ATOM     15  O   UNL     1      -1.040  28.762  45.687  1.00  0.00    -0.299 OA
ATOM     16  C   UNL     1      -2.335  30.746  45.393  1.00  0.00     0.080 C 
ATOM     17  C   UNL     1      -2.268  31.655  44.171  1.00  0.00     0.007 C 
ATOM     18  C   UNL     1      -0.716  32.324  42.359  1.00  0.00     0.008 C 
ATOM     19  C   UNL     1      -0.007  32.782  44.742  1.00  0.00     0.012 C 
ATOM     20  C   UNL     1      -3.125  32.937  44.118  1.00  0.00     0.001 C 
ATOM     21  C   UNL     1      -1.510  33.642  42.183  1.00  0.00     0.005 C 
ATOM     22  C   UNL     1      -2.990  33.609  42.706  1.00  0.00     0.003 C 
ATOM     23  C   UNL     1      -2.978  33.906  45.330  1.00  0.00     0.031 C 
ATOM     24  C   UNL     1      -3.683  35.023  42.701  1.00  0.00    -0.008 C 
ATOM     25  C   UNL     1      -2.678  35.337  44.959  1.00  0.00    -0.027 C 
ATOM     26  C   UNL     1      -3.052  35.884  43.786  1.00  0.00    -0.065 C 
ATOM     27  C   UNL     1      -3.519  35.732  41.320  1.00  0.00     0.014 C 
ATOM     28  C   UNL     1      -5.200  34.865  42.990  1.00  0.00     0.016 C 
ATOM     29  C   UNL     1      -2.709  37.330  43.491  1.00  0.00     0.063 C 
ATOM     30  C   UNL     1      -4.058  37.177  41.290  1.00  0.00     0.033 C 
ATOM     31  C   UNL     1      -3.786  37.970  42.595  1.00  0.00     0.118 C 
BRANCH  31  32
ATOM     32  O   UNL     1      -3.456  39.306  42.308  1.00  0.00    -0.393 OA
ATOM     33  H   UNL     1      -3.884  39.874  43.000  1.00  0.00     0.210 HD
ENDBRANCH  31  32
ENDBRANCH  10  12
ENDBRANCH   8  10
ENDBRANCH   1   8
TORSDOF 8
ENDMDL
MODEL 8
REMARK VINA RESULT:    -5.347     10.627     13.966
REMARK INTER + INTRA:          -8.016
REMARK INTER:                  -7.041
REMARK INTRA:                  -0.975
REMARK UNBOUND:                -0.481
REMARK SMILES C[C@@H](CO)CCC(=O)[C@@H](C)[C@H]1C(=O)C[C@H]2[C@H]3CC=C4C[C@@H](O)CC[C@@]4(C)[C@H]3CC[C@]12C
REMARK SMILES IDX 6 1 5 2 2 3 1 4 3 5 4 6 7 8 8 9 9 10 10 11 11 12 12 13 30 14
REMARK SMILES IDX 13 15 14 16 15 17 29 18 31 19 16 20 28 21 27 22 17 23 25 24
REMARK SMILES IDX 18 25 19 26 24 27 26 28 20 29 23 30 21 31 22 32
REMARK H PARENT 4 7 22 33
REMARK Flexibility Score: inf
ROOT
ATOM      1  C   UNL     1       0.918  31.357  44.199  1.00  0.00     0.076 C 
ENDROOT
BRANCH   1   2
ATOM      2  C   UNL     1       1.386  30.008  43.630  1.00  0.00     0.013 C 
BRANCH   2   3
ATOM      3  C   UNL     1       1.054  29.843  42.128  1.00  0.00     0.012 C 
ATOM      4  C   UNL     1       2.292  29.330  41.378  1.00  0.00     0.010 C 
BRANCH   3   5
ATOM      5  C   UNL     1      -0.142  28.890  41.909  1.00  0.00     0.159 C 
BRANCH   5   6
ATOM      6  O   UNL     1      -0.239  27.958  42.953  1.00  0.00    -0.396 OA
ATOM      7  H   UNL     1      -1.124  28.097  43.380  1.00  0.00     0.210 HD
ENDBRANCH   5   6
ENDBRANCH   3   5
ENDBRANCH   2   3
ENDBRANCH   1   2
BRANCH   1   8
ATOM      8  C   UNL     1       0.126  31.166  45.476  1.00  0.00     0.136 C 
ATOM      9  O   UNL     1       0.254  32.013  46.350  1.00  0.00    -0.299 OA
BRANCH   8  10
ATOM     10  C   UNL     1      -0.919  30.072  45.655  1.00  0.00     0.064 C 
ATOM     11  C   UNL     1      -1.178  29.687  47.133  1.00  0.00     0.017 C 
BRANCH  10  12
ATOM     12  C   UNL     1      -2.209  30.317  44.790  1.00  0.00     0.072 C 
ATOM     13  C   UNL     1      -3.127  29.119  44.732  1.00  0.00     0.137 C 
ATOM     14  C   UNL     1      -3.207  31.484  45.125  1.00  0.00    -0.019 C 
ATOM     15  O   UNL     1      -2.731  27.967  44.638  1.00  0.00    -0.299 OA
ATOM     16  C   UNL     1      -4.575  29.482  44.700  1.00  0.00     0.080 C 
ATOM     17  C   UNL     1      -4.482  30.976  44.413  1.00  0.00     0.007 C 
ATOM     18  C   UNL     1      -2.860  32.848  44.486  1.00  0.00     0.008 C 
ATOM     19  C   UNL     1      -3.380  31.658  46.656  1.00  0.00     0.012 C 
ATOM     20  C   UNL     1      -5.740  31.861  44.529  1.00  0.00     0.001 C 
ATOM     21  C   UNL     1      -4.038  33.849  44.578  1.00  0.00     0.005 C 
ATOM     22  C   UNL     1      -5.414  33.317  44.040  1.00  0.00     0.003 C 
ATOM     23  C   UNL     1      -6.513  31.774  45.880  1.00  0.00     0.031 C 
ATOM     24  C   UNL     1      -6.619  34.284  44.348  1.00  0.00    -0.008 C 
ATOM     25  C   UNL     1      -6.786  33.104  46.537  1.00  0.00    -0.027 C 
ATOM     26  C   UNL     1      -6.903  34.253  45.843  1.00  0.00    -0.065 C 
ATOM     27  C   UNL     1      -6.297  35.748  43.914  1.00  0.00     0.014 C 
ATOM     28  C   UNL     1      -7.880  33.814  43.576  1.00  0.00     0.016 C 
ATOM     29  C   UNL     1      -7.177  35.548  46.581  1.00  0.00     0.063 C 
ATOM     30  C   UNL     1      -7.381  36.771  44.312  1.00  0.00     0.033 C 
ATOM     31  C   UNL     1      -8.008  36.505  45.706  1.00  0.00     0.118 C 
BRANCH  31  32
ATOM     32  O   UNL     1      -8.244  37.713  46.386  1.00  0.00    -0.393 OA
ATOM     33  H   UNL     1      -7.434  38.276  46.283  1.00  0.00     0.210 HD
ENDBRANCH  31  32
ENDBRANCH  10  12
ENDBRANCH   8  10
ENDBRANCH   1   8
TORSDOF 8
ENDMDL
MODEL 9
REMARK VINA RESULT:    -5.337     12.688     14.681
REMARK INTER + INTRA:          -8.002
REMARK INTER:                  -7.603
REMARK INTRA:                  -0.399
REMARK UNBOUND:                -0.481
REMARK SMILES C[C@@H](CO)CCC(=O)[C@@H](C)[C@H]1C(=O)C[C@H]2[C@H]3CC=C4C[C@@H](O)CC[C@@]4(C)[C@H]3CC[C@]12C
REMARK SMILES IDX 6 1 5 2 2 3 1 4 3 5 4 6 7 8 8 9 9 10 10 11 11 12 12 13 30 14
REMARK SMILES IDX 13 15 14 16 15 17 29 18 31 19 16 20 28 21 27 22 17 23 25 24
REMARK SMILES IDX 18 25 19 26 24 27 26 28 20 29 23 30 21 31 22 32
REMARK H PARENT 4 7 22 33
REMARK Flexibility Score: inf
ROOT
ATOM      1  C   UNL     1      -6.837  38.499  43.606  1.00  0.00     0.076 C 
ENDROOT
BRANCH   1   2
ATOM      2  C   UNL     1      -7.051  39.755  44.465  1.00  0.00     0.013 C 
BRANCH   2   3
ATOM      3  C   UNL     1      -7.943  39.492  45.701  1.00  0.00     0.012 C 
ATOM      4  C   UNL     1      -8.624  38.122  45.565  1.00  0.00     0.010 C 
BRANCH   3   5
ATOM      5  C   UNL     1      -7.134  39.563  47.016  1.00  0.00     0.159 C 
BRANCH   5   6
ATOM      6  O   UNL     1      -5.796  39.899  46.764  1.00  0.00    -0.396 OA
ATOM      7  H   UNL     1      -5.284  39.049  46.745  1.00  0.00     0.210 HD
ENDBRANCH   5   6
ENDBRANCH   3   5
ENDBRANCH   2   3
ENDBRANCH   1   2
BRANCH   1   8
ATOM      8  C   UNL     1      -5.385  38.073  43.614  1.00  0.00     0.136 C 
ATOM      9  O   UNL     1      -4.616  38.702  44.328  1.00  0.00    -0.299 OA
BRANCH   8  10
ATOM     10  C   UNL     1      -4.876  36.822  42.906  1.00  0.00     0.064 C 
ATOM     11  C   UNL     1      -4.019  37.115  41.650  1.00  0.00     0.017 C 
BRANCH  10  12
ATOM     12  C   UNL     1      -4.268  35.766  43.901  1.00  0.00     0.072 C 
ATOM     13  C   UNL     1      -5.313  34.909  44.574  1.00  0.00     0.137 C 
ATOM     14  C   UNL     1      -3.221  34.698  43.418  1.00  0.00    -0.019 C 
ATOM     15  O   UNL     1      -6.388  35.335  44.969  1.00  0.00    -0.299 OA
ATOM     16  C   UNL     1      -4.867  33.502  44.805  1.00  0.00     0.080 C 
ATOM     17  C   UNL     1      -3.374  33.634  44.529  1.00  0.00     0.007 C 
ATOM     18  C   UNL     1      -1.748  35.162  43.451  1.00  0.00     0.008 C 
ATOM     19  C   UNL     1      -3.567  34.168  42.002  1.00  0.00     0.012 C 
ATOM     20  C   UNL     1      -2.500  32.368  44.402  1.00  0.00     0.001 C 
ATOM     21  C   UNL     1      -0.762  33.978  43.288  1.00  0.00     0.005 C 
ATOM     22  C   UNL     1      -0.990  32.775  44.271  1.00  0.00     0.003 C 
ATOM     23  C   UNL     1      -2.990  31.302  43.376  1.00  0.00     0.031 C 
ATOM     24  C   UNL     1      -0.108  31.516  43.929  1.00  0.00    -0.008 C 
ATOM     25  C   UNL     1      -1.947  30.860  42.380  1.00  0.00    -0.027 C 
ATOM     26  C   UNL     1      -0.626  30.889  42.642  1.00  0.00    -0.065 C 
ATOM     27  C   UNL     1       1.392  31.905  43.746  1.00  0.00     0.014 C 
ATOM     28  C   UNL     1      -0.205  30.478  45.080  1.00  0.00     0.016 C 
ATOM     29  C   UNL     1       0.357  30.428  41.584  1.00  0.00     0.063 C 
ATOM     30  C   UNL     1       2.288  30.740  43.276  1.00  0.00     0.033 C 
ATOM     31  C   UNL     1       1.606  29.809  42.238  1.00  0.00     0.118 C 
BRANCH  31  32
ATOM     32  O   UNL     1       2.524  29.399  41.256  1.00  0.00    -0.393 OA
ATOM     33  H   UNL     1       2.073  29.480  40.375  1.00  0.00     0.210 HD
ENDBRANCH  31  32
ENDBRANCH  10  12
ENDBRANCH   8  10
ENDBRANCH   1   8
TORSDOF 8
ENDMDL
