MODEL 1
REMARK VINA RESULT:    -4.883      0.000      0.000
REMARK INTER + INTRA:          -5.311
REMARK INTER:                  -5.311
REMARK INTRA:                   0.000
REMARK UNBOUND:                 0.000
REMARK SMILES Cc1cc(O)c2c(c1)C(=O)c1cc(O)cc(O)c1C2=O
REMARK SMILES IDX 1 1 2 2 8 3 7 4 6 5 4 6 3 7 19 8 20 9 18 10 11 11 9 12 10 13
REMARK SMILES IDX 12 14 13 15 15 16 16 17 5 18 17 20 14 22
REMARK H PARENT 5 19 17 21 14 23
REMARK Flexibility Score: inf
ROOT
ATOM      1  C   UNL     1      12.249   8.067  37.089  1.00  0.00     0.044 C 
ATOM      2  C   UNL     1      12.670   7.617  35.722  1.00  0.00    -0.047 A 
ATOM      3  C   UNL     1      13.265   8.521  34.834  1.00  0.00     0.016 A 
ATOM      4  C   UNL     1      13.632   8.118  33.538  1.00  0.00     0.038 A 
ATOM      5  C   UNL     1      13.381   6.794  33.117  1.00  0.00     0.076 A 
ATOM      6  C   UNL     1      12.767   5.888  34.013  1.00  0.00     0.127 A 
ATOM      7  C   UNL     1      12.410   6.308  35.301  1.00  0.00     0.050 A 
ATOM      8  C   UNL     1      13.739   6.396  31.731  1.00  0.00     0.201 C 
ATOM      9  O   UNL     1      13.211   5.369  31.225  1.00  0.00    -0.288 OA
ATOM     10  C   UNL     1      14.623   7.265  30.906  1.00  0.00     0.076 A 
ATOM     11  C   UNL     1      14.813   8.608  31.311  1.00  0.00     0.041 A 
ATOM     12  C   UNL     1      14.276   9.076  32.611  1.00  0.00     0.194 C 
ATOM     13  O   UNL     1      14.386  10.290  32.939  1.00  0.00    -0.289 OA
ATOM     14  C   UNL     1      15.519   9.497  30.483  1.00  0.00     0.059 A 
ATOM     15  C   UNL     1      16.052   9.064  29.270  1.00  0.00     0.120 A 
ATOM     16  C   UNL     1      15.911   7.729  28.886  1.00  0.00     0.093 A 
ATOM     17  C   UNL     1      15.235   6.817  29.703  1.00  0.00     0.131 A 
ENDROOT
BRANCH   6  18
ATOM     18  O   UNL     1      12.516   4.570  33.630  1.00  0.00    -0.507 OA
ATOM     19  H   UNL     1      12.837   3.784  34.184  1.00  0.00     0.293 HD
ENDBRANCH   6  18
BRANCH  17  20
ATOM     20  O   UNL     1      15.231   5.480  29.299  1.00  0.00    -0.507 OA
ATOM     21  H   UNL     1      14.748   4.746  29.795  1.00  0.00     0.293 HD
ENDBRANCH  17  20
BRANCH  15  22
ATOM     22  O   UNL     1      16.733   9.968  28.458  1.00  0.00    -0.508 OA
ATOM     23  H   UNL     1      16.361  10.891  28.264  1.00  0.00     0.293 HD
ENDBRANCH  15  22
TORSDOF 3
ENDMDL
MODEL 2
REMARK VINA RESULT:    -4.873      1.244      5.491
REMARK INTER + INTRA:          -5.300
REMARK INTER:                  -5.300
REMARK INTRA:                   0.000
REMARK UNBOUND:                 0.000
REMARK SMILES Cc1cc(O)c2c(c1)C(=O)c1cc(O)cc(O)c1C2=O
REMARK SMILES IDX 1 1 2 2 8 3 7 4 6 5 4 6 3 7 19 8 20 9 18 10 11 11 9 12 10 13
REMARK SMILES IDX 12 14 13 15 15 16 16 17 5 18 17 20 14 22
REMARK H PARENT 5 19 17 21 14 23
REMARK Flexibility Score: inf
ROOT
ATOM      1  C   UNL     1      16.401  10.043  28.287  1.00  0.00     0.044 C 
ATOM      2  C   UNL     1      15.803   9.074  29.264  1.00  0.00    -0.047 A 
ATOM      3  C   UNL     1      15.361   9.518  30.516  1.00  0.00     0.016 A 
ATOM      4  C   UNL     1      14.830   8.613  31.452  1.00  0.00     0.038 A 
ATOM      5  C   UNL     1      14.760   7.239  31.137  1.00  0.00     0.076 A 
ATOM      6  C   UNL     1      15.220   6.794  29.876  1.00  0.00     0.127 A 
ATOM      7  C   UNL     1      15.743   7.710  28.956  1.00  0.00     0.050 A 
ATOM      8  C   UNL     1      14.233   6.291  32.153  1.00  0.00     0.201 C 
ATOM      9  O   UNL     1      14.490   5.061  32.046  1.00  0.00    -0.288 OA
ATOM     10  C   UNL     1      13.506   6.802  33.349  1.00  0.00     0.076 A 
ATOM     11  C   UNL     1      13.641   8.170  33.683  1.00  0.00     0.041 A 
ATOM     12  C   UNL     1      14.350   9.094  32.767  1.00  0.00     0.194 C 
ATOM     13  O   UNL     1      14.529  10.298  33.100  1.00  0.00    -0.289 OA
ATOM     14  C   UNL     1      13.091   8.655  34.882  1.00  0.00     0.059 A 
ATOM     15  C   UNL     1      12.398   7.804  35.741  1.00  0.00     0.120 A 
ATOM     16  C   UNL     1      12.220   6.463  35.395  1.00  0.00     0.093 A 
ATOM     17  C   UNL     1      12.734   5.959  34.196  1.00  0.00     0.131 A 
ENDROOT
BRANCH   6  18
ATOM     18  O   UNL     1      15.152   5.443  29.531  1.00  0.00    -0.507 OA
ATOM     19  H   UNL     1      14.338   5.050  29.072  1.00  0.00     0.293 HD
ENDBRANCH   6  18
BRANCH  17  20
ATOM     20  O   UNL     1      12.420   4.637  33.873  1.00  0.00    -0.507 OA
ATOM     21  H   UNL     1      12.616   4.217  32.976  1.00  0.00     0.293 HD
ENDBRANCH  17  20
BRANCH  15  22
ATOM     22  O   UNL     1      11.878   8.305  36.933  1.00  0.00    -0.508 OA
ATOM     23  H   UNL     1      10.881   8.302  37.118  1.00  0.00     0.293 HD
ENDBRANCH  15  22
TORSDOF 3
ENDMDL
MODEL 3
REMARK VINA RESULT:    -4.839      2.754      6.390
REMARK INTER + INTRA:          -5.263
REMARK INTER:                  -5.263
REMARK INTRA:                   0.000
REMARK UNBOUND:                 0.000
REMARK SMILES Cc1cc(O)c2c(c1)C(=O)c1cc(O)cc(O)c1C2=O
REMARK SMILES IDX 1 1 2 2 8 3 7 4 6 5 4 6 3 7 19 8 20 9 18 10 11 11 9 12 10 13
REMARK SMILES IDX 12 14 13 15 15 16 16 17 5 18 17 20 14 22
REMARK H PARENT 5 19 17 21 14 23
REMARK Flexibility Score: inf
ROOT
ATOM      1  C   UNL     1      16.004   8.458  29.317  1.00  0.00     0.044 C 
ATOM      2  C   UNL     1      15.379   8.555  30.677  1.00  0.00    -0.047 A 
ATOM      3  C   UNL     1      15.858   7.766  31.731  1.00  0.00     0.016 A 
ATOM      4  C   UNL     1      15.258   7.825  33.000  1.00  0.00     0.038 A 
ATOM      5  C   UNL     1      14.148   8.670  33.214  1.00  0.00     0.076 A 
ATOM      6  C   UNL     1      13.659   9.454  32.143  1.00  0.00     0.127 A 
ATOM      7  C   UNL     1      14.271   9.384  30.886  1.00  0.00     0.050 A 
ATOM      8  C   UNL     1      13.501   8.689  34.552  1.00  0.00     0.201 C 
ATOM      9  O   UNL     1      12.328   9.137  34.666  1.00  0.00    -0.288 OA
ATOM     10  C   UNL     1      14.186   8.078  35.724  1.00  0.00     0.076 A 
ATOM     11  C   UNL     1      15.257   7.185  35.487  1.00  0.00     0.041 A 
ATOM     12  C   UNL     1      15.781   7.000  34.113  1.00  0.00     0.194 C 
ATOM     13  O   UNL     1      16.689   6.152  33.893  1.00  0.00    -0.289 OA
ATOM     14  C   UNL     1      15.832   6.479  36.558  1.00  0.00     0.059 A 
ATOM     15  C   UNL     1      15.367   6.662  37.859  1.00  0.00     0.120 A 
ATOM     16  C   UNL     1      14.343   7.578  38.108  1.00  0.00     0.093 A 
ATOM     17  C   UNL     1      13.771   8.313  37.065  1.00  0.00     0.131 A 
ENDROOT
BRANCH   6  18
ATOM     18  O   UNL     1      12.571  10.308  32.327  1.00  0.00    -0.507 OA
ATOM     19  H   UNL     1      11.975  10.586  31.555  1.00  0.00     0.293 HD
ENDBRANCH   6  18
BRANCH  17  20
ATOM     20  O   UNL     1      12.829   9.285  37.411  1.00  0.00    -0.507 OA
ATOM     21  H   UNL     1      11.977   9.449  36.894  1.00  0.00     0.293 HD
ENDBRANCH  17  20
BRANCH  15  22
ATOM     22  O   UNL     1      15.941   5.938  38.901  1.00  0.00    -0.508 OA
ATOM     23  H   UNL     1      15.924   6.279  39.856  1.00  0.00     0.293 HD
ENDBRANCH  15  22
TORSDOF 3
ENDMDL
MODEL 4
REMARK VINA RESULT:    -4.355      2.442      5.766
REMARK INTER + INTRA:          -4.737
REMARK INTER:                  -4.737
REMARK INTRA:                   0.000
REMARK UNBOUND:                 0.000
REMARK SMILES Cc1cc(O)c2c(c1)C(=O)c1cc(O)cc(O)c1C2=O
REMARK SMILES IDX 1 1 2 2 8 3 7 4 6 5 4 6 3 7 19 8 20 9 18 10 11 11 9 12 10 13
REMARK SMILES IDX 12 14 13 15 15 16 16 17 5 18 17 20 14 22
REMARK H PARENT 5 19 17 21 14 23
REMARK Flexibility Score: inf
ROOT
ATOM      1  C   UNL     1      16.045   9.351  29.146  1.00  0.00     0.044 C 
ATOM      2  C   UNL     1      15.329   8.582  30.216  1.00  0.00    -0.047 A 
ATOM      3  C   UNL     1      15.997   8.226  31.396  1.00  0.00     0.016 A 
ATOM      4  C   UNL     1      15.345   7.476  32.390  1.00  0.00     0.038 A 
ATOM      5  C   UNL     1      14.012   7.057  32.193  1.00  0.00     0.076 A 
ATOM      6  C   UNL     1      13.347   7.407  30.995  1.00  0.00     0.127 A 
ATOM      7  C   UNL     1      14.011   8.157  30.017  1.00  0.00     0.050 A 
ATOM      8  C   UNL     1      13.352   6.230  33.237  1.00  0.00     0.201 C 
ATOM      9  O   UNL     1      12.329   5.556  32.939  1.00  0.00    -0.288 OA
ATOM     10  C   UNL     1      13.960   6.108  34.591  1.00  0.00     0.076 A 
ATOM     11  C   UNL     1      15.317   6.475  34.754  1.00  0.00     0.041 A 
ATOM     12  C   UNL     1      16.053   7.119  33.640  1.00  0.00     0.194 C 
ATOM     13  O   UNL     1      17.281   7.381  33.764  1.00  0.00    -0.289 OA
ATOM     14  C   UNL     1      15.965   6.237  35.978  1.00  0.00     0.059 A 
ATOM     15  C   UNL     1      15.279   5.656  37.043  1.00  0.00     0.120 A 
ATOM     16  C   UNL     1      13.927   5.336  36.906  1.00  0.00     0.093 A 
ATOM     17  C   UNL     1      13.250   5.586  35.708  1.00  0.00     0.131 A 
ENDROOT
BRANCH   6  18
ATOM     18  O   UNL     1      12.025   7.017  30.776  1.00  0.00    -0.507 OA
ATOM     19  H   UNL     1      11.614   6.228  31.262  1.00  0.00     0.293 HD
ENDBRANCH   6  18
BRANCH  17  20
ATOM     20  O   UNL     1      11.876   5.337  35.687  1.00  0.00    -0.507 OA
ATOM     21  H   UNL     1      11.219   5.766  36.323  1.00  0.00     0.293 HD
ENDBRANCH  17  20
BRANCH  15  22
ATOM     22  O   UNL     1      15.948   5.414  38.241  1.00  0.00    -0.508 OA
ATOM     23  H   UNL     1      16.908   5.709  38.380  1.00  0.00     0.293 HD
ENDBRANCH  15  22
TORSDOF 3
ENDMDL
MODEL 5
REMARK VINA RESULT:    -4.349      2.632      3.717
REMARK INTER + INTRA:          -4.730
REMARK INTER:                  -4.730
REMARK INTRA:                   0.000
REMARK UNBOUND:                 0.000
REMARK SMILES Cc1cc(O)c2c(c1)C(=O)c1cc(O)cc(O)c1C2=O
REMARK SMILES IDX 1 1 2 2 8 3 7 4 6 5 4 6 3 7 19 8 20 9 18 10 11 11 9 12 10 13
REMARK SMILES IDX 12 14 13 15 15 16 16 17 5 18 17 20 14 22
REMARK H PARENT 5 19 17 21 14 23
REMARK Flexibility Score: inf
ROOT
ATOM      1  C   UNL     1      15.464   4.658  38.476  1.00  0.00     0.044 C 
ATOM      2  C   UNL     1      14.983   5.665  37.474  1.00  0.00    -0.047 A 
ATOM      3  C   UNL     1      15.639   5.804  36.244  1.00  0.00     0.016 A 
ATOM      4  C   UNL     1      15.218   6.769  35.312  1.00  0.00     0.038 A 
ATOM      5  C   UNL     1      14.137   7.621  35.623  1.00  0.00     0.076 A 
ATOM      6  C   UNL     1      13.486   7.485  36.872  1.00  0.00     0.127 A 
ATOM      7  C   UNL     1      13.918   6.517  37.787  1.00  0.00     0.050 A 
ATOM      8  C   UNL     1      13.730   8.661  34.643  1.00  0.00     0.201 C 
ATOM      9  O   UNL     1      13.036   9.640  35.029  1.00  0.00    -0.288 OA
ATOM     10  C   UNL     1      14.235   8.609  33.242  1.00  0.00     0.076 A 
ATOM     11  C   UNL     1      15.360   7.796  32.963  1.00  0.00     0.041 A 
ATOM     12  C   UNL     1      15.906   6.898  34.008  1.00  0.00     0.194 C 
ATOM     13  O   UNL     1      16.950   6.227  33.779  1.00  0.00    -0.289 OA
ATOM     14  C   UNL     1      15.953   7.834  31.690  1.00  0.00     0.059 A 
ATOM     15  C   UNL     1      15.433   8.654  30.689  1.00  0.00     0.120 A 
ATOM     16  C   UNL     1      14.295   9.423  30.942  1.00  0.00     0.093 A 
ATOM     17  C   UNL     1      13.669   9.384  32.193  1.00  0.00     0.131 A 
ENDROOT
BRANCH   6  18
ATOM     18  O   UNL     1      12.406   8.305  37.203  1.00  0.00    -0.507 OA
ATOM     19  H   UNL     1      12.331   8.746  38.113  1.00  0.00     0.293 HD
ENDBRANCH   6  18
BRANCH  17  20
ATOM     20  O   UNL     1      12.476  10.098  32.331  1.00  0.00    -0.507 OA
ATOM     21  H   UNL     1      12.278  10.958  31.841  1.00  0.00     0.293 HD
ENDBRANCH  17  20
BRANCH  15  22
ATOM     22  O   UNL     1      16.050   8.688  29.440  1.00  0.00    -0.508 OA
ATOM     23  H   UNL     1      16.880   8.139  29.245  1.00  0.00     0.293 HD
ENDBRANCH  15  22
TORSDOF 3
ENDMDL
MODEL 6
REMARK VINA RESULT:    -4.291      1.785      2.018
REMARK INTER + INTRA:          -4.667
REMARK INTER:                  -4.667
REMARK INTRA:                   0.000
REMARK UNBOUND:                 0.000
REMARK SMILES Cc1cc(O)c2c(c1)C(=O)c1cc(O)cc(O)c1C2=O
REMARK SMILES IDX 1 1 2 2 8 3 7 4 6 5 4 6 3 7 19 8 20 9 18 10 11 11 9 12 10 13
REMARK SMILES IDX 12 14 13 15 15 16 16 17 5 18 17 20 14 22
REMARK H PARENT 5 19 17 21 14 23
REMARK Flexibility Score: inf
ROOT
ATOM      1  C   UNL     1      14.048   8.713  38.621  1.00  0.00     0.044 C 
ATOM      2  C   UNL     1      14.180   8.106  37.256  1.00  0.00    -0.047 A 
ATOM      3  C   UNL     1      13.888   8.865  36.116  1.00  0.00     0.016 A 
ATOM      4  C   UNL     1      13.976   8.296  34.833  1.00  0.00     0.038 A 
ATOM      5  C   UNL     1      14.341   6.940  34.690  1.00  0.00     0.076 A 
ATOM      6  C   UNL     1      14.621   6.174  35.846  1.00  0.00     0.127 A 
ATOM      7  C   UNL     1      14.531   6.759  37.115  1.00  0.00     0.050 A 
ATOM      8  C   UNL     1      14.390   6.344  33.330  1.00  0.00     0.201 C 
ATOM      9  O   UNL     1      14.354   5.091  33.201  1.00  0.00    -0.288 OA
ATOM     10  C   UNL     1      14.365   7.221  32.126  1.00  0.00     0.076 A 
ATOM     11  C   UNL     1      13.936   8.561  32.280  1.00  0.00     0.041 A 
ATOM     12  C   UNL     1      13.682   9.111  33.632  1.00  0.00     0.194 C 
ATOM     13  O   UNL     1      13.233  10.283  33.762  1.00  0.00    -0.289 OA
ATOM     14  C   UNL     1      13.759   9.374  31.147  1.00  0.00     0.059 A 
ATOM     15  C   UNL     1      14.019   8.879  29.871  1.00  0.00     0.120 A 
ATOM     16  C   UNL     1      14.489   7.573  29.714  1.00  0.00     0.093 A 
ATOM     17  C   UNL     1      14.698   6.751  30.826  1.00  0.00     0.131 A 
ENDROOT
BRANCH   6  18
ATOM     18  O   UNL     1      14.996   4.834  35.736  1.00  0.00    -0.507 OA
ATOM     19  H   UNL     1      14.531   4.201  35.096  1.00  0.00     0.293 HD
ENDBRANCH   6  18
BRANCH  17  20
ATOM     20  O   UNL     1      15.271   5.498  30.593  1.00  0.00    -0.507 OA
ATOM     21  H   UNL     1      16.191   5.367  30.199  1.00  0.00     0.293 HD
ENDBRANCH  17  20
BRANCH  15  22
ATOM     22  O   UNL     1      13.819   9.699  28.762  1.00  0.00    -0.508 OA
ATOM     23  H   UNL     1      14.235   9.484  27.863  1.00  0.00     0.293 HD
ENDBRANCH  15  22
TORSDOF 3
ENDMDL
MODEL 7
REMARK VINA RESULT:    -4.144      2.464      2.854
REMARK INTER + INTRA:          -4.507
REMARK INTER:                  -4.507
REMARK INTRA:                   0.000
REMARK UNBOUND:                 0.000
REMARK SMILES Cc1cc(O)c2c(c1)C(=O)c1cc(O)cc(O)c1C2=O
REMARK SMILES IDX 1 1 2 2 8 3 7 4 6 5 4 6 3 7 19 8 20 9 18 10 11 11 9 12 10 13
REMARK SMILES IDX 12 14 13 15 15 16 16 17 5 18 17 20 14 22
REMARK H PARENT 5 19 17 21 14 23
REMARK Flexibility Score: inf
ROOT
ATOM      1  C   UNL     1      16.347   4.371  37.826  1.00  0.00     0.044 C 
ATOM      2  C   UNL     1      15.562   4.890  36.658  1.00  0.00    -0.047 A 
ATOM      3  C   UNL     1      16.181   5.697  35.695  1.00  0.00     0.016 A 
ATOM      4  C   UNL     1      15.446   6.216  34.615  1.00  0.00     0.038 A 
ATOM      5  C   UNL     1      14.066   5.942  34.508  1.00  0.00     0.076 A 
ATOM      6  C   UNL     1      13.442   5.138  35.490  1.00  0.00     0.127 A 
ATOM      7  C   UNL     1      14.191   4.627  36.558  1.00  0.00     0.050 A 
ATOM      8  C   UNL     1      13.297   6.532  33.381  1.00  0.00     0.201 C 
ATOM      9  O   UNL     1      12.041   6.606  33.461  1.00  0.00    -0.288 OA
ATOM     10  C   UNL     1      14.010   7.136  32.222  1.00  0.00     0.076 A 
ATOM     11  C   UNL     1      15.379   7.461  32.371  1.00  0.00     0.041 A 
ATOM     12  C   UNL     1      16.112   7.054  33.592  1.00  0.00     0.194 C 
ATOM     13  O   UNL     1      17.314   7.406  33.753  1.00  0.00    -0.289 OA
ATOM     14  C   UNL     1      16.047   8.164  31.353  1.00  0.00     0.059 A 
ATOM     15  C   UNL     1      15.377   8.530  30.187  1.00  0.00     0.120 A 
ATOM     16  C   UNL     1      14.039   8.171  30.012  1.00  0.00     0.093 A 
ATOM     17  C   UNL     1      13.358   7.449  30.997  1.00  0.00     0.131 A 
ENDROOT
BRANCH   6  18
ATOM     18  O   UNL     1      12.082   4.839  35.405  1.00  0.00    -0.507 OA
ATOM     19  H   UNL     1      11.410   5.508  35.047  1.00  0.00     0.293 HD
ENDBRANCH   6  18
BRANCH  17  20
ATOM     20  O   UNL     1      12.057   7.036  30.700  1.00  0.00    -0.507 OA
ATOM     21  H   UNL     1      11.841   6.225  30.138  1.00  0.00     0.293 HD
ENDBRANCH  17  20
BRANCH  15  22
ATOM     22  O   UNL     1      16.056   9.242  29.200  1.00  0.00    -0.508 OA
ATOM     23  H   UNL     1      16.144   8.884  28.255  1.00  0.00     0.293 HD
ENDBRANCH  15  22
TORSDOF 3
ENDMDL
MODEL 8
REMARK VINA RESULT:    -4.006      3.293      4.259
REMARK INTER + INTRA:          -4.357
REMARK INTER:                  -4.357
REMARK INTRA:                   0.000
REMARK UNBOUND:                 0.000
REMARK SMILES Cc1cc(O)c2c(c1)C(=O)c1cc(O)cc(O)c1C2=O
REMARK SMILES IDX 1 1 2 2 8 3 7 4 6 5 4 6 3 7 19 8 20 9 18 10 11 11 9 12 10 13
REMARK SMILES IDX 12 14 13 15 15 16 16 17 5 18 17 20 14 22
REMARK H PARENT 5 19 17 21 14 23
REMARK Flexibility Score: inf
ROOT
ATOM      1  C   UNL     1      16.413   5.422  39.429  1.00  0.00     0.044 C 
ATOM      2  C   UNL     1      16.260   5.854  38.000  1.00  0.00    -0.047 A 
ATOM      3  C   UNL     1      15.241   6.744  37.638  1.00  0.00     0.016 A 
ATOM      4  C   UNL     1      15.067   7.128  36.297  1.00  0.00     0.038 A 
ATOM      5  C   UNL     1      15.913   6.598  35.300  1.00  0.00     0.076 A 
ATOM      6  C   UNL     1      16.932   5.689  35.669  1.00  0.00     0.127 A 
ATOM      7  C   UNL     1      17.091   5.320  37.010  1.00  0.00     0.050 A 
ATOM      8  C   UNL     1      15.690   6.984  33.882  1.00  0.00     0.201 C 
ATOM      9  O   UNL     1      16.173   6.270  32.962  1.00  0.00    -0.288 OA
ATOM     10  C   UNL     1      14.807   8.137  33.550  1.00  0.00     0.076 A 
ATOM     11  C   UNL     1      13.921   8.614  34.545  1.00  0.00     0.041 A 
ATOM     12  C   UNL     1      13.998   8.082  35.926  1.00  0.00     0.194 C 
ATOM     13  O   UNL     1      13.162   8.458  36.793  1.00  0.00    -0.289 OA
ATOM     14  C   UNL     1      12.973   9.601  34.224  1.00  0.00     0.059 A 
ATOM     15  C   UNL     1      12.907  10.129  32.935  1.00  0.00     0.120 A 
ATOM     16  C   UNL     1      13.810   9.698  31.961  1.00  0.00     0.093 A 
ATOM     17  C   UNL     1      14.780   8.736  32.260  1.00  0.00     0.131 A 
ENDROOT
BRANCH   6  18
ATOM     18  O   UNL     1      17.792   5.157  34.707  1.00  0.00    -0.507 OA
ATOM     19  H   UNL     1      17.625   4.250  34.285  1.00  0.00     0.293 HD
ENDBRANCH   6  18
BRANCH  17  20
ATOM     20  O   UNL     1      15.712   8.439  31.262  1.00  0.00    -0.507 OA
ATOM     21  H   UNL     1      15.509   8.487  30.274  1.00  0.00     0.293 HD
ENDBRANCH  17  20
BRANCH  15  22
ATOM     22  O   UNL     1      11.947  11.094  32.638  1.00  0.00    -0.508 OA
ATOM     23  H   UNL     1      11.011  11.046  33.024  1.00  0.00     0.293 HD
ENDBRANCH  15  22
TORSDOF 3
ENDMDL
MODEL 9
REMARK VINA RESULT:    -3.992      3.545      5.342
REMARK INTER + INTRA:          -4.342
REMARK INTER:                  -4.342
REMARK INTRA:                   0.000
REMARK UNBOUND:                 0.000
REMARK SMILES Cc1cc(O)c2c(c1)C(=O)c1cc(O)cc(O)c1C2=O
REMARK SMILES IDX 1 1 2 2 8 3 7 4 6 5 4 6 3 7 19 8 20 9 18 10 11 11 9 12 10 13
REMARK SMILES IDX 12 14 13 15 15 16 16 17 5 18 17 20 14 22
REMARK H PARENT 5 19 17 21 14 23
REMARK Flexibility Score: inf
ROOT
ATOM      1  C   UNL     1      18.808   4.052  34.560  1.00  0.00     0.044 C 
ATOM      2  C   UNL     1      17.675   4.944  34.972  1.00  0.00    -0.047 A 
ATOM      3  C   UNL     1      17.155   5.884  34.073  1.00  0.00     0.016 A 
ATOM      4  C   UNL     1      16.115   6.748  34.461  1.00  0.00     0.038 A 
ATOM      5  C   UNL     1      15.602   6.684  35.774  1.00  0.00     0.076 A 
ATOM      6  C   UNL     1      16.139   5.742  36.682  1.00  0.00     0.127 A 
ATOM      7  C   UNL     1      17.173   4.888  36.277  1.00  0.00     0.050 A 
ATOM      8  C   UNL     1      14.530   7.631  36.178  1.00  0.00     0.201 C 
ATOM      9  O   UNL     1      14.317   7.838  37.404  1.00  0.00    -0.288 OA
ATOM     10  C   UNL     1      13.795   8.415  35.147  1.00  0.00     0.076 A 
ATOM     11  C   UNL     1      14.359   8.519  33.854  1.00  0.00     0.041 A 
ATOM     12  C   UNL     1      15.561   7.728  33.500  1.00  0.00     0.194 C 
ATOM     13  O   UNL     1      16.102   7.875  32.369  1.00  0.00    -0.289 OA
ATOM     14  C   UNL     1      13.771   9.368  32.900  1.00  0.00     0.059 A 
ATOM     15  C   UNL     1      12.625  10.098  33.210  1.00  0.00     0.120 A 
ATOM     16  C   UNL     1      12.036   9.964  34.468  1.00  0.00     0.093 A 
ATOM     17  C   UNL     1      12.584   9.107  35.428  1.00  0.00     0.131 A 
ENDROOT
BRANCH   6  18
ATOM     18  O   UNL     1      15.644   5.646  37.983  1.00  0.00    -0.507 OA
ATOM     19  H   UNL     1      16.229   5.349  38.756  1.00  0.00     0.293 HD
ENDBRANCH   6  18
BRANCH  17  20
ATOM     20  O   UNL     1      11.875   8.948  36.621  1.00  0.00    -0.507 OA
ATOM     21  H   UNL     1      11.297   9.668  37.029  1.00  0.00     0.293 HD
ENDBRANCH  17  20
BRANCH  15  22
ATOM     22  O   UNL     1      12.072  10.946  32.253  1.00  0.00    -0.508 OA
ATOM     23  H   UNL     1      11.922  10.641  31.298  1.00  0.00     0.293 HD
ENDBRANCH  15  22
TORSDOF 3
ENDMDL
