MODEL 1
REMARK VINA RESULT:    -3.471      0.000      0.000
REMARK INTER + INTRA:          -4.801
REMARK INTER:                  -4.486
REMARK INTRA:                  -0.315
REMARK UNBOUND:                -0.315
REMARK SMILES CCO[C@H]1O[C@@H](CO)[C@@H](O)[C@H](O)[C@@H]1O
REMARK SMILES IDX 4 1 13 2 11 3 9 4 6 5 5 6 3 7 2 8 1 9 14 10 12 12 7 14 8 15
REMARK SMILES IDX 10 17
REMARK H PARENT 14 11 12 13 8 16 10 18
REMARK Flexibility Score: inf
ROOT
ATOM      1  C   UNL     1       9.469  -4.513  -2.445  1.00  0.00     0.281 C 
ATOM      2  C   UNL     1       9.462  -5.742  -1.496  1.00  0.00     0.202 C 
ATOM      3  C   UNL     1      10.891  -6.311  -1.325  1.00  0.00     0.179 C 
ATOM      4  C   UNL     1      11.662  -6.196  -2.647  1.00  0.00     0.177 C 
ATOM      5  C   UNL     1      11.714  -4.699  -3.114  1.00  0.00     0.178 C 
ATOM      6  O   UNL     1      10.744  -3.884  -2.465  1.00  0.00    -0.341 OA
ENDROOT
BRANCH   1   7
ATOM      7  O   UNL     1       8.434  -3.604  -2.095  1.00  0.00    -0.350 OA
BRANCH   7   8
ATOM      8  C   UNL     1       8.152  -3.613  -0.708  1.00  0.00     0.160 C 
ATOM      9  C   UNL     1       6.658  -3.809  -0.505  1.00  0.00     0.035 C 
ENDBRANCH   7   8
ENDBRANCH   1   7
BRANCH   2  10
ATOM     10  O   UNL     1       8.602  -6.719  -2.029  1.00  0.00    -0.385 OA
ATOM     11  H   UNL     1       7.698  -6.312  -2.086  1.00  0.00     0.211 HD
ENDBRANCH   2  10
BRANCH   3  12
ATOM     12  O   UNL     1      10.850  -7.653  -0.914  1.00  0.00    -0.387 OA
ATOM     13  H   UNL     1      11.708  -7.833  -0.447  1.00  0.00     0.211 HD
ENDBRANCH   3  12
BRANCH   5  14
ATOM     14  C   UNL     1      13.092  -4.042  -2.910  1.00  0.00     0.191 C 
BRANCH  14  15
ATOM     15  O   UNL     1      13.550  -4.224  -1.596  1.00  0.00    -0.394 OA
ATOM     16  H   UNL     1      13.804  -5.180  -1.511  1.00  0.00     0.210 HD
ENDBRANCH  14  15
ENDBRANCH   5  14
BRANCH   4  17
ATOM     17  O   UNL     1      12.943  -6.756  -2.497  1.00  0.00    -0.387 OA
ATOM     18  H   UNL     1      13.188  -6.653  -1.540  1.00  0.00     0.211 HD
ENDBRANCH   4  17
TORSDOF 7
ENDMDL
MODEL 2
REMARK VINA RESULT:    -3.384      2.384      4.605
REMARK INTER + INTRA:          -4.688
REMARK INTER:                  -4.286
REMARK INTRA:                  -0.402
REMARK UNBOUND:                -0.315
REMARK SMILES CCO[C@H]1O[C@@H](CO)[C@@H](O)[C@H](O)[C@@H]1O
REMARK SMILES IDX 4 1 13 2 11 3 9 4 6 5 5 6 3 7 2 8 1 9 14 10 12 12 7 14 8 15
REMARK SMILES IDX 10 17
REMARK H PARENT 14 11 12 13 8 16 10 18
REMARK Flexibility Score: inf
ROOT
ATOM      1  C   UNL     1       7.385  -6.638  -2.629  1.00  0.00     0.281 C 
ATOM      2  C   UNL     1       8.825  -6.714  -2.055  1.00  0.00     0.202 C 
ATOM      3  C   UNL     1       9.176  -5.421  -1.280  1.00  0.00     0.179 C 
ATOM      4  C   UNL     1       8.543  -4.208  -1.974  1.00  0.00     0.177 C 
ATOM      5  C   UNL     1       6.988  -4.390  -2.072  1.00  0.00     0.178 C 
ATOM      6  O   UNL     1       6.577  -5.740  -1.879  1.00  0.00    -0.341 OA
ENDROOT
BRANCH   1   7
ATOM      7  O   UNL     1       6.806  -7.935  -2.704  1.00  0.00    -0.350 OA
BRANCH   7   8
ATOM      8  C   UNL     1       7.339  -8.822  -1.739  1.00  0.00     0.160 C 
ATOM      9  C   UNL     1       6.276  -9.117  -0.693  1.00  0.00     0.035 C 
ENDBRANCH   7   8
ENDBRANCH   1   7
BRANCH   2  10
ATOM     10  O   UNL     1       9.725  -6.912  -3.119  1.00  0.00    -0.385 OA
ATOM     11  H   UNL     1      10.609  -6.572  -2.820  1.00  0.00     0.211 HD
ENDBRANCH   2  10
BRANCH   3  12
ATOM     12  O   UNL     1      10.567  -5.249  -1.196  1.00  0.00    -0.387 OA
ATOM     13  H   UNL     1      10.970  -5.871  -1.856  1.00  0.00     0.211 HD
ENDBRANCH   3  12
BRANCH   5  14
ATOM     14  C   UNL     1       6.205  -3.514  -1.077  1.00  0.00     0.191 C 
BRANCH  14  15
ATOM     15  O   UNL     1       6.472  -3.890   0.248  1.00  0.00    -0.394 OA
ATOM     16  H   UNL     1       7.108  -3.221   0.613  1.00  0.00     0.210 HD
ENDBRANCH  14  15
ENDBRANCH   5  14
BRANCH   4  17
ATOM     17  O   UNL     1       8.903  -3.032  -1.292  1.00  0.00    -0.387 OA
ATOM     18  H   UNL     1       8.120  -2.775  -0.736  1.00  0.00     0.211 HD
ENDBRANCH   4  17
TORSDOF 7
ENDMDL
MODEL 3
REMARK VINA RESULT:    -3.377      1.461      4.351
REMARK INTER + INTRA:          -4.679
REMARK INTER:                  -4.299
REMARK INTRA:                  -0.380
REMARK UNBOUND:                -0.315
REMARK SMILES CCO[C@H]1O[C@@H](CO)[C@@H](O)[C@H](O)[C@@H]1O
REMARK SMILES IDX 4 1 13 2 11 3 9 4 6 5 5 6 3 7 2 8 1 9 14 10 12 12 7 14 8 15
REMARK SMILES IDX 10 17
REMARK H PARENT 14 11 12 13 8 16 10 18
REMARK Flexibility Score: inf
ROOT
ATOM      1  C   UNL     1      10.694  -5.349  -2.106  1.00  0.00     0.281 C 
ATOM      2  C   UNL     1       9.877  -6.611  -1.718  1.00  0.00     0.202 C 
ATOM      3  C   UNL     1       8.359  -6.310  -1.743  1.00  0.00     0.179 C 
ATOM      4  C   UNL     1       8.100  -4.881  -1.251  1.00  0.00     0.177 C 
ATOM      5  C   UNL     1       8.883  -3.852  -2.140  1.00  0.00     0.178 C 
ATOM      6  O   UNL     1       9.922  -4.458  -2.902  1.00  0.00    -0.341 OA
ENDROOT
BRANCH   1   7
ATOM      7  O   UNL     1      11.908  -5.715  -2.747  1.00  0.00    -0.350 OA
BRANCH   7   8
ATOM      8  C   UNL     1      13.042  -5.137  -2.129  1.00  0.00     0.160 C 
ATOM      9  C   UNL     1      13.393  -3.842  -2.844  1.00  0.00     0.035 C 
ENDBRANCH   7   8
ENDBRANCH   1   7
BRANCH   2  10
ATOM     10  O   UNL     1      10.276  -7.030  -0.435  1.00  0.00    -0.385 OA
ATOM     11  H   UNL     1      11.219  -7.335  -0.508  1.00  0.00     0.211 HD
ENDBRANCH   2  10
BRANCH   3  12
ATOM     12  O   UNL     1       7.654  -7.225  -0.943  1.00  0.00    -0.387 OA
ATOM     13  H   UNL     1       6.689  -7.041  -1.087  1.00  0.00     0.211 HD
ENDBRANCH   3  12
BRANCH   5  14
ATOM     14  C   UNL     1       7.980  -3.073  -3.114  1.00  0.00     0.191 C 
BRANCH  14  15
ATOM     15  O   UNL     1       7.363  -1.987  -2.473  1.00  0.00    -0.394 OA
ATOM     16  H   UNL     1       7.687  -1.165  -2.928  1.00  0.00     0.210 HD
ENDBRANCH  14  15
ENDBRANCH   5  14
BRANCH   4  17
ATOM     17  O   UNL     1       6.716  -4.630  -1.234  1.00  0.00    -0.387 OA
ATOM     18  H   UNL     1       6.332  -5.203  -0.518  1.00  0.00     0.211 HD
ENDBRANCH   4  17
TORSDOF 7
ENDMDL
MODEL 4
REMARK VINA RESULT:    -3.311      1.714      4.470
REMARK INTER + INTRA:          -4.594
REMARK INTER:                  -4.208
REMARK INTRA:                  -0.387
REMARK UNBOUND:                -0.315
REMARK SMILES CCO[C@H]1O[C@@H](CO)[C@@H](O)[C@H](O)[C@@H]1O
REMARK SMILES IDX 4 1 13 2 11 3 9 4 6 5 5 6 3 7 2 8 1 9 14 10 12 12 7 14 8 15
REMARK SMILES IDX 10 17
REMARK H PARENT 14 11 12 13 8 16 10 18
REMARK Flexibility Score: inf
ROOT
ATOM      1  C   UNL     1       9.793  -4.358  -2.842  1.00  0.00     0.281 C 
ATOM      2  C   UNL     1       8.843  -3.601  -1.875  1.00  0.00     0.202 C 
ATOM      3  C   UNL     1       7.935  -4.594  -1.109  1.00  0.00     0.179 C 
ATOM      4  C   UNL     1       7.547  -5.762  -2.026  1.00  0.00     0.177 C 
ATOM      5  C   UNL     1       8.835  -6.484  -2.556  1.00  0.00     0.178 C 
ATOM      6  O   UNL     1      10.011  -5.695  -2.411  1.00  0.00    -0.341 OA
ENDROOT
BRANCH   1   7
ATOM      7  O   UNL     1      11.013  -3.648  -3.005  1.00  0.00    -0.350 OA
BRANCH   7   8
ATOM      8  C   UNL     1      12.143  -4.499  -2.974  1.00  0.00     0.160 C 
ATOM      9  C   UNL     1      13.399  -3.655  -2.832  1.00  0.00     0.035 C 
ENDBRANCH   7   8
ENDBRANCH   1   7
BRANCH   2  10
ATOM     10  O   UNL     1       8.066  -2.696  -2.621  1.00  0.00    -0.385 OA
ATOM     11  H   UNL     1       8.055  -3.025  -3.558  1.00  0.00     0.211 HD
ENDBRANCH   2  10
BRANCH   3  12
ATOM     12  O   UNL     1       6.778  -3.953  -0.638  1.00  0.00    -0.387 OA
ATOM     13  H   UNL     1       6.857  -3.916   0.351  1.00  0.00     0.211 HD
ENDBRANCH   3  12
BRANCH   5  14
ATOM     14  C   UNL     1       9.095  -7.844  -1.881  1.00  0.00     0.191 C 
BRANCH  14  15
ATOM     15  O   UNL     1       9.430  -7.682  -0.528  1.00  0.00    -0.394 OA
ATOM     16  H   UNL     1       8.817  -6.992  -0.162  1.00  0.00     0.210 HD
ENDBRANCH  14  15
ENDBRANCH   5  14
BRANCH   4  17
ATOM     17  O   UNL     1       6.686  -6.636  -1.338  1.00  0.00    -0.387 OA
ATOM     18  H   UNL     1       5.842  -6.673  -1.862  1.00  0.00     0.211 HD
ENDBRANCH   4  17
TORSDOF 7
ENDMDL
MODEL 5
REMARK VINA RESULT:    -3.178      7.071      9.258
REMARK INTER + INTRA:          -4.423
REMARK INTER:                  -4.006
REMARK INTRA:                  -0.416
REMARK UNBOUND:                -0.315
REMARK SMILES CCO[C@H]1O[C@@H](CO)[C@@H](O)[C@H](O)[C@@H]1O
REMARK SMILES IDX 4 1 13 2 11 3 9 4 6 5 5 6 3 7 2 8 1 9 14 10 12 12 7 14 8 15
REMARK SMILES IDX 10 17
REMARK H PARENT 14 11 12 13 8 16 10 18
REMARK Flexibility Score: inf
ROOT
ATOM      1  C   UNL     1      17.948  -8.607  -1.420  1.00  0.00     0.281 C 
ATOM      2  C   UNL     1      17.931  -7.228  -0.707  1.00  0.00     0.202 C 
ATOM      3  C   UNL     1      19.308  -6.532  -0.827  1.00  0.00     0.179 C 
ATOM      4  C   UNL     1      20.430  -7.575  -0.749  1.00  0.00     0.177 C 
ATOM      5  C   UNL     1      20.252  -8.648  -1.879  1.00  0.00     0.178 C 
ATOM      6  O   UNL     1      18.942  -8.651  -2.436  1.00  0.00    -0.341 OA
ENDROOT
BRANCH   1   7
ATOM      7  O   UNL     1      16.658  -8.927  -1.925  1.00  0.00    -0.350 OA
BRANCH   7   8
ATOM      8  C   UNL     1      16.110  -7.883  -2.708  1.00  0.00     0.160 C 
ATOM      9  C   UNL     1      14.641  -7.715  -2.356  1.00  0.00     0.035 C 
ENDBRANCH   7   8
ENDBRANCH   1   7
BRANCH   2  10
ATOM     10  O   UNL     1      17.592  -7.422   0.645  1.00  0.00    -0.385 OA
ATOM     11  H   UNL     1      17.482  -8.400   0.780  1.00  0.00     0.211 HD
ENDBRANCH   2  10
BRANCH   3  12
ATOM     12  O   UNL     1      19.475  -5.574   0.186  1.00  0.00    -0.387 OA
ATOM     13  H   UNL     1      19.431  -6.064   1.049  1.00  0.00     0.211 HD
ENDBRANCH   3  12
BRANCH   5  14
ATOM     14  C   UNL     1      21.254  -8.489  -3.037  1.00  0.00     0.191 C 
BRANCH  14  15
ATOM     15  O   UNL     1      22.521  -8.979  -2.682  1.00  0.00    -0.394 OA
ATOM     16  H   UNL     1      22.945  -8.288  -2.108  1.00  0.00     0.210 HD
ENDBRANCH  14  15
ENDBRANCH   5  14
BRANCH   4  17
ATOM     17  O   UNL     1      21.679  -6.931  -0.813  1.00  0.00    -0.387 OA
ATOM     18  H   UNL     1      22.318  -7.587  -1.199  1.00  0.00     0.211 HD
ENDBRANCH   4  17
TORSDOF 7
ENDMDL
MODEL 6
REMARK VINA RESULT:    -3.170      2.627      4.580
REMARK INTER + INTRA:          -4.412
REMARK INTER:                  -4.125
REMARK INTRA:                  -0.287
REMARK UNBOUND:                -0.315
REMARK SMILES CCO[C@H]1O[C@@H](CO)[C@@H](O)[C@H](O)[C@@H]1O
REMARK SMILES IDX 4 1 13 2 11 3 9 4 6 5 5 6 3 7 2 8 1 9 14 10 12 12 7 14 8 15
REMARK SMILES IDX 10 17
REMARK H PARENT 14 11 12 13 8 16 10 18
REMARK Flexibility Score: inf
ROOT
ATOM      1  C   UNL     1       6.531  -6.161  -2.394  1.00  0.00     0.281 C 
ATOM      2  C   UNL     1       6.229  -4.797  -3.072  1.00  0.00     0.202 C 
ATOM      3  C   UNL     1       7.428  -3.831  -2.916  1.00  0.00     0.179 C 
ATOM      4  C   UNL     1       8.087  -4.032  -1.545  1.00  0.00     0.177 C 
ATOM      5  C   UNL     1       8.552  -5.521  -1.381  1.00  0.00     0.178 C 
ATOM      6  O   UNL     1       7.930  -6.399  -2.313  1.00  0.00    -0.341 OA
ENDROOT
BRANCH   1   7
ATOM      7  O   UNL     1       5.851  -7.215  -3.063  1.00  0.00    -0.350 OA
BRANCH   7   8
ATOM      8  C   UNL     1       6.498  -8.464  -2.903  1.00  0.00     0.160 C 
ATOM      9  C   UNL     1       5.996  -9.125  -1.630  1.00  0.00     0.035 C 
ENDBRANCH   7   8
ENDBRANCH   1   7
BRANCH   2  10
ATOM     10  O   UNL     1       5.073  -4.248  -2.487  1.00  0.00    -0.385 OA
ATOM     11  H   UNL     1       5.098  -4.476  -1.520  1.00  0.00     0.211 HD
ENDBRANCH   2  10
BRANCH   3  12
ATOM     12  O   UNL     1       7.015  -2.495  -3.055  1.00  0.00    -0.387 OA
ATOM     13  H   UNL     1       6.023  -2.504  -3.057  1.00  0.00     0.211 HD
ENDBRANCH   3  12
BRANCH   5  14
ATOM     14  C   UNL     1      10.076  -5.704  -1.508  1.00  0.00     0.191 C 
BRANCH  14  15
ATOM     15  O   UNL     1      10.694  -5.685  -0.248  1.00  0.00    -0.394 OA
ATOM     16  H   UNL     1      11.515  -5.133  -0.340  1.00  0.00     0.210 HD
ENDBRANCH  14  15
ENDBRANCH   5  14
BRANCH   4  17
ATOM     17  O   UNL     1       9.147  -3.119  -1.392  1.00  0.00    -0.387 OA
ATOM     18  H   UNL     1       9.647  -3.398  -0.580  1.00  0.00     0.211 HD
ENDBRANCH   4  17
TORSDOF 7
ENDMDL
MODEL 7
REMARK VINA RESULT:    -3.165      1.670      3.341
REMARK INTER + INTRA:          -4.405
REMARK INTER:                  -3.993
REMARK INTRA:                  -0.413
REMARK UNBOUND:                -0.315
REMARK SMILES CCO[C@H]1O[C@@H](CO)[C@@H](O)[C@H](O)[C@@H]1O
REMARK SMILES IDX 4 1 13 2 11 3 9 4 6 5 5 6 3 7 2 8 1 9 14 10 12 12 7 14 8 15
REMARK SMILES IDX 10 17
REMARK H PARENT 14 11 12 13 8 16 10 18
REMARK Flexibility Score: inf
ROOT
ATOM      1  C   UNL     1       8.011  -5.462  -1.335  1.00  0.00     0.281 C 
ATOM      2  C   UNL     1       8.805  -4.330  -2.043  1.00  0.00     0.202 C 
ATOM      3  C   UNL     1      10.180  -4.847  -2.529  1.00  0.00     0.179 C 
ATOM      4  C   UNL     1      10.748  -5.852  -1.519  1.00  0.00     0.177 C 
ATOM      5  C   UNL     1       9.748  -7.044  -1.320  1.00  0.00     0.178 C 
ATOM      6  O   UNL     1       8.434  -6.744  -1.779  1.00  0.00    -0.341 OA
ENDROOT
BRANCH   1   7
ATOM      7  O   UNL     1       6.612  -5.275  -1.505  1.00  0.00    -0.350 OA
BRANCH   7   8
ATOM      8  C   UNL     1       6.231  -5.259  -2.868  1.00  0.00     0.160 C 
ATOM      9  C   UNL     1       5.104  -4.257  -3.058  1.00  0.00     0.035 C 
ENDBRANCH   7   8
ENDBRANCH   1   7
BRANCH   2  10
ATOM     10  O   UNL     1       8.968  -3.262  -1.142  1.00  0.00    -0.385 OA
ATOM     11  H   UNL     1       8.484  -2.483  -1.522  1.00  0.00     0.211 HD
ENDBRANCH   2  10
BRANCH   3  12
ATOM     12  O   UNL     1      11.082  -3.784  -2.701  1.00  0.00    -0.387 OA
ATOM     13  H   UNL     1      11.016  -3.221  -1.886  1.00  0.00     0.211 HD
ENDBRANCH   3  12
BRANCH   5  14
ATOM     14  C   UNL     1      10.201  -8.344  -2.010  1.00  0.00     0.191 C 
BRANCH  14  15
ATOM     15  O   UNL     1      11.096  -9.061  -1.200  1.00  0.00    -0.394 OA
ATOM     16  H   UNL     1      11.894  -8.483  -1.075  1.00  0.00     0.210 HD
ENDBRANCH  14  15
ENDBRANCH   5  14
BRANCH   4  17
ATOM     17  O   UNL     1      12.018  -6.283  -1.944  1.00  0.00    -0.387 OA
ATOM     18  H   UNL     1      12.656  -6.049  -1.218  1.00  0.00     0.211 HD
ENDBRANCH   4  17
TORSDOF 7
ENDMDL
MODEL 8
REMARK VINA RESULT:    -3.113      1.908      3.308
REMARK INTER + INTRA:          -4.338
REMARK INTER:                  -3.923
REMARK INTRA:                  -0.415
REMARK UNBOUND:                -0.315
REMARK SMILES CCO[C@H]1O[C@@H](CO)[C@@H](O)[C@H](O)[C@@H]1O
REMARK SMILES IDX 4 1 13 2 11 3 9 4 6 5 5 6 3 7 2 8 1 9 14 10 12 12 7 14 8 15
REMARK SMILES IDX 10 17
REMARK H PARENT 14 11 12 13 8 16 10 18
REMARK Flexibility Score: inf
ROOT
ATOM      1  C   UNL     1      10.440  -7.194  -1.085  1.00  0.00     0.281 C 
ATOM      2  C   UNL     1       9.920  -5.828  -1.611  1.00  0.00     0.202 C 
ATOM      3  C   UNL     1      10.972  -5.157  -2.526  1.00  0.00     0.179 C 
ATOM      4  C   UNL     1      12.384  -5.443  -1.998  1.00  0.00     0.177 C 
ATOM      5  C   UNL     1      12.628  -6.990  -1.916  1.00  0.00     0.178 C 
ATOM      6  O   UNL     1      11.421  -7.743  -1.956  1.00  0.00    -0.341 OA
ENDROOT
BRANCH   1   7
ATOM      7  O   UNL     1       9.360  -8.092  -0.869  1.00  0.00    -0.350 OA
BRANCH   7   8
ATOM      8  C   UNL     1       8.379  -8.013  -1.886  1.00  0.00     0.160 C 
ATOM      9  C   UNL     1       6.999  -8.127  -1.258  1.00  0.00     0.035 C 
ENDBRANCH   7   8
ENDBRANCH   1   7
BRANCH   2  10
ATOM     10  O   UNL     1       9.625  -5.003  -0.510  1.00  0.00    -0.385 OA
ATOM     11  H   UNL     1       8.761  -5.317  -0.134  1.00  0.00     0.211 HD
ENDBRANCH   2  10
BRANCH   3  12
ATOM     12  O   UNL     1      10.762  -3.770  -2.598  1.00  0.00    -0.387 OA
ATOM     13  H   UNL     1       9.794  -3.622  -2.433  1.00  0.00     0.211 HD
ENDBRANCH   3  12
BRANCH   5  14
ATOM     14  C   UNL     1      13.551  -7.524  -3.028  1.00  0.00     0.191 C 
BRANCH  14  15
ATOM     15  O   UNL     1      14.897  -7.240  -2.747  1.00  0.00    -0.394 OA
ATOM     16  H   UNL     1      15.019  -7.367  -1.770  1.00  0.00     0.210 HD
ENDBRANCH  14  15
ENDBRANCH   5  14
BRANCH   4  17
ATOM     17  O   UNL     1      13.332  -4.792  -2.808  1.00  0.00    -0.387 OA
ATOM     18  H   UNL     1      13.294  -5.231  -3.699  1.00  0.00     0.211 HD
ENDBRANCH   4  17
TORSDOF 7
ENDMDL
MODEL 9
REMARK VINA RESULT:    -3.026      2.651      5.339
REMARK INTER + INTRA:          -4.226
REMARK INTER:                  -3.827
REMARK INTRA:                  -0.399
REMARK UNBOUND:                -0.315
REMARK SMILES CCO[C@H]1O[C@@H](CO)[C@@H](O)[C@H](O)[C@@H]1O
REMARK SMILES IDX 4 1 13 2 11 3 9 4 6 5 5 6 3 7 2 8 1 9 14 10 12 12 7 14 8 15
REMARK SMILES IDX 10 17
REMARK H PARENT 14 11 12 13 8 16 10 18
REMARK Flexibility Score: inf
ROOT
ATOM      1  C   UNL     1       8.017  -6.096  -2.028  1.00  0.00     0.281 C 
ATOM      2  C   UNL     1       8.734  -4.990  -1.207  1.00  0.00     0.202 C 
ATOM      3  C   UNL     1       8.003  -3.634  -1.358  1.00  0.00     0.179 C 
ATOM      4  C   UNL     1       7.460  -3.489  -2.786  1.00  0.00     0.177 C 
ATOM      5  C   UNL     1       6.494  -4.679  -3.121  1.00  0.00     0.178 C 
ATOM      6  O   UNL     1       6.646  -5.781  -2.232  1.00  0.00    -0.341 OA
ENDROOT
BRANCH   1   7
ATOM      7  O   UNL     1       8.184  -7.366  -1.413  1.00  0.00    -0.350 OA
BRANCH   7   8
ATOM      8  C   UNL     1       7.146  -8.269  -1.745  1.00  0.00     0.160 C 
ATOM      9  C   UNL     1       6.711  -9.011  -0.491  1.00  0.00     0.035 C 
ENDBRANCH   7   8
ENDBRANCH   1   7
BRANCH   2  10
ATOM     10  O   UNL     1      10.065  -4.887  -1.653  1.00  0.00    -0.385 OA
ATOM     11  H   UNL     1      10.334  -3.937  -1.549  1.00  0.00     0.211 HD
ENDBRANCH   2  10
BRANCH   3  12
ATOM     12  O   UNL     1       8.866  -2.565  -1.065  1.00  0.00    -0.387 OA
ATOM     13  H   UNL     1       9.685  -2.962  -0.670  1.00  0.00     0.211 HD
ENDBRANCH   3  12
BRANCH   5  14
ATOM     14  C   UNL     1       5.007  -4.278  -3.123  1.00  0.00     0.191 C 
BRANCH  14  15
ATOM     15  O   UNL     1       4.588  -3.882  -1.843  1.00  0.00    -0.394 OA
ATOM     16  H   UNL     1       4.915  -2.954  -1.709  1.00  0.00     0.210 HD
ENDBRANCH  14  15
ENDBRANCH   5  14
BRANCH   4  17
ATOM     17  O   UNL     1       6.837  -2.236  -2.929  1.00  0.00    -0.387 OA
ATOM     18  H   UNL     1       6.390  -2.040  -2.063  1.00  0.00     0.211 HD
ENDBRANCH   4  17
TORSDOF 7
ENDMDL
