MODEL 1
REMARK VINA RESULT:    -4.418      0.000      0.000
REMARK INTER + INTRA:          -4.842
REMARK INTER:                  -4.806
REMARK INTRA:                  -0.036
REMARK UNBOUND:                -0.036
REMARK SMILES O=C([O-])c1ccc(O)cc1
REMARK SMILES IDX 4 1 5 2 10 3 6 4 9 5 7 6 2 7 1 8 3 9 8 10
REMARK H PARENT 8 11
REMARK Flexibility Score: inf
ROOT
ATOM      1  C   UNL     1      20.306  -0.498 -19.908  1.00  0.00    -0.003 A 
ATOM      2  C   UNL     1      20.833   0.797 -19.747  1.00  0.00     0.014 A 
ATOM      3  C   UNL     1      20.408  -1.124 -21.164  1.00  0.00     0.014 A 
ATOM      4  C   UNL     1      21.448   1.450 -20.820  1.00  0.00     0.047 A 
ATOM      5  C   UNL     1      21.024  -0.467 -22.235  1.00  0.00     0.047 A 
ATOM      6  C   UNL     1      21.546   0.822 -22.064  1.00  0.00     0.115 A 
ENDROOT
BRANCH   1   7
ATOM      7  C   UNL     1      19.654  -1.194 -18.778  1.00  0.00     0.071 C 
ATOM      8  O   UNL     1      19.146  -2.337 -18.936  1.00  0.00    -0.545 OA
ATOM      9  O   UNL     1      19.592  -0.597 -17.524  1.00  0.00    -0.545 OA
ENDBRANCH   1   7
BRANCH   6  10
ATOM     10  O   UNL     1      22.161   1.485 -23.124  1.00  0.00    -0.508 OA
ATOM     11  H   UNL     1      21.670   2.187 -23.665  1.00  0.00     0.293 HD
ENDBRANCH   6  10
TORSDOF 2
ENDMDL
MODEL 2
REMARK VINA RESULT:    -4.406      1.197      4.281
REMARK INTER + INTRA:          -4.829
REMARK INTER:                  -4.801
REMARK INTRA:                  -0.028
REMARK UNBOUND:                -0.036
REMARK SMILES O=C([O-])c1ccc(O)cc1
REMARK SMILES IDX 4 1 5 2 10 3 6 4 9 5 7 6 2 7 1 8 3 9 8 10
REMARK H PARENT 8 11
REMARK Flexibility Score: inf
ROOT
ATOM      1  C   UNL     1      20.803   0.398 -20.651  1.00  0.00    -0.003 A 
ATOM      2  C   UNL     1      21.353   0.561 -19.365  1.00  0.00     0.014 A 
ATOM      3  C   UNL     1      19.603  -0.322 -20.792  1.00  0.00     0.014 A 
ATOM      4  C   UNL     1      20.714   0.015 -18.247  1.00  0.00     0.047 A 
ATOM      5  C   UNL     1      18.966  -0.866 -19.672  1.00  0.00     0.047 A 
ATOM      6  C   UNL     1      19.520  -0.698 -18.396  1.00  0.00     0.115 A 
ENDROOT
BRANCH   1   7
ATOM      7  C   UNL     1      21.474   0.972 -21.837  1.00  0.00     0.071 C 
ATOM      8  O   UNL     1      21.495   2.218 -22.021  1.00  0.00    -0.545 OA
ATOM      9  O   UNL     1      22.093   0.143 -22.767  1.00  0.00    -0.545 OA
ENDBRANCH   1   7
BRANCH   6  10
ATOM     10  O   UNL     1      18.895  -1.236 -17.274  1.00  0.00    -0.508 OA
ATOM     11  H   UNL     1      18.914  -2.231 -17.083  1.00  0.00     0.293 HD
ENDBRANCH   6  10
TORSDOF 2
ENDMDL
MODEL 3
REMARK VINA RESULT:    -4.401      1.185      4.485
REMARK INTER + INTRA:          -4.823
REMARK INTER:                  -4.795
REMARK INTRA:                  -0.028
REMARK UNBOUND:                -0.036
REMARK SMILES O=C([O-])c1ccc(O)cc1
REMARK SMILES IDX 4 1 5 2 10 3 6 4 9 5 7 6 2 7 1 8 3 9 8 10
REMARK H PARENT 8 11
REMARK Flexibility Score: inf
ROOT
ATOM      1  C   UNL     1      20.810   0.405 -20.657  1.00  0.00    -0.003 A 
ATOM      2  C   UNL     1      19.621  -0.330 -20.818  1.00  0.00     0.014 A 
ATOM      3  C   UNL     1      21.339   0.571 -19.365  1.00  0.00     0.014 A 
ATOM      4  C   UNL     1      18.976  -0.885 -19.708  1.00  0.00     0.047 A 
ATOM      5  C   UNL     1      20.692   0.014 -18.257  1.00  0.00     0.047 A 
ATOM      6  C   UNL     1      19.508  -0.716 -18.427  1.00  0.00     0.115 A 
ENDROOT
BRANCH   1   7
ATOM      7  C   UNL     1      21.497   0.995 -21.826  1.00  0.00     0.071 C 
ATOM      8  O   UNL     1      21.506   2.243 -22.002  1.00  0.00    -0.545 OA
ATOM      9  O   UNL     1      22.143   0.180 -22.750  1.00  0.00    -0.545 OA
ENDBRANCH   1   7
BRANCH   6  10
ATOM     10  O   UNL     1      18.855  -1.275 -17.331  1.00  0.00    -0.508 OA
ATOM     11  H   UNL     1      18.036  -0.838 -16.923  1.00  0.00     0.293 HD
ENDBRANCH   6  10
TORSDOF 2
ENDMDL
MODEL 4
REMARK VINA RESULT:    -4.198     19.149     20.498
REMARK INTER + INTRA:          -4.602
REMARK INTER:                  -4.571
REMARK INTRA:                  -0.031
REMARK UNBOUND:                -0.036
REMARK SMILES O=C([O-])c1ccc(O)cc1
REMARK SMILES IDX 4 1 5 2 10 3 6 4 9 5 7 6 2 7 1 8 3 9 8 10
REMARK H PARENT 8 11
REMARK Flexibility Score: inf
ROOT
ATOM      1  C   UNL     1       4.845   5.360  -9.023  1.00  0.00    -0.003 A 
ATOM      2  C   UNL     1       4.134   4.902  -7.898  1.00  0.00     0.014 A 
ATOM      3  C   UNL     1       6.060   4.738  -9.361  1.00  0.00     0.014 A 
ATOM      4  C   UNL     1       4.631   3.846  -7.128  1.00  0.00     0.047 A 
ATOM      5  C   UNL     1       6.554   3.681  -8.589  1.00  0.00     0.047 A 
ATOM      6  C   UNL     1       5.840   3.232  -7.471  1.00  0.00     0.115 A 
ENDROOT
BRANCH   1   7
ATOM      7  C   UNL     1       4.325   6.477  -9.841  1.00  0.00     0.071 C 
ATOM      8  O   UNL     1       3.876   7.519  -9.292  1.00  0.00    -0.545 OA
ATOM      9  O   UNL     1       4.325   6.394 -11.229  1.00  0.00    -0.545 OA
ENDBRANCH   1   7
BRANCH   6  10
ATOM     10  O   UNL     1       6.322   2.181  -6.694  1.00  0.00    -0.508 OA
ATOM     11  H   UNL     1       5.860   1.279  -6.678  1.00  0.00     0.293 HD
ENDBRANCH   6  10
TORSDOF 2
ENDMDL
MODEL 5
REMARK VINA RESULT:    -4.082     19.010     20.359
REMARK INTER + INTRA:          -4.476
REMARK INTER:                  -4.442
REMARK INTRA:                  -0.035
REMARK UNBOUND:                -0.036
REMARK SMILES O=C([O-])c1ccc(O)cc1
REMARK SMILES IDX 4 1 5 2 10 3 6 4 9 5 7 6 2 7 1 8 3 9 8 10
REMARK H PARENT 8 11
REMARK Flexibility Score: inf
ROOT
ATOM      1  C   UNL     1       5.048   5.631  -9.231  1.00  0.00    -0.003 A 
ATOM      2  C   UNL     1       6.187   4.874  -9.567  1.00  0.00     0.014 A 
ATOM      3  C   UNL     1       4.270   5.238  -8.127  1.00  0.00     0.014 A 
ATOM      4  C   UNL     1       6.537   3.749  -8.813  1.00  0.00     0.047 A 
ATOM      5  C   UNL     1       4.624   4.113  -7.375  1.00  0.00     0.047 A 
ATOM      6  C   UNL     1       5.759   3.366  -7.717  1.00  0.00     0.115 A 
ENDROOT
BRANCH   1   7
ATOM      7  C   UNL     1       4.672   6.820 -10.024  1.00  0.00     0.071 C 
ATOM      8  O   UNL     1       5.068   6.950 -11.214  1.00  0.00    -0.545 OA
ATOM      9  O   UNL     1       3.875   7.816  -9.469  1.00  0.00    -0.545 OA
ENDBRANCH   1   7
BRANCH   6  10
ATOM     10  O   UNL     1       6.120   2.243  -6.975  1.00  0.00    -0.508 OA
ATOM     11  H   UNL     1       5.616   1.368  -7.060  1.00  0.00     0.293 HD
ENDBRANCH   6  10
TORSDOF 2
ENDMDL
MODEL 6
REMARK VINA RESULT:    -4.042     17.363     18.307
REMARK INTER + INTRA:          -4.432
REMARK INTER:                  -4.405
REMARK INTRA:                  -0.027
REMARK UNBOUND:                -0.036
REMARK SMILES O=C([O-])c1ccc(O)cc1
REMARK SMILES IDX 4 1 5 2 10 3 6 4 9 5 7 6 2 7 1 8 3 9 8 10
REMARK H PARENT 8 11
REMARK Flexibility Score: inf
ROOT
ATOM      1  C   UNL     1       8.545  -7.155  -8.979  1.00  0.00    -0.003 A 
ATOM      2  C   UNL     1       7.781  -6.422  -8.051  1.00  0.00     0.014 A 
ATOM      3  C   UNL     1       9.948  -7.125  -8.882  1.00  0.00     0.014 A 
ATOM      4  C   UNL     1       8.410  -5.675  -7.049  1.00  0.00     0.047 A 
ATOM      5  C   UNL     1      10.573  -6.377  -7.879  1.00  0.00     0.047 A 
ATOM      6  C   UNL     1       9.805  -5.651  -6.959  1.00  0.00     0.115 A 
ENDROOT
BRANCH   1   7
ATOM      7  C   UNL     1       7.886  -7.946 -10.040  1.00  0.00     0.071 C 
ATOM      8  O   UNL     1       7.327  -9.042  -9.770  1.00  0.00    -0.545 OA
ATOM      9  O   UNL     1       7.875  -7.491 -11.355  1.00  0.00    -0.545 OA
ENDBRANCH   1   7
BRANCH   6  10
ATOM     10  O   UNL     1      10.417  -4.902  -5.957  1.00  0.00    -0.508 OA
ATOM     11  H   UNL     1      11.423  -4.791  -5.918  1.00  0.00     0.293 HD
ENDBRANCH   6  10
TORSDOF 2
ENDMDL
MODEL 7
REMARK VINA RESULT:    -3.924     17.033     18.872
REMARK INTER + INTRA:          -4.304
REMARK INTER:                  -4.269
REMARK INTRA:                  -0.035
REMARK UNBOUND:                -0.036
REMARK SMILES O=C([O-])c1ccc(O)cc1
REMARK SMILES IDX 4 1 5 2 10 3 6 4 9 5 7 6 2 7 1 8 3 9 8 10
REMARK H PARENT 8 11
REMARK Flexibility Score: inf
ROOT
ATOM      1  C   UNL     1       9.851  -7.371  -7.782  1.00  0.00    -0.003 A 
ATOM      2  C   UNL     1      10.197  -6.053  -7.429  1.00  0.00     0.014 A 
ATOM      3  C   UNL     1       8.736  -7.970  -7.169  1.00  0.00     0.014 A 
ATOM      4  C   UNL     1       9.443  -5.352  -6.482  1.00  0.00     0.047 A 
ATOM      5  C   UNL     1       7.983  -7.266  -6.223  1.00  0.00     0.047 A 
ATOM      6  C   UNL     1       8.336  -5.955  -5.878  1.00  0.00     0.115 A 
ENDROOT
BRANCH   1   7
ATOM      7  C   UNL     1      10.644  -8.117  -8.782  1.00  0.00     0.071 C 
ATOM      8  O   UNL     1      10.541  -9.369  -8.878  1.00  0.00    -0.545 OA
ATOM      9  O   UNL     1      11.517  -7.447  -9.633  1.00  0.00    -0.545 OA
ENDBRANCH   1   7
BRANCH   6  10
ATOM     10  O   UNL     1       7.594  -5.244  -4.936  1.00  0.00    -0.508 OA
ATOM     11  H   UNL     1       7.102  -4.394  -5.183  1.00  0.00     0.293 HD
ENDBRANCH   6  10
TORSDOF 2
ENDMDL
MODEL 8
REMARK VINA RESULT:    -3.919     15.684     17.322
REMARK INTER + INTRA:          -4.299
REMARK INTER:                  -4.271
REMARK INTRA:                  -0.028
REMARK UNBOUND:                -0.036
REMARK SMILES O=C([O-])c1ccc(O)cc1
REMARK SMILES IDX 4 1 5 2 10 3 6 4 9 5 7 6 2 7 1 8 3 9 8 10
REMARK H PARENT 8 11
REMARK Flexibility Score: inf
ROOT
ATOM      1  C   UNL     1       9.915  -5.986  -9.283  1.00  0.00    -0.003 A 
ATOM      2  C   UNL     1       9.434  -6.001  -7.960  1.00  0.00     0.014 A 
ATOM      3  C   UNL     1       9.114  -5.423 -10.293  1.00  0.00     0.014 A 
ATOM      4  C   UNL     1       8.178  -5.466  -7.658  1.00  0.00     0.047 A 
ATOM      5  C   UNL     1       7.858  -4.888  -9.986  1.00  0.00     0.047 A 
ATOM      6  C   UNL     1       7.388  -4.908  -8.667  1.00  0.00     0.115 A 
ENDROOT
BRANCH   1   7
ATOM      7  C   UNL     1      11.242  -6.550  -9.611  1.00  0.00     0.071 C 
ATOM      8  O   UNL     1      12.295  -5.998  -9.193  1.00  0.00    -0.545 OA
ATOM      9  O   UNL     1      11.347  -7.701 -10.385  1.00  0.00    -0.545 OA
ENDBRANCH   1   7
BRANCH   6  10
ATOM     10  O   UNL     1       6.139  -4.379  -8.349  1.00  0.00    -0.508 OA
ATOM     11  H   UNL     1       5.450  -4.182  -9.066  1.00  0.00     0.293 HD
ENDBRANCH   6  10
TORSDOF 2
ENDMDL
