MODEL 1
REMARK VINA RESULT:    -3.867      0.000      0.000
REMARK INTER + INTRA:          -4.477
REMARK INTER:                  -4.432
REMARK INTRA:                  -0.045
REMARK UNBOUND:                -0.045
REMARK SMILES O=C([O-])c1cc(O)c(O)c(O)c1
REMARK SMILES IDX 4 1 5 2 12 3 6 4 10 5 8 6 2 7 1 8 3 9 7 10 11 12 9 14
REMARK H PARENT 7 11 11 13 9 15
REMARK Flexibility Score: inf
ROOT
ATOM      1  C   UNL     1       4.128  38.266   7.144  1.00  0.00     0.005 A 
ATOM      2  C   UNL     1       4.713  39.527   6.939  1.00  0.00     0.060 A 
ATOM      3  C   UNL     1       4.736  37.372   8.043  1.00  0.00     0.060 A 
ATOM      4  C   UNL     1       5.883  39.891   7.618  1.00  0.00     0.162 A 
ATOM      5  C   UNL     1       5.908  37.731   8.725  1.00  0.00     0.162 A 
ATOM      6  C   UNL     1       6.483  38.995   8.511  1.00  0.00     0.200 A 
ENDROOT
BRANCH   1   7
ATOM      7  C   UNL     1       2.893  37.889   6.425  1.00  0.00     0.072 C 
ATOM      8  O   UNL     1       2.952  37.339   5.293  1.00  0.00    -0.545 OA
ATOM      9  O   UNL     1       1.646  38.134   6.989  1.00  0.00    -0.545 OA
ENDBRANCH   1   7
BRANCH   4  10
ATOM     10  O   UNL     1       6.458  41.144   7.409  1.00  0.00    -0.504 OA
ATOM     11  H   UNL     1       5.925  41.998   7.523  1.00  0.00     0.293 HD
ENDBRANCH   4  10
BRANCH   5  12
ATOM     12  O   UNL     1       6.502  36.836   9.614  1.00  0.00    -0.504 OA
ATOM     13  H   UNL     1       6.795  35.911   9.320  1.00  0.00     0.293 HD
ENDBRANCH   5  12
BRANCH   6  14
ATOM     14  O   UNL     1       7.649  39.374   9.178  1.00  0.00    -0.502 OA
ATOM     15  H   UNL     1       7.862  40.342   9.382  1.00  0.00     0.293 HD
ENDBRANCH   6  14
TORSDOF 4
ENDMDL
MODEL 2
REMARK VINA RESULT:    -3.862      0.021      2.421
REMARK INTER + INTRA:          -4.471
REMARK INTER:                  -4.427
REMARK INTRA:                  -0.045
REMARK UNBOUND:                -0.045
REMARK SMILES O=C([O-])c1cc(O)c(O)c(O)c1
REMARK SMILES IDX 4 1 5 2 12 3 6 4 10 5 8 6 2 7 1 8 3 9 7 10 11 12 9 14
REMARK H PARENT 7 11 11 13 9 15
REMARK Flexibility Score: inf
ROOT
ATOM      1  C   UNL     1       4.129  38.280   7.149  1.00  0.00     0.005 A 
ATOM      2  C   UNL     1       4.734  37.385   8.046  1.00  0.00     0.060 A 
ATOM      3  C   UNL     1       4.718  39.540   6.941  1.00  0.00     0.060 A 
ATOM      4  C   UNL     1       5.908  37.739   8.724  1.00  0.00     0.162 A 
ATOM      5  C   UNL     1       5.892  39.899   7.617  1.00  0.00     0.162 A 
ATOM      6  C   UNL     1       6.488  38.996   8.512  1.00  0.00     0.200 A 
ENDROOT
BRANCH   1   7
ATOM      7  C   UNL     1       2.890  37.900   6.436  1.00  0.00     0.072 C 
ATOM      8  O   UNL     1       2.944  37.329   5.315  1.00  0.00    -0.545 OA
ATOM      9  O   UNL     1       1.645  38.168   6.995  1.00  0.00    -0.545 OA
ENDBRANCH   1   7
BRANCH   4  10
ATOM     10  O   UNL     1       6.504  36.847   9.614  1.00  0.00    -0.504 OA
ATOM     11  H   UNL     1       6.391  36.941  10.616  1.00  0.00     0.293 HD
ENDBRANCH   4  10
BRANCH   5  12
ATOM     12  O   UNL     1       6.467  41.151   7.403  1.00  0.00    -0.504 OA
ATOM     13  H   UNL     1       7.270  41.271   6.796  1.00  0.00     0.293 HD
ENDBRANCH   5  12
BRANCH   6  14
ATOM     14  O   UNL     1       7.657  39.332   9.197  1.00  0.00    -0.502 OA
ATOM     15  H   UNL     1       8.554  39.397   8.733  1.00  0.00     0.293 HD
ENDBRANCH   6  14
TORSDOF 4
ENDMDL
MODEL 3
REMARK VINA RESULT:    -3.772      3.251      6.103
REMARK INTER + INTRA:          -4.368
REMARK INTER:                  -4.323
REMARK INTRA:                  -0.045
REMARK UNBOUND:                -0.045
REMARK SMILES O=C([O-])c1cc(O)c(O)c(O)c1
REMARK SMILES IDX 4 1 5 2 12 3 6 4 10 5 8 6 2 7 1 8 3 9 7 10 11 12 9 14
REMARK H PARENT 7 11 11 13 9 15
REMARK Flexibility Score: inf
ROOT
ATOM      1  C   UNL     1       2.222  37.649   5.754  1.00  0.00     0.005 A 
ATOM      2  C   UNL     1       2.020  36.313   5.368  1.00  0.00     0.060 A 
ATOM      3  C   UNL     1       1.204  38.315   6.459  1.00  0.00     0.060 A 
ATOM      4  C   UNL     1       0.825  35.652   5.681  1.00  0.00     0.162 A 
ATOM      5  C   UNL     1       0.006  37.659   6.775  1.00  0.00     0.162 A 
ATOM      6  C   UNL     1      -0.184  36.323   6.383  1.00  0.00     0.200 A 
ENDROOT
BRANCH   1   7
ATOM      7  C   UNL     1       3.486  38.340   5.421  1.00  0.00     0.072 C 
ATOM      8  O   UNL     1       3.696  38.767   4.255  1.00  0.00    -0.545 OA
ATOM      9  O   UNL     1       4.462  38.531   6.393  1.00  0.00    -0.545 OA
ENDBRANCH   1   7
BRANCH   4  10
ATOM     10  O   UNL     1       0.631  34.327   5.295  1.00  0.00    -0.504 OA
ATOM     11  H   UNL     1       1.089  33.939   4.479  1.00  0.00     0.293 HD
ENDBRANCH   4  10
BRANCH   5  12
ATOM     12  O   UNL     1      -0.996  38.330   7.474  1.00  0.00    -0.504 OA
ATOM     13  H   UNL     1      -1.274  39.273   7.229  1.00  0.00     0.293 HD
ENDBRANCH   5  12
BRANCH   6  14
ATOM     14  O   UNL     1      -1.368  35.649   6.685  1.00  0.00    -0.502 OA
ATOM     15  H   UNL     1      -1.534  34.694   6.394  1.00  0.00     0.293 HD
ENDBRANCH   6  14
TORSDOF 4
ENDMDL
MODEL 4
REMARK VINA RESULT:    -3.768      3.317      5.877
REMARK INTER + INTRA:          -4.364
REMARK INTER:                  -4.318
REMARK INTRA:                  -0.045
REMARK UNBOUND:                -0.045
REMARK SMILES O=C([O-])c1cc(O)c(O)c(O)c1
REMARK SMILES IDX 4 1 5 2 12 3 6 4 10 5 8 6 2 7 1 8 3 9 7 10 11 12 9 14
REMARK H PARENT 7 11 11 13 9 15
REMARK Flexibility Score: inf
ROOT
ATOM      1  C   UNL     1       2.216  37.668   5.723  1.00  0.00     0.005 A 
ATOM      2  C   UNL     1       1.204  38.338   6.431  1.00  0.00     0.060 A 
ATOM      3  C   UNL     1       2.012  36.330   5.345  1.00  0.00     0.060 A 
ATOM      4  C   UNL     1       0.009  37.684   6.757  1.00  0.00     0.162 A 
ATOM      5  C   UNL     1       0.817  35.670   5.669  1.00  0.00     0.162 A 
ATOM      6  C   UNL     1      -0.187  36.350   6.378  1.00  0.00     0.200 A 
ENDROOT
BRANCH   1   7
ATOM      7  C   UNL     1       3.475  38.364   5.382  1.00  0.00     0.072 C 
ATOM      8  O   UNL     1       4.357  38.562   6.260  1.00  0.00    -0.545 OA
ATOM      9  O   UNL     1       3.706  38.810   4.085  1.00  0.00    -0.545 OA
ENDBRANCH   1   7
BRANCH   4  10
ATOM     10  O   UNL     1      -0.992  38.353   7.460  1.00  0.00    -0.504 OA
ATOM     11  H   UNL     1      -1.093  39.360   7.409  1.00  0.00     0.293 HD
ENDBRANCH   4  10
BRANCH   5  12
ATOM     12  O   UNL     1       0.626  34.342   5.290  1.00  0.00    -0.504 OA
ATOM     13  H   UNL     1       0.010  34.091   4.525  1.00  0.00     0.293 HD
ENDBRANCH   5  12
BRANCH   6  14
ATOM     14  O   UNL     1      -1.384  35.715   6.712  1.00  0.00    -0.502 OA
ATOM     15  H   UNL     1      -1.416  34.920   7.338  1.00  0.00     0.293 HD
ENDBRANCH   6  14
TORSDOF 4
ENDMDL
MODEL 5
REMARK VINA RESULT:    -3.633      5.551      7.734
REMARK INTER + INTRA:          -4.209
REMARK INTER:                  -4.163
REMARK INTRA:                  -0.046
REMARK UNBOUND:                -0.045
REMARK SMILES O=C([O-])c1cc(O)c(O)c(O)c1
REMARK SMILES IDX 4 1 5 2 12 3 6 4 10 5 8 6 2 7 1 8 3 9 7 10 11 12 9 14
REMARK H PARENT 7 11 11 13 9 15
REMARK Flexibility Score: inf
ROOT
ATOM      1  C   UNL     1      -0.124  36.286   5.938  1.00  0.00     0.005 A 
ATOM      2  C   UNL     1      -0.938  35.145   6.039  1.00  0.00     0.060 A 
ATOM      3  C   UNL     1      -0.508  37.459   6.612  1.00  0.00     0.060 A 
ATOM      4  C   UNL     1      -2.114  35.173   6.799  1.00  0.00     0.162 A 
ATOM      5  C   UNL     1      -1.685  37.492   7.374  1.00  0.00     0.162 A 
ATOM      6  C   UNL     1      -2.490  36.345   7.467  1.00  0.00     0.200 A 
ENDROOT
BRANCH   1   7
ATOM      7  C   UNL     1       1.116  36.251   5.134  1.00  0.00     0.072 C 
ATOM      8  O   UNL     1       2.070  35.495   5.459  1.00  0.00    -0.545 OA
ATOM      9  O   UNL     1       1.248  37.052   4.005  1.00  0.00    -0.545 OA
ENDBRANCH   1   7
BRANCH   4  10
ATOM     10  O   UNL     1      -2.918  34.038   6.895  1.00  0.00    -0.504 OA
ATOM     11  H   UNL     1      -3.899  34.101   7.139  1.00  0.00     0.293 HD
ENDBRANCH   4  10
BRANCH   5  12
ATOM     12  O   UNL     1      -2.056  38.660   8.038  1.00  0.00    -0.504 OA
ATOM     13  H   UNL     1      -1.366  39.305   8.405  1.00  0.00     0.293 HD
ENDBRANCH   5  12
BRANCH   6  14
ATOM     14  O   UNL     1      -3.666  36.354   8.219  1.00  0.00    -0.502 OA
ATOM     15  H   UNL     1      -4.170  35.505   8.441  1.00  0.00     0.293 HD
ENDBRANCH   6  14
TORSDOF 4
ENDMDL
MODEL 6
REMARK VINA RESULT:    -3.623      5.518      7.442
REMARK INTER + INTRA:          -4.197
REMARK INTER:                  -4.151
REMARK INTRA:                  -0.046
REMARK UNBOUND:                -0.045
REMARK SMILES O=C([O-])c1cc(O)c(O)c(O)c1
REMARK SMILES IDX 4 1 5 2 12 3 6 4 10 5 8 6 2 7 1 8 3 9 7 10 11 12 9 14
REMARK H PARENT 7 11 11 13 9 15
REMARK Flexibility Score: inf
ROOT
ATOM      1  C   UNL     1      -0.122  36.291   5.969  1.00  0.00     0.005 A 
ATOM      2  C   UNL     1      -0.526  37.464   6.628  1.00  0.00     0.060 A 
ATOM      3  C   UNL     1      -0.920  35.138   6.079  1.00  0.00     0.060 A 
ATOM      4  C   UNL     1      -1.705  37.488   7.383  1.00  0.00     0.162 A 
ATOM      5  C   UNL     1      -2.101  35.157   6.834  1.00  0.00     0.162 A 
ATOM      6  C   UNL     1      -2.494  36.335   7.489  1.00  0.00     0.200 A 
ENDROOT
BRANCH   1   7
ATOM      7  C   UNL     1       1.124  36.272   5.172  1.00  0.00     0.072 C 
ATOM      8  O   UNL     1       2.081  35.519   5.496  1.00  0.00    -0.545 OA
ATOM      9  O   UNL     1       1.257  37.086   4.053  1.00  0.00    -0.545 OA
ENDBRANCH   1   7
BRANCH   4  10
ATOM     10  O   UNL     1      -2.101  38.655   8.036  1.00  0.00    -0.504 OA
ATOM     11  H   UNL     1      -2.781  38.639   8.787  1.00  0.00     0.293 HD
ENDBRANCH   4  10
BRANCH   5  12
ATOM     12  O   UNL     1      -2.883  34.007   6.936  1.00  0.00    -0.504 OA
ATOM     13  H   UNL     1      -3.416  33.656   6.150  1.00  0.00     0.293 HD
ENDBRANCH   5  12
BRANCH   6  14
ATOM     14  O   UNL     1      -3.665  36.378   8.247  1.00  0.00    -0.502 OA
ATOM     15  H   UNL     1      -4.583  36.328   7.823  1.00  0.00     0.293 HD
ENDBRANCH   6  14
TORSDOF 4
ENDMDL
MODEL 7
REMARK VINA RESULT:    -3.540      5.040      6.487
REMARK INTER + INTRA:          -4.103
REMARK INTER:                  -4.056
REMARK INTRA:                  -0.046
REMARK UNBOUND:                -0.045
REMARK SMILES O=C([O-])c1cc(O)c(O)c(O)c1
REMARK SMILES IDX 4 1 5 2 12 3 6 4 10 5 8 6 2 7 1 8 3 9 7 10 11 12 9 14
REMARK H PARENT 7 11 11 13 9 15
REMARK Flexibility Score: inf
ROOT
ATOM      1  C   UNL     1      -0.483  38.058   6.813  1.00  0.00     0.005 A 
ATOM      2  C   UNL     1       0.752  37.879   6.169  1.00  0.00     0.060 A 
ATOM      3  C   UNL     1      -1.336  36.951   6.972  1.00  0.00     0.060 A 
ATOM      4  C   UNL     1       1.132  36.618   5.691  1.00  0.00     0.162 A 
ATOM      5  C   UNL     1      -0.961  35.687   6.495  1.00  0.00     0.162 A 
ATOM      6  C   UNL     1       0.277  35.521   5.852  1.00  0.00     0.200 A 
ENDROOT
BRANCH   1   7
ATOM      7  C   UNL     1      -0.878  39.392   7.316  1.00  0.00     0.072 C 
ATOM      8  O   UNL     1      -1.924  39.953   6.893  1.00  0.00    -0.545 OA
ATOM      9  O   UNL     1      -0.100  40.046   8.265  1.00  0.00    -0.545 OA
ENDBRANCH   1   7
BRANCH   4  10
ATOM     10  O   UNL     1       2.359  36.447   5.052  1.00  0.00    -0.504 OA
ATOM     11  H   UNL     1       2.439  36.467   4.042  1.00  0.00     0.293 HD
ENDBRANCH   4  10
BRANCH   5  12
ATOM     12  O   UNL     1      -1.815  34.597   6.658  1.00  0.00    -0.504 OA
ATOM     13  H   UNL     1      -1.712  33.952   7.433  1.00  0.00     0.293 HD
ENDBRANCH   5  12
BRANCH   6  14
ATOM     14  O   UNL     1       0.671  34.272   5.369  1.00  0.00    -0.502 OA
ATOM     15  H   UNL     1       0.070  33.706   4.784  1.00  0.00     0.293 HD
ENDBRANCH   6  14
TORSDOF 4
ENDMDL
MODEL 8
REMARK VINA RESULT:    -3.540      5.064      6.686
REMARK INTER + INTRA:          -4.102
REMARK INTER:                  -4.056
REMARK INTRA:                  -0.046
REMARK UNBOUND:                -0.045
REMARK SMILES O=C([O-])c1cc(O)c(O)c(O)c1
REMARK SMILES IDX 4 1 5 2 12 3 6 4 10 5 8 6 2 7 1 8 3 9 7 10 11 12 9 14
REMARK H PARENT 7 11 11 13 9 15
REMARK Flexibility Score: inf
ROOT
ATOM      1  C   UNL     1      -0.457  38.075   6.764  1.00  0.00     0.005 A 
ATOM      2  C   UNL     1      -1.286  36.958   6.967  1.00  0.00     0.060 A 
ATOM      3  C   UNL     1       0.762  37.904   6.086  1.00  0.00     0.060 A 
ATOM      4  C   UNL     1      -0.904  35.693   6.501  1.00  0.00     0.162 A 
ATOM      5  C   UNL     1       1.149  36.640   5.618  1.00  0.00     0.162 A 
ATOM      6  C   UNL     1       0.312  35.531   5.827  1.00  0.00     0.200 A 
ENDROOT
BRANCH   1   7
ATOM      7  C   UNL     1      -0.865  39.408   7.258  1.00  0.00     0.072 C 
ATOM      8  O   UNL     1      -1.894  39.974   6.802  1.00  0.00    -0.545 OA
ATOM      9  O   UNL     1      -0.119  40.055   8.237  1.00  0.00    -0.545 OA
ENDBRANCH   1   7
BRANCH   4  10
ATOM     10  O   UNL     1      -1.730  34.589   6.705  1.00  0.00    -0.504 OA
ATOM     11  H   UNL     1      -2.697  34.585   6.400  1.00  0.00     0.293 HD
ENDBRANCH   4  10
BRANCH   5  12
ATOM     12  O   UNL     1       2.361  36.483   4.947  1.00  0.00    -0.504 OA
ATOM     13  H   UNL     1       2.542  36.942   4.062  1.00  0.00     0.293 HD
ENDBRANCH   5  12
BRANCH   6  14
ATOM     14  O   UNL     1       0.676  34.263   5.370  1.00  0.00    -0.502 OA
ATOM     15  H   UNL     1       1.380  33.705   5.835  1.00  0.00     0.293 HD
ENDBRANCH   6  14
TORSDOF 4
ENDMDL
MODEL 9
REMARK VINA RESULT:    -3.465      4.640      6.821
REMARK INTER + INTRA:          -4.016
REMARK INTER:                  -3.971
REMARK INTRA:                  -0.045
REMARK UNBOUND:                -0.045
REMARK SMILES O=C([O-])c1cc(O)c(O)c(O)c1
REMARK SMILES IDX 4 1 5 2 12 3 6 4 10 5 8 6 2 7 1 8 3 9 7 10 11 12 9 14
REMARK H PARENT 7 11 11 13 9 15
REMARK Flexibility Score: inf
ROOT
ATOM      1  C   UNL     1       0.428  37.953   6.021  1.00  0.00     0.005 A 
ATOM      2  C   UNL     1       0.873  36.722   5.511  1.00  0.00     0.060 A 
ATOM      3  C   UNL     1      -0.706  37.976   6.852  1.00  0.00     0.060 A 
ATOM      4  C   UNL     1       0.200  35.534   5.825  1.00  0.00     0.162 A 
ATOM      5  C   UNL     1      -1.385  36.790   7.168  1.00  0.00     0.162 A 
ATOM      6  C   UNL     1      -0.930  35.566   6.652  1.00  0.00     0.200 A 
ENDROOT
BRANCH   1   7
ATOM      7  C   UNL     1       1.143  39.203   5.687  1.00  0.00     0.072 C 
ATOM      8  O   UNL     1       2.116  39.593   6.387  1.00  0.00    -0.545 OA
ATOM      9  O   UNL     1       0.754  39.968   4.593  1.00  0.00    -0.545 OA
ENDBRANCH   1   7
BRANCH   4  10
ATOM     10  O   UNL     1       0.646  34.316   5.316  1.00  0.00    -0.504 OA
ATOM     11  H   UNL     1       1.399  34.267   4.639  1.00  0.00     0.293 HD
ENDBRANCH   4  10
BRANCH   5  12
ATOM     12  O   UNL     1      -2.509  36.826   7.992  1.00  0.00    -0.504 OA
ATOM     13  H   UNL     1      -3.345  36.297   7.773  1.00  0.00     0.293 HD
ENDBRANCH   5  12
BRANCH   6  14
ATOM     14  O   UNL     1      -1.589  34.373   6.952  1.00  0.00    -0.502 OA
ATOM     15  H   UNL     1      -2.593  34.326   7.065  1.00  0.00     0.293 HD
ENDBRANCH   6  14
TORSDOF 4
ENDMDL
