MODEL 1
REMARK VINA RESULT:    -3.588      0.000      0.000
REMARK INTER + INTRA:          -7.849
REMARK INTER:                  -6.104
REMARK INTRA:                  -1.745
REMARK UNBOUND:                -1.745
REMARK SMILES CCCCCCCCCCCCCC(=O)[O-]
REMARK SMILES IDX 8 1 9 2 10 3 11 4 12 5 13 6 14 7 15 8 16 9 7 10 6 11 5 12
REMARK SMILES IDX 4 13 3 14 2 15 1 16
REMARK H PARENT
REMARK Flexibility Score: inf
ROOT
ATOM      1  C   UNL     1      -6.198  -3.043   8.580  1.00  0.00     0.000 C 
ENDROOT
BRANCH   1   2
ATOM      2  C   UNL     1      -5.284  -3.273   7.367  1.00  0.00     0.000 C 
BRANCH   2   3
ATOM      3  C   UNL     1      -4.476  -4.576   7.470  1.00  0.00     0.000 C 
BRANCH   3   4
ATOM      4  C   UNL     1      -3.125  -4.493   6.736  1.00  0.00     0.000 C 
BRANCH   4   5
ATOM      5  C   UNL     1      -2.893  -3.121   6.083  1.00  0.00     0.006 C 
BRANCH   5   6
ATOM      6  C   UNL     1      -1.479  -2.579   6.329  1.00  0.00     0.053 C 
BRANCH   6   7
ATOM      7  C   UNL     1      -1.047  -1.712   5.189  1.00  0.00     0.041 C 
ATOM      8  O   UNL     1       0.077  -1.887   4.649  1.00  0.00    -0.550 OA
ATOM      9  O   UNL     1      -1.867  -0.679   4.754  1.00  0.00    -0.550 OA
ENDBRANCH   6   7
ENDBRANCH   5   6
ENDBRANCH   4   5
ENDBRANCH   3   4
ENDBRANCH   2   3
ENDBRANCH   1   2
BRANCH   1  10
ATOM     10  C   UNL     1      -5.772  -3.927   9.762  1.00  0.00     0.000 C 
BRANCH  10  11
ATOM     11  C   UNL     1      -6.278  -3.395  11.112  1.00  0.00    -0.000 C 
BRANCH  11  12
ATOM     12  C   UNL     1      -5.495  -2.159  11.591  1.00  0.00    -0.000 C 
BRANCH  12  13
ATOM     13  C   UNL     1      -4.007  -2.463  11.833  1.00  0.00    -0.000 C 
BRANCH  13  14
ATOM     14  C   UNL     1      -3.081  -1.394  11.224  1.00  0.00    -0.000 C 
BRANCH  14  15
ATOM     15  C   UNL     1      -2.788  -1.648   9.737  1.00  0.00    -0.003 C 
ATOM     16  C   UNL     1      -3.316  -0.535   8.834  1.00  0.00     0.004 C 
ENDBRANCH  14  15
ENDBRANCH  13  14
ENDBRANCH  12  13
ENDBRANCH  11  12
ENDBRANCH  10  11
ENDBRANCH   1  10
TORSDOF 12
ENDMDL
MODEL 2
REMARK VINA RESULT:    -3.538      1.733      4.589
REMARK INTER + INTRA:          -7.765
REMARK INTER:                  -6.218
REMARK INTRA:                  -1.547
REMARK UNBOUND:                -1.745
REMARK SMILES CCCCCCCCCCCCCC(=O)[O-]
REMARK SMILES IDX 8 1 9 2 10 3 11 4 12 5 13 6 14 7 15 8 16 9 7 10 6 11 5 12
REMARK SMILES IDX 4 13 3 14 2 15 1 16
REMARK H PARENT
REMARK Flexibility Score: inf
ROOT
ATOM      1  C   UNL     1      -5.457  -4.015   9.347  1.00  0.00     0.000 C 
ENDROOT
BRANCH   1   2
ATOM      2  C   UNL     1      -6.170  -3.603  10.645  1.00  0.00     0.000 C 
BRANCH   2   3
ATOM      3  C   UNL     1      -5.579  -2.329  11.269  1.00  0.00     0.000 C 
BRANCH   3   4
ATOM      4  C   UNL     1      -4.138  -2.530  11.771  1.00  0.00     0.000 C 
BRANCH   4   5
ATOM      5  C   UNL     1      -3.215  -1.359  11.397  1.00  0.00     0.006 C 
BRANCH   5   6
ATOM      6  C   UNL     1      -2.460  -1.594  10.082  1.00  0.00     0.053 C 
BRANCH   6   7
ATOM      7  C   UNL     1      -2.583  -0.401   9.189  1.00  0.00     0.041 C 
ATOM      8  O   UNL     1      -3.710  -0.048   8.752  1.00  0.00    -0.550 OA
ATOM      9  O   UNL     1      -1.445   0.295   8.800  1.00  0.00    -0.550 OA
ENDBRANCH   6   7
ENDBRANCH   5   6
ENDBRANCH   4   5
ENDBRANCH   3   4
ENDBRANCH   2   3
ENDBRANCH   1   2
BRANCH   1  10
ATOM     10  C   UNL     1      -5.512  -2.882   8.310  1.00  0.00     0.000 C 
BRANCH  10  11
ATOM     11  C   UNL     1      -4.791  -3.244   7.002  1.00  0.00    -0.000 C 
BRANCH  11  12
ATOM     12  C   UNL     1      -3.655  -4.260   7.214  1.00  0.00    -0.000 C 
BRANCH  12  13
ATOM     13  C   UNL     1      -2.266  -3.649   6.968  1.00  0.00    -0.000 C 
BRANCH  13  14
ATOM     14  C   UNL     1      -2.320  -2.407   6.059  1.00  0.00    -0.000 C 
BRANCH  14  15
ATOM     15  C   UNL     1      -0.955  -1.716   5.926  1.00  0.00    -0.003 C 
ATOM     16  C   UNL     1      -0.366  -1.840   4.522  1.00  0.00     0.004 C 
ENDBRANCH  14  15
ENDBRANCH  13  14
ENDBRANCH  12  13
ENDBRANCH  11  12
ENDBRANCH  10  11
ENDBRANCH   1  10
TORSDOF 12
ENDMDL
MODEL 3
REMARK VINA RESULT:    -3.500      2.727      4.406
REMARK INTER + INTRA:          -7.699
REMARK INTER:                  -6.272
REMARK INTRA:                  -1.427
REMARK UNBOUND:                -1.745
REMARK SMILES CCCCCCCCCCCCCC(=O)[O-]
REMARK SMILES IDX 8 1 9 2 10 3 11 4 12 5 13 6 14 7 15 8 16 9 7 10 6 11 5 12
REMARK SMILES IDX 4 13 3 14 2 15 1 16
REMARK H PARENT
REMARK Flexibility Score: inf
ROOT
ATOM      1  C   UNL     1      -2.834  -1.052   7.624  1.00  0.00     0.000 C 
ENDROOT
BRANCH   1   2
ATOM      2  C   UNL     1      -1.745  -1.424   6.605  1.00  0.00     0.000 C 
BRANCH   2   3
ATOM      3  C   UNL     1      -1.560  -2.943   6.462  1.00  0.00     0.000 C 
BRANCH   3   4
ATOM      4  C   UNL     1      -2.587  -3.744   7.282  1.00  0.00     0.000 C 
BRANCH   4   5
ATOM      5  C   UNL     1      -3.606  -4.477   6.395  1.00  0.00     0.006 C 
BRANCH   5   6
ATOM      6  C   UNL     1      -4.066  -5.811   6.999  1.00  0.00     0.053 C 
BRANCH   6   7
ATOM      7  C   UNL     1      -4.258  -6.831   5.922  1.00  0.00     0.041 C 
ATOM      8  O   UNL     1      -5.404  -7.294   5.683  1.00  0.00    -0.550 OA
ATOM      9  O   UNL     1      -3.162  -7.307   5.213  1.00  0.00    -0.550 OA
ENDBRANCH   6   7
ENDBRANCH   5   6
ENDBRANCH   4   5
ENDBRANCH   3   4
ENDBRANCH   2   3
ENDBRANCH   1   2
BRANCH   1  10
ATOM     10  C   UNL     1      -2.382   0.125   8.502  1.00  0.00     0.000 C 
BRANCH  10  11
ATOM     11  C   UNL     1      -1.955  -0.319   9.910  1.00  0.00    -0.000 C 
BRANCH  11  12
ATOM     12  C   UNL     1      -2.580  -1.664  10.322  1.00  0.00    -0.000 C 
BRANCH  12  13
ATOM     13  C   UNL     1      -3.516  -1.531  11.535  1.00  0.00    -0.000 C 
BRANCH  13  14
ATOM     14  C   UNL     1      -4.738  -2.463  11.441  1.00  0.00    -0.000 C 
BRANCH  14  15
ATOM     15  C   UNL     1      -5.183  -2.705   9.990  1.00  0.00    -0.003 C 
ATOM     16  C   UNL     1      -5.822  -4.078   9.791  1.00  0.00     0.004 C 
ENDBRANCH  14  15
ENDBRANCH  13  14
ENDBRANCH  12  13
ENDBRANCH  11  12
ENDBRANCH  10  11
ENDBRANCH   1  10
TORSDOF 12
ENDMDL
MODEL 4
REMARK VINA RESULT:    -3.457      1.176      1.769
REMARK INTER + INTRA:          -7.627
REMARK INTER:                  -6.365
REMARK INTRA:                  -1.262
REMARK UNBOUND:                -1.745
REMARK SMILES CCCCCCCCCCCCCC(=O)[O-]
REMARK SMILES IDX 8 1 9 2 10 3 11 4 12 5 13 6 14 7 15 8 16 9 7 10 6 11 5 12
REMARK SMILES IDX 4 13 3 14 2 15 1 16
REMARK H PARENT
REMARK Flexibility Score: inf
ROOT
ATOM      1  C   UNL     1      -4.671  -3.479   7.307  1.00  0.00     0.000 C 
ENDROOT
BRANCH   1   2
ATOM      2  C   UNL     1      -3.437  -4.358   7.053  1.00  0.00     0.000 C 
BRANCH   2   3
ATOM      3  C   UNL     1      -2.120  -3.567   7.115  1.00  0.00     0.000 C 
BRANCH   3   4
ATOM      4  C   UNL     1      -2.343  -2.068   7.382  1.00  0.00     0.000 C 
BRANCH   4   5
ATOM      5  C   UNL     1      -1.514  -1.173   6.447  1.00  0.00     0.006 C 
BRANCH   5   6
ATOM      6  C   UNL     1      -0.526  -1.969   5.585  1.00  0.00     0.053 C 
BRANCH   6   7
ATOM      7  C   UNL     1      -0.680  -1.603   4.143  1.00  0.00     0.041 C 
ATOM      8  O   UNL     1       0.163  -1.998   3.294  1.00  0.00    -0.550 OA
ATOM      9  O   UNL     1      -1.729  -0.786   3.742  1.00  0.00    -0.550 OA
ENDBRANCH   6   7
ENDBRANCH   5   6
ENDBRANCH   4   5
ENDBRANCH   3   4
ENDBRANCH   2   3
ENDBRANCH   1   2
BRANCH   1  10
ATOM     10  C   UNL     1      -5.308  -3.810   8.665  1.00  0.00     0.000 C 
BRANCH  10  11
ATOM     11  C   UNL     1      -5.299  -2.613   9.630  1.00  0.00    -0.000 C 
BRANCH  11  12
ATOM     12  C   UNL     1      -5.282  -3.045  11.107  1.00  0.00    -0.000 C 
BRANCH  12  13
ATOM     13  C   UNL     1      -4.085  -2.465  11.876  1.00  0.00    -0.000 C 
BRANCH  13  14
ATOM     14  C   UNL     1      -3.017  -1.867  10.942  1.00  0.00    -0.000 C 
BRANCH  14  15
ATOM     15  C   UNL     1      -2.766  -0.376  11.213  1.00  0.00    -0.003 C 
ATOM     16  C   UNL     1      -1.681   0.213  10.312  1.00  0.00     0.004 C 
ENDBRANCH  14  15
ENDBRANCH  13  14
ENDBRANCH  12  13
ENDBRANCH  11  12
ENDBRANCH  10  11
ENDBRANCH   1  10
TORSDOF 12
ENDMDL
MODEL 5
REMARK VINA RESULT:    -3.403      2.438      4.308
REMARK INTER + INTRA:          -7.535
REMARK INTER:                  -5.804
REMARK INTRA:                  -1.731
REMARK UNBOUND:                -1.745
REMARK SMILES CCCCCCCCCCCCCC(=O)[O-]
REMARK SMILES IDX 8 1 9 2 10 3 11 4 12 5 13 6 14 7 15 8 16 9 7 10 6 11 5 12
REMARK SMILES IDX 4 13 3 14 2 15 1 16
REMARK H PARENT
REMARK Flexibility Score: inf
ROOT
ATOM      1  C   UNL     1      -5.914  -1.688  11.074  1.00  0.00     0.000 C 
ENDROOT
BRANCH   1   2
ATOM      2  C   UNL     1      -4.642  -0.897  11.415  1.00  0.00     0.000 C 
BRANCH   2   3
ATOM      3  C   UNL     1      -3.384  -1.780  11.446  1.00  0.00     0.000 C 
BRANCH   3   4
ATOM      4  C   UNL     1      -2.551  -1.667  10.157  1.00  0.00     0.000 C 
BRANCH   4   5
ATOM      5  C   UNL     1      -2.819  -0.359   9.395  1.00  0.00     0.006 C 
BRANCH   5   6
ATOM      6  C   UNL     1      -1.549   0.234   8.770  1.00  0.00     0.053 C 
BRANCH   6   7
ATOM      7  C   UNL     1      -1.013   1.337   9.627  1.00  0.00     0.041 C 
ATOM      8  O   UNL     1      -0.257   2.214   9.132  1.00  0.00    -0.550 OA
ATOM      9  O   UNL     1      -1.309   1.369  10.983  1.00  0.00    -0.550 OA
ENDBRANCH   6   7
ENDBRANCH   5   6
ENDBRANCH   4   5
ENDBRANCH   3   4
ENDBRANCH   2   3
ENDBRANCH   1   2
BRANCH   1  10
ATOM     10  C   UNL     1      -5.690  -3.196  11.272  1.00  0.00     0.000 C 
BRANCH  10  11
ATOM     11  C   UNL     1      -6.049  -4.015  10.021  1.00  0.00    -0.000 C 
BRANCH  11  12
ATOM     12  C   UNL     1      -5.667  -3.297   8.715  1.00  0.00    -0.000 C 
BRANCH  12  13
ATOM     13  C   UNL     1      -4.648  -4.092   7.882  1.00  0.00    -0.000 C 
BRANCH  13  14
ATOM     14  C   UNL     1      -3.804  -3.189   6.964  1.00  0.00    -0.000 C 
BRANCH  14  15
ATOM     15  C   UNL     1      -2.309  -3.539   7.009  1.00  0.00    -0.003 C 
ATOM     16  C   UNL     1      -1.440  -2.506   6.292  1.00  0.00     0.004 C 
ENDBRANCH  14  15
ENDBRANCH  13  14
ENDBRANCH  12  13
ENDBRANCH  11  12
ENDBRANCH  10  11
ENDBRANCH   1  10
TORSDOF 12
ENDMDL
MODEL 6
REMARK VINA RESULT:    -3.387      0.615      3.123
REMARK INTER + INTRA:          -7.507
REMARK INTER:                  -5.847
REMARK INTRA:                  -1.660
REMARK UNBOUND:                -1.745
REMARK SMILES CCCCCCCCCCCCCC(=O)[O-]
REMARK SMILES IDX 8 1 9 2 10 3 11 4 12 5 13 6 14 7 15 8 16 9 7 10 6 11 5 12
REMARK SMILES IDX 4 13 3 14 2 15 1 16
REMARK H PARENT
REMARK Flexibility Score: inf
ROOT
ATOM      1  C   UNL     1      -3.132  -1.273  11.272  1.00  0.00     0.000 C 
ENDROOT
BRANCH   1   2
ATOM      2  C   UNL     1      -2.647  -1.570   9.845  1.00  0.00     0.000 C 
BRANCH   2   3
ATOM      3  C   UNL     1      -2.899  -0.402   8.877  1.00  0.00     0.000 C 
BRANCH   3   4
ATOM      4  C   UNL     1      -2.430  -0.711   7.444  1.00  0.00     0.000 C 
BRANCH   4   5
ATOM      5  C   UNL     1      -1.941  -2.159   7.284  1.00  0.00     0.006 C 
BRANCH   5   6
ATOM      6  C   UNL     1      -2.024  -2.657   5.834  1.00  0.00     0.053 C 
BRANCH   6   7
ATOM      7  C   UNL     1      -1.130  -1.845   4.952  1.00  0.00     0.041 C 
ATOM      8  O   UNL     1       0.120  -1.895   5.097  1.00  0.00    -0.550 OA
ATOM      9  O   UNL     1      -1.679  -0.995   4.001  1.00  0.00    -0.550 OA
ENDBRANCH   6   7
ENDBRANCH   5   6
ENDBRANCH   4   5
ENDBRANCH   3   4
ENDBRANCH   2   3
ENDBRANCH   1   2
BRANCH   1  10
ATOM     10  C   UNL     1      -3.986  -2.431  11.811  1.00  0.00     0.000 C 
BRANCH  10  11
ATOM     11  C   UNL     1      -5.494  -2.167  11.673  1.00  0.00    -0.000 C 
BRANCH  11  12
ATOM     12  C   UNL     1      -6.261  -3.386  11.131  1.00  0.00    -0.000 C 
BRANCH  12  13
ATOM     13  C   UNL     1      -5.667  -3.918   9.816  1.00  0.00    -0.000 C 
BRANCH  13  14
ATOM     14  C   UNL     1      -5.956  -2.990   8.622  1.00  0.00    -0.000 C 
BRANCH  14  15
ATOM     15  C   UNL     1      -5.303  -3.485   7.322  1.00  0.00    -0.003 C 
ATOM     16  C   UNL     1      -4.595  -4.829   7.492  1.00  0.00     0.004 C 
ENDBRANCH  14  15
ENDBRANCH  13  14
ENDBRANCH  12  13
ENDBRANCH  11  12
ENDBRANCH  10  11
ENDBRANCH   1  10
TORSDOF 12
ENDMDL
MODEL 7
REMARK VINA RESULT:    -3.360      1.198      1.995
REMARK INTER + INTRA:          -7.462
REMARK INTER:                  -6.041
REMARK INTRA:                  -1.421
REMARK UNBOUND:                -1.745
REMARK SMILES CCCCCCCCCCCCCC(=O)[O-]
REMARK SMILES IDX 8 1 9 2 10 3 11 4 12 5 13 6 14 7 15 8 16 9 7 10 6 11 5 12
REMARK SMILES IDX 4 13 3 14 2 15 1 16
REMARK H PARENT
REMARK Flexibility Score: inf
ROOT
ATOM      1  C   UNL     1      -5.460  -3.504  10.562  1.00  0.00     0.000 C 
ENDROOT
BRANCH   1   2
ATOM      2  C   UNL     1      -5.911  -3.383   9.098  1.00  0.00     0.000 C 
BRANCH   2   3
ATOM      3  C   UNL     1      -4.734  -3.204   8.126  1.00  0.00     0.000 C 
BRANCH   3   4
ATOM      4  C   UNL     1      -4.423  -4.484   7.331  1.00  0.00     0.000 C 
BRANCH   4   5
ATOM      5  C   UNL     1      -2.992  -4.498   6.771  1.00  0.00     0.006 C 
BRANCH   5   6
ATOM      6  C   UNL     1      -2.172  -3.277   7.209  1.00  0.00     0.053 C 
BRANCH   6   7
ATOM      7  C   UNL     1      -1.737  -2.485   6.017  1.00  0.00     0.041 C 
ATOM      8  O   UNL     1      -0.534  -2.132   5.894  1.00  0.00    -0.550 OA
ATOM      9  O   UNL     1      -2.669  -2.096   5.064  1.00  0.00    -0.550 OA
ENDBRANCH   6   7
ENDBRANCH   5   6
ENDBRANCH   4   5
ENDBRANCH   3   4
ENDBRANCH   2   3
ENDBRANCH   1   2
BRANCH   1  10
ATOM     10  C   UNL     1      -5.851  -2.250  11.360  1.00  0.00     0.000 C 
BRANCH  10  11
ATOM     11  C   UNL     1      -4.632  -1.515  11.939  1.00  0.00    -0.000 C 
BRANCH  11  12
ATOM     12  C   UNL     1      -3.300  -2.059  11.394  1.00  0.00    -0.000 C 
BRANCH  12  13
ATOM     13  C   UNL     1      -2.412  -0.954  10.799  1.00  0.00    -0.000 C 
BRANCH  13  14
ATOM     14  C   UNL     1      -3.056  -0.276   9.575  1.00  0.00    -0.000 C 
BRANCH  14  15
ATOM     15  C   UNL     1      -2.019   0.138   8.519  1.00  0.00    -0.003 C 
ATOM     16  C   UNL     1      -0.906   1.011   9.097  1.00  0.00     0.004 C 
ENDBRANCH  14  15
ENDBRANCH  13  14
ENDBRANCH  12  13
ENDBRANCH  11  12
ENDBRANCH  10  11
ENDBRANCH   1  10
TORSDOF 12
ENDMDL
MODEL 8
REMARK VINA RESULT:    -3.359      1.677      4.205
REMARK INTER + INTRA:          -7.460
REMARK INTER:                  -5.804
REMARK INTRA:                  -1.656
REMARK UNBOUND:                -1.745
REMARK SMILES CCCCCCCCCCCCCC(=O)[O-]
REMARK SMILES IDX 8 1 9 2 10 3 11 4 12 5 13 6 14 7 15 8 16 9 7 10 6 11 5 12
REMARK SMILES IDX 4 13 3 14 2 15 1 16
REMARK H PARENT
REMARK Flexibility Score: inf
ROOT
ATOM      1  C   UNL     1      -6.276  -2.429  10.397  1.00  0.00     0.000 C 
ENDROOT
BRANCH   1   2
ATOM      2  C   UNL     1      -5.583  -1.674  11.542  1.00  0.00     0.000 C 
BRANCH   2   3
ATOM      3  C   UNL     1      -4.143  -2.154  11.785  1.00  0.00     0.000 C 
BRANCH   3   4
ATOM      4  C   UNL     1      -3.097  -1.072  11.460  1.00  0.00     0.000 C 
BRANCH   4   5
ATOM      5  C   UNL     1      -2.465  -1.264  10.071  1.00  0.00     0.006 C 
BRANCH   5   6
ATOM      6  C   UNL     1      -3.070  -0.334   9.011  1.00  0.00     0.053 C 
BRANCH   6   7
ATOM      7  C   UNL     1      -2.037   0.624   8.508  1.00  0.00     0.041 C 
ATOM      8  O   UNL     1      -2.246   1.288   7.458  1.00  0.00    -0.550 OA
ATOM      9  O   UNL     1      -0.824   0.749   9.172  1.00  0.00    -0.550 OA
ENDBRANCH   6   7
ENDBRANCH   5   6
ENDBRANCH   4   5
ENDBRANCH   3   4
ENDBRANCH   2   3
ENDBRANCH   1   2
BRANCH   1  10
ATOM     10  C   UNL     1      -5.826  -3.898  10.360  1.00  0.00     0.000 C 
BRANCH  10  11
ATOM     11  C   UNL     1      -5.429  -4.359   8.948  1.00  0.00    -0.000 C 
BRANCH  11  12
ATOM     12  C   UNL     1      -4.939  -3.199   8.064  1.00  0.00    -0.000 C 
BRANCH  12  13
ATOM     13  C   UNL     1      -4.523  -3.664   6.659  1.00  0.00    -0.000 C 
BRANCH  13  14
ATOM     14  C   UNL     1      -3.162  -4.384   6.655  1.00  0.00    -0.000 C 
BRANCH  14  15
ATOM     15  C   UNL     1      -2.033  -3.508   7.221  1.00  0.00    -0.003 C 
ATOM     16  C   UNL     1      -1.550  -2.454   6.225  1.00  0.00     0.004 C 
ENDBRANCH  14  15
ENDBRANCH  13  14
ENDBRANCH  12  13
ENDBRANCH  11  12
ENDBRANCH  10  11
ENDBRANCH   1  10
TORSDOF 12
ENDMDL
MODEL 9
REMARK VINA RESULT:    -3.320      2.029      3.707
REMARK INTER + INTRA:          -7.393
REMARK INTER:                  -5.271
REMARK INTRA:                  -2.122
REMARK UNBOUND:                -1.745
REMARK SMILES CCCCCCCCCCCCCC(=O)[O-]
REMARK SMILES IDX 8 1 9 2 10 3 11 4 12 5 13 6 14 7 15 8 16 9 7 10 6 11 5 12
REMARK SMILES IDX 4 13 3 14 2 15 1 16
REMARK H PARENT
REMARK Flexibility Score: inf
ROOT
ATOM      1  C   UNL     1      -3.816  -1.894  11.712  1.00  0.00     0.000 C 
ENDROOT
BRANCH   1   2
ATOM      2  C   UNL     1      -3.083  -0.606  11.306  1.00  0.00     0.000 C 
BRANCH   2   3
ATOM      3  C   UNL     1      -2.288  -0.761   9.999  1.00  0.00     0.000 C 
BRANCH   3   4
ATOM      4  C   UNL     1      -2.654  -2.045   9.233  1.00  0.00     0.000 C 
BRANCH   4   5
ATOM      5  C   UNL     1      -2.277  -1.972   7.745  1.00  0.00     0.006 C 
BRANCH   5   6
ATOM      6  C   UNL     1      -1.947  -3.346   7.148  1.00  0.00     0.053 C 
BRANCH   6   7
ATOM      7  C   UNL     1      -3.199  -4.045   6.724  1.00  0.00     0.041 C 
ATOM      8  O   UNL     1      -4.135  -3.399   6.183  1.00  0.00    -0.550 OA
ATOM      9  O   UNL     1      -3.353  -5.404   6.968  1.00  0.00    -0.550 OA
ENDBRANCH   6   7
ENDBRANCH   5   6
ENDBRANCH   4   5
ENDBRANCH   3   4
ENDBRANCH   2   3
ENDBRANCH   1   2
BRANCH   1  10
ATOM     10  C   UNL     1      -5.220  -1.577  12.250  1.00  0.00     0.000 C 
BRANCH  10  11
ATOM     11  C   UNL     1      -6.314  -2.422  11.578  1.00  0.00    -0.000 C 
BRANCH  11  12
ATOM     12  C   UNL     1      -5.739  -3.581  10.745  1.00  0.00    -0.000 C 
BRANCH  12  13
ATOM     13  C   UNL     1      -6.038  -3.433   9.245  1.00  0.00    -0.000 C 
BRANCH  13  14
ATOM     14  C   UNL     1      -6.809  -2.140   8.922  1.00  0.00    -0.000 C 
BRANCH  14  15
ATOM     15  C   UNL     1      -5.962  -1.133   8.128  1.00  0.00    -0.003 C 
ATOM     16  C   UNL     1      -5.815   0.209   8.845  1.00  0.00     0.004 C 
ENDBRANCH  14  15
ENDBRANCH  13  14
ENDBRANCH  12  13
ENDBRANCH  11  12
ENDBRANCH  10  11
ENDBRANCH   1  10
TORSDOF 12
ENDMDL
