MODEL 1
REMARK VINA RESULT:    -5.623      0.000      0.000
REMARK INTER + INTRA:          -9.801
REMARK INTER:                  -7.595
REMARK INTRA:                  -2.206
REMARK UNBOUND:                -2.206
REMARK SMILES CC[C@@H](CC[C@H](C)[C@@H]1CC[C@H]2[C@H]3CC(=O)C4=CC(=O)CC[C@]4(C)[C@H]3CC[C@@]21C)C(C)C
REMARK SMILES IDX 4 1 3 2 2 3 1 4 29 5 30 6 31 7 5 8 6 9 7 10 8 11 9 12 27 13
REMARK SMILES IDX 10 14 11 15 26 16 28 17 12 18 25 19 24 20 13 21 22 22 14 23
REMARK SMILES IDX 16 24 21 25 23 26 15 27 17 28 20 29 18 30 19 31
REMARK H PARENT
REMARK Flexibility Score: inf
ROOT
ATOM      1  C   UNL     1      -0.554  26.422  53.380  1.00  0.00     0.004 C 
ENDROOT
BRANCH   1   2
ATOM      2  C   UNL     1       0.199  27.326  54.396  1.00  0.00    -0.009 C 
BRANCH   2   3
ATOM      3  C   UNL     1       1.643  27.714  53.953  1.00  0.00     0.000 C 
ATOM      4  C   UNL     1       2.572  26.556  53.557  1.00  0.00     0.004 C 
ENDBRANCH   2   3
BRANCH   2   5
ATOM      5  C   UNL     1       0.083  26.763  55.854  1.00  0.00    -0.014 C 
ATOM      6  C   UNL     1       0.455  25.273  55.936  1.00  0.00     0.007 C 
ATOM      7  C   UNL     1      -1.274  27.003  56.528  1.00  0.00     0.007 C 
ENDBRANCH   2   5
ENDBRANCH   1   2
BRANCH   1   8
ATOM      8  C   UNL     1      -1.556  27.152  52.452  1.00  0.00     0.004 C 
BRANCH   8   9
ATOM      9  C   UNL     1      -2.929  27.508  53.092  1.00  0.00    -0.011 C 
ATOM     10  C   UNL     1      -4.099  26.719  52.467  1.00  0.00     0.008 C 
BRANCH   9  11
ATOM     11  C   UNL     1      -3.148  29.062  53.236  1.00  0.00    -0.002 C 
ATOM     12  C   UNL     1      -1.845  29.855  52.916  1.00  0.00     0.005 C 
ATOM     13  C   UNL     1      -3.661  29.701  54.578  1.00  0.00    -0.026 C 
ATOM     14  C   UNL     1      -1.437  30.619  54.187  1.00  0.00     0.005 C 
ATOM     15  C   UNL     1      -2.343  30.058  55.273  1.00  0.00    -0.001 C 
ATOM     16  C   UNL     1      -4.488  28.826  55.552  1.00  0.00     0.007 C 
ATOM     17  C   UNL     1      -4.508  30.951  54.174  1.00  0.00     0.012 C 
ATOM     18  C   UNL     1      -2.433  30.772  56.649  1.00  0.00     0.004 C 
ATOM     19  C   UNL     1      -4.728  29.536  56.903  1.00  0.00     0.005 C 
ATOM     20  C   UNL     1      -3.421  30.024  57.608  1.00  0.00     0.003 C 
ATOM     21  C   UNL     1      -2.648  32.293  56.658  1.00  0.00     0.085 C 
ATOM     22  C   UNL     1      -3.669  30.775  59.002  1.00  0.00    -0.000 C 
ATOM     23  C   UNL     1      -2.359  32.795  58.038  1.00  0.00     0.159 C 
ATOM     24  C   UNL     1      -2.687  31.939  59.206  1.00  0.00     0.005 C 
ATOM     25  C   UNL     1      -3.500  29.730  60.149  1.00  0.00     0.020 C 
ATOM     26  C   UNL     1      -5.088  31.400  59.094  1.00  0.00     0.017 C 
ATOM     27  O   UNL     1      -1.860  33.943  58.191  1.00  0.00    -0.295 OA
ATOM     28  C   UNL     1      -2.234  32.275  60.429  1.00  0.00     0.055 C 
ATOM     29  C   UNL     1      -3.538  30.349  61.550  1.00  0.00     0.081 C 
ATOM     30  C   UNL     1      -2.599  31.514  61.633  1.00  0.00     0.156 C 
ATOM     31  O   UNL     1      -2.155  31.874  62.755  1.00  0.00    -0.295 OA
ENDBRANCH   9  11
ENDBRANCH   8   9
ENDBRANCH   1   8
TORSDOF 6
ENDMDL
MODEL 2
REMARK VINA RESULT:    -5.562      1.435      1.940
REMARK INTER + INTRA:          -9.720
REMARK INTER:                  -8.511
REMARK INTRA:                  -1.209
REMARK UNBOUND:                -2.206
REMARK SMILES CC[C@@H](CC[C@H](C)[C@@H]1CC[C@H]2[C@H]3CC(=O)C4=CC(=O)CC[C@]4(C)[C@H]3CC[C@@]21C)C(C)C
REMARK SMILES IDX 4 1 3 2 2 3 1 4 29 5 30 6 31 7 5 8 6 9 7 10 8 11 9 12 27 13
REMARK SMILES IDX 10 14 11 15 26 16 28 17 12 18 25 19 24 20 13 21 22 22 14 23
REMARK SMILES IDX 16 24 21 25 23 26 15 27 17 28 20 29 18 30 19 31
REMARK H PARENT
REMARK Flexibility Score: inf
ROOT
ATOM      1  C   UNL     1      -0.014  26.432  53.501  1.00  0.00     0.004 C 
ENDROOT
BRANCH   1   2
ATOM      2  C   UNL     1       0.506  26.783  54.923  1.00  0.00    -0.009 C 
BRANCH   2   3
ATOM      3  C   UNL     1       2.045  27.027  54.994  1.00  0.00     0.000 C 
ATOM      4  C   UNL     1       2.759  27.293  53.661  1.00  0.00     0.004 C 
ENDBRANCH   2   3
BRANCH   2   5
ATOM      5  C   UNL     1      -0.057  25.790  55.997  1.00  0.00    -0.014 C 
ATOM      6  C   UNL     1      -0.382  26.491  57.327  1.00  0.00     0.007 C 
ATOM      7  C   UNL     1       0.822  24.559  56.254  1.00  0.00     0.007 C 
ENDBRANCH   2   5
ENDBRANCH   1   2
BRANCH   1   8
ATOM      8  C   UNL     1      -1.469  26.864  53.196  1.00  0.00     0.004 C 
BRANCH   8   9
ATOM      9  C   UNL     1      -1.629  28.250  52.508  1.00  0.00    -0.011 C 
ATOM     10  C   UNL     1      -0.354  29.114  52.607  1.00  0.00     0.008 C 
BRANCH   9  11
ATOM     11  C   UNL     1      -2.977  28.969  52.895  1.00  0.00    -0.002 C 
ATOM     12  C   UNL     1      -3.144  30.318  52.131  1.00  0.00     0.005 C 
ATOM     13  C   UNL     1      -3.319  29.333  54.386  1.00  0.00    -0.026 C 
ATOM     14  C   UNL     1      -3.193  31.445  53.176  1.00  0.00     0.005 C 
ATOM     15  C   UNL     1      -2.797  30.769  54.481  1.00  0.00    -0.001 C 
ATOM     16  C   UNL     1      -2.661  28.513  55.522  1.00  0.00     0.007 C 
ATOM     17  C   UNL     1      -4.873  29.228  54.518  1.00  0.00     0.012 C 
ATOM     18  C   UNL     1      -2.997  31.514  55.828  1.00  0.00     0.004 C 
ATOM     19  C   UNL     1      -2.935  29.130  56.912  1.00  0.00     0.005 C 
ATOM     20  C   UNL     1      -2.523  30.634  57.034  1.00  0.00     0.003 C 
ATOM     21  C   UNL     1      -4.358  32.177  56.088  1.00  0.00     0.085 C 
ATOM     22  C   UNL     1      -2.821  31.280  58.470  1.00  0.00    -0.000 C 
ATOM     23  C   UNL     1      -4.209  33.103  57.255  1.00  0.00     0.159 C 
ATOM     24  C   UNL     1      -3.278  32.743  58.354  1.00  0.00     0.005 C 
ATOM     25  C   UNL     1      -1.512  31.198  59.317  1.00  0.00     0.020 C 
ATOM     26  C   UNL     1      -3.959  30.543  59.228  1.00  0.00     0.017 C 
ATOM     27  O   UNL     1      -4.889  34.165  57.299  1.00  0.00    -0.295 OA
ATOM     28  C   UNL     1      -2.965  33.657  59.291  1.00  0.00     0.055 C 
ATOM     29  C   UNL     1      -1.603  31.939  60.655  1.00  0.00     0.081 C 
ATOM     30  C   UNL     1      -2.118  33.331  60.449  1.00  0.00     0.156 C 
ATOM     31  O   UNL     1      -1.861  34.221  61.302  1.00  0.00    -0.295 OA
ENDBRANCH   9  11
ENDBRANCH   8   9
ENDBRANCH   1   8
TORSDOF 6
ENDMDL
MODEL 3
REMARK VINA RESULT:    -5.245      2.131      3.669
REMARK INTER + INTRA:          -9.291
REMARK INTER:                  -7.959
REMARK INTRA:                  -1.332
REMARK UNBOUND:                -2.206
REMARK SMILES CC[C@@H](CC[C@H](C)[C@@H]1CC[C@H]2[C@H]3CC(=O)C4=CC(=O)CC[C@]4(C)[C@H]3CC[C@@]21C)C(C)C
REMARK SMILES IDX 4 1 3 2 2 3 1 4 29 5 30 6 31 7 5 8 6 9 7 10 8 11 9 12 27 13
REMARK SMILES IDX 10 14 11 15 26 16 28 17 12 18 25 19 24 20 13 21 22 22 14 23
REMARK SMILES IDX 16 24 21 25 23 26 15 27 17 28 20 29 18 30 19 31
REMARK H PARENT
REMARK Flexibility Score: inf
ROOT
ATOM      1  C   UNL     1      -0.905  28.680  52.289  1.00  0.00     0.004 C 
ENDROOT
BRANCH   1   2
ATOM      2  C   UNL     1      -0.822  29.889  51.315  1.00  0.00    -0.009 C 
BRANCH   2   3
ATOM      3  C   UNL     1      -1.363  31.225  51.913  1.00  0.00     0.000 C 
ATOM      4  C   UNL     1      -0.416  31.988  52.851  1.00  0.00     0.004 C 
ENDBRANCH   2   3
BRANCH   2   5
ATOM      5  C   UNL     1      -1.388  29.522  49.900  1.00  0.00    -0.014 C 
ATOM      6  C   UNL     1      -0.310  29.591  48.804  1.00  0.00     0.007 C 
ATOM      7  C   UNL     1      -2.622  30.328  49.474  1.00  0.00     0.007 C 
ENDBRANCH   2   5
ENDBRANCH   1   2
BRANCH   1   8
ATOM      8  C   UNL     1      -1.452  28.997  53.701  1.00  0.00     0.004 C 
BRANCH   8   9
ATOM      9  C   UNL     1      -2.764  28.259  54.095  1.00  0.00    -0.011 C 
ATOM     10  C   UNL     1      -3.277  27.322  52.981  1.00  0.00     0.008 C 
BRANCH   9  11
ATOM     11  C   UNL     1      -3.837  29.223  54.729  1.00  0.00    -0.002 C 
ATOM     12  C   UNL     1      -4.050  30.495  53.854  1.00  0.00     0.005 C 
ATOM     13  C   UNL     1      -3.678  29.789  56.188  1.00  0.00    -0.026 C 
ATOM     14  C   UNL     1      -3.649  31.717  54.697  1.00  0.00     0.005 C 
ATOM     15  C   UNL     1      -2.975  31.124  55.926  1.00  0.00    -0.001 C 
ATOM     16  C   UNL     1      -2.823  28.994  57.206  1.00  0.00     0.007 C 
ATOM     17  C   UNL     1      -5.125  29.951  56.756  1.00  0.00     0.012 C 
ATOM     18  C   UNL     1      -2.676  32.025  57.154  1.00  0.00     0.004 C 
ATOM     19  C   UNL     1      -2.597  29.787  58.513  1.00  0.00     0.005 C 
ATOM     20  C   UNL     1      -1.983  31.209  58.297  1.00  0.00     0.003 C 
ATOM     21  C   UNL     1      -3.806  32.923  57.680  1.00  0.00     0.085 C 
ATOM     22  C   UNL     1      -1.762  32.039  59.650  1.00  0.00    -0.000 C 
ATOM     23  C   UNL     1      -3.206  33.928  58.613  1.00  0.00     0.159 C 
ATOM     24  C   UNL     1      -2.046  33.537  59.453  1.00  0.00     0.005 C 
ATOM     25  C   UNL     1      -0.284  31.834  60.107  1.00  0.00     0.020 C 
ATOM     26  C   UNL     1      -2.711  31.578  60.790  1.00  0.00     0.017 C 
ATOM     27  O   UNL     1      -3.703  35.084  58.688  1.00  0.00    -0.295 OA
ATOM     28  C   UNL     1      -1.359  34.479  60.126  1.00  0.00     0.055 C 
ATOM     29  C   UNL     1       0.116  32.713  61.296  1.00  0.00     0.081 C 
ATOM     30  C   UNL     1      -0.257  34.141  61.040  1.00  0.00     0.156 C 
ATOM     31  O   UNL     1       0.348  35.061  61.651  1.00  0.00    -0.295 OA
ENDBRANCH   9  11
ENDBRANCH   8   9
ENDBRANCH   1   8
TORSDOF 6
ENDMDL
MODEL 4
REMARK VINA RESULT:    -5.240      1.592      2.793
REMARK INTER + INTRA:          -9.284
REMARK INTER:                  -8.233
REMARK INTRA:                  -1.051
REMARK UNBOUND:                -2.206
REMARK SMILES CC[C@@H](CC[C@H](C)[C@@H]1CC[C@H]2[C@H]3CC(=O)C4=CC(=O)CC[C@]4(C)[C@H]3CC[C@@]21C)C(C)C
REMARK SMILES IDX 4 1 3 2 2 3 1 4 29 5 30 6 31 7 5 8 6 9 7 10 8 11 9 12 27 13
REMARK SMILES IDX 10 14 11 15 26 16 28 17 12 18 25 19 24 20 13 21 22 22 14 23
REMARK SMILES IDX 16 24 21 25 23 26 15 27 17 28 20 29 18 30 19 31
REMARK H PARENT
REMARK Flexibility Score: inf
ROOT
ATOM      1  C   UNL     1      -1.250  28.170  54.705  1.00  0.00     0.004 C 
ENDROOT
BRANCH   1   2
ATOM      2  C   UNL     1      -0.810  26.844  54.021  1.00  0.00    -0.009 C 
BRANCH   2   3
ATOM      3  C   UNL     1       0.537  26.269  54.558  1.00  0.00     0.000 C 
ATOM      4  C   UNL     1       1.720  27.246  54.629  1.00  0.00     0.004 C 
ENDBRANCH   2   3
BRANCH   2   5
ATOM      5  C   UNL     1      -0.909  26.948  52.461  1.00  0.00    -0.014 C 
ATOM      6  C   UNL     1      -1.246  28.374  51.990  1.00  0.00     0.007 C 
ATOM      7  C   UNL     1      -1.868  25.941  51.811  1.00  0.00     0.007 C 
ENDBRANCH   2   5
ENDBRANCH   1   2
BRANCH   1   8
ATOM      8  C   UNL     1      -2.314  28.024  55.820  1.00  0.00     0.004 C 
BRANCH   8   9
ATOM      9  C   UNL     1      -3.767  28.403  55.416  1.00  0.00    -0.011 C 
ATOM     10  C   UNL     1      -4.248  27.654  54.154  1.00  0.00     0.008 C 
BRANCH   9  11
ATOM     11  C   UNL     1      -4.017  29.959  55.427  1.00  0.00    -0.002 C 
ATOM     12  C   UNL     1      -2.999  30.707  54.514  1.00  0.00     0.005 C 
ATOM     13  C   UNL     1      -4.004  30.786  56.764  1.00  0.00    -0.026 C 
ATOM     14  C   UNL     1      -2.179  31.655  55.405  1.00  0.00     0.005 C 
ATOM     15  C   UNL     1      -2.548  31.254  56.825  1.00  0.00    -0.001 C 
ATOM     16  C   UNL     1      -4.324  30.058  58.093  1.00  0.00     0.007 C 
ATOM     17  C   UNL     1      -5.024  31.954  56.568  1.00  0.00     0.012 C 
ATOM     18  C   UNL     1      -2.139  32.163  58.015  1.00  0.00     0.004 C 
ATOM     19  C   UNL     1      -4.064  30.958  59.322  1.00  0.00     0.005 C 
ATOM     20  C   UNL     1      -2.621  31.558  59.378  1.00  0.00     0.003 C 
ATOM     21  C   UNL     1      -2.435  33.667  57.907  1.00  0.00     0.085 C 
ATOM     22  C   UNL     1      -2.354  32.505  60.643  1.00  0.00    -0.000 C 
ATOM     23  C   UNL     1      -1.664  34.371  58.979  1.00  0.00     0.159 C 
ATOM     24  C   UNL     1      -1.450  33.695  60.284  1.00  0.00     0.005 C 
ATOM     25  C   UNL     1      -1.680  31.643  61.757  1.00  0.00     0.020 C 
ATOM     26  C   UNL     1      -3.661  33.124  61.206  1.00  0.00     0.017 C 
ATOM     27  O   UNL     1      -1.222  35.534  58.768  1.00  0.00    -0.295 OA
ATOM     28  C   UNL     1      -0.579  34.213  61.170  1.00  0.00     0.055 C 
ATOM     29  C   UNL     1      -1.208  32.464  62.962  1.00  0.00     0.081 C 
ATOM     30  C   UNL     1      -0.391  33.636  62.510  1.00  0.00     0.156 C 
ATOM     31  O   UNL     1       0.432  34.163  63.304  1.00  0.00    -0.295 OA
ENDBRANCH   9  11
ENDBRANCH   8   9
ENDBRANCH   1   8
TORSDOF 6
ENDMDL
MODEL 5
REMARK VINA RESULT:    -5.210      3.089      8.277
REMARK INTER + INTRA:          -9.243
REMARK INTER:                  -7.865
REMARK INTRA:                  -1.378
REMARK UNBOUND:                -2.206
REMARK SMILES CC[C@@H](CC[C@H](C)[C@@H]1CC[C@H]2[C@H]3CC(=O)C4=CC(=O)CC[C@]4(C)[C@H]3CC[C@@]21C)C(C)C
REMARK SMILES IDX 4 1 3 2 2 3 1 4 29 5 30 6 31 7 5 8 6 9 7 10 8 11 9 12 27 13
REMARK SMILES IDX 10 14 11 15 26 16 28 17 12 18 25 19 24 20 13 21 22 22 14 23
REMARK SMILES IDX 16 24 21 25 23 26 15 27 17 28 20 29 18 30 19 31
REMARK H PARENT
REMARK Flexibility Score: inf
ROOT
ATOM      1  C   UNL     1      -2.086  35.314  60.403  1.00  0.00     0.004 C 
ENDROOT
BRANCH   1   2
ATOM      2  C   UNL     1      -1.814  34.457  61.672  1.00  0.00    -0.009 C 
BRANCH   2   3
ATOM      3  C   UNL     1      -2.188  35.168  63.010  1.00  0.00     0.000 C 
ATOM      4  C   UNL     1      -2.873  36.537  62.889  1.00  0.00     0.004 C 
ENDBRANCH   2   3
BRANCH   2   5
ATOM      5  C   UNL     1      -0.380  33.826  61.637  1.00  0.00    -0.014 C 
ATOM      6  C   UNL     1      -0.119  32.904  62.841  1.00  0.00     0.007 C 
ATOM      7  C   UNL     1       0.763  34.839  61.494  1.00  0.00     0.007 C 
ENDBRANCH   2   5
ENDBRANCH   1   2
BRANCH   1   8
ATOM      8  C   UNL     1      -2.409  34.517  59.116  1.00  0.00     0.004 C 
BRANCH   8   9
ATOM      9  C   UNL     1      -3.867  33.985  59.002  1.00  0.00    -0.011 C 
ATOM     10  C   UNL     1      -4.821  34.645  60.020  1.00  0.00     0.008 C 
BRANCH   9  11
ATOM     11  C   UNL     1      -3.936  32.414  58.915  1.00  0.00    -0.002 C 
ATOM     12  C   UNL     1      -2.678  31.750  59.553  1.00  0.00     0.005 C 
ATOM     13  C   UNL     1      -4.099  31.670  57.539  1.00  0.00    -0.026 C 
ATOM     14  C   UNL     1      -1.952  30.964  58.448  1.00  0.00     0.005 C 
ATOM     15  C   UNL     1      -2.641  31.394  57.162  1.00  0.00    -0.001 C 
ATOM     16  C   UNL     1      -4.760  32.426  56.359  1.00  0.00     0.007 C 
ATOM     17  C   UNL     1      -4.920  30.374  57.835  1.00  0.00     0.012 C 
ATOM     18  C   UNL     1      -2.380  30.612  55.847  1.00  0.00     0.004 C 
ATOM     19  C   UNL     1      -4.651  31.635  55.035  1.00  0.00     0.005 C 
ATOM     20  C   UNL     1      -3.190  31.226  54.655  1.00  0.00     0.003 C 
ATOM     21  C   UNL     1      -2.477  29.079  55.890  1.00  0.00     0.085 C 
ATOM     22  C   UNL     1      -3.078  30.393  53.291  1.00  0.00    -0.000 C 
ATOM     23  C   UNL     1      -1.862  28.539  54.637  1.00  0.00     0.159 C 
ATOM     24  C   UNL     1      -1.992  29.308  53.374  1.00  0.00     0.005 C 
ATOM     25  C   UNL     1      -2.742  31.393  52.141  1.00  0.00     0.020 C 
ATOM     26  C   UNL     1      -4.394  29.646  52.942  1.00  0.00     0.017 C 
ATOM     27  O   UNL     1      -1.259  27.431  54.666  1.00  0.00    -0.295 OA
ATOM     28  C   UNL     1      -1.264  28.955  52.298  1.00  0.00     0.055 C 
ATOM     29  C   UNL     1      -2.433  30.707  50.806  1.00  0.00     0.081 C 
ATOM     30  C   UNL     1      -1.416  29.624  50.997  1.00  0.00     0.156 C 
ATOM     31  O   UNL     1      -0.715  29.251  50.020  1.00  0.00    -0.295 OA
ENDBRANCH   9  11
ENDBRANCH   8   9
ENDBRANCH   1   8
TORSDOF 6
ENDMDL
MODEL 6
REMARK VINA RESULT:    -5.148      1.537      2.669
REMARK INTER + INTRA:          -9.160
REMARK INTER:                  -8.664
REMARK INTRA:                  -0.496
REMARK UNBOUND:                -2.206
REMARK SMILES CC[C@@H](CC[C@H](C)[C@@H]1CC[C@H]2[C@H]3CC(=O)C4=CC(=O)CC[C@]4(C)[C@H]3CC[C@@]21C)C(C)C
REMARK SMILES IDX 4 1 3 2 2 3 1 4 29 5 30 6 31 7 5 8 6 9 7 10 8 11 9 12 27 13
REMARK SMILES IDX 10 14 11 15 26 16 28 17 12 18 25 19 24 20 13 21 22 22 14 23
REMARK SMILES IDX 16 24 21 25 23 26 15 27 17 28 20 29 18 30 19 31
REMARK H PARENT
REMARK Flexibility Score: inf
ROOT
ATOM      1  C   UNL     1      -0.244  28.740  53.331  1.00  0.00     0.004 C 
ENDROOT
BRANCH   1   2
ATOM      2  C   UNL     1       0.155  27.242  53.442  1.00  0.00    -0.009 C 
BRANCH   2   3
ATOM      3  C   UNL     1      -0.974  26.251  53.019  1.00  0.00     0.000 C 
ATOM      4  C   UNL     1      -1.505  26.390  51.585  1.00  0.00     0.004 C 
ENDBRANCH   2   3
BRANCH   2   5
ATOM      5  C   UNL     1       0.823  26.931  54.825  1.00  0.00    -0.014 C 
ATOM      6  C   UNL     1       2.351  27.106  54.788  1.00  0.00     0.007 C 
ATOM      7  C   UNL     1       0.466  25.561  55.416  1.00  0.00     0.007 C 
ENDBRANCH   2   5
ENDBRANCH   1   2
BRANCH   1   8
ATOM      8  C   UNL     1      -1.453  29.175  54.194  1.00  0.00     0.004 C 
BRANCH   8   9
ATOM      9  C   UNL     1      -2.826  29.203  53.464  1.00  0.00    -0.011 C 
ATOM     10  C   UNL     1      -2.767  29.949  52.114  1.00  0.00     0.008 C 
BRANCH   9  11
ATOM     11  C   UNL     1      -4.015  29.604  54.417  1.00  0.00    -0.002 C 
ATOM     12  C   UNL     1      -4.713  30.913  53.940  1.00  0.00     0.005 C 
ATOM     13  C   UNL     1      -3.795  29.832  55.958  1.00  0.00    -0.026 C 
ATOM     14  C   UNL     1      -4.546  31.965  55.049  1.00  0.00     0.005 C 
ATOM     15  C   UNL     1      -3.548  31.343  56.014  1.00  0.00    -0.001 C 
ATOM     16  C   UNL     1      -2.601  29.130  56.651  1.00  0.00     0.007 C 
ATOM     17  C   UNL     1      -5.120  29.394  56.660  1.00  0.00     0.012 C 
ATOM     18  C   UNL     1      -3.327  31.978  57.413  1.00  0.00     0.004 C 
ATOM     19  C   UNL     1      -2.406  29.624  58.103  1.00  0.00     0.005 C 
ATOM     20  C   UNL     1      -2.260  31.176  58.234  1.00  0.00     0.003 C 
ATOM     21  C   UNL     1      -4.567  32.326  58.250  1.00  0.00     0.085 C 
ATOM     22  C   UNL     1      -2.074  31.691  59.740  1.00  0.00    -0.000 C 
ATOM     23  C   UNL     1      -4.137  33.219  59.371  1.00  0.00     0.159 C 
ATOM     24  C   UNL     1      -2.796  33.026  59.980  1.00  0.00     0.005 C 
ATOM     25  C   UNL     1      -0.545  31.859  60.006  1.00  0.00     0.020 C 
ATOM     26  C   UNL     1      -2.662  30.701  60.782  1.00  0.00     0.017 C 
ATOM     27  O   UNL     1      -4.923  34.109  59.795  1.00  0.00    -0.295 OA
ATOM     28  C   UNL     1      -2.308  33.951  60.827  1.00  0.00     0.055 C 
ATOM     29  C   UNL     1      -0.229  32.515  61.354  1.00  0.00     0.081 C 
ATOM     30  C   UNL     1      -1.026  33.771  61.526  1.00  0.00     0.156 C 
ATOM     31  O   UNL     1      -0.617  34.664  62.314  1.00  0.00    -0.295 OA
ENDBRANCH   9  11
ENDBRANCH   8   9
ENDBRANCH   1   8
TORSDOF 6
ENDMDL
MODEL 7
REMARK VINA RESULT:    -4.946      2.526      4.130
REMARK INTER + INTRA:          -8.887
REMARK INTER:                  -7.892
REMARK INTRA:                  -0.995
REMARK UNBOUND:                -2.206
REMARK SMILES CC[C@@H](CC[C@H](C)[C@@H]1CC[C@H]2[C@H]3CC(=O)C4=CC(=O)CC[C@]4(C)[C@H]3CC[C@@]21C)C(C)C
REMARK SMILES IDX 4 1 3 2 2 3 1 4 29 5 30 6 31 7 5 8 6 9 7 10 8 11 9 12 27 13
REMARK SMILES IDX 10 14 11 15 26 16 28 17 12 18 25 19 24 20 13 21 22 22 14 23
REMARK SMILES IDX 16 24 21 25 23 26 15 27 17 28 20 29 18 30 19 31
REMARK H PARENT
REMARK Flexibility Score: inf
ROOT
ATOM      1  C   UNL     1      -0.618  29.279  50.785  1.00  0.00     0.004 C 
ENDROOT
BRANCH   1   2
ATOM      2  C   UNL     1      -0.985  30.039  49.479  1.00  0.00    -0.009 C 
BRANCH   2   3
ATOM      3  C   UNL     1      -2.497  29.962  49.102  1.00  0.00     0.000 C 
ATOM      4  C   UNL     1      -3.261  31.294  49.059  1.00  0.00     0.004 C 
ENDBRANCH   2   3
BRANCH   2   5
ATOM      5  C   UNL     1       0.005  29.685  48.316  1.00  0.00    -0.014 C 
ATOM      6  C   UNL     1       1.467  29.997  48.679  1.00  0.00     0.007 C 
ATOM      7  C   UNL     1      -0.346  30.315  46.962  1.00  0.00     0.007 C 
ENDBRANCH   2   5
ENDBRANCH   1   2
BRANCH   1   8
ATOM      8  C   UNL     1      -1.698  28.304  51.314  1.00  0.00     0.004 C 
BRANCH   8   9
ATOM      9  C   UNL     1      -1.813  28.205  52.862  1.00  0.00    -0.011 C 
ATOM     10  C   UNL     1      -1.491  26.792  53.394  1.00  0.00     0.008 C 
BRANCH   9  11
ATOM     11  C   UNL     1      -3.134  28.862  53.417  1.00  0.00    -0.002 C 
ATOM     12  C   UNL     1      -3.529  30.128  52.598  1.00  0.00     0.005 C 
ATOM     13  C   UNL     1      -3.258  29.326  54.915  1.00  0.00    -0.026 C 
ATOM     14  C   UNL     1      -3.499  31.333  53.554  1.00  0.00     0.005 C 
ATOM     15  C   UNL     1      -2.843  30.797  54.818  1.00  0.00    -0.001 C 
ATOM     16  C   UNL     1      -2.360  28.650  55.980  1.00  0.00     0.007 C 
ATOM     17  C   UNL     1      -4.756  29.128  55.313  1.00  0.00     0.012 C 
ATOM     18  C   UNL     1      -2.882  31.636  56.123  1.00  0.00     0.004 C 
ATOM     19  C   UNL     1      -2.454  29.361  57.349  1.00  0.00     0.005 C 
ATOM     20  C   UNL     1      -2.150  30.894  57.292  1.00  0.00     0.003 C 
ATOM     21  C   UNL     1      -4.231  32.226  56.560  1.00  0.00     0.085 C 
ATOM     22  C   UNL     1      -2.261  31.637  58.708  1.00  0.00    -0.000 C 
ATOM     23  C   UNL     1      -3.970  33.254  57.616  1.00  0.00     0.159 C 
ATOM     24  C   UNL     1      -2.847  33.051  58.566  1.00  0.00     0.005 C 
ATOM     25  C   UNL     1      -0.830  31.714  59.327  1.00  0.00     0.020 C 
ATOM     26  C   UNL     1      -3.199  30.891  59.696  1.00  0.00     0.017 C 
ATOM     27  O   UNL     1      -4.716  34.268  57.697  1.00  0.00    -0.295 OA
ATOM     28  C   UNL     1      -2.460  34.059  59.370  1.00  0.00     0.055 C 
ATOM     29  C   UNL     1      -0.762  32.557  60.605  1.00  0.00     0.081 C 
ATOM     30  C   UNL     1      -1.413  33.888  60.389  1.00  0.00     0.156 C 
ATOM     31  O   UNL     1      -1.094  34.862  61.121  1.00  0.00    -0.295 OA
ENDBRANCH   9  11
ENDBRANCH   8   9
ENDBRANCH   1   8
TORSDOF 6
ENDMDL
MODEL 8
REMARK VINA RESULT:    -4.696      3.163      8.204
REMARK INTER + INTRA:          -8.549
REMARK INTER:                  -7.020
REMARK INTRA:                  -1.529
REMARK UNBOUND:                -2.206
REMARK SMILES CC[C@@H](CC[C@H](C)[C@@H]1CC[C@H]2[C@H]3CC(=O)C4=CC(=O)CC[C@]4(C)[C@H]3CC[C@@]21C)C(C)C
REMARK SMILES IDX 4 1 3 2 2 3 1 4 29 5 30 6 31 7 5 8 6 9 7 10 8 11 9 12 27 13
REMARK SMILES IDX 10 14 11 15 26 16 28 17 12 18 25 19 24 20 13 21 22 22 14 23
REMARK SMILES IDX 16 24 21 25 23 26 15 27 17 28 20 29 18 30 19 31
REMARK H PARENT
REMARK Flexibility Score: inf
ROOT
ATOM      1  C   UNL     1      -2.063  35.481  60.177  1.00  0.00     0.004 C 
ENDROOT
BRANCH   1   2
ATOM      2  C   UNL     1      -2.326  36.303  58.884  1.00  0.00    -0.009 C 
BRANCH   2   3
ATOM      3  C   UNL     1      -1.201  37.329  58.543  1.00  0.00     0.000 C 
ATOM      4  C   UNL     1       0.177  36.745  58.200  1.00  0.00     0.004 C 
ENDBRANCH   2   3
BRANCH   2   5
ATOM      5  C   UNL     1      -3.780  36.887  58.866  1.00  0.00    -0.014 C 
ATOM      6  C   UNL     1      -4.305  37.192  60.279  1.00  0.00     0.007 C 
ATOM      7  C   UNL     1      -4.802  36.038  58.098  1.00  0.00     0.007 C 
ENDBRANCH   2   5
ENDBRANCH   1   2
BRANCH   1   8
ATOM      8  C   UNL     1      -2.228  33.948  60.039  1.00  0.00     0.004 C 
BRANCH   8   9
ATOM      9  C   UNL     1      -3.648  33.394  60.349  1.00  0.00    -0.011 C 
ATOM     10  C   UNL     1      -4.180  33.855  61.723  1.00  0.00     0.008 C 
BRANCH   9  11
ATOM     11  C   UNL     1      -3.780  31.854  60.043  1.00  0.00    -0.002 C 
ATOM     12  C   UNL     1      -2.561  31.056  60.596  1.00  0.00     0.005 C 
ATOM     13  C   UNL     1      -3.951  31.316  58.575  1.00  0.00    -0.026 C 
ATOM     14  C   UNL     1      -1.850  30.400  59.400  1.00  0.00     0.005 C 
ATOM     15  C   UNL     1      -2.500  31.033  58.179  1.00  0.00    -0.001 C 
ATOM     16  C   UNL     1      -4.560  32.255  57.504  1.00  0.00     0.007 C 
ATOM     17  C   UNL     1      -4.829  30.028  58.679  1.00  0.00     0.012 C 
ATOM     18  C   UNL     1      -2.249  30.430  56.771  1.00  0.00     0.004 C 
ATOM     19  C   UNL     1      -4.462  31.652  56.085  1.00  0.00     0.005 C 
ATOM     20  C   UNL     1      -3.014  31.238  55.667  1.00  0.00     0.003 C 
ATOM     21  C   UNL     1      -2.409  28.911  56.599  1.00  0.00     0.085 C 
ATOM     22  C   UNL     1      -2.913  30.597  54.202  1.00  0.00    -0.000 C 
ATOM     23  C   UNL     1      -1.796  28.524  55.290  1.00  0.00     0.159 C 
ATOM     24  C   UNL     1      -1.874  29.466  54.144  1.00  0.00     0.005 C 
ATOM     25  C   UNL     1      -2.518  31.732  53.205  1.00  0.00     0.020 C 
ATOM     26  C   UNL     1      -4.252  29.962  53.738  1.00  0.00     0.017 C 
ATOM     27  O   UNL     1      -1.239  27.398  55.171  1.00  0.00    -0.295 OA
ATOM     28  C   UNL     1      -1.143  29.234  53.038  1.00  0.00     0.055 C 
ATOM     29  C   UNL     1      -2.214  31.225  51.792  1.00  0.00     0.081 C 
ATOM     30  C   UNL     1      -1.246  30.083  51.841  1.00  0.00     0.156 C 
ATOM     31  O   UNL     1      -0.544  29.819  50.829  1.00  0.00    -0.295 OA
ENDBRANCH   9  11
ENDBRANCH   8   9
ENDBRANCH   1   8
TORSDOF 6
ENDMDL
MODEL 9
REMARK VINA RESULT:    -4.538      1.841      3.693
REMARK INTER + INTRA:          -8.335
REMARK INTER:                  -7.112
REMARK INTRA:                  -1.223
REMARK UNBOUND:                -2.206
REMARK SMILES CC[C@@H](CC[C@H](C)[C@@H]1CC[C@H]2[C@H]3CC(=O)C4=CC(=O)CC[C@]4(C)[C@H]3CC[C@@]21C)C(C)C
REMARK SMILES IDX 4 1 3 2 2 3 1 4 29 5 30 6 31 7 5 8 6 9 7 10 8 11 9 12 27 13
REMARK SMILES IDX 10 14 11 15 26 16 28 17 12 18 25 19 24 20 13 21 22 22 14 23
REMARK SMILES IDX 16 24 21 25 23 26 15 27 17 28 20 29 18 30 19 31
REMARK H PARENT
REMARK Flexibility Score: inf
ROOT
ATOM      1  C   UNL     1      -1.199  29.928  52.559  1.00  0.00     0.004 C 
ENDROOT
BRANCH   1   2
ATOM      2  C   UNL     1      -0.997  28.683  51.650  1.00  0.00    -0.009 C 
BRANCH   2   3
ATOM      3  C   UNL     1      -1.635  28.821  50.233  1.00  0.00     0.000 C 
ATOM      4  C   UNL     1      -0.701  29.277  49.103  1.00  0.00     0.004 C 
ENDBRANCH   2   3
BRANCH   2   5
ATOM      5  C   UNL     1      -1.352  27.359  52.409  1.00  0.00    -0.014 C 
ATOM      6  C   UNL     1      -0.203  26.876  53.311  1.00  0.00     0.007 C 
ATOM      7  C   UNL     1      -1.829  26.212  51.508  1.00  0.00     0.007 C 
ENDBRANCH   2   5
ENDBRANCH   1   2
BRANCH   1   8
ATOM      8  C   UNL     1      -2.451  30.783  52.251  1.00  0.00     0.004 C 
BRANCH   8   9
ATOM      9  C   UNL     1      -3.764  30.332  52.953  1.00  0.00    -0.011 C 
ATOM     10  C   UNL     1      -4.767  31.490  53.141  1.00  0.00     0.008 C 
BRANCH   9  11
ATOM     11  C   UNL     1      -3.498  29.442  54.226  1.00  0.00    -0.002 C 
ATOM     12  C   UNL     1      -4.793  28.712  54.694  1.00  0.00     0.005 C 
ATOM     13  C   UNL     1      -2.908  30.052  55.550  1.00  0.00    -0.026 C 
ATOM     14  C   UNL     1      -5.122  29.204  56.113  1.00  0.00     0.005 C 
ATOM     15  C   UNL     1      -4.183  30.381  56.333  1.00  0.00    -0.001 C 
ATOM     16  C   UNL     1      -2.060  31.346  55.461  1.00  0.00     0.007 C 
ATOM     17  C   UNL     1      -2.048  28.926  56.209  1.00  0.00     0.012 C 
ATOM     18  C   UNL     1      -4.012  30.977  57.756  1.00  0.00     0.004 C 
ATOM     19  C   UNL     1      -1.740  31.923  56.858  1.00  0.00     0.005 C 
ATOM     20  C   UNL     1      -3.001  32.174  57.748  1.00  0.00     0.003 C 
ATOM     21  C   UNL     1      -3.757  30.005  58.919  1.00  0.00     0.085 C 
ATOM     22  C   UNL     1      -2.670  32.758  59.203  1.00  0.00    -0.000 C 
ATOM     23  C   UNL     1      -3.969  30.747  60.201  1.00  0.00     0.159 C 
ATOM     24  C   UNL     1      -3.611  32.186  60.275  1.00  0.00     0.005 C 
ATOM     25  C   UNL     1      -2.814  34.311  59.144  1.00  0.00     0.020 C 
ATOM     26  C   UNL     1      -1.233  32.402  59.672  1.00  0.00     0.017 C 
ATOM     27  O   UNL     1      -4.431  30.138  61.204  1.00  0.00    -0.295 OA
ATOM     28  C   UNL     1      -3.999  32.918  61.337  1.00  0.00     0.055 C 
ATOM     29  C   UNL     1      -2.696  34.988  60.514  1.00  0.00     0.081 C 
ATOM     30  C   UNL     1      -3.599  34.323  61.506  1.00  0.00     0.156 C 
ATOM     31  O   UNL     1      -3.983  34.961  62.522  1.00  0.00    -0.295 OA
ENDBRANCH   9  11
ENDBRANCH   8   9
ENDBRANCH   1   8
TORSDOF 6
ENDMDL
