MODEL 1
REMARK VINA RESULT:    -3.095      0.000      0.000
REMARK INTER + INTRA:          -3.722
REMARK INTER:                  -3.638
REMARK INTRA:                  -0.084
REMARK UNBOUND:                -0.084
REMARK SMILES O=C([O-])CCC(=O)[O-]
REMARK SMILES IDX 4 1 2 2 1 3 3 4 5 5 6 6 7 7 8 8
REMARK H PARENT
REMARK Flexibility Score: inf
ROOT
ATOM      1  C   UNL     1     -18.903  -1.607 -23.554  1.00  0.00     0.059 C 
ENDROOT
BRANCH   1   2
ATOM      2  C   UNL     1     -19.738  -0.842 -24.535  1.00  0.00     0.042 C 
ATOM      3  O   UNL     1     -20.123   0.325 -24.263  1.00  0.00    -0.550 OA
ATOM      4  O   UNL     1     -20.125  -1.434 -25.730  1.00  0.00    -0.550 OA
ENDBRANCH   1   2
BRANCH   1   5
ATOM      5  C   UNL     1     -17.654  -0.822 -23.141  1.00  0.00     0.059 C 
BRANCH   5   6
ATOM      6  C   UNL     1     -17.522  -0.736 -21.652  1.00  0.00     0.042 C 
ATOM      7  O   UNL     1     -18.113   0.175 -21.014  1.00  0.00    -0.550 OA
ATOM      8  O   UNL     1     -16.779  -1.687 -20.964  1.00  0.00    -0.550 OA
ENDBRANCH   5   6
ENDBRANCH   1   5
TORSDOF 3
ENDMDL
MODEL 2
REMARK VINA RESULT:    -3.092      2.546      3.915
REMARK INTER + INTRA:          -3.719
REMARK INTER:                  -3.683
REMARK INTRA:                  -0.036
REMARK UNBOUND:                -0.084
REMARK SMILES O=C([O-])CCC(=O)[O-]
REMARK SMILES IDX 4 1 2 2 1 3 3 4 5 5 6 6 7 7 8 8
REMARK H PARENT
REMARK Flexibility Score: inf
ROOT
ATOM      1  C   UNL     1     -18.609   1.298 -23.676  1.00  0.00     0.059 C 
ENDROOT
BRANCH   1   2
ATOM      2  C   UNL     1     -18.670   2.664 -24.289  1.00  0.00     0.042 C 
ATOM      3  O   UNL     1     -19.782   3.219 -24.489  1.00  0.00    -0.550 OA
ATOM      4  O   UNL     1     -17.500   3.304 -24.679  1.00  0.00    -0.550 OA
ENDBRANCH   1   2
BRANCH   1   5
ATOM      5  C   UNL     1     -19.833   0.456 -24.049  1.00  0.00     0.059 C 
BRANCH   5   6
ATOM      6  C   UNL     1     -19.445  -0.932 -24.457  1.00  0.00     0.042 C 
ATOM      7  O   UNL     1     -18.667  -1.611 -23.738  1.00  0.00    -0.550 OA
ATOM      8  O   UNL     1     -19.976  -1.490 -25.613  1.00  0.00    -0.550 OA
ENDBRANCH   5   6
ENDBRANCH   1   5
TORSDOF 3
ENDMDL
MODEL 3
REMARK VINA RESULT:    -3.084      0.558      4.183
REMARK INTER + INTRA:          -3.709
REMARK INTER:                  -3.664
REMARK INTRA:                  -0.045
REMARK UNBOUND:                -0.084
REMARK SMILES O=C([O-])CCC(=O)[O-]
REMARK SMILES IDX 4 1 2 2 1 3 3 4 5 5 6 6 7 7 8 8
REMARK H PARENT
REMARK Flexibility Score: inf
ROOT
ATOM      1  C   UNL     1     -17.447  -1.240 -22.904  1.00  0.00     0.059 C 
ENDROOT
BRANCH   1   2
ATOM      2  C   UNL     1     -17.084  -1.190 -21.451  1.00  0.00     0.042 C 
ATOM      3  O   UNL     1     -16.378  -2.101 -20.944  1.00  0.00    -0.550 OA
ATOM      4  O   UNL     1     -17.560  -0.160 -20.650  1.00  0.00    -0.550 OA
ENDBRANCH   1   2
BRANCH   1   5
ATOM      5  C   UNL     1     -18.942  -1.509 -23.104  1.00  0.00     0.059 C 
BRANCH   5   6
ATOM      6  C   UNL     1     -19.474  -0.802 -24.312  1.00  0.00     0.042 C 
ATOM      7  O   UNL     1     -19.511   0.456 -24.346  1.00  0.00    -0.550 OA
ATOM      8  O   UNL     1     -19.891  -1.533 -25.418  1.00  0.00    -0.550 OA
ENDBRANCH   5   6
ENDBRANCH   1   5
TORSDOF 3
ENDMDL
MODEL 4
REMARK VINA RESULT:    -3.056     16.868     17.707
REMARK INTER + INTRA:          -3.675
REMARK INTER:                  -3.585
REMARK INTRA:                  -0.091
REMARK UNBOUND:                -0.084
REMARK SMILES O=C([O-])CCC(=O)[O-]
REMARK SMILES IDX 4 1 2 2 1 3 3 4 5 5 6 6 7 7 8 8
REMARK H PARENT
REMARK Flexibility Score: inf
ROOT
ATOM      1  C   UNL     1      -5.987 -10.184 -14.154  1.00  0.00     0.059 C 
ENDROOT
BRANCH   1   2
ATOM      2  C   UNL     1      -6.625 -11.203 -15.048  1.00  0.00     0.042 C 
ATOM      3  O   UNL     1      -6.180 -11.390 -16.211  1.00  0.00    -0.550 OA
ATOM      4  O   UNL     1      -7.734 -11.915 -14.612  1.00  0.00    -0.550 OA
ENDBRANCH   1   2
BRANCH   1   5
ATOM      5  C   UNL     1      -6.223  -8.759 -14.662  1.00  0.00     0.059 C 
BRANCH   5   6
ATOM      6  C   UNL     1      -4.976  -8.166 -15.244  1.00  0.00     0.042 C 
ATOM      7  O   UNL     1      -3.847  -8.503 -14.800  1.00  0.00    -0.550 OA
ATOM      8  O   UNL     1      -5.061  -7.273 -16.304  1.00  0.00    -0.550 OA
ENDBRANCH   5   6
ENDBRANCH   1   5
TORSDOF 3
ENDMDL
MODEL 5
REMARK VINA RESULT:    -3.050     16.804     17.769
REMARK INTER + INTRA:          -3.669
REMARK INTER:                  -3.583
REMARK INTRA:                  -0.086
REMARK UNBOUND:                -0.084
REMARK SMILES O=C([O-])CCC(=O)[O-]
REMARK SMILES IDX 4 1 2 2 1 3 3 4 5 5 6 6 7 7 8 8
REMARK H PARENT
REMARK Flexibility Score: inf
ROOT
ATOM      1  C   UNL     1      -6.252  -8.812 -14.813  1.00  0.00     0.059 C 
ENDROOT
BRANCH   1   2
ATOM      2  C   UNL     1      -5.006  -8.170 -15.345  1.00  0.00     0.042 C 
ATOM      3  O   UNL     1      -3.893  -8.406 -14.806  1.00  0.00    -0.550 OA
ATOM      4  O   UNL     1      -5.082  -7.279 -16.408  1.00  0.00    -0.550 OA
ENDBRANCH   1   2
BRANCH   1   5
ATOM      5  C   UNL     1      -5.979 -10.225 -14.289  1.00  0.00     0.059 C 
BRANCH   5   6
ATOM      6  C   UNL     1      -6.537 -11.271 -15.204  1.00  0.00     0.042 C 
ATOM      7  O   UNL     1      -7.487 -12.006 -14.824  1.00  0.00    -0.550 OA
ATOM      8  O   UNL     1      -6.033 -11.408 -16.492  1.00  0.00    -0.550 OA
ENDBRANCH   5   6
ENDBRANCH   1   5
TORSDOF 3
ENDMDL
MODEL 6
REMARK VINA RESULT:    -3.034     16.732     17.034
REMARK INTER + INTRA:          -3.650
REMARK INTER:                  -3.540
REMARK INTRA:                  -0.111
REMARK UNBOUND:                -0.084
REMARK SMILES O=C([O-])CCC(=O)[O-]
REMARK SMILES IDX 4 1 2 2 1 3 3 4 5 5 6 6 7 7 8 8
REMARK H PARENT
REMARK Flexibility Score: inf
ROOT
ATOM      1  C   UNL     1      -4.442  -8.519 -15.811  1.00  0.00     0.059 C 
ENDROOT
BRANCH   1   2
ATOM      2  C   UNL     1      -4.532  -7.797 -17.121  1.00  0.00     0.042 C 
ATOM      3  O   UNL     1      -4.428  -6.543 -17.161  1.00  0.00    -0.550 OA
ATOM      4  O   UNL     1      -4.773  -8.506 -18.291  1.00  0.00    -0.550 OA
ENDBRANCH   1   2
BRANCH   1   5
ATOM      5  C   UNL     1      -5.763  -8.454 -15.038  1.00  0.00     0.059 C 
BRANCH   5   6
ATOM      6  C   UNL     1      -6.530  -9.736 -15.146  1.00  0.00     0.042 C 
ATOM      7  O   UNL     1      -7.571  -9.913 -14.460  1.00  0.00    -0.550 OA
ATOM      8  O   UNL     1      -6.117 -10.720 -16.036  1.00  0.00    -0.550 OA
ENDBRANCH   5   6
ENDBRANCH   1   5
TORSDOF 3
ENDMDL
MODEL 7
REMARK VINA RESULT:    -3.003     16.496     17.115
REMARK INTER + INTRA:          -3.613
REMARK INTER:                  -3.490
REMARK INTRA:                  -0.124
REMARK UNBOUND:                -0.084
REMARK SMILES O=C([O-])CCC(=O)[O-]
REMARK SMILES IDX 4 1 2 2 1 3 3 4 5 5 6 6 7 7 8 8
REMARK H PARENT
REMARK Flexibility Score: inf
ROOT
ATOM      1  C   UNL     1      -4.975  -8.403 -15.378  1.00  0.00     0.059 C 
ENDROOT
BRANCH   1   2
ATOM      2  C   UNL     1      -6.010  -9.479 -15.511  1.00  0.00     0.042 C 
ATOM      3  O   UNL     1      -6.976  -9.531 -14.706  1.00  0.00    -0.550 OA
ATOM      4  O   UNL     1      -5.884 -10.447 -16.499  1.00  0.00    -0.550 OA
ENDBRANCH   1   2
BRANCH   1   5
ATOM      5  C   UNL     1      -5.188  -7.284 -16.401  1.00  0.00     0.059 C 
BRANCH   5   6
ATOM      6  C   UNL     1      -4.278  -7.434 -17.581  1.00  0.00     0.042 C 
ATOM      7  O   UNL     1      -4.668  -8.046 -18.610  1.00  0.00    -0.550 OA
ATOM      8  O   UNL     1      -3.012  -6.862 -17.560  1.00  0.00    -0.550 OA
ENDBRANCH   5   6
ENDBRANCH   1   5
TORSDOF 3
ENDMDL
MODEL 8
REMARK VINA RESULT:    -2.993     17.005     17.785
REMARK INTER + INTRA:          -3.602
REMARK INTER:                  -3.493
REMARK INTRA:                  -0.108
REMARK UNBOUND:                -0.084
REMARK SMILES O=C([O-])CCC(=O)[O-]
REMARK SMILES IDX 4 1 2 2 1 3 3 4 5 5 6 6 7 7 8 8
REMARK H PARENT
REMARK Flexibility Score: inf
ROOT
ATOM      1  C   UNL     1      -5.909  -8.717 -14.478  1.00  0.00     0.059 C 
ENDROOT
BRANCH   1   2
ATOM      2  C   UNL     1      -6.726  -9.884 -14.943  1.00  0.00     0.042 C 
ATOM      3  O   UNL     1      -7.808 -10.169 -14.366  1.00  0.00    -0.550 OA
ATOM      4  O   UNL     1      -6.270 -10.681 -15.986  1.00  0.00    -0.550 OA
ENDBRANCH   1   2
BRANCH   1   5
ATOM      5  C   UNL     1      -5.136  -8.072 -15.632  1.00  0.00     0.059 C 
BRANCH   5   6
ATOM      6  C   UNL     1      -3.669  -8.360 -15.543  1.00  0.00     0.042 C 
ATOM      7  O   UNL     1      -2.855  -7.743 -16.280  1.00  0.00    -0.550 OA
ATOM      8  O   UNL     1      -3.196  -9.281 -14.616  1.00  0.00    -0.550 OA
ENDBRANCH   5   6
ENDBRANCH   1   5
TORSDOF 3
ENDMDL
MODEL 9
REMARK VINA RESULT:    -2.963     16.603     17.436
REMARK INTER + INTRA:          -3.567
REMARK INTER:                  -3.468
REMARK INTRA:                  -0.099
REMARK UNBOUND:                -0.084
REMARK SMILES O=C([O-])CCC(=O)[O-]
REMARK SMILES IDX 4 1 2 2 1 3 3 4 5 5 6 6 7 7 8 8
REMARK H PARENT
REMARK Flexibility Score: inf
ROOT
ATOM      1  C   UNL     1      -5.191  -7.268 -16.388  1.00  0.00     0.059 C 
ENDROOT
BRANCH   1   2
ATOM      2  C   UNL     1      -4.931  -8.139 -15.197  1.00  0.00     0.042 C 
ATOM      3  O   UNL     1      -3.761  -8.527 -14.940  1.00  0.00    -0.550 OA
ATOM      4  O   UNL     1      -5.986  -8.556 -14.395  1.00  0.00    -0.550 OA
ENDBRANCH   1   2
BRANCH   1   5
ATOM      5  C   UNL     1      -3.905  -6.976 -17.166  1.00  0.00     0.059 C 
BRANCH   5   6
ATOM      6  C   UNL     1      -3.899  -7.658 -18.500  1.00  0.00     0.042 C 
ATOM      7  O   UNL     1      -3.098  -7.288 -19.398  1.00  0.00    -0.550 OA
ATOM      8  O   UNL     1      -4.751  -8.730 -18.736  1.00  0.00    -0.550 OA
ENDBRANCH   5   6
ENDBRANCH   1   5
TORSDOF 3
ENDMDL
