MODEL 1
REMARK VINA RESULT:    -3.701      0.000      0.000
REMARK INTER + INTRA:          -5.044
REMARK INTER:                  -4.783
REMARK INTRA:                  -0.261
REMARK UNBOUND:                -0.261
REMARK SMILES CCCCCCC(=O)[O-]
REMARK SMILES IDX 5 1 6 2 7 3 8 4 9 5 4 6 3 7 2 8 1 9
REMARK H PARENT
REMARK Flexibility Score: inf
ROOT
ATOM      1  C   UNL     1      11.122  39.618   1.970  1.00  0.00     0.006 C 
ENDROOT
BRANCH   1   2
ATOM      2  C   UNL     1      11.206  38.163   1.488  1.00  0.00     0.053 C 
BRANCH   2   3
ATOM      3  C   UNL     1       9.885  37.665   0.989  1.00  0.00     0.041 C 
ATOM      4  O   UNL     1       9.757  36.469   0.615  1.00  0.00    -0.550 OA
ATOM      5  O   UNL     1       8.786  38.514   0.963  1.00  0.00    -0.550 OA
ENDBRANCH   2   3
ENDBRANCH   1   2
BRANCH   1   6
ATOM      6  C   UNL     1      12.002  40.559   1.129  1.00  0.00     0.000 C 
BRANCH   6   7
ATOM      7  C   UNL     1      11.516  40.682  -0.323  1.00  0.00    -0.000 C 
BRANCH   7   8
ATOM      8  C   UNL     1      10.211  41.482  -0.445  1.00  0.00    -0.003 C 
ATOM      9  C   UNL     1      10.172  42.275  -1.749  1.00  0.00     0.004 C 
ENDBRANCH   7   8
ENDBRANCH   6   7
ENDBRANCH   1   6
TORSDOF 5
ENDMDL
MODEL 2
REMARK VINA RESULT:    -3.690      2.805      4.408
REMARK INTER + INTRA:          -5.030
REMARK INTER:                  -4.798
REMARK INTRA:                  -0.232
REMARK UNBOUND:                -0.261
REMARK SMILES CCCCCCC(=O)[O-]
REMARK SMILES IDX 5 1 6 2 7 3 8 4 9 5 4 6 3 7 2 8 1 9
REMARK H PARENT
REMARK Flexibility Score: inf
ROOT
ATOM      1  C   UNL     1      11.264  40.447  -0.283  1.00  0.00     0.006 C 
ENDROOT
BRANCH   1   2
ATOM      2  C   UNL     1      10.156  41.482  -0.518  1.00  0.00     0.053 C 
BRANCH   2   3
ATOM      3  C   UNL     1      10.278  42.133  -1.861  1.00  0.00     0.041 C 
ATOM      4  O   UNL     1      11.089  41.683  -2.714  1.00  0.00    -0.550 OA
ATOM      5  O   UNL     1       9.477  43.221  -2.183  1.00  0.00    -0.550 OA
ENDBRANCH   2   3
ENDBRANCH   1   2
BRANCH   1   6
ATOM      6  C   UNL     1      11.668  40.357   1.199  1.00  0.00     0.000 C 
BRANCH   6   7
ATOM      7  C   UNL     1      11.027  39.156   1.913  1.00  0.00    -0.000 C 
BRANCH   7   8
ATOM      8  C   UNL     1      10.519  38.087   0.935  1.00  0.00    -0.003 C 
ATOM      9  C   UNL     1       9.068  37.718   1.230  1.00  0.00     0.004 C 
ENDBRANCH   7   8
ENDBRANCH   6   7
ENDBRANCH   1   6
TORSDOF 5
ENDMDL
MODEL 3
REMARK VINA RESULT:    -3.682      2.269      4.177
REMARK INTER + INTRA:          -5.020
REMARK INTER:                  -4.795
REMARK INTRA:                  -0.224
REMARK UNBOUND:                -0.261
REMARK SMILES CCCCCCC(=O)[O-]
REMARK SMILES IDX 5 1 6 2 7 3 8 4 9 5 4 6 3 7 2 8 1 9
REMARK H PARENT
REMARK Flexibility Score: inf
ROOT
ATOM      1  C   UNL     1      11.597  40.758   1.093  1.00  0.00     0.006 C 
ENDROOT
BRANCH   1   2
ATOM      2  C   UNL     1      11.566  40.546  -0.427  1.00  0.00     0.053 C 
BRANCH   2   3
ATOM      3  C   UNL     1      10.597  41.471  -1.098  1.00  0.00     0.041 C 
ATOM      4  O   UNL     1       9.531  41.805  -0.516  1.00  0.00    -0.550 OA
ATOM      5  O   UNL     1      10.884  41.986  -2.355  1.00  0.00    -0.550 OA
ENDBRANCH   2   3
ENDBRANCH   1   2
BRANCH   1   6
ATOM      6  C   UNL     1      11.155  39.502   1.862  1.00  0.00     0.000 C 
BRANCH   6   7
ATOM      7  C   UNL     1      10.786  38.337   0.930  1.00  0.00    -0.000 C 
BRANCH   7   8
ATOM      8  C   UNL     1       9.349  37.840   1.143  1.00  0.00    -0.003 C 
ATOM      9  C   UNL     1       9.216  36.366   0.771  1.00  0.00     0.004 C 
ENDBRANCH   7   8
ENDBRANCH   6   7
ENDBRANCH   1   6
TORSDOF 5
ENDMDL
MODEL 4
REMARK VINA RESULT:    -3.664      1.766      3.546
REMARK INTER + INTRA:          -4.996
REMARK INTER:                  -4.773
REMARK INTRA:                  -0.222
REMARK UNBOUND:                -0.261
REMARK SMILES CCCCCCC(=O)[O-]
REMARK SMILES IDX 5 1 6 2 7 3 8 4 9 5 4 6 3 7 2 8 1 9
REMARK H PARENT
REMARK Flexibility Score: inf
ROOT
ATOM      1  C   UNL     1      11.033  39.548   1.012  1.00  0.00     0.006 C 
ENDROOT
BRANCH   1   2
ATOM      2  C   UNL     1      10.973  38.025   1.191  1.00  0.00     0.053 C 
BRANCH   2   3
ATOM      3  C   UNL     1       9.598  37.488   0.939  1.00  0.00     0.041 C 
ATOM      4  O   UNL     1       8.595  38.245   1.028  1.00  0.00    -0.550 OA
ATOM      5  O   UNL     1       9.426  36.158   0.578  1.00  0.00    -0.550 OA
ENDBRANCH   2   3
ENDBRANCH   1   2
BRANCH   1   6
ATOM      6  C   UNL     1      11.991  40.212   2.015  1.00  0.00     0.000 C 
BRANCH   6   7
ATOM      7  C   UNL     1      11.705  39.800   3.467  1.00  0.00    -0.000 C 
BRANCH   7   8
ATOM      8  C   UNL     1      12.819  38.929   4.066  1.00  0.00    -0.003 C 
ATOM      9  C   UNL     1      14.144  39.161   3.346  1.00  0.00     0.004 C 
ENDBRANCH   7   8
ENDBRANCH   6   7
ENDBRANCH   1   6
TORSDOF 5
ENDMDL
MODEL 5
REMARK VINA RESULT:    -3.606      2.924      4.212
REMARK INTER + INTRA:          -4.921
REMARK INTER:                  -4.739
REMARK INTRA:                  -0.183
REMARK UNBOUND:                -0.261
REMARK SMILES CCCCCCC(=O)[O-]
REMARK SMILES IDX 5 1 6 2 7 3 8 4 9 5 4 6 3 7 2 8 1 9
REMARK H PARENT
REMARK Flexibility Score: inf
ROOT
ATOM      1  C   UNL     1      12.056  40.549   1.974  1.00  0.00     0.006 C 
ENDROOT
BRANCH   1   2
ATOM      2  C   UNL     1      11.894  39.822   3.316  1.00  0.00     0.053 C 
BRANCH   2   3
ATOM      3  C   UNL     1      13.143  39.094   3.708  1.00  0.00     0.041 C 
ATOM      4  O   UNL     1      13.838  39.502   4.676  1.00  0.00    -0.550 OA
ATOM      5  O   UNL     1      13.526  37.949   3.022  1.00  0.00    -0.550 OA
ENDBRANCH   2   3
ENDBRANCH   1   2
BRANCH   1   6
ATOM      6  C   UNL     1      11.031  40.073   0.930  1.00  0.00     0.000 C 
BRANCH   6   7
ATOM      7  C   UNL     1      10.809  38.553   0.970  1.00  0.00    -0.000 C 
BRANCH   7   8
ATOM      8  C   UNL     1       9.328  38.175   1.117  1.00  0.00    -0.003 C 
ATOM      9  C   UNL     1       9.127  36.670   0.961  1.00  0.00     0.004 C 
ENDBRANCH   7   8
ENDBRANCH   6   7
ENDBRANCH   1   6
TORSDOF 5
ENDMDL
MODEL 6
REMARK VINA RESULT:    -3.459      2.717      3.170
REMARK INTER + INTRA:          -4.731
REMARK INTER:                  -4.536
REMARK INTRA:                  -0.195
REMARK UNBOUND:                -0.261
REMARK SMILES CCCCCCC(=O)[O-]
REMARK SMILES IDX 5 1 6 2 7 3 8 4 9 5 4 6 3 7 2 8 1 9
REMARK H PARENT
REMARK Flexibility Score: inf
ROOT
ATOM      1  C   UNL     1      11.024  38.859   1.795  1.00  0.00     0.006 C 
ENDROOT
BRANCH   1   2
ATOM      2  C   UNL     1      11.573  39.635   3.001  1.00  0.00     0.053 C 
BRANCH   2   3
ATOM      3  C   UNL     1      12.780  38.970   3.587  1.00  0.00     0.041 C 
ATOM      4  O   UNL     1      13.349  39.464   4.597  1.00  0.00    -0.550 OA
ATOM      5  O   UNL     1      13.260  37.789   3.037  1.00  0.00    -0.550 OA
ENDBRANCH   2   3
ENDBRANCH   1   2
BRANCH   1   6
ATOM      6  C   UNL     1      10.514  39.796   0.687  1.00  0.00     0.000 C 
BRANCH   6   7
ATOM      7  C   UNL     1      11.582  40.799   0.222  1.00  0.00    -0.000 C 
BRANCH   7   8
ATOM      8  C   UNL     1      11.022  41.857  -0.739  1.00  0.00    -0.003 C 
ATOM      9  C   UNL     1       9.496  41.839  -0.747  1.00  0.00     0.004 C 
ENDBRANCH   7   8
ENDBRANCH   6   7
ENDBRANCH   1   6
TORSDOF 5
ENDMDL
MODEL 7
REMARK VINA RESULT:    -3.425      8.743      9.923
REMARK INTER + INTRA:          -4.687
REMARK INTER:                  -4.319
REMARK INTRA:                  -0.368
REMARK UNBOUND:                -0.261
REMARK SMILES CCCCCCC(=O)[O-]
REMARK SMILES IDX 5 1 6 2 7 3 8 4 9 5 4 6 3 7 2 8 1 9
REMARK H PARENT
REMARK Flexibility Score: inf
ROOT
ATOM      1  C   UNL     1       5.965  37.989  -6.212  1.00  0.00     0.006 C 
ENDROOT
BRANCH   1   2
ATOM      2  C   UNL     1       6.096  39.267  -7.051  1.00  0.00     0.053 C 
BRANCH   2   3
ATOM      3  C   UNL     1       4.772  39.718  -7.588  1.00  0.00     0.041 C 
ATOM      4  O   UNL     1       4.404  40.915  -7.450  1.00  0.00    -0.550 OA
ATOM      5  O   UNL     1       3.956  38.822  -8.267  1.00  0.00    -0.550 OA
ENDBRANCH   2   3
ENDBRANCH   1   2
BRANCH   1   6
ATOM      6  C   UNL     1       5.204  38.234  -4.898  1.00  0.00     0.000 C 
BRANCH   6   7
ATOM      7  C   UNL     1       3.939  37.370  -4.778  1.00  0.00    -0.000 C 
BRANCH   7   8
ATOM      8  C   UNL     1       2.684  38.197  -4.465  1.00  0.00    -0.003 C 
ATOM      9  C   UNL     1       1.688  38.142  -5.620  1.00  0.00     0.004 C 
ENDBRANCH   7   8
ENDBRANCH   6   7
ENDBRANCH   1   6
TORSDOF 5
ENDMDL
MODEL 8
REMARK VINA RESULT:    -3.409      1.590      2.113
REMARK INTER + INTRA:          -4.667
REMARK INTER:                  -4.424
REMARK INTRA:                  -0.243
REMARK UNBOUND:                -0.261
REMARK SMILES CCCCCCC(=O)[O-]
REMARK SMILES IDX 5 1 6 2 7 3 8 4 9 5 4 6 3 7 2 8 1 9
REMARK H PARENT
REMARK Flexibility Score: inf
ROOT
ATOM      1  C   UNL     1      11.693  40.965   0.641  1.00  0.00     0.006 C 
ENDROOT
BRANCH   1   2
ATOM      2  C   UNL     1      10.560  39.945   0.467  1.00  0.00     0.053 C 
BRANCH   2   3
ATOM      3  C   UNL     1      10.875  38.643   1.135  1.00  0.00     0.041 C 
ATOM      4  O   UNL     1      10.330  37.578   0.742  1.00  0.00    -0.550 OA
ATOM      5  O   UNL     1      11.794  38.600   2.176  1.00  0.00    -0.550 OA
ENDBRANCH   2   3
ENDBRANCH   1   2
BRANCH   1   6
ATOM      6  C   UNL     1      11.681  42.038  -0.461  1.00  0.00     0.000 C 
BRANCH   6   7
ATOM      7  C   UNL     1      10.533  41.843  -1.463  1.00  0.00    -0.000 C 
BRANCH   7   8
ATOM      8  C   UNL     1       9.792  43.151  -1.777  1.00  0.00    -0.003 C 
ATOM      9  C   UNL     1       8.553  43.305  -0.899  1.00  0.00     0.004 C 
ENDBRANCH   7   8
ENDBRANCH   6   7
ENDBRANCH   1   6
TORSDOF 5
ENDMDL
MODEL 9
REMARK VINA RESULT:    -3.404      8.739      9.700
REMARK INTER + INTRA:          -4.661
REMARK INTER:                  -4.409
REMARK INTRA:                  -0.252
REMARK UNBOUND:                -0.261
REMARK SMILES CCCCCCC(=O)[O-]
REMARK SMILES IDX 5 1 6 2 7 3 8 4 9 5 4 6 3 7 2 8 1 9
REMARK H PARENT
REMARK Flexibility Score: inf
ROOT
ATOM      1  C   UNL     1       5.201  38.058  -5.003  1.00  0.00     0.006 C 
ENDROOT
BRANCH   1   2
ATOM      2  C   UNL     1       5.572  38.924  -6.214  1.00  0.00     0.053 C 
BRANCH   2   3
ATOM      3  C   UNL     1       4.376  39.616  -6.791  1.00  0.00     0.041 C 
ATOM      4  O   UNL     1       4.496  40.746  -7.335  1.00  0.00    -0.550 OA
ATOM      5  O   UNL     1       3.131  39.001  -6.753  1.00  0.00    -0.550 OA
ENDBRANCH   2   3
ENDBRANCH   1   2
BRANCH   1   6
ATOM      6  C   UNL     1       5.315  36.555  -5.310  1.00  0.00     0.000 C 
BRANCH   6   7
ATOM      7  C   UNL     1       6.037  36.275  -6.637  1.00  0.00    -0.000 C 
BRANCH   7   8
ATOM      8  C   UNL     1       6.772  34.927  -6.639  1.00  0.00    -0.003 C 
ATOM      9  C   UNL     1       6.691  34.255  -5.271  1.00  0.00     0.004 C 
ENDBRANCH   7   8
ENDBRANCH   6   7
ENDBRANCH   1   6
TORSDOF 5
ENDMDL
