MODEL 1
REMARK VINA RESULT:    -4.562      0.000      0.000
REMARK INTER + INTRA:          -9.415
REMARK INTER:                  -8.295
REMARK INTRA:                  -1.120
REMARK UNBOUND:                -1.120
REMARK SMILES CCCCCCCCCCCCCC[C@H](C)C(=O)[O-]
REMARK SMILES IDX 9 1 10 2 11 3 12 4 13 5 14 6 15 7 16 8 17 9 18 10 19 11 8 12
REMARK SMILES IDX 7 13 6 14 5 15 4 16 3 17 2 18 1 19
REMARK H PARENT
REMARK Flexibility Score: inf
ROOT
ATOM      1  C   UNL     1     111.130 112.042 119.144  1.00  0.00     0.000 C 
ENDROOT
BRANCH   1   2
ATOM      2  C   UNL     1     110.203 110.896 118.701  1.00  0.00     0.000 C 
BRANCH   2   3
ATOM      3  C   UNL     1     108.711 111.255 118.866  1.00  0.00     0.000 C 
BRANCH   3   4
ATOM      4  C   UNL     1     107.768 110.407 117.990  1.00  0.00     0.000 C 
BRANCH   4   5
ATOM      5  C   UNL     1     108.407 109.144 117.385  1.00  0.00     0.001 C 
BRANCH   5   6
ATOM      6  C   UNL     1     107.744 107.846 117.879  1.00  0.00     0.009 C 
BRANCH   6   7
ATOM      7  C   UNL     1     106.339 108.100 118.463  1.00  0.00     0.032 C 
ATOM      8  C   UNL     1     106.324 107.832 119.972  1.00  0.00     0.014 C 
BRANCH   7   9
ATOM      9  C   UNL     1     105.301 107.245 117.787  1.00  0.00     0.044 C 
ATOM     10  O   UNL     1     105.619 106.124 117.310  1.00  0.00    -0.550 OA
ATOM     11  O   UNL     1     103.987 107.686 117.683  1.00  0.00    -0.550 OA
ENDBRANCH   7   9
ENDBRANCH   6   7
ENDBRANCH   5   6
ENDBRANCH   4   5
ENDBRANCH   3   4
ENDBRANCH   2   3
ENDBRANCH   1   2
BRANCH   1  12
ATOM     12  C   UNL     1     110.637 112.749 120.415  1.00  0.00     0.000 C 
BRANCH  12  13
ATOM     13  C   UNL     1     111.673 112.726 121.547  1.00  0.00    -0.000 C 
BRANCH  13  14
ATOM     14  C   UNL     1     111.489 111.490 122.436  1.00  0.00    -0.000 C 
BRANCH  14  15
ATOM     15  C   UNL     1     112.362 110.324 121.946  1.00  0.00    -0.000 C 
BRANCH  15  16
ATOM     16  C   UNL     1     113.816 110.744 121.685  1.00  0.00    -0.000 C 
BRANCH  16  17
ATOM     17  C   UNL     1     114.803 109.570 121.811  1.00  0.00    -0.000 C 
BRANCH  17  18
ATOM     18  C   UNL     1     116.158 110.000 122.393  1.00  0.00    -0.003 C 
ATOM     19  C   UNL     1     116.172 111.463 122.836  1.00  0.00     0.004 C 
ENDBRANCH  17  18
ENDBRANCH  16  17
ENDBRANCH  15  16
ENDBRANCH  14  15
ENDBRANCH  13  14
ENDBRANCH  12  13
ENDBRANCH   1  12
TORSDOF 14
ENDMDL
MODEL 2
REMARK VINA RESULT:    -4.503      1.241      1.924
REMARK INTER + INTRA:          -9.307
REMARK INTER:                  -7.947
REMARK INTRA:                  -1.360
REMARK UNBOUND:                -1.120
REMARK SMILES CCCCCCCCCCCCCC[C@H](C)C(=O)[O-]
REMARK SMILES IDX 9 1 10 2 11 3 12 4 13 5 14 6 15 7 16 8 17 9 18 10 19 11 8 12
REMARK SMILES IDX 7 13 6 14 5 15 4 16 3 17 2 18 1 19
REMARK H PARENT
REMARK Flexibility Score: inf
ROOT
ATOM      1  C   UNL     1     111.170 110.927 118.409  1.00  0.00     0.000 C 
ENDROOT
BRANCH   1   2
ATOM      2  C   UNL     1     109.998 110.176 119.064  1.00  0.00     0.000 C 
BRANCH   2   3
ATOM      3  C   UNL     1     108.942 109.727 118.031  1.00  0.00     0.000 C 
BRANCH   3   4
ATOM      4  C   UNL     1     107.540 109.507 118.632  1.00  0.00     0.000 C 
BRANCH   4   5
ATOM      5  C   UNL     1     107.387 108.223 119.467  1.00  0.00     0.001 C 
BRANCH   5   6
ATOM      6  C   UNL     1     106.086 107.462 119.157  1.00  0.00     0.009 C 
BRANCH   6   7
ATOM      7  C   UNL     1     105.721 107.526 117.659  1.00  0.00     0.032 C 
ATOM      8  C   UNL     1     104.201 107.569 117.476  1.00  0.00     0.014 C 
BRANCH   7   9
ATOM      9  C   UNL     1     106.290 106.355 116.905  1.00  0.00     0.044 C 
ATOM     10  O   UNL     1     107.063 106.546 115.929  1.00  0.00    -0.550 OA
ATOM     11  O   UNL     1     105.967 105.055 117.278  1.00  0.00    -0.550 OA
ENDBRANCH   7   9
ENDBRANCH   6   7
ENDBRANCH   5   6
ENDBRANCH   4   5
ENDBRANCH   3   4
ENDBRANCH   2   3
ENDBRANCH   1   2
BRANCH   1  12
ATOM     12  C   UNL     1     111.445 112.287 119.067  1.00  0.00     0.000 C 
BRANCH  12  13
ATOM     13  C   UNL     1     110.912 112.370 120.505  1.00  0.00    -0.000 C 
BRANCH  13  14
ATOM     14  C   UNL     1     111.955 112.990 121.443  1.00  0.00    -0.000 C 
BRANCH  14  15
ATOM     15  C   UNL     1     112.478 111.952 122.447  1.00  0.00    -0.000 C 
BRANCH  15  16
ATOM     16  C   UNL     1     112.066 110.518 122.084  1.00  0.00    -0.000 C 
BRANCH  16  17
ATOM     17  C   UNL     1     113.269 109.631 121.719  1.00  0.00    -0.000 C 
BRANCH  17  18
ATOM     18  C   UNL     1     114.499 110.450 121.300  1.00  0.00    -0.003 C 
ATOM     19  C   UNL     1     115.714 110.189 122.190  1.00  0.00     0.004 C 
ENDBRANCH  17  18
ENDBRANCH  16  17
ENDBRANCH  15  16
ENDBRANCH  14  15
ENDBRANCH  13  14
ENDBRANCH  12  13
ENDBRANCH   1  12
TORSDOF 14
ENDMDL
MODEL 3
REMARK VINA RESULT:    -4.499      6.283      8.712
REMARK INTER + INTRA:          -9.301
REMARK INTER:                  -6.847
REMARK INTRA:                  -2.454
REMARK UNBOUND:                -1.120
REMARK SMILES CCCCCCCCCCCCCC[C@H](C)C(=O)[O-]
REMARK SMILES IDX 9 1 10 2 11 3 12 4 13 5 14 6 15 7 16 8 17 9 18 10 19 11 8 12
REMARK SMILES IDX 7 13 6 14 5 15 4 16 3 17 2 18 1 19
REMARK H PARENT
REMARK Flexibility Score: inf
ROOT
ATOM      1  C   UNL     1     112.255 113.662 121.801  1.00  0.00     0.000 C 
ENDROOT
BRANCH   1   2
ATOM      2  C   UNL     1     113.680 113.572 121.228  1.00  0.00     0.000 C 
BRANCH   2   3
ATOM      3  C   UNL     1     113.698 113.017 119.788  1.00  0.00     0.000 C 
BRANCH   3   4
ATOM      4  C   UNL     1     114.932 113.447 118.971  1.00  0.00     0.000 C 
BRANCH   4   5
ATOM      5  C   UNL     1     115.924 112.315 118.652  1.00  0.00     0.001 C 
BRANCH   5   6
ATOM      6  C   UNL     1     117.310 112.542 119.280  1.00  0.00     0.009 C 
BRANCH   6   7
ATOM      7  C   UNL     1     117.607 114.039 119.502  1.00  0.00     0.032 C 
ATOM      8  C   UNL     1     118.457 114.596 118.356  1.00  0.00     0.014 C 
BRANCH   7   9
ATOM      9  C   UNL     1     118.309 114.271 120.813  1.00  0.00     0.044 C 
ATOM     10  O   UNL     1     118.031 113.559 121.814  1.00  0.00    -0.550 OA
ATOM     11  O   UNL     1     119.267 115.272 120.929  1.00  0.00    -0.550 OA
ENDBRANCH   7   9
ENDBRANCH   6   7
ENDBRANCH   5   6
ENDBRANCH   4   5
ENDBRANCH   3   4
ENDBRANCH   2   3
ENDBRANCH   1   2
BRANCH   1  12
ATOM     12  C   UNL     1     111.446 112.374 121.586  1.00  0.00     0.000 C 
BRANCH  12  13
ATOM     13  C   UNL     1     111.589 111.382 122.749  1.00  0.00    -0.000 C 
BRANCH  13  14
ATOM     14  C   UNL     1     111.951 109.983 122.236  1.00  0.00    -0.000 C 
BRANCH  14  15
ATOM     15  C   UNL     1     112.215 110.002 120.723  1.00  0.00    -0.000 C 
BRANCH  15  16
ATOM     16  C   UNL     1     113.661 109.623 120.370  1.00  0.00    -0.000 C 
BRANCH  16  17
ATOM     17  C   UNL     1     114.506 109.293 121.613  1.00  0.00    -0.000 C 
BRANCH  17  18
ATOM     18  C   UNL     1     115.750 110.187 121.734  1.00  0.00    -0.003 C 
ATOM     19  C   UNL     1     115.671 111.149 122.919  1.00  0.00     0.004 C 
ENDBRANCH  17  18
ENDBRANCH  16  17
ENDBRANCH  15  16
ENDBRANCH  14  15
ENDBRANCH  13  14
ENDBRANCH  12  13
ENDBRANCH   1  12
TORSDOF 14
ENDMDL
MODEL 4
REMARK VINA RESULT:    -4.499      5.041      8.638
REMARK INTER + INTRA:          -9.300
REMARK INTER:                  -7.301
REMARK INTRA:                  -1.999
REMARK UNBOUND:                -1.120
REMARK SMILES CCCCCCCCCCCCCC[C@H](C)C(=O)[O-]
REMARK SMILES IDX 9 1 10 2 11 3 12 4 13 5 14 6 15 7 16 8 17 9 18 10 19 11 8 12
REMARK SMILES IDX 7 13 6 14 5 15 4 16 3 17 2 18 1 19
REMARK H PARENT
REMARK Flexibility Score: inf
ROOT
ATOM      1  C   UNL     1     112.128 109.843 122.006  1.00  0.00     0.000 C 
ENDROOT
BRANCH   1   2
ATOM      2  C   UNL     1     113.087 110.148 120.842  1.00  0.00     0.000 C 
BRANCH   2   3
ATOM      3  C   UNL     1     114.430 109.399 120.979  1.00  0.00     0.000 C 
BRANCH   3   4
ATOM      4  C   UNL     1     115.290 109.878 122.165  1.00  0.00     0.000 C 
BRANCH   4   5
ATOM      5  C   UNL     1     115.523 111.399 122.224  1.00  0.00     0.001 C 
BRANCH   5   6
ATOM      6  C   UNL     1     116.303 111.929 121.009  1.00  0.00     0.009 C 
BRANCH   6   7
ATOM      7  C   UNL     1     115.808 113.321 120.565  1.00  0.00     0.032 C 
ATOM      8  C   UNL     1     114.641 113.191 119.581  1.00  0.00     0.014 C 
BRANCH   7   9
ATOM      9  C   UNL     1     116.915 114.121 119.934  1.00  0.00     0.044 C 
ATOM     10  O   UNL     1     116.890 114.374 118.701  1.00  0.00    -0.550 OA
ATOM     11  O   UNL     1     117.974 114.586 120.707  1.00  0.00    -0.550 OA
ENDBRANCH   7   9
ENDBRANCH   6   7
ENDBRANCH   5   6
ENDBRANCH   4   5
ENDBRANCH   3   4
ENDBRANCH   2   3
ENDBRANCH   1   2
BRANCH   1  12
ATOM     12  C   UNL     1     111.632 111.112 122.715  1.00  0.00     0.000 C 
BRANCH  12  13
ATOM     13  C   UNL     1     112.023 112.398 121.973  1.00  0.00    -0.000 C 
BRANCH  13  14
ATOM     14  C   UNL     1     110.812 113.008 121.257  1.00  0.00    -0.000 C 
BRANCH  14  15
ATOM     15  C   UNL     1     110.837 112.682 119.756  1.00  0.00    -0.000 C 
BRANCH  15  16
ATOM     16  C   UNL     1     109.614 111.868 119.307  1.00  0.00    -0.000 C 
BRANCH  16  17
ATOM     17  C   UNL     1     109.967 110.410 118.963  1.00  0.00    -0.000 C 
BRANCH  17  18
ATOM     18  C   UNL     1     108.858 109.709 118.163  1.00  0.00    -0.003 C 
ATOM     19  C   UNL     1     108.274 108.502 118.898  1.00  0.00     0.004 C 
ENDBRANCH  17  18
ENDBRANCH  16  17
ENDBRANCH  15  16
ENDBRANCH  14  15
ENDBRANCH  13  14
ENDBRANCH  12  13
ENDBRANCH   1  12
TORSDOF 14
ENDMDL
MODEL 5
REMARK VINA RESULT:    -4.481      2.672      5.216
REMARK INTER + INTRA:          -9.269
REMARK INTER:                  -6.760
REMARK INTRA:                  -2.508
REMARK UNBOUND:                -1.120
REMARK SMILES CCCCCCCCCCCCCC[C@H](C)C(=O)[O-]
REMARK SMILES IDX 9 1 10 2 11 3 12 4 13 5 14 6 15 7 16 8 17 9 18 10 19 11 8 12
REMARK SMILES IDX 7 13 6 14 5 15 4 16 3 17 2 18 1 19
REMARK H PARENT
REMARK Flexibility Score: inf
ROOT
ATOM      1  C   UNL     1     113.509 110.055 121.501  1.00  0.00     0.000 C 
ENDROOT
BRANCH   1   2
ATOM      2  C   UNL     1     113.391 111.292 122.408  1.00  0.00     0.000 C 
BRANCH   2   3
ATOM      3  C   UNL     1     111.938 111.800 122.519  1.00  0.00     0.000 C 
BRANCH   3   4
ATOM      4  C   UNL     1     111.653 113.057 121.673  1.00  0.00     0.000 C 
BRANCH   4   5
ATOM      5  C   UNL     1     110.378 112.984 120.814  1.00  0.00     0.001 C 
BRANCH   5   6
ATOM      6  C   UNL     1     110.658 112.537 119.369  1.00  0.00     0.009 C 
BRANCH   6   7
ATOM      7  C   UNL     1     110.616 111.003 119.218  1.00  0.00     0.032 C 
ATOM      8  C   UNL     1     111.727 110.521 118.280  1.00  0.00     0.014 C 
BRANCH   7   9
ATOM      9  C   UNL     1     109.281 110.539 118.702  1.00  0.00     0.044 C 
ATOM     10  O   UNL     1     108.358 111.372 118.495  1.00  0.00    -0.550 OA
ATOM     11  O   UNL     1     109.055 109.191 118.451  1.00  0.00    -0.550 OA
ENDBRANCH   7   9
ENDBRANCH   6   7
ENDBRANCH   5   6
ENDBRANCH   4   5
ENDBRANCH   3   4
ENDBRANCH   2   3
ENDBRANCH   1   2
BRANCH   1  12
ATOM     12  C   UNL     1     114.964 109.619 121.275  1.00  0.00     0.000 C 
BRANCH  12  13
ATOM     13  C   UNL     1     115.916 110.148 122.358  1.00  0.00    -0.000 C 
BRANCH  13  14
ATOM     14  C   UNL     1     117.076 110.934 121.734  1.00  0.00    -0.000 C 
BRANCH  14  15
ATOM     15  C   UNL     1     116.622 111.667 120.461  1.00  0.00    -0.000 C 
BRANCH  15  16
ATOM     16  C   UNL     1     116.507 113.185 120.663  1.00  0.00    -0.000 C 
BRANCH  16  17
ATOM     17  C   UNL     1     115.100 113.720 120.343  1.00  0.00    -0.000 C 
BRANCH  17  18
ATOM     18  C   UNL     1     114.411 112.929 119.220  1.00  0.00    -0.003 C 
ATOM     19  C   UNL     1     114.662 113.530 117.837  1.00  0.00     0.004 C 
ENDBRANCH  17  18
ENDBRANCH  16  17
ENDBRANCH  15  16
ENDBRANCH  14  15
ENDBRANCH  13  14
ENDBRANCH  12  13
ENDBRANCH   1  12
TORSDOF 14
ENDMDL
MODEL 6
REMARK VINA RESULT:    -4.431      4.531      8.488
REMARK INTER + INTRA:          -9.177
REMARK INTER:                  -7.676
REMARK INTRA:                  -1.501
REMARK UNBOUND:                -1.120
REMARK SMILES CCCCCCCCCCCCCC[C@H](C)C(=O)[O-]
REMARK SMILES IDX 9 1 10 2 11 3 12 4 13 5 14 6 15 7 16 8 17 9 18 10 19 11 8 12
REMARK SMILES IDX 7 13 6 14 5 15 4 16 3 17 2 18 1 19
REMARK H PARENT
REMARK Flexibility Score: inf
ROOT
ATOM      1  C   UNL     1     111.925 112.749 121.527  1.00  0.00     0.000 C 
ENDROOT
BRANCH   1   2
ATOM      2  C   UNL     1     111.743 111.496 122.402  1.00  0.00     0.000 C 
BRANCH   2   3
ATOM      3  C   UNL     1     111.936 110.191 121.601  1.00  0.00     0.000 C 
BRANCH   3   4
ATOM      4  C   UNL     1     113.372 109.634 121.658  1.00  0.00     0.000 C 
BRANCH   4   5
ATOM      5  C   UNL     1     114.128 109.654 120.317  1.00  0.00     0.001 C 
BRANCH   5   6
ATOM      6  C   UNL     1     115.337 110.605 120.329  1.00  0.00     0.009 C 
BRANCH   6   7
ATOM      7  C   UNL     1     115.411 111.432 121.629  1.00  0.00     0.032 C 
ATOM      8  C   UNL     1     115.541 112.925 121.312  1.00  0.00     0.014 C 
BRANCH   7   9
ATOM      9  C   UNL     1     116.562 110.995 122.493  1.00  0.00     0.044 C 
ATOM     10  O   UNL     1     117.381 111.844 122.934  1.00  0.00    -0.550 OA
ATOM     11  O   UNL     1     116.732 109.652 122.811  1.00  0.00    -0.550 OA
ENDBRANCH   7   9
ENDBRANCH   6   7
ENDBRANCH   5   6
ENDBRANCH   4   5
ENDBRANCH   3   4
ENDBRANCH   2   3
ENDBRANCH   1   2
BRANCH   1  12
ATOM     12  C   UNL     1     111.645 112.481 120.040  1.00  0.00     0.000 C 
BRANCH  12  13
ATOM     13  C   UNL     1     110.149 112.539 119.699  1.00  0.00    -0.000 C 
BRANCH  13  14
ATOM     14  C   UNL     1     109.757 111.396 118.754  1.00  0.00    -0.000 C 
BRANCH  14  15
ATOM     15  C   UNL     1     108.257 111.445 118.424  1.00  0.00    -0.000 C 
BRANCH  15  16
ATOM     16  C   UNL     1     107.497 110.216 118.946  1.00  0.00    -0.000 C 
BRANCH  16  17
ATOM     17  C   UNL     1     107.361 109.110 117.885  1.00  0.00    -0.000 C 
BRANCH  17  18
ATOM     18  C   UNL     1     106.777 107.811 118.461  1.00  0.00    -0.003 C 
ATOM     19  C   UNL     1     106.587 107.871 119.977  1.00  0.00     0.004 C 
ENDBRANCH  17  18
ENDBRANCH  16  17
ENDBRANCH  15  16
ENDBRANCH  14  15
ENDBRANCH  13  14
ENDBRANCH  12  13
ENDBRANCH   1  12
TORSDOF 14
ENDMDL
MODEL 7
REMARK VINA RESULT:    -4.430      4.309      7.914
REMARK INTER + INTRA:          -9.176
REMARK INTER:                  -7.162
REMARK INTRA:                  -2.013
REMARK UNBOUND:                -1.120
REMARK SMILES CCCCCCCCCCCCCC[C@H](C)C(=O)[O-]
REMARK SMILES IDX 9 1 10 2 11 3 12 4 13 5 14 6 15 7 16 8 17 9 18 10 19 11 8 12
REMARK SMILES IDX 7 13 6 14 5 15 4 16 3 17 2 18 1 19
REMARK H PARENT
REMARK Flexibility Score: inf
ROOT
ATOM      1  C   UNL     1     111.843 112.594 119.159  1.00  0.00     0.000 C 
ENDROOT
BRANCH   1   2
ATOM      2  C   UNL     1     110.807 112.176 120.217  1.00  0.00     0.000 C 
BRANCH   2   3
ATOM      3  C   UNL     1     111.201 112.639 121.636  1.00  0.00     0.000 C 
BRANCH   3   4
ATOM      4  C   UNL     1     111.973 111.577 122.444  1.00  0.00     0.000 C 
BRANCH   4   5
ATOM      5  C   UNL     1     112.013 110.179 121.802  1.00  0.00     0.001 C 
BRANCH   5   6
ATOM      6  C   UNL     1     113.440 109.611 121.701  1.00  0.00     0.009 C 
BRANCH   6   7
ATOM      7  C   UNL     1     114.457 110.677 121.246  1.00  0.00     0.032 C 
ATOM      8  C   UNL     1     114.972 110.366 119.837  1.00  0.00     0.014 C 
BRANCH   7   9
ATOM      9  C   UNL     1     115.617 110.772 122.200  1.00  0.00     0.044 C 
ATOM     10  O   UNL     1     116.221 109.729 122.566  1.00  0.00    -0.550 OA
ATOM     11  O   UNL     1     116.028 112.008 122.685  1.00  0.00    -0.550 OA
ENDBRANCH   7   9
ENDBRANCH   6   7
ENDBRANCH   5   6
ENDBRANCH   4   5
ENDBRANCH   3   4
ENDBRANCH   2   3
ENDBRANCH   1   2
BRANCH   1  12
ATOM     12  C   UNL     1     111.878 111.642 117.954  1.00  0.00     0.000 C 
BRANCH  12  13
ATOM     13  C   UNL     1     111.240 110.278 118.256  1.00  0.00    -0.000 C 
BRANCH  13  14
ATOM     14  C   UNL     1     110.162 109.935 117.221  1.00  0.00    -0.000 C 
BRANCH  14  15
ATOM     15  C   UNL     1     109.023 110.967 117.250  1.00  0.00    -0.000 C 
BRANCH  15  16
ATOM     16  C   UNL     1     107.966 110.651 118.319  1.00  0.00    -0.000 C 
BRANCH  16  17
ATOM     17  C   UNL     1     107.403 109.225 118.191  1.00  0.00    -0.000 C 
BRANCH  17  18
ATOM     18  C   UNL     1     107.670 108.373 119.442  1.00  0.00    -0.003 C 
ATOM     19  C   UNL     1     106.392 107.779 120.035  1.00  0.00     0.004 C 
ENDBRANCH  17  18
ENDBRANCH  16  17
ENDBRANCH  15  16
ENDBRANCH  14  15
ENDBRANCH  13  14
ENDBRANCH  12  13
ENDBRANCH   1  12
TORSDOF 14
ENDMDL
MODEL 8
REMARK VINA RESULT:    -4.424      1.990      3.723
REMARK INTER + INTRA:          -9.164
REMARK INTER:                  -7.366
REMARK INTRA:                  -1.798
REMARK UNBOUND:                -1.120
REMARK SMILES CCCCCCCCCCCCCC[C@H](C)C(=O)[O-]
REMARK SMILES IDX 9 1 10 2 11 3 12 4 13 5 14 6 15 7 16 8 17 9 18 10 19 11 8 12
REMARK SMILES IDX 7 13 6 14 5 15 4 16 3 17 2 18 1 19
REMARK H PARENT
REMARK Flexibility Score: inf
ROOT
ATOM      1  C   UNL     1     111.655 111.159 122.610  1.00  0.00     0.000 C 
ENDROOT
BRANCH   1   2
ATOM      2  C   UNL     1     111.738 112.503 121.863  1.00  0.00     0.000 C 
BRANCH   2   3
ATOM      3  C   UNL     1     110.676 112.619 120.749  1.00  0.00     0.000 C 
BRANCH   3   4
ATOM      4  C   UNL     1     111.263 112.583 119.325  1.00  0.00     0.000 C 
BRANCH   4   5
ATOM      5  C   UNL     1     110.418 111.812 118.295  1.00  0.00     0.001 C 
BRANCH   5   6
ATOM      6  C   UNL     1     110.636 110.290 118.365  1.00  0.00     0.009 C 
BRANCH   6   7
ATOM      7  C   UNL     1     109.502 109.510 117.669  1.00  0.00     0.032 C 
ATOM      8  C   UNL     1     108.949 110.306 116.482  1.00  0.00     0.014 C 
BRANCH   7   9
ATOM      9  C   UNL     1     108.387 109.190 118.627  1.00  0.00     0.044 C 
ATOM     10  O   UNL     1     107.369 109.930 118.684  1.00  0.00    -0.550 OA
ATOM     11  O   UNL     1     108.472 108.078 119.457  1.00  0.00    -0.550 OA
ENDBRANCH   7   9
ENDBRANCH   6   7
ENDBRANCH   5   6
ENDBRANCH   4   5
ENDBRANCH   3   4
ENDBRANCH   2   3
ENDBRANCH   1   2
BRANCH   1  12
ATOM     12  C   UNL     1     112.095 109.970 121.743  1.00  0.00     0.000 C 
BRANCH  12  13
ATOM     13  C   UNL     1     113.456 110.198 121.069  1.00  0.00    -0.000 C 
BRANCH  13  14
ATOM     14  C   UNL     1     114.518 109.251 121.642  1.00  0.00    -0.000 C 
BRANCH  14  15
ATOM     15  C   UNL     1     115.621 110.035 122.370  1.00  0.00    -0.000 C 
BRANCH  15  16
ATOM     16  C   UNL     1     115.327 111.541 122.441  1.00  0.00    -0.000 C 
BRANCH  16  17
ATOM     17  C   UNL     1     116.571 112.400 122.160  1.00  0.00    -0.000 C 
BRANCH  17  18
ATOM     18  C   UNL     1     116.382 113.332 120.953  1.00  0.00    -0.003 C 
ATOM     19  C   UNL     1     114.910 113.596 120.635  1.00  0.00     0.004 C 
ENDBRANCH  17  18
ENDBRANCH  16  17
ENDBRANCH  15  16
ENDBRANCH  14  15
ENDBRANCH  13  14
ENDBRANCH  12  13
ENDBRANCH   1  12
TORSDOF 14
ENDMDL
MODEL 9
REMARK VINA RESULT:    -4.399      5.536     10.089
REMARK INTER + INTRA:          -9.119
REMARK INTER:                  -6.878
REMARK INTRA:                  -2.242
REMARK UNBOUND:                -1.120
REMARK SMILES CCCCCCCCCCCCCC[C@H](C)C(=O)[O-]
REMARK SMILES IDX 9 1 10 2 11 3 12 4 13 5 14 6 15 7 16 8 17 9 18 10 19 11 8 12
REMARK SMILES IDX 7 13 6 14 5 15 4 16 3 17 2 18 1 19
REMARK H PARENT
REMARK Flexibility Score: inf
ROOT
ATOM      1  C   UNL     1     103.656 111.156 116.033  1.00  0.00     0.000 C 
ENDROOT
BRANCH   1   2
ATOM      2  C   UNL     1     102.612 110.307 116.779  1.00  0.00     0.000 C 
BRANCH   2   3
ATOM      3  C   UNL     1     102.702 108.811 116.411  1.00  0.00     0.000 C 
BRANCH   3   4
ATOM      4  C   UNL     1     103.668 108.008 117.305  1.00  0.00     0.000 C 
BRANCH   4   5
ATOM      5  C   UNL     1     104.705 107.164 116.543  1.00  0.00     0.001 C 
BRANCH   5   6
ATOM      6  C   UNL     1     106.147 107.655 116.759  1.00  0.00     0.009 C 
BRANCH   6   7
ATOM      7  C   UNL     1     106.232 108.739 117.853  1.00  0.00     0.032 C 
ATOM      8  C   UNL     1     106.986 109.969 117.336  1.00  0.00     0.014 C 
BRANCH   7   9
ATOM      9  C   UNL     1     106.905 108.217 119.093  1.00  0.00     0.044 C 
ATOM     10  O   UNL     1     106.214 107.849 120.080  1.00  0.00    -0.550 OA
ATOM     11  O   UNL     1     108.291 108.137 119.160  1.00  0.00    -0.550 OA
ENDBRANCH   7   9
ENDBRANCH   6   7
ENDBRANCH   5   6
ENDBRANCH   4   5
ENDBRANCH   3   4
ENDBRANCH   2   3
ENDBRANCH   1   2
BRANCH   1  12
ATOM     12  C   UNL     1     103.927 110.648 114.609  1.00  0.00     0.000 C 
BRANCH  12  13
ATOM     13  C   UNL     1     103.449 111.629 113.529  1.00  0.00    -0.000 C 
BRANCH  13  14
ATOM     14  C   UNL     1     102.223 111.079 112.791  1.00  0.00    -0.000 C 
BRANCH  14  15
ATOM     15  C   UNL     1     100.933 111.370 113.573  1.00  0.00    -0.000 C 
BRANCH  15  16
ATOM     16  C   UNL     1     100.427 112.806 113.365  1.00  0.00    -0.000 C 
BRANCH  16  17
ATOM     17  C   UNL     1     100.584 113.676 114.624  1.00  0.00    -0.000 C 
BRANCH  17  18
ATOM     18  C   UNL     1     101.640 114.779 114.450  1.00  0.00    -0.003 C 
ATOM     19  C   UNL     1     102.704 114.756 115.548  1.00  0.00     0.004 C 
ENDBRANCH  17  18
ENDBRANCH  16  17
ENDBRANCH  15  16
ENDBRANCH  14  15
ENDBRANCH  13  14
ENDBRANCH  12  13
ENDBRANCH   1  12
TORSDOF 14
ENDMDL
