MODEL 1
REMARK VINA RESULT:    -4.357      0.000      0.000
REMARK INTER + INTRA:          -6.370
REMARK INTER:                  -6.013
REMARK INTRA:                  -0.357
REMARK UNBOUND:                -0.357
REMARK SMILES CCCCCCCCO
REMARK SMILES IDX 5 1 4 2 3 3 2 4 1 5 6 6 7 7 8 8 9 9
REMARK H PARENT 9 10
REMARK Flexibility Score: inf
ROOT
ATOM      1  C   UNL     1     -31.375 -21.143  29.297  1.00  0.00     0.000 C 
ENDROOT
BRANCH   1   2
ATOM      2  C   UNL     1     -32.509 -20.107  29.321  1.00  0.00    -0.000 C 
BRANCH   2   3
ATOM      3  C   UNL     1     -32.004 -18.684  29.601  1.00  0.00    -0.000 C 
BRANCH   3   4
ATOM      4  C   UNL     1     -32.467 -17.713  28.508  1.00  0.00    -0.003 C 
ATOM      5  C   UNL     1     -33.259 -18.440  27.425  1.00  0.00     0.004 C 
ENDBRANCH   3   4
ENDBRANCH   2   3
ENDBRANCH   1   2
BRANCH   1   6
ATOM      6  C   UNL     1     -31.657 -22.307  28.330  1.00  0.00     0.002 C 
BRANCH   6   7
ATOM      7  C   UNL     1     -33.074 -22.252  27.737  1.00  0.00     0.028 C 
BRANCH   7   8
ATOM      8  C   UNL     1     -33.138 -22.800  26.306  1.00  0.00     0.156 C 
BRANCH   8   9
ATOM      9  O   UNL     1     -34.366 -22.469  25.718  1.00  0.00    -0.396 OA
ATOM     10  H   UNL     1     -34.297 -22.713  24.758  1.00  0.00     0.210 HD
ENDBRANCH   8   9
ENDBRANCH   7   8
ENDBRANCH   6   7
ENDBRANCH   1   6
TORSDOF 7
ENDMDL
MODEL 2
REMARK VINA RESULT:    -3.638      1.521      4.101
REMARK INTER + INTRA:          -5.378
REMARK INTER:                  -5.238
REMARK INTRA:                  -0.140
REMARK UNBOUND:                -0.357
REMARK SMILES CCCCCCCCO
REMARK SMILES IDX 5 1 4 2 3 3 2 4 1 5 6 6 7 7 8 8 9 9
REMARK H PARENT 9 10
REMARK Flexibility Score: inf
ROOT
ATOM      1  C   UNL     1     -31.847 -20.171  29.402  1.00  0.00     0.000 C 
ENDROOT
BRANCH   1   2
ATOM      2  C   UNL     1     -32.857 -21.112  28.727  1.00  0.00    -0.000 C 
BRANCH   2   3
ATOM      3  C   UNL     1     -32.212 -22.415  28.231  1.00  0.00    -0.000 C 
BRANCH   3   4
ATOM      4  C   UNL     1     -33.225 -23.270  27.462  1.00  0.00    -0.003 C 
ATOM      5  C   UNL     1     -33.488 -22.696  26.072  1.00  0.00     0.004 C 
ENDBRANCH   3   4
ENDBRANCH   2   3
ENDBRANCH   1   2
BRANCH   1   6
ATOM      6  C   UNL     1     -32.378 -18.733  29.539  1.00  0.00     0.002 C 
BRANCH   6   7
ATOM      7  C   UNL     1     -32.092 -17.877  28.295  1.00  0.00     0.028 C 
BRANCH   7   8
ATOM      8  C   UNL     1     -33.361 -17.542  27.503  1.00  0.00     0.156 C 
BRANCH   8   9
ATOM      9  O   UNL     1     -33.751 -18.642  26.727  1.00  0.00    -0.396 OA
ATOM     10  H   UNL     1     -33.406 -19.451  27.187  1.00  0.00     0.210 HD
ENDBRANCH   8   9
ENDBRANCH   7   8
ENDBRANCH   6   7
ENDBRANCH   1   6
TORSDOF 7
ENDMDL
MODEL 3
REMARK VINA RESULT:    -3.487      1.618      1.819
REMARK INTER + INTRA:          -5.169
REMARK INTER:                  -4.916
REMARK INTRA:                  -0.253
REMARK UNBOUND:                -0.357
REMARK SMILES CCCCCCCCO
REMARK SMILES IDX 5 1 4 2 3 3 2 4 1 5 6 6 7 7 8 8 9 9
REMARK H PARENT 9 10
REMARK Flexibility Score: inf
ROOT
ATOM      1  C   UNL     1     -33.423 -20.687  29.383  1.00  0.00     0.000 C 
ENDROOT
BRANCH   1   2
ATOM      2  C   UNL     1     -32.105 -19.907  29.253  1.00  0.00    -0.000 C 
BRANCH   2   3
ATOM      3  C   UNL     1     -32.257 -18.425  29.627  1.00  0.00    -0.000 C 
BRANCH   3   4
ATOM      4  C   UNL     1     -32.092 -17.530  28.394  1.00  0.00    -0.003 C 
ATOM      5  C   UNL     1     -33.273 -17.683  27.439  1.00  0.00     0.004 C 
ENDBRANCH   3   4
ENDBRANCH   2   3
ENDBRANCH   1   2
BRANCH   1   6
ATOM      6  C   UNL     1     -33.898 -21.275  28.042  1.00  0.00     0.002 C 
BRANCH   6   7
ATOM      7  C   UNL     1     -33.641 -22.786  27.936  1.00  0.00     0.028 C 
BRANCH   7   8
ATOM      8  C   UNL     1     -32.323 -23.114  27.224  1.00  0.00     0.156 C 
BRANCH   8   9
ATOM      9  O   UNL     1     -31.257 -23.056  28.131  1.00  0.00    -0.396 OA
ATOM     10  H   UNL     1     -30.612 -22.393  27.770  1.00  0.00     0.210 HD
ENDBRANCH   8   9
ENDBRANCH   7   8
ENDBRANCH   6   7
ENDBRANCH   1   6
TORSDOF 7
ENDMDL
MODEL 4
REMARK VINA RESULT:    -2.744     11.243     13.184
REMARK INTER + INTRA:          -4.145
REMARK INTER:                  -3.836
REMARK INTRA:                  -0.309
REMARK UNBOUND:                -0.357
REMARK SMILES CCCCCCCCO
REMARK SMILES IDX 5 1 4 2 3 3 2 4 1 5 6 6 7 7 8 8 9 9
REMARK H PARENT 9 10
REMARK Flexibility Score: inf
ROOT
ATOM      1  C   UNL     1     -23.042 -28.617  27.410  1.00  0.00     0.000 C 
ENDROOT
BRANCH   1   2
ATOM      2  C   UNL     1     -23.430 -29.857  26.589  1.00  0.00    -0.000 C 
BRANCH   2   3
ATOM      3  C   UNL     1     -23.378 -29.603  25.075  1.00  0.00    -0.000 C 
BRANCH   3   4
ATOM      4  C   UNL     1     -23.341 -30.925  24.300  1.00  0.00    -0.003 C 
ATOM      5  C   UNL     1     -23.382 -32.121  25.247  1.00  0.00     0.004 C 
ENDBRANCH   3   4
ENDBRANCH   2   3
ENDBRANCH   1   2
BRANCH   1   6
ATOM      6  C   UNL     1     -22.355 -27.534  26.558  1.00  0.00     0.002 C 
BRANCH   6   7
ATOM      7  C   UNL     1     -22.991 -26.147  26.742  1.00  0.00     0.028 C 
BRANCH   7   8
ATOM      8  C   UNL     1     -23.082 -25.359  25.430  1.00  0.00     0.156 C 
BRANCH   8   9
ATOM      9  O   UNL     1     -23.730 -26.124  24.451  1.00  0.00    -0.396 OA
ATOM     10  H   UNL     1     -23.781 -27.052  24.803  1.00  0.00     0.210 HD
ENDBRANCH   8   9
ENDBRANCH   7   8
ENDBRANCH   6   7
ENDBRANCH   1   6
TORSDOF 7
ENDMDL
MODEL 5
REMARK VINA RESULT:    -2.722      2.379      4.661
REMARK INTER + INTRA:          -4.113
REMARK INTER:                  -3.970
REMARK INTRA:                  -0.143
REMARK UNBOUND:                -0.357
REMARK SMILES CCCCCCCCO
REMARK SMILES IDX 5 1 4 2 3 3 2 4 1 5 6 6 7 7 8 8 9 9
REMARK H PARENT 9 10
REMARK Flexibility Score: inf
ROOT
ATOM      1  C   UNL     1     -33.293 -19.446  27.001  1.00  0.00     0.000 C 
ENDROOT
BRANCH   1   2
ATOM      2  C   UNL     1     -33.819 -20.554  27.926  1.00  0.00    -0.000 C 
BRANCH   2   3
ATOM      3  C   UNL     1     -32.767 -21.637  28.209  1.00  0.00    -0.000 C 
BRANCH   3   4
ATOM      4  C   UNL     1     -33.182 -22.978  27.590  1.00  0.00    -0.003 C 
ATOM      5  C   UNL     1     -33.500 -22.824  26.105  1.00  0.00     0.004 C 
ENDBRANCH   3   4
ENDBRANCH   2   3
ENDBRANCH   1   2
BRANCH   1   6
ATOM      6  C   UNL     1     -33.389 -18.048  27.637  1.00  0.00     0.002 C 
BRANCH   6   7
ATOM      7  C   UNL     1     -32.089 -17.630  28.343  1.00  0.00     0.028 C 
BRANCH   7   8
ATOM      8  C   UNL     1     -31.913 -18.307  29.708  1.00  0.00     0.156 C 
BRANCH   8   9
ATOM      9  O   UNL     1     -30.729 -19.056  29.726  1.00  0.00    -0.396 OA
ATOM     10  H   UNL     1     -29.996 -18.436  29.475  1.00  0.00     0.210 HD
ENDBRANCH   8   9
ENDBRANCH   7   8
ENDBRANCH   6   7
ENDBRANCH   1   6
TORSDOF 7
ENDMDL
MODEL 6
REMARK VINA RESULT:    -2.639      1.986      3.964
REMARK INTER + INTRA:          -3.999
REMARK INTER:                  -3.538
REMARK INTRA:                  -0.461
REMARK UNBOUND:                -0.357
REMARK SMILES CCCCCCCCO
REMARK SMILES IDX 5 1 4 2 3 3 2 4 1 5 6 6 7 7 8 8 9 9
REMARK H PARENT 9 10
REMARK Flexibility Score: inf
ROOT
ATOM      1  C   UNL     1     -33.099 -19.493  28.240  1.00  0.00     0.000 C 
ENDROOT
BRANCH   1   2
ATOM      2  C   UNL     1     -33.746 -20.628  27.430  1.00  0.00    -0.000 C 
BRANCH   2   3
ATOM      3  C   UNL     1     -33.968 -21.898  28.266  1.00  0.00    -0.000 C 
BRANCH   3   4
ATOM      4  C   UNL     1     -33.632 -23.154  27.454  1.00  0.00    -0.003 C 
ATOM      5  C   UNL     1     -33.236 -22.796  26.023  1.00  0.00     0.004 C 
ENDBRANCH   3   4
ENDBRANCH   2   3
ENDBRANCH   1   2
BRANCH   1   6
ATOM      6  C   UNL     1     -32.410 -19.997  29.520  1.00  0.00     0.002 C 
BRANCH   6   7
ATOM      7  C   UNL     1     -30.902 -20.225  29.329  1.00  0.00     0.028 C 
BRANCH   7   8
ATOM      8  C   UNL     1     -30.481 -21.671  29.617  1.00  0.00     0.156 C 
BRANCH   8   9
ATOM      9  O   UNL     1     -30.505 -22.424  28.436  1.00  0.00    -0.396 OA
ATOM     10  H   UNL     1     -31.345 -22.186  27.963  1.00  0.00     0.210 HD
ENDBRANCH   8   9
ENDBRANCH   7   8
ENDBRANCH   6   7
ENDBRANCH   1   6
TORSDOF 7
ENDMDL
MODEL 7
REMARK VINA RESULT:    -2.535      2.519      4.602
REMARK INTER + INTRA:          -3.855
REMARK INTER:                  -3.567
REMARK INTRA:                  -0.288
REMARK UNBOUND:                -0.357
REMARK SMILES CCCCCCCCO
REMARK SMILES IDX 5 1 4 2 3 3 2 4 1 5 6 6 7 7 8 8 9 9
REMARK H PARENT 9 10
REMARK Flexibility Score: inf
ROOT
ATOM      1  C   UNL     1     -32.098 -22.024  28.389  1.00  0.00     0.000 C 
ENDROOT
BRANCH   1   2
ATOM      2  C   UNL     1     -32.999 -21.462  27.278  1.00  0.00    -0.000 C 
BRANCH   2   3
ATOM      3  C   UNL     1     -33.610 -22.563  26.398  1.00  0.00    -0.000 C 
BRANCH   3   4
ATOM      4  C   UNL     1     -34.394 -23.571  27.247  1.00  0.00    -0.003 C 
ATOM      5  C   UNL     1     -35.856 -23.155  27.386  1.00  0.00     0.004 C 
ENDBRANCH   3   4
ENDBRANCH   2   3
ENDBRANCH   1   2
BRANCH   1   6
ATOM      6  C   UNL     1     -31.642 -20.943  29.385  1.00  0.00     0.002 C 
BRANCH   6   7
ATOM      7  C   UNL     1     -32.630 -19.769  29.475  1.00  0.00     0.028 C 
BRANCH   7   8
ATOM      8  C   UNL     1     -31.944 -18.406  29.326  1.00  0.00     0.156 C 
BRANCH   8   9
ATOM      9  O   UNL     1     -30.554 -18.553  29.418  1.00  0.00    -0.396 OA
ATOM     10  H   UNL     1     -30.217 -18.671  28.492  1.00  0.00     0.210 HD
ENDBRANCH   8   9
ENDBRANCH   7   8
ENDBRANCH   6   7
ENDBRANCH   1   6
TORSDOF 7
ENDMDL
MODEL 8
REMARK VINA RESULT:    -2.152     11.595     12.610
REMARK INTER + INTRA:          -3.328
REMARK INTER:                  -2.998
REMARK INTRA:                  -0.330
REMARK UNBOUND:                -0.357
REMARK SMILES CCCCCCCCO
REMARK SMILES IDX 5 1 4 2 3 3 2 4 1 5 6 6 7 7 8 8 9 9
REMARK H PARENT 9 10
REMARK Flexibility Score: inf
ROOT
ATOM      1  C   UNL     1     -23.207 -28.371  27.488  1.00  0.00     0.000 C 
ENDROOT
BRANCH   1   2
ATOM      2  C   UNL     1     -22.526 -27.564  26.372  1.00  0.00    -0.000 C 
BRANCH   2   3
ATOM      3  C   UNL     1     -22.947 -26.087  26.368  1.00  0.00    -0.000 C 
BRANCH   3   4
ATOM      4  C   UNL     1     -23.315 -25.626  24.953  1.00  0.00    -0.003 C 
ATOM      5  C   UNL     1     -23.309 -26.796  23.973  1.00  0.00     0.004 C 
ENDBRANCH   3   4
ENDBRANCH   2   3
ENDBRANCH   1   2
BRANCH   1   6
ATOM      6  C   UNL     1     -23.385 -29.855  27.122  1.00  0.00     0.002 C 
BRANCH   6   7
ATOM      7  C   UNL     1     -23.408 -30.089  25.603  1.00  0.00     0.028 C 
BRANCH   7   8
ATOM      8  C   UNL     1     -23.389 -31.577  25.233  1.00  0.00     0.156 C 
BRANCH   8   9
ATOM      9  O   UNL     1     -23.935 -31.764  23.957  1.00  0.00    -0.396 OA
ATOM     10  H   UNL     1     -23.703 -32.689  23.680  1.00  0.00     0.210 HD
ENDBRANCH   8   9
ENDBRANCH   7   8
ENDBRANCH   6   7
ENDBRANCH   1   6
TORSDOF 7
ENDMDL
