MODEL 1
REMARK VINA RESULT:    -4.514      0.000      0.000
REMARK INTER + INTRA:          -4.797
REMARK INTER:                  -4.778
REMARK INTRA:                  -0.019
REMARK UNBOUND:                -0.019
REMARK SMILES O=C([O-])c1cccnc1
REMARK SMILES IDX 4 1 5 2 9 3 6 4 8 5 7 6 2 7 1 8 3 9
REMARK H PARENT
REMARK Flexibility Score: inf
ROOT
ATOM      1  C   UNL     1      62.728  40.037  13.649  1.00  0.00     0.016 A 
ATOM      2  C   UNL     1      63.023  41.388  13.891  1.00  0.00     0.013 A 
ATOM      3  C   UNL     1      63.141  39.470  12.431  1.00  0.00     0.120 A 
ATOM      4  C   UNL     1      63.711  42.138  12.934  1.00  0.00     0.021 A 
ATOM      5  N   UNL     1      63.810  40.223  11.516  1.00  0.00    -0.264 NA
ATOM      6  C   UNL     1      64.101  41.531  11.741  1.00  0.00     0.111 A 
ENDROOT
BRANCH   1   7
ATOM      7  C   UNL     1      62.000  39.233  14.654  1.00  0.00     0.073 C 
ATOM      8  O   UNL     1      62.438  38.108  15.013  1.00  0.00    -0.545 OA
ATOM      9  O   UNL     1      60.821  39.708  15.216  1.00  0.00    -0.545 OA
ENDBRANCH   1   7
TORSDOF 1
ENDMDL
MODEL 2
REMARK VINA RESULT:    -4.187      2.874      3.625
REMARK INTER + INTRA:          -4.451
REMARK INTER:                  -4.434
REMARK INTRA:                  -0.017
REMARK UNBOUND:                -0.019
REMARK SMILES O=C([O-])c1cccnc1
REMARK SMILES IDX 4 1 5 2 9 3 6 4 8 5 7 6 2 7 1 8 3 9
REMARK H PARENT
REMARK Flexibility Score: inf
ROOT
ATOM      1  C   UNL     1      63.203  39.844  12.708  1.00  0.00     0.016 A 
ATOM      2  C   UNL     1      62.553  40.580  13.712  1.00  0.00     0.013 A 
ATOM      3  C   UNL     1      63.406  38.468  12.912  1.00  0.00     0.120 A 
ATOM      4  C   UNL     1      62.123  39.945  14.880  1.00  0.00     0.021 A 
ATOM      5  N   UNL     1      62.977  37.875  14.059  1.00  0.00    -0.264 NA
ATOM      6  C   UNL     1      62.347  38.577  15.036  1.00  0.00     0.111 A 
ENDROOT
BRANCH   1   7
ATOM      7  C   UNL     1      63.663  40.505  11.467  1.00  0.00     0.073 C 
ATOM      8  O   UNL     1      64.893  40.647  11.236  1.00  0.00    -0.545 OA
ATOM      9  O   UNL     1      62.742  40.980  10.540  1.00  0.00    -0.545 OA
ENDBRANCH   1   7
TORSDOF 1
ENDMDL
MODEL 3
REMARK VINA RESULT:    -4.075      6.494      7.048
REMARK INTER + INTRA:          -4.332
REMARK INTER:                  -4.312
REMARK INTRA:                  -0.020
REMARK UNBOUND:                -0.019
REMARK SMILES O=C([O-])c1cccnc1
REMARK SMILES IDX 4 1 5 2 9 3 6 4 8 5 7 6 2 7 1 8 3 9
REMARK H PARENT
REMARK Flexibility Score: inf
ROOT
ATOM      1  C   UNL     1      59.665  38.228   7.700  1.00  0.00     0.016 A 
ATOM      2  C   UNL     1      60.671  38.298   8.678  1.00  0.00     0.013 A 
ATOM      3  C   UNL     1      59.211  39.426   7.121  1.00  0.00     0.120 A 
ATOM      4  C   UNL     1      61.198  39.535   9.054  1.00  0.00     0.021 A 
ATOM      5  N   UNL     1      59.742  40.618   7.506  1.00  0.00    -0.264 NA
ATOM      6  C   UNL     1      60.716  40.696   8.450  1.00  0.00     0.111 A 
ENDROOT
BRANCH   1   7
ATOM      7  C   UNL     1      59.099  36.924   7.293  1.00  0.00     0.073 C 
ATOM      8  O   UNL     1      58.875  36.674   6.079  1.00  0.00    -0.545 OA
ATOM      9  O   UNL     1      58.806  35.955   8.247  1.00  0.00    -0.545 OA
ENDBRANCH   1   7
TORSDOF 1
ENDMDL
MODEL 4
REMARK VINA RESULT:    -4.046     14.150     14.411
REMARK INTER + INTRA:          -4.302
REMARK INTER:                  -4.279
REMARK INTRA:                  -0.023
REMARK UNBOUND:                -0.019
REMARK SMILES O=C([O-])c1cccnc1
REMARK SMILES IDX 4 1 5 2 9 3 6 4 8 5 7 6 2 7 1 8 3 9
REMARK H PARENT
REMARK Flexibility Score: inf
ROOT
ATOM      1  C   UNL     1      57.123  28.466  18.928  1.00  0.00     0.016 A 
ATOM      2  C   UNL     1      57.080  28.275  17.537  1.00  0.00     0.013 A 
ATOM      3  C   UNL     1      58.138  27.827  19.660  1.00  0.00     0.120 A 
ATOM      4  C   UNL     1      58.031  27.466  16.911  1.00  0.00     0.021 A 
ATOM      5  N   UNL     1      59.052  27.044  19.025  1.00  0.00    -0.264 NA
ATOM      6  C   UNL     1      59.020  26.853  17.681  1.00  0.00     0.111 A 
ENDROOT
BRANCH   1   7
ATOM      7  C   UNL     1      56.121  29.321  19.601  1.00  0.00     0.073 C 
ATOM      8  O   UNL     1      55.014  29.563  19.052  1.00  0.00    -0.545 OA
ATOM      9  O   UNL     1      56.389  29.868  20.851  1.00  0.00    -0.545 OA
ENDBRANCH   1   7
TORSDOF 1
ENDMDL
MODEL 5
REMARK VINA RESULT:    -4.015      6.252      7.087
REMARK INTER + INTRA:          -4.268
REMARK INTER:                  -4.246
REMARK INTRA:                  -0.023
REMARK UNBOUND:                -0.019
REMARK SMILES O=C([O-])c1cccnc1
REMARK SMILES IDX 4 1 5 2 9 3 6 4 8 5 7 6 2 7 1 8 3 9
REMARK H PARENT
REMARK Flexibility Score: inf
ROOT
ATOM      1  C   UNL     1      60.338  38.820   8.016  1.00  0.00     0.016 A 
ATOM      2  C   UNL     1      60.075  37.512   8.453  1.00  0.00     0.013 A 
ATOM      3  C   UNL     1      59.887  39.202   6.740  1.00  0.00     0.120 A 
ATOM      4  C   UNL     1      59.381  36.623   7.629  1.00  0.00     0.021 A 
ATOM      5  N   UNL     1      59.213  38.316   5.957  1.00  0.00    -0.264 NA
ATOM      6  C   UNL     1      58.953  37.049   6.371  1.00  0.00     0.111 A 
ENDROOT
BRANCH   1   7
ATOM      7  C   UNL     1      61.072  39.770   8.879  1.00  0.00     0.073 C 
ATOM      8  O   UNL     1      61.818  39.350   9.803  1.00  0.00    -0.545 OA
ATOM      9  O   UNL     1      60.948  41.141   8.683  1.00  0.00    -0.545 OA
ENDBRANCH   1   7
TORSDOF 1
ENDMDL
MODEL 6
REMARK VINA RESULT:    -3.990      7.456      8.329
REMARK INTER + INTRA:          -4.242
REMARK INTER:                  -4.219
REMARK INTRA:                  -0.023
REMARK UNBOUND:                -0.019
REMARK SMILES O=C([O-])c1cccnc1
REMARK SMILES IDX 4 1 5 2 9 3 6 4 8 5 7 6 2 7 1 8 3 9
REMARK H PARENT
REMARK Flexibility Score: inf
ROOT
ATOM      1  C   UNL     1      59.166  39.200   6.825  1.00  0.00     0.016 A 
ATOM      2  C   UNL     1      58.966  37.876   6.402  1.00  0.00     0.013 A 
ATOM      3  C   UNL     1      59.735  39.419   8.092  1.00  0.00     0.120 A 
ATOM      4  C   UNL     1      59.329  36.813   7.232  1.00  0.00     0.021 A 
ATOM      5  N   UNL     1      60.079  38.364   8.881  1.00  0.00    -0.264 NA
ATOM      6  C   UNL     1      59.890  37.080   8.480  1.00  0.00     0.111 A 
ENDROOT
BRANCH   1   7
ATOM      7  C   UNL     1      58.786  40.335   5.956  1.00  0.00     0.073 C 
ATOM      8  O   UNL     1      58.627  40.166   4.718  1.00  0.00    -0.545 OA
ATOM      9  O   UNL     1      58.600  41.603   6.494  1.00  0.00    -0.545 OA
ENDBRANCH   1   7
TORSDOF 1
ENDMDL
MODEL 7
REMARK VINA RESULT:    -3.945     17.804     18.720
REMARK INTER + INTRA:          -4.195
REMARK INTER:                  -4.176
REMARK INTRA:                  -0.019
REMARK UNBOUND:                -0.019
REMARK SMILES O=C([O-])c1cccnc1
REMARK SMILES IDX 4 1 5 2 9 3 6 4 8 5 7 6 2 7 1 8 3 9
REMARK H PARENT
REMARK Flexibility Score: inf
ROOT
ATOM      1  C   UNL     1      47.691  29.859  14.226  1.00  0.00     0.016 A 
ATOM      2  C   UNL     1      48.800  30.288  14.974  1.00  0.00     0.013 A 
ATOM      3  C   UNL     1      46.565  29.379  14.917  1.00  0.00     0.120 A 
ATOM      4  C   UNL     1      48.769  30.233  16.369  1.00  0.00     0.021 A 
ATOM      5  N   UNL     1      46.560  29.337  16.277  1.00  0.00    -0.264 NA
ATOM      6  C   UNL     1      47.627  29.750  17.009  1.00  0.00     0.111 A 
ENDROOT
BRANCH   1   7
ATOM      7  C   UNL     1      47.713  29.911  12.748  1.00  0.00     0.073 C 
ATOM      8  O   UNL     1      47.346  28.917  12.067  1.00  0.00    -0.545 OA
ATOM      9  O   UNL     1      48.140  31.060  12.091  1.00  0.00    -0.545 OA
ENDBRANCH   1   7
TORSDOF 1
ENDMDL
MODEL 8
REMARK VINA RESULT:    -3.851      6.784      7.294
REMARK INTER + INTRA:          -4.095
REMARK INTER:                  -4.072
REMARK INTRA:                  -0.023
REMARK UNBOUND:                -0.019
REMARK SMILES O=C([O-])c1cccnc1
REMARK SMILES IDX 4 1 5 2 9 3 6 4 8 5 7 6 2 7 1 8 3 9
REMARK H PARENT
REMARK Flexibility Score: inf
ROOT
ATOM      1  C   UNL     1      59.437  38.773   7.523  1.00  0.00     0.016 A 
ATOM      2  C   UNL     1      58.762  39.550   6.567  1.00  0.00     0.013 A 
ATOM      3  C   UNL     1      60.214  39.432   8.491  1.00  0.00     0.120 A 
ATOM      4  C   UNL     1      58.871  40.942   6.591  1.00  0.00     0.021 A 
ATOM      5  N   UNL     1      60.303  40.790   8.493  1.00  0.00    -0.264 NA
ATOM      6  C   UNL     1      59.654  41.550   7.573  1.00  0.00     0.111 A 
ENDROOT
BRANCH   1   7
ATOM      7  C   UNL     1      59.330  37.298   7.506  1.00  0.00     0.073 C 
ATOM      8  O   UNL     1      59.628  36.624   8.528  1.00  0.00    -0.545 OA
ATOM      9  O   UNL     1      58.900  36.637   6.362  1.00  0.00    -0.545 OA
ENDBRANCH   1   7
TORSDOF 1
ENDMDL
MODEL 9
REMARK VINA RESULT:    -3.831      6.870      7.300
REMARK INTER + INTRA:          -4.074
REMARK INTER:                  -4.054
REMARK INTRA:                  -0.020
REMARK UNBOUND:                -0.019
REMARK SMILES O=C([O-])c1cccnc1
REMARK SMILES IDX 4 1 5 2 9 3 6 4 8 5 7 6 2 7 1 8 3 9
REMARK H PARENT
REMARK Flexibility Score: inf
ROOT
ATOM      1  C   UNL     1      59.767  39.193   7.408  1.00  0.00     0.016 A 
ATOM      2  C   UNL     1      59.200  40.440   7.720  1.00  0.00     0.013 A 
ATOM      3  C   UNL     1      59.708  38.746   6.077  1.00  0.00     0.120 A 
ATOM      4  C   UNL     1      58.597  41.206   6.720  1.00  0.00     0.021 A 
ATOM      5  N   UNL     1      59.114  39.512   5.122  1.00  0.00    -0.264 NA
ATOM      6  C   UNL     1      58.564  40.719   5.412  1.00  0.00     0.111 A 
ENDROOT
BRANCH   1   7
ATOM      7  C   UNL     1      60.408  38.374   8.459  1.00  0.00     0.073 C 
ATOM      8  O   UNL     1      60.182  37.137   8.533  1.00  0.00    -0.545 OA
ATOM      9  O   UNL     1      61.269  38.959   9.380  1.00  0.00    -0.545 OA
ENDBRANCH   1   7
TORSDOF 1
ENDMDL
