MODEL 1
REMARK VINA RESULT:     0.997      0.000      0.000
REMARK INTER + INTRA:           1.857
REMARK INTER:                   1.375
REMARK INTRA:                   0.481
REMARK UNBOUND:                 0.481
REMARK SMILES CCCCc1cccc(O)c1CCCC
REMARK SMILES IDX 5 1 11 2 9 3 8 4 7 5 6 6 4 7 3 8 2 9 1 10 12 11 13 12 14 13
REMARK SMILES IDX 15 14 10 15
REMARK H PARENT 10 16
REMARK Flexibility Score: inf
ROOT
ATOM      1  C   UNL     1       8.453   3.903  18.202  1.00  0.00    -0.041 A 
ATOM      2  C   UNL     1       8.776   2.511  18.168  1.00  0.00    -0.003 A 
ATOM      3  C   UNL     1      10.134   2.129  17.978  1.00  0.00     0.119 A 
ATOM      4  C   UNL     1      11.129   3.103  17.875  1.00  0.00     0.046 A 
ATOM      5  C   UNL     1      10.811   4.453  17.946  1.00  0.00     0.004 A 
ATOM      6  C   UNL     1       9.488   4.851  18.102  1.00  0.00     0.004 A 
ENDROOT
BRANCH   1   7
ATOM      7  C   UNL     1       7.035   4.436  18.325  1.00  0.00     0.036 C 
BRANCH   7   8
ATOM      8  C   UNL     1       6.951   5.814  19.000  1.00  0.00     0.004 C 
BRANCH   8   9
ATOM      9  C   UNL     1       6.556   6.927  18.021  1.00  0.00    -0.003 C 
ATOM     10  C   UNL     1       7.674   7.955  17.876  1.00  0.00     0.004 C 
ENDBRANCH   8   9
ENDBRANCH   7   8
ENDBRANCH   1   7
BRANCH   2  11
ATOM     11  C   UNL     1       7.718   1.440  18.386  1.00  0.00     0.040 C 
BRANCH  11  12
ATOM     12  C   UNL     1       6.459   2.037  19.044  1.00  0.00     0.005 C 
BRANCH  12  13
ATOM     13  C   UNL     1       5.363   0.988  19.284  1.00  0.00    -0.003 C 
ATOM     14  C   UNL     1       4.271   1.025  18.215  1.00  0.00     0.004 C 
ENDBRANCH  12  13
ENDBRANCH  11  12
ENDBRANCH   2  11
BRANCH   3  15
ATOM     15  O   UNL     1      10.538   0.794  17.882  1.00  0.00    -0.508 OA
ATOM     16  H   UNL     1      10.976   0.277  18.632  1.00  0.00     0.293 HD
ENDBRANCH   3  15
TORSDOF 7
ENDMDL
MODEL 2
REMARK VINA RESULT:     1.739      1.600      4.465
REMARK INTER + INTRA:           2.881
REMARK INTER:                   1.351
REMARK INTRA:                   1.531
REMARK UNBOUND:                 0.481
REMARK SMILES CCCCc1cccc(O)c1CCCC
REMARK SMILES IDX 5 1 11 2 9 3 8 4 7 5 6 6 4 7 3 8 2 9 1 10 12 11 13 12 14 13
REMARK SMILES IDX 15 14 10 15
REMARK H PARENT 10 16
REMARK Flexibility Score: inf
ROOT
ATOM      1  C   UNL     1       8.466   2.892  17.975  1.00  0.00    -0.041 A 
ATOM      2  C   UNL     1       8.356   4.317  17.946  1.00  0.00    -0.003 A 
ATOM      3  C   UNL     1       9.549   5.094  17.925  1.00  0.00     0.119 A 
ATOM      4  C   UNL     1      10.795   4.465  17.888  1.00  0.00     0.046 A 
ATOM      5  C   UNL     1      10.891   3.079  17.880  1.00  0.00     0.004 A 
ATOM      6  C   UNL     1       9.741   2.300  17.929  1.00  0.00     0.004 A 
ENDROOT
BRANCH   1   7
ATOM      7  C   UNL     1       7.271   1.958  18.073  1.00  0.00     0.036 C 
BRANCH   7   8
ATOM      8  C   UNL     1       6.422   2.173  19.336  1.00  0.00     0.004 C 
BRANCH   8   9
ATOM      9  C   UNL     1       5.342   1.098  19.512  1.00  0.00    -0.003 C 
ATOM     10  C   UNL     1       4.918   0.519  18.166  1.00  0.00     0.004 C 
ENDBRANCH   8   9
ENDBRANCH   7   8
ENDBRANCH   1   7
BRANCH   2  11
ATOM     11  C   UNL     1       7.005   5.013  17.877  1.00  0.00     0.040 C 
BRANCH  11  12
ATOM     12  C   UNL     1       6.609   5.583  19.252  1.00  0.00     0.005 C 
BRANCH  12  13
ATOM     13  C   UNL     1       7.179   6.988  19.497  1.00  0.00    -0.003 C 
ATOM     14  C   UNL     1       7.455   7.744  18.198  1.00  0.00     0.004 C 
ENDBRANCH  12  13
ENDBRANCH  11  12
ENDBRANCH   2  11
BRANCH   3  15
ATOM     15  O   UNL     1       9.542   6.492  17.944  1.00  0.00    -0.508 OA
ATOM     16  H   UNL     1      10.062   7.054  18.602  1.00  0.00     0.293 HD
ENDBRANCH   3  15
TORSDOF 7
ENDMDL
MODEL 3
REMARK VINA RESULT:     1.948      2.185      4.306
REMARK INTER + INTRA:           3.170
REMARK INTER:                   2.825
REMARK INTRA:                   0.345
REMARK UNBOUND:                 0.481
REMARK SMILES CCCCc1cccc(O)c1CCCC
REMARK SMILES IDX 5 1 11 2 9 3 8 4 7 5 6 6 4 7 3 8 2 9 1 10 12 11 13 12 14 13
REMARK SMILES IDX 15 14 10 15
REMARK H PARENT 10 16
REMARK Flexibility Score: inf
ROOT
ATOM      1  C   UNL     1       8.865   5.271  17.983  1.00  0.00    -0.041 A 
ATOM      2  C   UNL     1       7.459   5.040  18.097  1.00  0.00    -0.003 A 
ATOM      3  C   UNL     1       6.594   6.159  18.262  1.00  0.00     0.119 A 
ATOM      4  C   UNL     1       7.115   7.455  18.265  1.00  0.00     0.046 A 
ATOM      5  C   UNL     1       8.479   7.671  18.117  1.00  0.00     0.004 A 
ATOM      6  C   UNL     1       9.346   6.593  17.983  1.00  0.00     0.004 A 
ENDROOT
BRANCH   1   7
ATOM      7  C   UNL     1       9.894   4.158  17.876  1.00  0.00     0.036 C 
BRANCH   7   8
ATOM      8  C   UNL     1       9.554   2.921  18.723  1.00  0.00     0.004 C 
BRANCH   8   9
ATOM      9  C   UNL     1       9.939   1.607  18.032  1.00  0.00    -0.003 C 
ATOM     10  C   UNL     1       8.821   0.576  18.148  1.00  0.00     0.004 C 
ENDBRANCH   8   9
ENDBRANCH   7   8
ENDBRANCH   1   7
BRANCH   2  11
ATOM     11  C   UNL     1       6.867   3.644  17.988  1.00  0.00     0.040 C 
BRANCH  11  12
ATOM     12  C   UNL     1       6.475   3.101  19.376  1.00  0.00     0.005 C 
BRANCH  12  13
ATOM     13  C   UNL     1       5.841   1.704  19.309  1.00  0.00    -0.003 C 
ATOM     14  C   UNL     1       5.555   1.259  17.875  1.00  0.00     0.004 C 
ENDBRANCH  12  13
ENDBRANCH  11  12
ENDBRANCH   2  11
BRANCH   3  15
ATOM     15  O   UNL     1       5.212   6.029  18.431  1.00  0.00    -0.508 OA
ATOM     16  H   UNL     1       4.570   5.777  17.693  1.00  0.00     0.293 HD
ENDBRANCH   3  15
TORSDOF 7
ENDMDL
MODEL 4
REMARK VINA RESULT:     2.361      1.161      4.068
REMARK INTER + INTRA:           3.739
REMARK INTER:                   4.327
REMARK INTRA:                  -0.588
REMARK UNBOUND:                 0.481
REMARK SMILES CCCCc1cccc(O)c1CCCC
REMARK SMILES IDX 5 1 11 2 9 3 8 4 7 5 6 6 4 7 3 8 2 9 1 10 12 11 13 12 14 13
REMARK SMILES IDX 15 14 10 15
REMARK H PARENT 10 16
REMARK Flexibility Score: inf
ROOT
ATOM      1  C   UNL     1       6.270   3.956  19.084  1.00  0.00    -0.041 A 
ATOM      2  C   UNL     1       7.325   3.180  18.510  1.00  0.00    -0.003 A 
ATOM      3  C   UNL     1       7.196   1.762  18.488  1.00  0.00     0.119 A 
ATOM      4  C   UNL     1       6.038   1.155  18.979  1.00  0.00     0.046 A 
ATOM      5  C   UNL     1       5.003   1.920  19.502  1.00  0.00     0.004 A 
ATOM      6  C   UNL     1       5.118   3.304  19.560  1.00  0.00     0.004 A 
ENDROOT
BRANCH   1   7
ATOM      7  C   UNL     1       6.323   5.468  19.232  1.00  0.00     0.036 C 
BRANCH   7   8
ATOM      8  C   UNL     1       6.435   6.214  17.894  1.00  0.00     0.004 C 
BRANCH   8   9
ATOM      9  C   UNL     1       7.087   7.595  18.040  1.00  0.00    -0.003 C 
ATOM     10  C   UNL     1       8.608   7.483  18.090  1.00  0.00     0.004 C 
ENDBRANCH   8   9
ENDBRANCH   7   8
ENDBRANCH   1   7
BRANCH   2  11
ATOM     11  C   UNL     1       8.542   3.833  17.875  1.00  0.00     0.040 C 
BRANCH  11  12
ATOM     12  C   UNL     1       9.670   4.019  18.909  1.00  0.00     0.005 C 
BRANCH  12  13
ATOM     13  C   UNL     1      11.053   4.162  18.258  1.00  0.00    -0.003 C 
ATOM     14  C   UNL     1      11.663   2.813  17.875  1.00  0.00     0.004 C 
ENDBRANCH  12  13
ENDBRANCH  11  12
ENDBRANCH   2  11
BRANCH   3  15
ATOM     15  O   UNL     1       8.195   0.919  17.992  1.00  0.00    -0.508 OA
ATOM     16  H   UNL     1       8.030  -0.018  17.650  1.00  0.00     0.293 HD
ENDBRANCH   3  15
TORSDOF 7
ENDMDL
