MODEL 1
REMARK VINA RESULT:    -3.572      0.000      0.000
REMARK INTER + INTRA:          -4.083
REMARK INTER:                  -3.885
REMARK INTRA:                  -0.198
REMARK UNBOUND:                -0.198
REMARK SMILES CC(C)(C)[C@H]1C=C[C@@H](O)CC1
REMARK SMILES IDX 5 1 11 2 10 3 8 4 7 5 6 6 2 7 1 8 3 9 4 10 9 11
REMARK H PARENT 9 12
REMARK Flexibility Score: inf
ROOT
ATOM      1  C   UNL     1     -37.591  22.239   6.354  1.00  0.00     0.017 C 
ATOM      2  C   UNL     1     -36.792  22.177   5.014  1.00  0.00     0.011 C 
ATOM      3  C   UNL     1     -37.005  23.398   4.077  1.00  0.00     0.037 C 
ATOM      4  C   UNL     1     -38.106  24.361   4.563  1.00  0.00     0.137 C 
ATOM      5  C   UNL     1     -37.905  24.667   6.025  1.00  0.00     0.000 C 
ATOM      6  C   UNL     1     -37.633  23.668   6.871  1.00  0.00    -0.025 C 
ENDROOT
BRANCH   1   7
ATOM      7  C   UNL     1     -37.125  21.190   7.435  1.00  0.00    -0.032 C 
ATOM      8  C   UNL     1     -35.711  21.498   7.986  1.00  0.00     0.011 C 
ATOM      9  C   UNL     1     -38.125  21.181   8.616  1.00  0.00     0.011 C 
ATOM     10  C   UNL     1     -37.114  19.767   6.829  1.00  0.00     0.011 C 
ENDBRANCH   1   7
BRANCH   4  11
ATOM     11  O   UNL     1     -38.125  25.539   3.797  1.00  0.00    -0.389 OA
ATOM     12  H   UNL     1     -37.955  26.301   4.412  1.00  0.00     0.211 HD
ENDBRANCH   4  11
TORSDOF 2
ENDMDL
MODEL 2
REMARK VINA RESULT:    -3.318      0.683      1.628
REMARK INTER + INTRA:          -3.807
REMARK INTER:                  -3.603
REMARK INTRA:                  -0.205
REMARK UNBOUND:                -0.198
REMARK SMILES CC(C)(C)[C@H]1C=C[C@@H](O)CC1
REMARK SMILES IDX 5 1 11 2 10 3 8 4 7 5 6 6 2 7 1 8 3 9 4 10 9 11
REMARK H PARENT 9 12
REMARK Flexibility Score: inf
ROOT
ATOM      1  C   UNL     1     -37.049  22.885   6.297  1.00  0.00     0.017 C 
ATOM      2  C   UNL     1     -37.747  24.124   6.942  1.00  0.00     0.011 C 
ATOM      3  C   UNL     1     -38.124  25.251   5.940  1.00  0.00     0.037 C 
ATOM      4  C   UNL     1     -37.576  25.015   4.518  1.00  0.00     0.137 C 
ATOM      5  C   UNL     1     -37.879  23.604   4.083  1.00  0.00     0.000 C 
ATOM      6  C   UNL     1     -37.657  22.596   4.934  1.00  0.00    -0.025 C 
ENDROOT
BRANCH   1   7
ATOM      7  C   UNL     1     -36.974  21.622   7.236  1.00  0.00    -0.032 C 
ATOM      8  C   UNL     1     -35.595  21.480   7.925  1.00  0.00     0.011 C 
ATOM      9  C   UNL     1     -38.065  21.719   8.329  1.00  0.00     0.011 C 
ATOM     10  C   UNL     1     -37.248  20.334   6.423  1.00  0.00     0.011 C 
ENDBRANCH   1   7
BRANCH   4  11
ATOM     11  O   UNL     1     -38.105  25.949   3.611  1.00  0.00    -0.389 OA
ATOM     12  H   UNL     1     -37.660  25.803   2.734  1.00  0.00     0.211 HD
ENDBRANCH   4  11
TORSDOF 2
ENDMDL
MODEL 3
REMARK VINA RESULT:    -1.269      2.967      4.780
REMARK INTER + INTRA:          -1.579
REMARK INTER:                  -1.378
REMARK INTRA:                  -0.201
REMARK UNBOUND:                -0.198
REMARK SMILES CC(C)(C)[C@H]1C=C[C@@H](O)CC1
REMARK SMILES IDX 5 1 11 2 10 3 8 4 7 5 6 6 2 7 1 8 3 9 4 10 9 11
REMARK H PARENT 9 12
REMARK Flexibility Score: inf
ROOT
ATOM      1  C   UNL     1     -37.353  21.964   7.256  1.00  0.00     0.017 C 
ATOM      2  C   UNL     1     -36.332  21.438   8.313  1.00  0.00     0.011 C 
ATOM      3  C   UNL     1     -36.633  20.012   8.851  1.00  0.00     0.037 C 
ATOM      4  C   UNL     1     -37.987  19.450   8.375  1.00  0.00     0.137 C 
ATOM      5  C   UNL     1     -38.125  19.646   6.887  1.00  0.00     0.000 C 
ATOM      6  C   UNL     1     -37.798  20.827   6.350  1.00  0.00    -0.025 C 
ENDROOT
BRANCH   1   7
ATOM      7  C   UNL     1     -36.872  23.244   6.472  1.00  0.00    -0.032 C 
ATOM      8  C   UNL     1     -35.496  23.756   6.964  1.00  0.00     0.011 C 
ATOM      9  C   UNL     1     -36.768  22.921   4.962  1.00  0.00     0.011 C 
ATOM     10  C   UNL     1     -37.903  24.387   6.629  1.00  0.00     0.011 C 
ENDBRANCH   1   7
BRANCH   4  11
ATOM     11  O   UNL     1     -38.124  18.095   8.722  1.00  0.00    -0.389 OA
ATOM     12  H   UNL     1     -37.429  17.586   8.226  1.00  0.00     0.211 HD
ENDBRANCH   4  11
TORSDOF 2
ENDMDL
