MODEL 1
REMARK VINA RESULT:    -2.531      0.000      0.000
REMARK INTER + INTRA:          -3.223
REMARK INTER:                  -3.345
REMARK INTRA:                   0.122
REMARK UNBOUND:                 0.122
REMARK SMILES CC[C@@H](C=C[C@@H](C)[C@@H]1CC[C@H]2[C@@H]3CC=C4C[C@@H](O)CC[C@@]4(C)[C@H]3CC[C@]21C)C(C)C
REMARK SMILES IDX 6 1 7 2 5 3 4 4 3 5 2 6 1 7 28 8 29 9 30 10 8 11 9 12 26 13
REMARK SMILES IDX 10 14 11 15 25 16 27 17 12 18 24 19 23 20 13 21 21 22 14 23
REMARK SMILES IDX 15 24 20 25 22 26 16 27 19 28 17 29 18 30
REMARK H PARENT 18 31
REMARK Flexibility Score: inf
ROOT
ATOM      1  C   UNL     1      14.910  -2.320  20.023  1.00  0.00     0.012 C 
ATOM      2  C   UNL     1      15.116  -0.949  19.362  1.00  0.00     0.012 C 
ENDROOT
BRANCH   1   3
ATOM      3  C   UNL     1      15.949  -3.262  19.460  1.00  0.00    -0.028 C 
ATOM      4  C   UNL     1      17.252  -3.144  19.762  1.00  0.00    -0.027 C 
BRANCH   4   5
ATOM      5  C   UNL     1      18.305  -4.024  19.110  1.00  0.00     0.014 C 
BRANCH   5   6
ATOM      6  C   UNL     1      18.491  -5.326  19.933  1.00  0.00     0.004 C 
ATOM      7  C   UNL     1      18.455  -6.597  19.084  1.00  0.00     0.004 C 
ENDBRANCH   5   6
BRANCH   5   8
ATOM      8  C   UNL     1      19.640  -3.255  18.849  1.00  0.00    -0.011 C 
ATOM      9  C   UNL     1      20.798  -3.690  19.765  1.00  0.00     0.008 C 
ATOM     10  C   UNL     1      19.441  -1.732  18.928  1.00  0.00     0.008 C 
ENDBRANCH   5   8
ENDBRANCH   4   5
ENDBRANCH   1   3
BRANCH   1  11
ATOM     11  C   UNL     1      13.468  -2.869  19.777  1.00  0.00     0.002 C 
ATOM     12  C   UNL     1      13.339  -4.350  20.123  1.00  0.00     0.005 C 
ATOM     13  C   UNL     1      12.903  -2.769  18.321  1.00  0.00    -0.026 C 
ATOM     14  C   UNL     1      12.049  -4.805  19.470  1.00  0.00     0.005 C 
ATOM     15  C   UNL     1      11.804  -3.885  18.257  1.00  0.00    -0.001 C 
ATOM     16  C   UNL     1      12.314  -1.354  18.048  1.00  0.00     0.007 C 
ATOM     17  C   UNL     1      13.998  -3.085  17.262  1.00  0.00     0.012 C 
ATOM     18  C   UNL     1      10.353  -3.322  18.241  1.00  0.00     0.000 C 
ATOM     19  C   UNL     1      11.339  -1.353  16.868  1.00  0.00     0.005 C 
ATOM     20  C   UNL     1      10.140  -2.327  17.070  1.00  0.00     0.003 C 
ATOM     21  C   UNL     1       9.310  -4.442  18.091  1.00  0.00     0.031 C 
ATOM     22  C   UNL     1       8.721  -1.635  17.154  1.00  0.00    -0.008 C 
ATOM     23  C   UNL     1       7.920  -3.877  18.051  1.00  0.00    -0.027 C 
ATOM     24  C   UNL     1       7.635  -2.636  17.595  1.00  0.00    -0.065 C 
ATOM     25  C   UNL     1       8.701  -0.459  18.187  1.00  0.00     0.014 C 
ATOM     26  C   UNL     1       8.369  -1.106  15.738  1.00  0.00     0.016 C 
ATOM     27  C   UNL     1       6.236  -2.097  17.807  1.00  0.00     0.063 C 
ATOM     28  C   UNL     1       7.291   0.111  18.456  1.00  0.00     0.033 C 
ATOM     29  C   UNL     1       6.277  -0.974  18.855  1.00  0.00     0.118 C 
BRANCH  29  30
ATOM     30  O   UNL     1       6.620  -1.495  20.115  1.00  0.00    -0.393 OA
ATOM     31  H   UNL     1       5.909  -2.142  20.361  1.00  0.00     0.210 HD
ENDBRANCH  29  30
ENDBRANCH   1  11
TORSDOF 6
ENDMDL
MODEL 2
REMARK VINA RESULT:    -2.151      2.810      9.142
REMARK INTER + INTRA:          -2.721
REMARK INTER:                  -3.029
REMARK INTRA:                   0.308
REMARK UNBOUND:                 0.122
REMARK SMILES CC[C@@H](C=C[C@@H](C)[C@@H]1CC[C@H]2[C@@H]3CC=C4C[C@@H](O)CC[C@@]4(C)[C@H]3CC[C@]21C)C(C)C
REMARK SMILES IDX 6 1 7 2 5 3 4 4 3 5 2 6 1 7 28 8 29 9 30 10 8 11 9 12 26 13
REMARK SMILES IDX 10 14 11 15 25 16 27 17 12 18 24 19 23 20 13 21 21 22 14 23
REMARK SMILES IDX 15 24 20 25 22 26 16 27 19 28 17 29 18 30
REMARK H PARENT 18 31
REMARK Flexibility Score: inf
ROOT
ATOM      1  C   UNL     1      11.918  -2.006  17.428  1.00  0.00     0.012 C 
ATOM      2  C   UNL     1      11.876  -0.650  18.149  1.00  0.00     0.012 C 
ENDROOT
BRANCH   1   3
ATOM      3  C   UNL     1      10.599  -2.701  17.681  1.00  0.00    -0.028 C 
ATOM      4  C   UNL     1       9.876  -2.468  18.789  1.00  0.00    -0.027 C 
BRANCH   4   5
ATOM      5  C   UNL     1       8.606  -3.247  19.090  1.00  0.00     0.014 C 
BRANCH   5   6
ATOM      6  C   UNL     1       8.745  -4.705  18.582  1.00  0.00     0.004 C 
ATOM      7  C   UNL     1       9.494  -5.623  19.548  1.00  0.00     0.004 C 
ENDBRANCH   5   6
BRANCH   5   8
ATOM      8  C   UNL     1       7.327  -2.520  18.562  1.00  0.00    -0.011 C 
ATOM      9  C   UNL     1       7.488  -0.996  18.429  1.00  0.00     0.008 C 
ATOM     10  C   UNL     1       6.093  -2.856  19.415  1.00  0.00     0.008 C 
ENDBRANCH   5   8
ENDBRANCH   4   5
ENDBRANCH   1   3
BRANCH   1  11
ATOM     11  C   UNL     1      13.113  -2.884  17.918  1.00  0.00     0.002 C 
ATOM     12  C   UNL     1      12.659  -4.230  18.479  1.00  0.00     0.005 C 
ATOM     13  C   UNL     1      14.023  -2.291  19.043  1.00  0.00    -0.026 C 
ATOM     14  C   UNL     1      13.849  -4.764  19.252  1.00  0.00     0.005 C 
ATOM     15  C   UNL     1      14.676  -3.548  19.714  1.00  0.00    -0.001 C 
ATOM     16  C   UNL     1      15.092  -1.328  18.446  1.00  0.00     0.007 C 
ATOM     17  C   UNL     1      13.186  -1.532  20.113  1.00  0.00     0.012 C 
ATOM     18  C   UNL     1      16.186  -3.713  19.378  1.00  0.00     0.000 C 
ATOM     19  C   UNL     1      16.275  -1.120  19.394  1.00  0.00     0.005 C 
ATOM     20  C   UNL     1      16.998  -2.449  19.765  1.00  0.00     0.003 C 
ATOM     21  C   UNL     1      16.808  -4.907  20.123  1.00  0.00     0.031 C 
ATOM     22  C   UNL     1      18.497  -2.556  19.273  1.00  0.00    -0.008 C 
ATOM     23  C   UNL     1      18.269  -5.033  19.807  1.00  0.00    -0.027 C 
ATOM     24  C   UNL     1      19.050  -3.982  19.465  1.00  0.00    -0.065 C 
ATOM     25  C   UNL     1      18.643  -2.213  17.753  1.00  0.00     0.014 C 
ATOM     26  C   UNL     1      19.345  -1.572  20.124  1.00  0.00     0.016 C 
ATOM     27  C   UNL     1      20.448  -4.262  18.957  1.00  0.00     0.063 C 
ATOM     28  C   UNL     1      20.048  -2.503  17.181  1.00  0.00     0.033 C 
ATOM     29  C   UNL     1      20.517  -3.942  17.455  1.00  0.00     0.118 C 
BRANCH  29  30
ATOM     30  O   UNL     1      19.720  -4.842  16.727  1.00  0.00    -0.393 OA
ATOM     31  H   UNL     1      20.307  -5.599  16.468  1.00  0.00     0.210 HD
ENDBRANCH  29  30
ENDBRANCH   1  11
TORSDOF 6
ENDMDL
MODEL 3
REMARK VINA RESULT:    -2.010      1.299      1.890
REMARK INTER + INTRA:          -2.535
REMARK INTER:                  -3.104
REMARK INTRA:                   0.569
REMARK UNBOUND:                 0.122
REMARK SMILES CC[C@@H](C=C[C@@H](C)[C@@H]1CC[C@H]2[C@@H]3CC=C4C[C@@H](O)CC[C@@]4(C)[C@H]3CC[C@]21C)C(C)C
REMARK SMILES IDX 6 1 7 2 5 3 4 4 3 5 2 6 1 7 28 8 29 9 30 10 8 11 9 12 26 13
REMARK SMILES IDX 10 14 11 15 25 16 27 17 12 18 24 19 23 20 13 21 21 22 14 23
REMARK SMILES IDX 15 24 20 25 22 26 16 27 19 28 17 29 18 30
REMARK H PARENT 18 31
REMARK Flexibility Score: inf
ROOT
ATOM      1  C   UNL     1      14.631  -2.474  20.110  1.00  0.00     0.012 C 
ATOM      2  C   UNL     1      14.973  -0.976  20.122  1.00  0.00     0.012 C 
ENDROOT
BRANCH   1   3
ATOM      3  C   UNL     1      15.841  -3.216  19.591  1.00  0.00    -0.028 C 
ATOM      4  C   UNL     1      17.084  -2.725  19.720  1.00  0.00    -0.027 C 
BRANCH   4   5
ATOM      5  C   UNL     1      18.285  -3.421  19.103  1.00  0.00     0.014 C 
BRANCH   5   6
ATOM      6  C   UNL     1      18.875  -4.449  20.104  1.00  0.00     0.004 C 
ATOM      7  C   UNL     1      18.900  -5.881  19.570  1.00  0.00     0.004 C 
ENDBRANCH   5   6
BRANCH   5   8
ATOM      8  C   UNL     1      19.341  -2.407  18.555  1.00  0.00    -0.011 C 
ATOM      9  C   UNL     1      18.887  -1.661  17.287  1.00  0.00     0.008 C 
ATOM     10  C   UNL     1      20.703  -3.079  18.320  1.00  0.00     0.008 C 
ENDBRANCH   5   8
ENDBRANCH   4   5
ENDBRANCH   1   3
BRANCH   1  11
ATOM     11  C   UNL     1      13.374  -2.773  19.232  1.00  0.00     0.002 C 
ATOM     12  C   UNL     1      13.700  -3.645  18.022  1.00  0.00     0.005 C 
ATOM     13  C   UNL     1      12.619  -1.546  18.623  1.00  0.00    -0.026 C 
ATOM     14  C   UNL     1      12.509  -3.507  17.095  1.00  0.00     0.005 C 
ATOM     15  C   UNL     1      11.867  -2.135  17.381  1.00  0.00    -0.001 C 
ATOM     16  C   UNL     1      11.636  -0.925  19.660  1.00  0.00     0.007 C 
ATOM     17  C   UNL     1      13.610  -0.451  18.134  1.00  0.00     0.012 C 
ATOM     18  C   UNL     1      10.328  -2.247  17.586  1.00  0.00     0.000 C 
ATOM     19  C   UNL     1      10.552  -0.077  18.990  1.00  0.00     0.005 C 
ATOM     20  C   UNL     1       9.701  -0.879  17.961  1.00  0.00     0.003 C 
ATOM     21  C   UNL     1       9.619  -2.748  16.316  1.00  0.00     0.031 C 
ATOM     22  C   UNL     1       8.171  -1.029  18.329  1.00  0.00    -0.008 C 
ATOM     23  C   UNL     1       8.136  -2.824  16.526  1.00  0.00    -0.027 C 
ATOM     24  C   UNL     1       7.466  -2.032  17.394  1.00  0.00    -0.065 C 
ATOM     25  C   UNL     1       7.966  -1.550  19.791  1.00  0.00     0.014 C 
ATOM     26  C   UNL     1       7.506   0.364  18.162  1.00  0.00     0.016 C 
ATOM     27  C   UNL     1       6.013  -2.348  17.680  1.00  0.00     0.063 C 
ATOM     28  C   UNL     1       6.502  -1.908  20.125  1.00  0.00     0.033 C 
ATOM     29  C   UNL     1       5.883  -2.887  19.113  1.00  0.00     0.118 C 
BRANCH  29  30
ATOM     30  O   UNL     1       6.516  -4.138  19.224  1.00  0.00    -0.393 OA
ATOM     31  H   UNL     1       6.263  -4.659  18.418  1.00  0.00     0.210 HD
ENDBRANCH  29  30
ENDBRANCH   1  11
TORSDOF 6
ENDMDL
