MODEL 1
REMARK VINA RESULT:    -5.439      0.000      0.000
REMARK INTER + INTRA:          -8.510
REMARK INTER:                  -7.506
REMARK INTRA:                  -1.004
REMARK UNBOUND:                -1.004
REMARK SMILES CCCCc1cccc(O)c1CCCC
REMARK SMILES IDX 5 1 11 2 9 3 8 4 7 5 6 6 4 7 3 8 2 9 1 10 12 11 13 12 14 13
REMARK SMILES IDX 15 14 10 15
REMARK H PARENT 10 16
REMARK Flexibility Score: inf
ROOT
ATOM      1  C   UNL     1      -9.027  -2.762  -8.751  1.00  0.00    -0.041 A 
ATOM      2  C   UNL     1      -9.324  -2.926 -10.132  1.00  0.00    -0.003 A 
ATOM      3  C   UNL     1     -10.224  -3.942 -10.526  1.00  0.00     0.119 A 
ATOM      4  C   UNL     1     -10.779  -4.802  -9.570  1.00  0.00     0.046 A 
ATOM      5  C   UNL     1     -10.456  -4.659  -8.224  1.00  0.00     0.004 A 
ATOM      6  C   UNL     1      -9.586  -3.651  -7.816  1.00  0.00     0.004 A 
ENDROOT
BRANCH   1   7
ATOM      7  C   UNL     1      -8.081  -1.696  -8.238  1.00  0.00     0.036 C 
BRANCH   7   8
ATOM      8  C   UNL     1      -8.742  -0.875  -7.120  1.00  0.00     0.004 C 
BRANCH   8   9
ATOM      9  C   UNL     1      -9.368   0.429  -7.638  1.00  0.00    -0.003 C 
ATOM     10  C   UNL     1     -10.090   1.212  -6.543  1.00  0.00     0.004 C 
ENDBRANCH   8   9
ENDBRANCH   7   8
ENDBRANCH   1   7
BRANCH   2  11
ATOM     11  C   UNL     1      -8.749  -2.004 -11.189  1.00  0.00     0.040 C 
BRANCH  11  12
ATOM     12  C   UNL     1      -9.475  -0.650 -11.180  1.00  0.00     0.005 C 
BRANCH  12  13
ATOM     13  C   UNL     1     -10.965  -0.779 -11.532  1.00  0.00    -0.003 C 
ATOM     14  C   UNL     1     -11.879  -0.348 -10.384  1.00  0.00     0.004 C 
ENDBRANCH  12  13
ENDBRANCH  11  12
ENDBRANCH   2  11
BRANCH   3  15
ATOM     15  O   UNL     1     -10.568  -4.096 -11.870  1.00  0.00    -0.508 OA
ATOM     16  H   UNL     1     -11.045  -4.924 -12.206  1.00  0.00     0.293 HD
ENDBRANCH   3  15
TORSDOF 7
ENDMDL
MODEL 2
REMARK VINA RESULT:    -5.114      2.006      4.605
REMARK INTER + INTRA:          -8.061
REMARK INTER:                  -6.794
REMARK INTRA:                  -1.267
REMARK UNBOUND:                -1.004
REMARK SMILES CCCCc1cccc(O)c1CCCC
REMARK SMILES IDX 5 1 11 2 9 3 8 4 7 5 6 6 4 7 3 8 2 9 1 10 12 11 13 12 14 13
REMARK SMILES IDX 15 14 10 15
REMARK H PARENT 10 16
REMARK Flexibility Score: inf
ROOT
ATOM      1  C   UNL     1      -8.398  -1.231  -9.193  1.00  0.00    -0.041 A 
ATOM      2  C   UNL     1      -8.726  -1.951  -8.010  1.00  0.00    -0.003 A 
ATOM      3  C   UNL     1      -8.827  -1.251  -6.785  1.00  0.00     0.119 A 
ATOM      4  C   UNL     1      -8.563   0.122  -6.734  1.00  0.00     0.046 A 
ATOM      5  C   UNL     1      -8.207   0.814  -7.888  1.00  0.00     0.004 A 
ATOM      6  C   UNL     1      -8.123   0.145  -9.107  1.00  0.00     0.004 A 
ENDROOT
BRANCH   1   7
ATOM      7  C   UNL     1      -8.276  -1.896 -10.547  1.00  0.00     0.036 C 
BRANCH   7   8
ATOM      8  C   UNL     1      -9.119  -1.153 -11.595  1.00  0.00     0.004 C 
BRANCH   8   9
ATOM      9  C   UNL     1     -10.587  -1.605 -11.598  1.00  0.00    -0.003 C 
ATOM     10  C   UNL     1     -11.517  -0.600 -10.919  1.00  0.00     0.004 C 
ENDBRANCH   8   9
ENDBRANCH   7   8
ENDBRANCH   1   7
BRANCH   2  11
ATOM     11  C   UNL     1      -9.029  -3.436  -8.035  1.00  0.00     0.040 C 
BRANCH  11  12
ATOM     12  C   UNL     1     -10.443  -3.691  -8.578  1.00  0.00     0.005 C 
BRANCH  12  13
ATOM     13  C   UNL     1     -10.583  -5.078  -9.224  1.00  0.00    -0.003 C 
ATOM     14  C   UNL     1     -10.151  -5.089 -10.691  1.00  0.00     0.004 C 
ENDBRANCH  12  13
ENDBRANCH  11  12
ENDBRANCH   2  11
BRANCH   3  15
ATOM     15  O   UNL     1      -9.192  -1.925  -5.618  1.00  0.00    -0.508 OA
ATOM     16  H   UNL     1      -8.827  -2.844  -5.398  1.00  0.00     0.293 HD
ENDBRANCH   3  15
TORSDOF 7
ENDMDL
MODEL 3
REMARK VINA RESULT:    -5.094      1.478      2.118
REMARK INTER + INTRA:          -8.033
REMARK INTER:                  -7.125
REMARK INTRA:                  -0.908
REMARK UNBOUND:                -1.004
REMARK SMILES CCCCc1cccc(O)c1CCCC
REMARK SMILES IDX 5 1 11 2 9 3 8 4 7 5 6 6 4 7 3 8 2 9 1 10 12 11 13 12 14 13
REMARK SMILES IDX 15 14 10 15
REMARK H PARENT 10 16
REMARK Flexibility Score: inf
ROOT
ATOM      1  C   UNL     1      -9.198  -3.030  -8.890  1.00  0.00    -0.041 A 
ATOM      2  C   UNL     1      -9.309  -2.668 -10.262  1.00  0.00    -0.003 A 
ATOM      3  C   UNL     1     -10.372  -3.198 -11.029  1.00  0.00     0.119 A 
ATOM      4  C   UNL     1     -11.275  -4.100 -10.454  1.00  0.00     0.046 A 
ATOM      5  C   UNL     1     -11.140  -4.478  -9.121  1.00  0.00     0.004 A 
ATOM      6  C   UNL     1     -10.110  -3.950  -8.345  1.00  0.00     0.004 A 
ENDROOT
BRANCH   1   7
ATOM      7  C   UNL     1      -8.097  -2.506  -7.993  1.00  0.00     0.036 C 
BRANCH   7   8
ATOM      8  C   UNL     1      -8.098  -3.243  -6.645  1.00  0.00     0.004 C 
BRANCH   8   9
ATOM      9  C   UNL     1      -8.685  -2.392  -5.508  1.00  0.00    -0.003 C 
ATOM     10  C   UNL     1      -8.690  -0.899  -5.830  1.00  0.00     0.004 C 
ENDBRANCH   8   9
ENDBRANCH   7   8
ENDBRANCH   1   7
BRANCH   2  11
ATOM     11  C   UNL     1      -8.354  -1.685 -10.910  1.00  0.00     0.040 C 
BRANCH  11  12
ATOM     12  C   UNL     1      -8.921  -0.259 -10.848  1.00  0.00     0.005 C 
BRANCH  12  13
ATOM     13  C   UNL     1      -7.875   0.771 -10.394  1.00  0.00    -0.003 C 
ATOM     14  C   UNL     1      -7.897   1.004  -8.883  1.00  0.00     0.004 C 
ENDBRANCH  12  13
ENDBRANCH  11  12
ENDBRANCH   2  11
BRANCH   3  15
ATOM     15  O   UNL     1     -10.530  -2.824 -12.364  1.00  0.00    -0.508 OA
ATOM     16  H   UNL     1      -9.860  -2.226 -12.833  1.00  0.00     0.293 HD
ENDBRANCH   3  15
TORSDOF 7
ENDMDL
MODEL 4
REMARK VINA RESULT:    -4.958      1.643      3.702
REMARK INTER + INTRA:          -7.846
REMARK INTER:                  -7.003
REMARK INTRA:                  -0.842
REMARK UNBOUND:                -1.004
REMARK SMILES CCCCc1cccc(O)c1CCCC
REMARK SMILES IDX 5 1 11 2 9 3 8 4 7 5 6 6 4 7 3 8 2 9 1 10 12 11 13 12 14 13
REMARK SMILES IDX 15 14 10 15
REMARK H PARENT 10 16
REMARK Flexibility Score: inf
ROOT
ATOM      1  C   UNL     1      -9.685  -2.869 -10.162  1.00  0.00    -0.041 A 
ATOM      2  C   UNL     1      -9.125  -2.502  -8.907  1.00  0.00    -0.003 A 
ATOM      3  C   UNL     1      -9.354  -3.330  -7.784  1.00  0.00     0.119 A 
ATOM      4  C   UNL     1     -10.158  -4.470  -7.900  1.00  0.00     0.046 A 
ATOM      5  C   UNL     1     -10.733  -4.804  -9.123  1.00  0.00     0.004 A 
ATOM      6  C   UNL     1     -10.502  -4.011 -10.245  1.00  0.00     0.004 A 
ENDROOT
BRANCH   1   7
ATOM      7  C   UNL     1      -9.486  -2.047 -11.418  1.00  0.00     0.036 C 
BRANCH   7   8
ATOM      8  C   UNL     1     -10.834  -1.539 -11.953  1.00  0.00     0.004 C 
BRANCH   8   9
ATOM      9  C   UNL     1     -11.595  -0.691 -10.923  1.00  0.00    -0.003 C 
ATOM     10  C   UNL     1     -12.362   0.466 -11.561  1.00  0.00     0.004 C 
ENDBRANCH   8   9
ENDBRANCH   7   8
ENDBRANCH   1   7
BRANCH   2  11
ATOM     11  C   UNL     1      -8.241  -1.281  -8.751  1.00  0.00     0.040 C 
BRANCH  11  12
ATOM     12  C   UNL     1      -9.089  -0.028  -8.487  1.00  0.00     0.005 C 
BRANCH  12  13
ATOM     13  C   UNL     1      -8.899   0.522  -7.065  1.00  0.00    -0.003 C 
ATOM     14  C   UNL     1     -10.143   1.241  -6.541  1.00  0.00     0.004 C 
ENDBRANCH  12  13
ENDBRANCH  11  12
ENDBRANCH   2  11
BRANCH   3  15
ATOM     15  O   UNL     1      -8.779  -3.018  -6.551  1.00  0.00    -0.508 OA
ATOM     16  H   UNL     1      -8.637  -2.058  -6.257  1.00  0.00     0.293 HD
ENDBRANCH   3  15
TORSDOF 7
ENDMDL
MODEL 5
REMARK VINA RESULT:    -4.890      2.134      4.005
REMARK INTER + INTRA:          -7.753
REMARK INTER:                  -6.840
REMARK INTRA:                  -0.913
REMARK UNBOUND:                -1.004
REMARK SMILES CCCCc1cccc(O)c1CCCC
REMARK SMILES IDX 5 1 11 2 9 3 8 4 7 5 6 6 4 7 3 8 2 9 1 10 12 11 13 12 14 13
REMARK SMILES IDX 15 14 10 15
REMARK H PARENT 10 16
REMARK Flexibility Score: inf
ROOT
ATOM      1  C   UNL     1      -8.809  -2.705  -8.827  1.00  0.00    -0.041 A 
ATOM      2  C   UNL     1      -8.521  -1.311  -8.848  1.00  0.00    -0.003 A 
ATOM      3  C   UNL     1      -8.463  -0.603  -7.626  1.00  0.00     0.119 A 
ATOM      4  C   UNL     1      -8.729  -1.257  -6.418  1.00  0.00     0.046 A 
ATOM      5  C   UNL     1      -9.046  -2.613  -6.406  1.00  0.00     0.004 A 
ATOM      6  C   UNL     1      -9.088  -3.331  -7.599  1.00  0.00     0.004 A 
ENDROOT
BRANCH   1   7
ATOM      7  C   UNL     1      -8.884  -3.544 -10.084  1.00  0.00     0.036 C 
BRANCH   7   8
ATOM      8  C   UNL     1     -10.152  -4.411 -10.084  1.00  0.00     0.004 C 
BRANCH   8   9
ATOM      9  C   UNL     1     -11.275  -3.812 -10.943  1.00  0.00    -0.003 C 
ATOM     10  C   UNL     1     -10.902  -3.718 -12.422  1.00  0.00     0.004 C 
ENDBRANCH   8   9
ENDBRANCH   7   8
ENDBRANCH   1   7
BRANCH   2  11
ATOM     11  C   UNL     1      -8.216  -0.577 -10.138  1.00  0.00     0.040 C 
BRANCH  11  12
ATOM     12  C   UNL     1      -9.442  -0.577 -11.064  1.00  0.00     0.005 C 
BRANCH  12  13
ATOM     13  C   UNL     1     -10.753  -0.323 -10.304  1.00  0.00    -0.003 C 
ATOM     14  C   UNL     1     -11.947  -0.130 -11.240  1.00  0.00     0.004 C 
ENDBRANCH  12  13
ENDBRANCH  11  12
ENDBRANCH   2  11
BRANCH   3  15
ATOM     15  O   UNL     1      -8.138   0.755  -7.615  1.00  0.00    -0.508 OA
ATOM     16  H   UNL     1      -7.301   1.098  -7.159  1.00  0.00     0.293 HD
ENDBRANCH   3  15
TORSDOF 7
ENDMDL
MODEL 6
REMARK VINA RESULT:    -4.669      1.734      3.403
REMARK INTER + INTRA:          -7.447
REMARK INTER:                  -6.588
REMARK INTRA:                  -0.859
REMARK UNBOUND:                -1.004
REMARK SMILES CCCCc1cccc(O)c1CCCC
REMARK SMILES IDX 5 1 11 2 9 3 8 4 7 5 6 6 4 7 3 8 2 9 1 10 12 11 13 12 14 13
REMARK SMILES IDX 15 14 10 15
REMARK H PARENT 10 16
REMARK Flexibility Score: inf
ROOT
ATOM      1  C   UNL     1      -8.990  -2.585  -9.710  1.00  0.00    -0.041 A 
ATOM      2  C   UNL     1      -9.674  -3.831  -9.635  1.00  0.00    -0.003 A 
ATOM      3  C   UNL     1     -10.038  -4.340  -8.367  1.00  0.00     0.119 A 
ATOM      4  C   UNL     1      -9.691  -3.647  -7.202  1.00  0.00     0.046 A 
ATOM      5  C   UNL     1      -8.990  -2.446  -7.280  1.00  0.00     0.004 A 
ATOM      6  C   UNL     1      -8.640  -1.920  -8.522  1.00  0.00     0.004 A 
ENDROOT
BRANCH   1   7
ATOM      7  C   UNL     1      -8.568  -1.961 -11.023  1.00  0.00     0.036 C 
BRANCH   7   8
ATOM      8  C   UNL     1      -9.208  -0.575 -11.196  1.00  0.00     0.004 C 
BRANCH   8   9
ATOM      9  C   UNL     1     -10.695  -0.657 -11.575  1.00  0.00    -0.003 C 
ATOM     10  C   UNL     1     -11.622  -0.382 -10.392  1.00  0.00     0.004 C 
ENDBRANCH   8   9
ENDBRANCH   7   8
ENDBRANCH   1   7
BRANCH   2  11
ATOM     11  C   UNL     1     -10.074  -4.600 -10.878  1.00  0.00     0.040 C 
BRANCH  11  12
ATOM     12  C   UNL     1     -11.261  -3.920 -11.576  1.00  0.00     0.005 C 
BRANCH  12  13
ATOM     13  C   UNL     1     -11.066  -3.810 -13.097  1.00  0.00    -0.003 C 
ATOM     14  C   UNL     1     -11.651  -5.004 -13.852  1.00  0.00     0.004 C 
ENDBRANCH  12  13
ENDBRANCH  11  12
ENDBRANCH   2  11
BRANCH   3  15
ATOM     15  O   UNL     1     -10.749  -5.538  -8.268  1.00  0.00    -0.508 OA
ATOM     16  H   UNL     1     -10.279  -6.435  -8.240  1.00  0.00     0.293 HD
ENDBRANCH   3  15
TORSDOF 7
ENDMDL
MODEL 7
REMARK VINA RESULT:    -4.619      1.365      3.419
REMARK INTER + INTRA:          -7.378
REMARK INTER:                  -6.380
REMARK INTRA:                  -0.998
REMARK UNBOUND:                -1.004
REMARK SMILES CCCCc1cccc(O)c1CCCC
REMARK SMILES IDX 5 1 11 2 9 3 8 4 7 5 6 6 4 7 3 8 2 9 1 10 12 11 13 12 14 13
REMARK SMILES IDX 15 14 10 15
REMARK H PARENT 10 16
REMARK Flexibility Score: inf
ROOT
ATOM      1  C   UNL     1      -9.303  -1.173  -9.834  1.00  0.00    -0.041 A 
ATOM      2  C   UNL     1      -9.318  -2.574  -9.590  1.00  0.00    -0.003 A 
ATOM      3  C   UNL     1     -10.064  -3.413 -10.450  1.00  0.00     0.119 A 
ATOM      4  C   UNL     1     -10.811  -2.864 -11.498  1.00  0.00     0.046 A 
ATOM      5  C   UNL     1     -10.821  -1.488 -11.709  1.00  0.00     0.004 A 
ATOM      6  C   UNL     1     -10.076  -0.648 -10.885  1.00  0.00     0.004 A 
ENDROOT
BRANCH   1   7
ATOM      7  C   UNL     1      -8.527  -0.201  -8.971  1.00  0.00     0.036 C 
BRANCH   7   8
ATOM      8  C   UNL     1      -9.426   0.387  -7.872  1.00  0.00     0.004 C 
BRANCH   8   9
ATOM      9  C   UNL     1      -8.742   1.523  -7.096  1.00  0.00    -0.003 C 
ATOM     10  C   UNL     1      -9.694   2.244  -6.143  1.00  0.00     0.004 C 
ENDBRANCH   8   9
ENDBRANCH   7   8
ENDBRANCH   1   7
BRANCH   2  11
ATOM     11  C   UNL     1      -8.510  -3.201  -8.471  1.00  0.00     0.040 C 
BRANCH  11  12
ATOM     12  C   UNL     1      -9.322  -3.229  -7.167  1.00  0.00     0.005 C 
BRANCH  12  13
ATOM     13  C   UNL     1      -8.527  -2.690  -5.968  1.00  0.00    -0.003 C 
ATOM     14  C   UNL     1      -9.408  -1.941  -4.967  1.00  0.00     0.004 C 
ENDBRANCH  12  13
ENDBRANCH  11  12
ENDBRANCH   2  11
BRANCH   3  15
ATOM     15  O   UNL     1     -10.059  -4.797 -10.260  1.00  0.00    -0.508 OA
ATOM     16  H   UNL     1      -9.862  -5.437 -11.020  1.00  0.00     0.293 HD
ENDBRANCH   3  15
TORSDOF 7
ENDMDL
MODEL 8
REMARK VINA RESULT:    -4.364      1.609      3.572
REMARK INTER + INTRA:          -7.026
REMARK INTER:                  -6.140
REMARK INTRA:                  -0.886
REMARK UNBOUND:                -1.004
REMARK SMILES CCCCc1cccc(O)c1CCCC
REMARK SMILES IDX 5 1 11 2 9 3 8 4 7 5 6 6 4 7 3 8 2 9 1 10 12 11 13 12 14 13
REMARK SMILES IDX 15 14 10 15
REMARK H PARENT 10 16
REMARK Flexibility Score: inf
ROOT
ATOM      1  C   UNL     1      -8.815  -1.943  -8.917  1.00  0.00    -0.041 A 
ATOM      2  C   UNL     1      -9.858  -1.974  -9.885  1.00  0.00    -0.003 A 
ATOM      3  C   UNL     1      -9.888  -0.985 -10.895  1.00  0.00     0.119 A 
ATOM      4  C   UNL     1      -8.928   0.033 -10.914  1.00  0.00     0.046 A 
ATOM      5  C   UNL     1      -7.932   0.079  -9.943  1.00  0.00     0.004 A 
ATOM      6  C   UNL     1      -7.875  -0.898  -8.952  1.00  0.00     0.004 A 
ENDROOT
BRANCH   1   7
ATOM      7  C   UNL     1      -8.701  -2.964  -7.805  1.00  0.00     0.036 C 
BRANCH   7   8
ATOM      8  C   UNL     1      -8.089  -2.330  -6.547  1.00  0.00     0.004 C 
BRANCH   8   9
ATOM      9  C   UNL     1      -9.142  -2.026  -5.470  1.00  0.00    -0.003 C 
ATOM     10  C   UNL     1      -9.358  -0.528  -5.261  1.00  0.00     0.004 C 
ENDBRANCH   8   9
ENDBRANCH   7   8
ENDBRANCH   1   7
BRANCH   2  11
ATOM     11  C   UNL     1     -10.905  -3.070  -9.899  1.00  0.00     0.040 C 
BRANCH  11  12
ATOM     12  C   UNL     1     -10.445  -4.246 -10.773  1.00  0.00     0.005 C 
BRANCH  12  13
ATOM     13  C   UNL     1     -10.241  -5.537  -9.964  1.00  0.00    -0.003 C 
ATOM     14  C   UNL     1     -10.892  -5.473  -8.582  1.00  0.00     0.004 C 
ENDBRANCH  12  13
ENDBRANCH  11  12
ENDBRANCH   2  11
BRANCH   3  15
ATOM     15  O   UNL     1     -10.874  -1.019 -11.883  1.00  0.00    -0.508 OA
ATOM     16  H   UNL     1     -11.840  -0.794 -11.679  1.00  0.00     0.293 HD
ENDBRANCH   3  15
TORSDOF 7
ENDMDL
MODEL 9
REMARK VINA RESULT:    -4.340      2.279      5.022
REMARK INTER + INTRA:          -6.993
REMARK INTER:                  -5.980
REMARK INTRA:                  -1.013
REMARK UNBOUND:                -1.004
REMARK SMILES CCCCc1cccc(O)c1CCCC
REMARK SMILES IDX 5 1 11 2 9 3 8 4 7 5 6 6 4 7 3 8 2 9 1 10 12 11 13 12 14 13
REMARK SMILES IDX 15 14 10 15
REMARK H PARENT 10 16
REMARK Flexibility Score: inf
ROOT
ATOM      1  C   UNL     1      -8.815  -2.449 -10.162  1.00  0.00    -0.041 A 
ATOM      2  C   UNL     1      -8.355  -1.826  -8.968  1.00  0.00    -0.003 A 
ATOM      3  C   UNL     1      -8.280  -0.416  -8.913  1.00  0.00     0.119 A 
ATOM      4  C   UNL     1      -8.613   0.352 -10.034  1.00  0.00     0.046 A 
ATOM      5  C   UNL     1      -9.028  -0.264 -11.212  1.00  0.00     0.004 A 
ATOM      6  C   UNL     1      -9.126  -1.652 -11.277  1.00  0.00     0.004 A 
ENDROOT
BRANCH   1   7
ATOM      7  C   UNL     1      -8.934  -3.951 -10.307  1.00  0.00     0.036 C 
BRANCH   7   8
ATOM      8  C   UNL     1     -10.380  -4.352 -10.635  1.00  0.00     0.004 C 
BRANCH   8   9
ATOM      9  C   UNL     1     -11.284  -4.365  -9.393  1.00  0.00    -0.003 C 
ATOM     10  C   UNL     1     -10.916  -5.473  -8.407  1.00  0.00     0.004 C 
ENDBRANCH   8   9
ENDBRANCH   7   8
ENDBRANCH   1   7
BRANCH   2  11
ATOM     11  C   UNL     1      -7.998  -2.630  -7.733  1.00  0.00     0.040 C 
BRANCH  11  12
ATOM     12  C   UNL     1      -9.234  -2.833  -6.844  1.00  0.00     0.005 C 
BRANCH  12  13
ATOM     13  C   UNL     1      -8.959  -2.500  -5.369  1.00  0.00    -0.003 C 
ATOM     14  C   UNL     1      -9.553  -1.154  -4.950  1.00  0.00     0.004 C 
ENDBRANCH  12  13
ENDBRANCH  11  12
ENDBRANCH   2  11
BRANCH   3  15
ATOM     15  O   UNL     1      -7.875   0.222  -7.739  1.00  0.00    -0.508 OA
ATOM     16  H   UNL     1      -7.495  -0.296  -6.955  1.00  0.00     0.293 HD
ENDBRANCH   3  15
TORSDOF 7
ENDMDL
