MODEL 1
REMARK VINA RESULT:    -5.477      0.000      0.000
REMARK INTER + INTRA:          -8.347
REMARK INTER:                  -7.398
REMARK INTRA:                  -0.949
REMARK UNBOUND:                -0.949
REMARK SMILES CC(=O)CCC=C(C)CCC=C(C)C
REMARK SMILES IDX 7 1 6 2 8 3 9 4 10 5 11 6 13 7 12 8 14 9 5 10 4 11 2 12 3 13
REMARK SMILES IDX 1 14
REMARK H PARENT
REMARK Flexibility Score: inf
ROOT
ATOM      1  C   UNL     1     -11.191   4.120 -18.372  1.00  0.00    -0.077 C 
ATOM      2  C   UNL     1     -11.992   4.530 -19.380  1.00  0.00    -0.028 C 
ATOM      3  C   UNL     1      -9.714   4.437 -18.363  1.00  0.00     0.039 C 
ENDROOT
BRANCH   1   4
ATOM      4  C   UNL     1     -11.785   3.324 -17.232  1.00  0.00     0.034 C 
BRANCH   4   5
ATOM      5  C   UNL     1     -11.226   1.897 -17.214  1.00  0.00     0.032 C 
BRANCH   5   6
ATOM      6  C   UNL     1     -11.918   1.039 -18.243  1.00  0.00    -0.028 C 
ATOM      7  C   UNL     1      -9.899   0.903 -19.720  1.00  0.00     0.039 C 
ATOM      8  C   UNL     1     -11.341   0.607 -19.389  1.00  0.00    -0.080 C 
ATOM      9  C   UNL     1     -12.137  -0.219 -20.365  1.00  0.00     0.039 C 
ENDBRANCH   5   6
ENDBRANCH   4   5
ENDBRANCH   1   4
BRANCH   2  10
ATOM     10  C   UNL     1     -11.489   5.329 -20.561  1.00  0.00     0.035 C 
BRANCH  10  11
ATOM     11  C   UNL     1     -12.192   4.932 -21.866  1.00  0.00     0.079 C 
BRANCH  11  12
ATOM     12  C   UNL     1     -12.879   6.111 -22.511  1.00  0.00     0.130 C 
ATOM     13  O   UNL     1     -12.264   6.805 -23.307  1.00  0.00    -0.300 OA
ATOM     14  C   UNL     1     -14.302   6.458 -22.186  1.00  0.00     0.087 C 
ENDBRANCH  11  12
ENDBRANCH  10  11
ENDBRANCH   2  10
TORSDOF 6
ENDMDL
MODEL 2
REMARK VINA RESULT:    -5.429      0.939      1.710
REMARK INTER + INTRA:          -8.282
REMARK INTER:                  -7.595
REMARK INTRA:                  -0.687
REMARK UNBOUND:                -0.949
REMARK SMILES CC(=O)CCC=C(C)CCC=C(C)C
REMARK SMILES IDX 7 1 6 2 8 3 9 4 10 5 11 6 13 7 12 8 14 9 5 10 4 11 2 12 3 13
REMARK SMILES IDX 1 14
REMARK H PARENT
REMARK Flexibility Score: inf
ROOT
ATOM      1  C   UNL     1     -10.618   4.590 -18.344  1.00  0.00    -0.077 C 
ATOM      2  C   UNL     1     -10.772   5.007 -19.620  1.00  0.00    -0.028 C 
ATOM      3  C   UNL     1     -11.807   4.388 -17.434  1.00  0.00     0.039 C 
ENDROOT
BRANCH   1   4
ATOM      4  C   UNL     1      -9.226   4.325 -17.814  1.00  0.00     0.034 C 
BRANCH   4   5
ATOM      5  C   UNL     1      -9.011   2.826 -17.574  1.00  0.00     0.032 C 
BRANCH   5   6
ATOM      6  C   UNL     1      -9.196   2.048 -18.853  1.00  0.00    -0.028 C 
ATOM      7  C   UNL     1     -11.353   1.018 -18.101  1.00  0.00     0.039 C 
ATOM      8  C   UNL     1     -10.232   1.210 -19.092  1.00  0.00    -0.080 C 
ATOM      9  C   UNL     1     -10.300   0.455 -20.394  1.00  0.00     0.039 C 
ENDBRANCH   5   6
ENDBRANCH   4   5
ENDBRANCH   1   4
BRANCH   2  10
ATOM     10  C   UNL     1     -12.121   5.297 -20.237  1.00  0.00     0.035 C 
BRANCH  10  11
ATOM     11  C   UNL     1     -12.132   5.033 -21.749  1.00  0.00     0.079 C 
BRANCH  11  12
ATOM     12  C   UNL     1     -12.853   6.125 -22.500  1.00  0.00     0.130 C 
ATOM     13  O   UNL     1     -12.241   6.801 -23.314  1.00  0.00    -0.300 OA
ATOM     14  C   UNL     1     -14.306   6.408 -22.262  1.00  0.00     0.087 C 
ENDBRANCH  11  12
ENDBRANCH  10  11
ENDBRANCH   2  10
TORSDOF 6
ENDMDL
MODEL 3
REMARK VINA RESULT:    -5.290      1.436      2.414
REMARK INTER + INTRA:          -8.095
REMARK INTER:                  -7.076
REMARK INTRA:                  -1.019
REMARK UNBOUND:                -0.949
REMARK SMILES CC(=O)CCC=C(C)CCC=C(C)C
REMARK SMILES IDX 7 1 6 2 8 3 9 4 10 5 11 6 13 7 12 8 14 9 5 10 4 11 2 12 3 13
REMARK SMILES IDX 1 14
REMARK H PARENT
REMARK Flexibility Score: inf
ROOT
ATOM      1  C   UNL     1      -8.999   3.583 -18.550  1.00  0.00    -0.077 C 
ATOM      2  C   UNL     1      -9.713   4.350 -19.404  1.00  0.00    -0.028 C 
ATOM      3  C   UNL     1      -9.133   3.740 -17.053  1.00  0.00     0.039 C 
ENDROOT
BRANCH   1   4
ATOM      4  C   UNL     1      -8.044   2.550 -19.105  1.00  0.00     0.034 C 
BRANCH   4   5
ATOM      5  C   UNL     1      -8.535   1.131 -18.795  1.00  0.00     0.032 C 
BRANCH   5   6
ATOM      6  C   UNL     1      -9.637   0.729 -19.744  1.00  0.00    -0.028 C 
ATOM      7  C   UNL     1     -11.435   0.986 -18.018  1.00  0.00     0.039 C 
ATOM      8  C   UNL     1     -10.942   0.633 -19.400  1.00  0.00    -0.080 C 
ATOM      9  C   UNL     1     -11.956   0.187 -20.421  1.00  0.00     0.039 C 
ENDBRANCH   5   6
ENDBRANCH   4   5
ENDBRANCH   1   4
BRANCH   2  10
ATOM     10  C   UNL     1     -10.690   5.407 -18.944  1.00  0.00     0.035 C 
BRANCH  10  11
ATOM     11  C   UNL     1     -12.129   5.087 -19.372  1.00  0.00     0.079 C 
BRANCH  11  12
ATOM     12  C   UNL     1     -12.503   5.801 -20.648  1.00  0.00     0.130 C 
ATOM     13  O   UNL     1     -13.033   6.900 -20.589  1.00  0.00    -0.300 OA
ATOM     14  C   UNL     1     -12.248   5.183 -21.991  1.00  0.00     0.087 C 
ENDBRANCH  11  12
ENDBRANCH  10  11
ENDBRANCH   2  10
TORSDOF 6
ENDMDL
MODEL 4
REMARK VINA RESULT:    -5.257      2.646      5.320
REMARK INTER + INTRA:          -8.051
REMARK INTER:                  -7.274
REMARK INTRA:                  -0.777
REMARK UNBOUND:                -0.949
REMARK SMILES CC(=O)CCC=C(C)CCC=C(C)C
REMARK SMILES IDX 7 1 6 2 8 3 9 4 10 5 11 6 13 7 12 8 14 9 5 10 4 11 2 12 3 13
REMARK SMILES IDX 1 14
REMARK H PARENT
REMARK Flexibility Score: inf
ROOT
ATOM      1  C   UNL     1      -9.683   3.976 -18.183  1.00  0.00    -0.077 C 
ATOM      2  C   UNL     1      -8.957   3.297 -19.098  1.00  0.00    -0.028 C 
ATOM      3  C   UNL     1      -9.932   3.417 -16.803  1.00  0.00     0.039 C 
ENDROOT
BRANCH   1   4
ATOM      4  C   UNL     1     -10.263   5.324 -18.552  1.00  0.00     0.034 C 
BRANCH   4   5
ATOM      5  C   UNL     1     -11.701   5.179 -19.061  1.00  0.00     0.032 C 
BRANCH   5   6
ATOM      6  C   UNL     1     -11.721   4.984 -20.557  1.00  0.00    -0.028 C 
ATOM      7  C   UNL     1     -13.370   6.832 -20.935  1.00  0.00     0.039 C 
ATOM      8  C   UNL     1     -12.488   5.704 -21.409  1.00  0.00    -0.080 C 
ATOM      9  C   UNL     1     -12.455   5.402 -22.884  1.00  0.00     0.039 C 
ENDBRANCH   5   6
ENDBRANCH   4   5
ENDBRANCH   1   4
BRANCH   2  10
ATOM     10  C   UNL     1      -8.339   1.945 -18.822  1.00  0.00     0.035 C 
BRANCH  10  11
ATOM     11  C   UNL     1      -8.921   0.851 -19.727  1.00  0.00     0.079 C 
BRANCH  11  12
ATOM     12  C   UNL     1     -10.364   0.560 -19.395  1.00  0.00     0.130 C 
ATOM     13  O   UNL     1     -10.629  -0.242 -18.513  1.00  0.00    -0.300 OA
ATOM     14  C   UNL     1     -11.484   1.229 -20.135  1.00  0.00     0.087 C 
ENDBRANCH  11  12
ENDBRANCH  10  11
ENDBRANCH   2  10
TORSDOF 6
ENDMDL
MODEL 5
REMARK VINA RESULT:    -5.197      2.161      3.922
REMARK INTER + INTRA:          -7.969
REMARK INTER:                  -7.247
REMARK INTRA:                  -0.723
REMARK UNBOUND:                -0.949
REMARK SMILES CC(=O)CCC=C(C)CCC=C(C)C
REMARK SMILES IDX 7 1 6 2 8 3 9 4 10 5 11 6 13 7 12 8 14 9 5 10 4 11 2 12 3 13
REMARK SMILES IDX 1 14
REMARK H PARENT
REMARK Flexibility Score: inf
ROOT
ATOM      1  C   UNL     1     -10.456   1.347 -19.123  1.00  0.00    -0.077 C 
ATOM      2  C   UNL     1     -11.352   1.878 -18.262  1.00  0.00    -0.028 C 
ATOM      3  C   UNL     1      -9.055   1.900 -19.240  1.00  0.00     0.039 C 
ENDROOT
BRANCH   1   4
ATOM      4  C   UNL     1     -10.866   0.178 -19.991  1.00  0.00     0.034 C 
BRANCH   4   5
ATOM      5  C   UNL     1     -12.372  -0.083 -19.877  1.00  0.00     0.032 C 
BRANCH   5   6
ATOM      6  C   UNL     1     -12.794  -1.191 -20.810  1.00  0.00    -0.028 C 
ATOM      7  C   UNL     1     -14.996  -1.532 -19.666  1.00  0.00     0.039 C 
ATOM      8  C   UNL     1     -13.961  -1.869 -20.710  1.00  0.00    -0.080 C 
ATOM      9  C   UNL     1     -14.266  -2.982 -21.677  1.00  0.00     0.039 C 
ENDBRANCH   5   6
ENDBRANCH   4   5
ENDBRANCH   1   4
BRANCH   2  10
ATOM     10  C   UNL     1     -11.035   3.045 -17.357  1.00  0.00     0.035 C 
BRANCH  10  11
ATOM     11  C   UNL     1     -11.761   4.326 -17.792  1.00  0.00     0.079 C 
BRANCH  11  12
ATOM     12  C   UNL     1     -11.144   4.923 -19.032  1.00  0.00     0.130 C 
ATOM     13  O   UNL     1     -10.028   5.417 -18.971  1.00  0.00    -0.300 OA
ATOM     14  C   UNL     1     -11.878   4.935 -20.341  1.00  0.00     0.087 C 
ENDBRANCH  11  12
ENDBRANCH  10  11
ENDBRANCH   2  10
TORSDOF 6
ENDMDL
MODEL 6
REMARK VINA RESULT:    -5.168      2.947      5.289
REMARK INTER + INTRA:          -7.930
REMARK INTER:                  -7.704
REMARK INTRA:                  -0.226
REMARK UNBOUND:                -0.949
REMARK SMILES CC(=O)CCC=C(C)CCC=C(C)C
REMARK SMILES IDX 7 1 6 2 8 3 9 4 10 5 11 6 13 7 12 8 14 9 5 10 4 11 2 12 3 13
REMARK SMILES IDX 1 14
REMARK H PARENT
REMARK Flexibility Score: inf
ROOT
ATOM      1  C   UNL     1      -9.074   2.390 -18.351  1.00  0.00    -0.077 C 
ATOM      2  C   UNL     1     -10.034   1.737 -19.043  1.00  0.00    -0.028 C 
ATOM      3  C   UNL     1      -7.611   2.057 -18.530  1.00  0.00     0.039 C 
ENDROOT
BRANCH   1   4
ATOM      4  C   UNL     1      -9.473   3.474 -17.375  1.00  0.00     0.034 C 
BRANCH   4   5
ATOM      5  C   UNL     1      -9.365   4.859 -18.024  1.00  0.00     0.032 C 
BRANCH   5   6
ATOM      6  C   UNL     1      -9.941   4.842 -19.418  1.00  0.00    -0.028 C 
ATOM      7  C   UNL     1     -12.255   5.403 -18.642  1.00  0.00     0.039 C 
ATOM      8  C   UNL     1     -11.245   5.058 -19.708  1.00  0.00    -0.080 C 
ATOM      9  C   UNL     1     -11.718   4.984 -21.136  1.00  0.00     0.039 C 
ENDBRANCH   5   6
ENDBRANCH   4   5
ENDBRANCH   1   4
BRANCH   2  10
ATOM     10  C   UNL     1      -9.732   0.640 -20.038  1.00  0.00     0.035 C 
BRANCH  10  11
ATOM     11  C   UNL     1     -10.992  -0.141 -20.434  1.00  0.00     0.079 C 
BRANCH  11  12
ATOM     12  C   UNL     1     -11.857  -0.448 -19.236  1.00  0.00     0.130 C 
ATOM     13  O   UNL     1     -11.339  -0.856 -18.208  1.00  0.00    -0.300 OA
ATOM     14  C   UNL     1     -13.346  -0.273 -19.284  1.00  0.00     0.087 C 
ENDBRANCH  11  12
ENDBRANCH  10  11
ENDBRANCH   2  10
TORSDOF 6
ENDMDL
MODEL 7
REMARK VINA RESULT:    -5.115      2.890      5.019
REMARK INTER + INTRA:          -7.859
REMARK INTER:                  -7.309
REMARK INTRA:                  -0.550
REMARK UNBOUND:                -0.949
REMARK SMILES CC(=O)CCC=C(C)CCC=C(C)C
REMARK SMILES IDX 7 1 6 2 8 3 9 4 10 5 11 6 13 7 12 8 14 9 5 10 4 11 2 12 3 13
REMARK SMILES IDX 1 14
REMARK H PARENT
REMARK Flexibility Score: inf
ROOT
ATOM      1  C   UNL     1     -11.682   3.539 -18.522  1.00  0.00    -0.077 C 
ATOM      2  C   UNL     1     -11.693   2.261 -18.964  1.00  0.00    -0.028 C 
ATOM      3  C   UNL     1     -12.121   3.890 -17.120  1.00  0.00     0.039 C 
ENDROOT
BRANCH   1   4
ATOM      4  C   UNL     1     -11.225   4.639 -19.454  1.00  0.00     0.034 C 
BRANCH   4   5
ATOM      5  C   UNL     1      -9.778   5.044 -19.149  1.00  0.00     0.032 C 
BRANCH   5   6
ATOM      6  C   UNL     1      -8.855   3.857 -19.265  1.00  0.00    -0.028 C 
ATOM      7  C   UNL     1      -8.678   3.551 -16.785  1.00  0.00     0.039 C 
ATOM      8  C   UNL     1      -8.332   3.192 -18.209  1.00  0.00    -0.080 C 
ATOM      9  C   UNL     1      -7.392   2.039 -18.440  1.00  0.00     0.039 C 
ENDBRANCH   5   6
ENDBRANCH   4   5
ENDBRANCH   1   4
BRANCH   2  10
ATOM     10  C   UNL     1     -12.133   1.096 -18.108  1.00  0.00     0.035 C 
BRANCH  10  11
ATOM     11  C   UNL     1     -11.506  -0.227 -18.569  1.00  0.00     0.079 C 
BRANCH  11  12
ATOM     12  C   UNL     1     -11.840  -0.529 -20.009  1.00  0.00     0.130 C 
ATOM     13  O   UNL     1     -10.946  -0.556 -20.842  1.00  0.00    -0.300 OA
ATOM     14  C   UNL     1     -13.252  -0.788 -20.446  1.00  0.00     0.087 C 
ENDBRANCH  11  12
ENDBRANCH  10  11
ENDBRANCH   2  10
TORSDOF 6
ENDMDL
MODEL 8
REMARK VINA RESULT:    -5.020      2.199      5.402
REMARK INTER + INTRA:          -7.731
REMARK INTER:                  -7.291
REMARK INTRA:                  -0.439
REMARK UNBOUND:                -0.949
REMARK SMILES CC(=O)CCC=C(C)CCC=C(C)C
REMARK SMILES IDX 7 1 6 2 8 3 9 4 10 5 11 6 13 7 12 8 14 9 5 10 4 11 2 12 3 13
REMARK SMILES IDX 1 14
REMARK H PARENT
REMARK Flexibility Score: inf
ROOT
ATOM      1  C   UNL     1     -10.691   3.903 -18.025  1.00  0.00    -0.077 C 
ATOM      2  C   UNL     1     -11.518   2.860 -18.259  1.00  0.00    -0.028 C 
ATOM      3  C   UNL     1      -9.552   3.797 -17.038  1.00  0.00     0.039 C 
ENDROOT
BRANCH   1   4
ATOM      4  C   UNL     1     -10.914   5.205 -18.763  1.00  0.00     0.034 C 
BRANCH   4   5
ATOM      5  C   UNL     1     -11.328   4.943 -20.215  1.00  0.00     0.032 C 
BRANCH   5   6
ATOM      6  C   UNL     1     -12.648   5.607 -20.522  1.00  0.00    -0.028 C 
ATOM      7  C   UNL     1     -12.244   5.627 -22.995  1.00  0.00     0.039 C 
ATOM      8  C   UNL     1     -13.060   5.944 -21.766  1.00  0.00    -0.080 C 
ATOM      9  C   UNL     1     -14.385   6.636 -21.955  1.00  0.00     0.039 C 
ENDBRANCH   5   6
ENDBRANCH   4   5
ENDBRANCH   1   4
BRANCH   2  10
ATOM     10  C   UNL     1     -11.375   1.523 -17.570  1.00  0.00     0.035 C 
BRANCH  10  11
ATOM     11  C   UNL     1     -11.712   0.354 -18.506  1.00  0.00     0.079 C 
BRANCH  11  12
ATOM     12  C   UNL     1     -10.797   0.316 -19.704  1.00  0.00     0.130 C 
ATOM     13  O   UNL     1     -11.193  -0.176 -20.749  1.00  0.00    -0.300 OA
ATOM     14  C   UNL     1      -9.401   0.862 -19.637  1.00  0.00     0.087 C 
ENDBRANCH  11  12
ENDBRANCH  10  11
ENDBRANCH   2  10
TORSDOF 6
ENDMDL
MODEL 9
REMARK VINA RESULT:    -4.487      3.037      4.788
REMARK INTER + INTRA:          -7.010
REMARK INTER:                  -6.522
REMARK INTRA:                  -0.488
REMARK UNBOUND:                -0.949
REMARK SMILES CC(=O)CCC=C(C)CCC=C(C)C
REMARK SMILES IDX 7 1 6 2 8 3 9 4 10 5 11 6 13 7 12 8 14 9 5 10 4 11 2 12 3 13
REMARK SMILES IDX 1 14
REMARK H PARENT
REMARK Flexibility Score: inf
ROOT
ATOM      1  C   UNL     1     -11.316   1.819 -19.454  1.00  0.00    -0.077 C 
ATOM      2  C   UNL     1     -11.014   3.016 -20.003  1.00  0.00    -0.028 C 
ATOM      3  C   UNL     1     -11.489   1.658 -17.962  1.00  0.00     0.039 C 
ENDROOT
BRANCH   1   4
ATOM      4  C   UNL     1     -11.481   0.614 -20.354  1.00  0.00     0.034 C 
BRANCH   4   5
ATOM      5  C   UNL     1     -12.485  -0.379 -19.756  1.00  0.00     0.032 C 
BRANCH   5   6
ATOM      6  C   UNL     1     -12.949  -1.363 -20.800  1.00  0.00    -0.028 C 
ATOM      7  C   UNL     1     -15.125  -1.809 -19.641  1.00  0.00     0.039 C 
ATOM      8  C   UNL     1     -14.123  -2.034 -20.747  1.00  0.00    -0.080 C 
ATOM      9  C   UNL     1     -14.473  -3.022 -21.829  1.00  0.00     0.039 C 
ENDBRANCH   5   6
ENDBRANCH   4   5
ENDBRANCH   1   4
BRANCH   2  10
ATOM     10  C   UNL     1     -10.829   4.275 -19.186  1.00  0.00     0.035 C 
BRANCH  10  11
ATOM     11  C   UNL     1      -9.347   4.626 -18.998  1.00  0.00     0.079 C 
BRANCH  11  12
ATOM     12  C   UNL     1      -8.722   3.827 -17.881  1.00  0.00     0.130 C 
ATOM     13  O   UNL     1      -7.784   3.084 -18.125  1.00  0.00    -0.300 OA
ATOM     14  C   UNL     1      -9.236   3.917 -16.475  1.00  0.00     0.087 C 
ENDBRANCH  11  12
ENDBRANCH  10  11
ENDBRANCH   2  10
TORSDOF 6
ENDMDL
