MODEL 1
REMARK VINA RESULT:    -0.739      0.000      0.000
REMARK INTER + INTRA:          -0.739
REMARK INTER:                  -0.739
REMARK INTRA:                   0.000
REMARK UNBOUND:                 0.000
REMARK SMILES CC(=O)[O-]
REMARK SMILES IDX 1 1 2 2 3 3 4 4
REMARK H PARENT
REMARK Flexibility Score: inf
ROOT
ATOM      1  C   UNL     1     -30.033 -19.740  -9.399  1.00  0.00     0.063 C 
ATOM      2  C   UNL     1     -30.034 -19.764  -7.907  1.00  0.00     0.038 C 
ATOM      3  O   UNL     1     -31.123 -19.746  -7.276  1.00  0.00    -0.550 OA
ATOM      4  O   UNL     1     -28.833 -19.753  -7.210  1.00  0.00    -0.550 OA
ENDROOT
TORSDOF 0
ENDMDL
MODEL 2
REMARK VINA RESULT:    -0.075      1.441      2.035
REMARK INTER + INTRA:          -0.075
REMARK INTER:                  -0.075
REMARK INTRA:                   0.000
REMARK UNBOUND:                 0.000
REMARK SMILES CC(=O)[O-]
REMARK SMILES IDX 1 1 2 2 3 3 4 4
REMARK H PARENT
REMARK Flexibility Score: inf
ROOT
ATOM      1  C   UNL     1     -31.124 -19.752  -7.753  1.00  0.00     0.063 C 
ATOM      2  C   UNL     1     -29.744 -19.732  -8.319  1.00  0.00     0.038 C 
ATOM      3  O   UNL     1     -28.751 -19.607  -7.556  1.00  0.00    -0.550 OA
ATOM      4  O   UNL     1     -29.554 -19.797  -9.693  1.00  0.00    -0.550 OA
ENDROOT
TORSDOF 0
ENDMDL
MODEL 3
REMARK VINA RESULT:     0.441     18.900     19.057
REMARK INTER + INTRA:           0.441
REMARK INTER:                   0.441
REMARK INTRA:                   0.000
REMARK UNBOUND:                 0.000
REMARK SMILES CC(=O)[O-]
REMARK SMILES IDX 1 1 2 2 3 3 4 4
REMARK H PARENT
REMARK Flexibility Score: inf
ROOT
ATOM      1  C   UNL     1     -17.573 -21.508 -22.188  1.00  0.00     0.063 C 
ATOM      2  C   UNL     1     -16.483 -21.556 -21.170  1.00  0.00     0.038 C 
ATOM      3  O   UNL     1     -15.728 -20.562 -21.007  1.00  0.00    -0.550 OA
ATOM      4  O   UNL     1     -16.264 -22.716 -20.438  1.00  0.00    -0.550 OA
ENDROOT
TORSDOF 0
ENDMDL
MODEL 4
REMARK VINA RESULT:     1.044     18.846     19.152
REMARK INTER + INTRA:           1.044
REMARK INTER:                   1.044
REMARK INTRA:                   0.000
REMARK UNBOUND:                 0.000
REMARK SMILES CC(=O)[O-]
REMARK SMILES IDX 1 1 2 2 3 3 4 4
REMARK H PARENT
REMARK Flexibility Score: inf
ROOT
ATOM      1  C   UNL     1     -16.021 -21.241 -20.680  1.00  0.00     0.063 C 
ATOM      2  C   UNL     1     -16.995 -21.723 -21.703  1.00  0.00     0.038 C 
ATOM      3  O   UNL     1     -16.853 -22.860 -22.223  1.00  0.00    -0.550 OA
ATOM      4  O   UNL     1     -18.029 -20.897 -22.122  1.00  0.00    -0.550 OA
ENDROOT
TORSDOF 0
ENDMDL
MODEL 5
REMARK VINA RESULT:     1.510     18.744     19.267
REMARK INTER + INTRA:           1.510
REMARK INTER:                   1.510
REMARK INTRA:                   0.000
REMARK UNBOUND:                 0.000
REMARK SMILES CC(=O)[O-]
REMARK SMILES IDX 1 1 2 2 3 3 4 4
REMARK H PARENT
REMARK Flexibility Score: inf
ROOT
ATOM      1  C   UNL     1     -20.162 -12.976 -24.561  1.00  0.00     0.063 C 
ATOM      2  C   UNL     1     -21.360 -13.619 -23.948  1.00  0.00     0.038 C 
ATOM      3  O   UNL     1     -22.106 -14.357 -24.644  1.00  0.00    -0.550 OA
ATOM      4  O   UNL     1     -21.687 -13.362 -22.623  1.00  0.00    -0.550 OA
ENDROOT
TORSDOF 0
ENDMDL
MODEL 6
REMARK VINA RESULT:     1.970     16.420     16.478
REMARK INTER + INTRA:           1.970
REMARK INTER:                   1.970
REMARK INTRA:                   0.000
REMARK UNBOUND:                 0.000
REMARK SMILES CC(=O)[O-]
REMARK SMILES IDX 1 1 2 2 3 3 4 4
REMARK H PARENT
REMARK Flexibility Score: inf
ROOT
ATOM      1  C   UNL     1     -29.800  -4.439  -9.832  1.00  0.00     0.063 C 
ATOM      2  C   UNL     1     -29.250  -3.603 -10.938  1.00  0.00     0.038 C 
ATOM      3  O   UNL     1     -30.017  -2.875 -11.621  1.00  0.00    -0.550 OA
ATOM      4  O   UNL     1     -27.898  -3.665 -11.252  1.00  0.00    -0.550 OA
ENDROOT
TORSDOF 0
ENDMDL
MODEL 7
REMARK VINA RESULT:     1.984     16.388     16.507
REMARK INTER + INTRA:           1.984
REMARK INTER:                   1.984
REMARK INTRA:                   0.000
REMARK UNBOUND:                 0.000
REMARK SMILES CC(=O)[O-]
REMARK SMILES IDX 1 1 2 2 3 3 4 4
REMARK H PARENT
REMARK Flexibility Score: inf
ROOT
ATOM      1  C   UNL     1     -30.252  -2.875 -11.694  1.00  0.00     0.063 C 
ATOM      2  C   UNL     1     -29.247  -3.609 -10.871  1.00  0.00     0.038 C 
ATOM      3  O   UNL     1     -28.041  -3.250 -10.880  1.00  0.00    -0.550 OA
ATOM      4  O   UNL     1     -29.630  -4.722 -10.134  1.00  0.00    -0.550 OA
ENDROOT
TORSDOF 0
ENDMDL
MODEL 8
REMARK VINA RESULT:     2.115     17.922     18.464
REMARK INTER + INTRA:           2.115
REMARK INTER:                   2.115
REMARK INTRA:                   0.000
REMARK UNBOUND:                 0.000
REMARK SMILES CC(=O)[O-]
REMARK SMILES IDX 1 1 2 2 3 3 4 4
REMARK H PARENT
REMARK Flexibility Score: inf
ROOT
ATOM      1  C   UNL     1     -22.450 -14.836 -24.031  1.00  0.00     0.063 C 
ATOM      2  C   UNL     1     -21.708 -13.802 -23.250  1.00  0.00     0.038 C 
ATOM      3  O   UNL     1     -21.900 -13.689 -22.011  1.00  0.00    -0.550 OA
ATOM      4  O   UNL     1     -20.845 -12.928 -23.897  1.00  0.00    -0.550 OA
ENDROOT
TORSDOF 0
ENDMDL
MODEL 9
REMARK VINA RESULT:     2.199     16.498     16.557
REMARK INTER + INTRA:           2.199
REMARK INTER:                   2.199
REMARK INTRA:                   0.000
REMARK UNBOUND:                 0.000
REMARK SMILES CC(=O)[O-]
REMARK SMILES IDX 1 1 2 2 3 3 4 4
REMARK H PARENT
REMARK Flexibility Score: inf
ROOT
ATOM      1  C   UNL     1     -27.793  -3.301 -10.972  1.00  0.00     0.063 C 
ATOM      2  C   UNL     1     -29.261  -3.567 -10.982  1.00  0.00     0.038 C 
ATOM      3  O   UNL     1     -30.023  -2.875 -11.706  1.00  0.00    -0.550 OA
ATOM      4  O   UNL     1     -29.797  -4.544 -10.154  1.00  0.00    -0.550 OA
ENDROOT
TORSDOF 0
ENDMDL
