MODEL 1
REMARK VINA RESULT:    -2.958      0.000      0.000
REMARK INTER + INTRA:          -3.776
REMARK INTER:                  -3.563
REMARK INTRA:                  -0.212
REMARK UNBOUND:                -0.212
REMARK SMILES OCC(O)CO
REMARK SMILES IDX 3 1 5 2 6 3 2 5 1 6 4 8
REMARK H PARENT 6 4 1 7 4 9
REMARK Flexibility Score: inf
ROOT
ATOM      1  C   UNL     1       9.679  20.177  54.392  1.00  0.00     0.165 C 
ENDROOT
BRANCH   1   2
ATOM      2  C   UNL     1       9.897  19.140  53.278  1.00  0.00     0.190 C 
BRANCH   2   3
ATOM      3  O   UNL     1       9.172  19.492  52.131  1.00  0.00    -0.394 OA
ATOM      4  H   UNL     1       8.214  19.510  52.395  1.00  0.00     0.210 HD
ENDBRANCH   2   3
ENDBRANCH   1   2
BRANCH   1   5
ATOM      5  C   UNL     1       8.699  21.275  53.943  1.00  0.00     0.190 C 
BRANCH   5   6
ATOM      6  O   UNL     1       9.386  22.308  53.290  1.00  0.00    -0.394 OA
ATOM      7  H   UNL     1       9.414  23.075  53.920  1.00  0.00     0.210 HD
ENDBRANCH   5   6
ENDBRANCH   1   5
BRANCH   1   8
ATOM      8  O   UNL     1      10.905  20.737  54.795  1.00  0.00    -0.388 OA
ATOM      9  H   UNL     1      11.619  20.325  54.240  1.00  0.00     0.211 HD
ENDBRANCH   1   8
TORSDOF 5
ENDMDL
MODEL 2
REMARK VINA RESULT:    -2.944      0.797      2.462
REMARK INTER + INTRA:          -3.758
REMARK INTER:                  -3.534
REMARK INTRA:                  -0.224
REMARK UNBOUND:                -0.212
REMARK SMILES OCC(O)CO
REMARK SMILES IDX 3 1 5 2 6 3 2 5 1 6 4 8
REMARK H PARENT 6 4 1 7 4 9
REMARK Flexibility Score: inf
ROOT
ATOM      1  C   UNL     1       8.914  19.826  53.911  1.00  0.00     0.165 C 
ENDROOT
BRANCH   1   2
ATOM      2  C   UNL     1       8.069  21.104  53.774  1.00  0.00     0.190 C 
BRANCH   2   3
ATOM      3  O   UNL     1       8.869  22.179  53.361  1.00  0.00    -0.394 OA
ATOM      4  H   UNL     1       9.597  22.266  54.032  1.00  0.00     0.210 HD
ENDBRANCH   2   3
ENDBRANCH   1   2
BRANCH   1   5
ATOM      5  C   UNL     1       9.855  19.911  55.125  1.00  0.00     0.190 C 
BRANCH   5   6
ATOM      6  O   UNL     1      10.964  20.717  54.829  1.00  0.00    -0.394 OA
ATOM      7  H   UNL     1      10.738  21.636  55.128  1.00  0.00     0.210 HD
ENDBRANCH   5   6
ENDBRANCH   1   5
BRANCH   1   8
ATOM      8  O   UNL     1       9.640  19.583  52.731  1.00  0.00    -0.388 OA
ATOM      9  H   UNL     1      10.429  20.187  52.736  1.00  0.00     0.211 HD
ENDBRANCH   1   8
TORSDOF 5
ENDMDL
MODEL 3
REMARK VINA RESULT:    -2.898      1.408      2.388
REMARK INTER + INTRA:          -3.703
REMARK INTER:                  -3.700
REMARK INTRA:                  -0.003
REMARK UNBOUND:                -0.212
REMARK SMILES OCC(O)CO
REMARK SMILES IDX 3 1 5 2 6 3 2 5 1 6 4 8
REMARK H PARENT 6 4 1 7 4 9
REMARK Flexibility Score: inf
ROOT
ATOM      1  C   UNL     1       8.812  21.323  53.908  1.00  0.00     0.165 C 
ENDROOT
BRANCH   1   2
ATOM      2  C   UNL     1       9.873  20.226  54.100  1.00  0.00     0.190 C 
BRANCH   2   3
ATOM      3  O   UNL     1      10.952  20.713  54.850  1.00  0.00    -0.394 OA
ATOM      4  H   UNL     1      10.608  20.881  55.767  1.00  0.00     0.210 HD
ENDBRANCH   2   3
ENDBRANCH   1   2
BRANCH   1   5
ATOM      5  C   UNL     1       7.582  20.780  53.161  1.00  0.00     0.190 C 
BRANCH   5   6
ATOM      6  O   UNL     1       6.581  21.759  53.090  1.00  0.00    -0.394 OA
ATOM      7  H   UNL     1       6.002  21.520  52.320  1.00  0.00     0.210 HD
ENDBRANCH   5   6
ENDBRANCH   1   5
BRANCH   1   8
ATOM      8  O   UNL     1       9.359  22.428  53.233  1.00  0.00    -0.388 OA
ATOM      9  H   UNL     1       8.662  23.135  53.201  1.00  0.00     0.211 HD
ENDBRANCH   1   8
TORSDOF 5
ENDMDL
MODEL 4
REMARK VINA RESULT:    -2.872     19.408     20.648
REMARK INTER + INTRA:          -3.671
REMARK INTER:                  -3.453
REMARK INTRA:                  -0.218
REMARK UNBOUND:                -0.212
REMARK SMILES OCC(O)CO
REMARK SMILES IDX 3 1 5 2 6 3 2 5 1 6 4 8
REMARK H PARENT 6 4 1 7 4 9
REMARK Flexibility Score: inf
ROOT
ATOM      1  C   UNL     1       9.286  10.439  35.192  1.00  0.00     0.165 C 
ENDROOT
BRANCH   1   2
ATOM      2  C   UNL     1       9.764   8.996  35.423  1.00  0.00     0.190 C 
BRANCH   2   3
ATOM      3  O   UNL     1       8.959   8.360  36.379  1.00  0.00    -0.394 OA
ATOM      4  H   UNL     1       8.111   8.119  35.921  1.00  0.00     0.210 HD
ENDBRANCH   2   3
ENDBRANCH   1   2
BRANCH   1   5
ATOM      5  C   UNL     1       9.858  11.390  36.257  1.00  0.00     0.190 C 
BRANCH   5   6
ATOM      6  O   UNL     1      10.307  10.665  37.370  1.00  0.00    -0.394 OA
ATOM      7  H   UNL     1      10.334   9.710  37.097  1.00  0.00     0.210 HD
ENDBRANCH   5   6
ENDBRANCH   1   5
BRANCH   1   8
ATOM      8  O   UNL     1       7.881  10.499  35.172  1.00  0.00    -0.388 OA
ATOM      9  H   UNL     1       7.545   9.884  35.876  1.00  0.00     0.211 HD
ENDBRANCH   1   8
TORSDOF 5
ENDMDL
MODEL 5
REMARK VINA RESULT:    -2.860      0.760      2.410
REMARK INTER + INTRA:          -3.657
REMARK INTER:                  -3.645
REMARK INTRA:                  -0.012
REMARK UNBOUND:                -0.212
REMARK SMILES OCC(O)CO
REMARK SMILES IDX 3 1 5 2 6 3 2 5 1 6 4 8
REMARK H PARENT 6 4 1 7 4 9
REMARK Flexibility Score: inf
ROOT
ATOM      1  C   UNL     1       8.824  20.913  53.934  1.00  0.00     0.165 C 
ENDROOT
BRANCH   1   2
ATOM      2  C   UNL     1       9.855  19.945  54.538  1.00  0.00     0.190 C 
BRANCH   2   3
ATOM      3  O   UNL     1      11.001  20.641  54.946  1.00  0.00    -0.394 OA
ATOM      4  H   UNL     1      11.374  21.075  54.133  1.00  0.00     0.210 HD
ENDBRANCH   2   3
ENDBRANCH   1   2
BRANCH   1   5
ATOM      5  C   UNL     1       7.926  20.198  52.910  1.00  0.00     0.190 C 
BRANCH   5   6
ATOM      6  O   UNL     1       8.706  19.547  51.944  1.00  0.00    -0.394 OA
ATOM      7  H   UNL     1       9.507  20.114  51.794  1.00  0.00     0.210 HD
ENDBRANCH   5   6
ENDBRANCH   1   5
BRANCH   1   8
ATOM      8  O   UNL     1       9.466  22.019  53.349  1.00  0.00    -0.388 OA
ATOM      9  H   UNL     1       9.310  22.803  53.940  1.00  0.00     0.211 HD
ENDBRANCH   1   8
TORSDOF 5
ENDMDL
MODEL 6
REMARK VINA RESULT:    -2.812     20.636     20.913
REMARK INTER + INTRA:          -3.600
REMARK INTER:                  -3.378
REMARK INTRA:                  -0.222
REMARK UNBOUND:                -0.212
REMARK SMILES OCC(O)CO
REMARK SMILES IDX 3 1 5 2 6 3 2 5 1 6 4 8
REMARK H PARENT 6 4 1 7 4 9
REMARK Flexibility Score: inf
ROOT
ATOM      1  C   UNL     1      10.093  10.243  35.939  1.00  0.00     0.165 C 
ENDROOT
BRANCH   1   2
ATOM      2  C   UNL     1       9.720   8.811  35.522  1.00  0.00     0.190 C 
BRANCH   2   3
ATOM      3  O   UNL     1       8.955   8.193  36.521  1.00  0.00    -0.394 OA
ATOM      4  H   UNL     1       9.581   7.969  37.260  1.00  0.00     0.210 HD
ENDBRANCH   2   3
ENDBRANCH   1   2
BRANCH   1   5
ATOM      5  C   UNL     1       8.961  11.230  35.606  1.00  0.00     0.190 C 
BRANCH   5   6
ATOM      6  O   UNL     1       7.865  10.550  35.057  1.00  0.00    -0.394 OA
ATOM      7  H   UNL     1       7.213  10.416  35.793  1.00  0.00     0.210 HD
ENDBRANCH   5   6
ENDBRANCH   1   5
BRANCH   1   8
ATOM      8  O   UNL     1      11.297  10.640  35.329  1.00  0.00    -0.388 OA
ATOM      9  H   UNL     1      11.507  11.557  35.649  1.00  0.00     0.211 HD
ENDBRANCH   1   8
TORSDOF 5
ENDMDL
MODEL 7
REMARK VINA RESULT:    -2.802     19.988     20.975
REMARK INTER + INTRA:          -3.588
REMARK INTER:                  -3.376
REMARK INTRA:                  -0.212
REMARK UNBOUND:                -0.212
REMARK SMILES OCC(O)CO
REMARK SMILES IDX 3 1 5 2 6 3 2 5 1 6 4 8
REMARK H PARENT 6 4 1 7 4 9
REMARK Flexibility Score: inf
ROOT
ATOM      1  C   UNL     1      10.176  10.149  35.919  1.00  0.00     0.165 C 
ENDROOT
BRANCH   1   2
ATOM      2  C   UNL     1       9.031  11.144  35.665  1.00  0.00     0.190 C 
BRANCH   2   3
ATOM      3  O   UNL     1       7.928  10.489  35.101  1.00  0.00    -0.394 OA
ATOM      4  H   UNL     1       7.276  11.195  34.848  1.00  0.00     0.210 HD
ENDBRANCH   2   3
ENDBRANCH   1   2
BRANCH   1   5
ATOM      5  C   UNL     1       9.997   8.873  35.079  1.00  0.00     0.190 C 
BRANCH   5   6
ATOM      6  O   UNL     1       9.345   7.882  35.826  1.00  0.00    -0.394 OA
ATOM      7  H   UNL     1       9.824   7.030  35.651  1.00  0.00     0.210 HD
ENDBRANCH   5   6
ENDBRANCH   1   5
BRANCH   1   8
ATOM      8  O   UNL     1      10.267   9.838  37.288  1.00  0.00    -0.388 OA
ATOM      9  H   UNL     1      10.446   8.863  37.362  1.00  0.00     0.211 HD
ENDBRANCH   1   8
TORSDOF 5
ENDMDL
MODEL 8
REMARK VINA RESULT:    -2.743      1.124      2.235
REMARK INTER + INTRA:          -3.516
REMARK INTER:                  -3.293
REMARK INTRA:                  -0.223
REMARK UNBOUND:                -0.212
REMARK SMILES OCC(O)CO
REMARK SMILES IDX 3 1 5 2 6 3 2 5 1 6 4 8
REMARK H PARENT 6 4 1 7 4 9
REMARK Flexibility Score: inf
ROOT
ATOM      1  C   UNL     1       8.991  19.844  53.842  1.00  0.00     0.165 C 
ENDROOT
BRANCH   1   2
ATOM      2  C   UNL     1       9.912  19.912  55.072  1.00  0.00     0.190 C 
BRANCH   2   3
ATOM      3  O   UNL     1      10.993  20.771  54.828  1.00  0.00    -0.394 OA
ATOM      4  H   UNL     1      11.030  20.909  53.844  1.00  0.00     0.210 HD
ENDBRANCH   2   3
ENDBRANCH   1   2
BRANCH   1   5
ATOM      5  C   UNL     1       8.120  21.107  53.732  1.00  0.00     0.190 C 
BRANCH   5   6
ATOM      6  O   UNL     1       8.894  22.202  53.320  1.00  0.00    -0.394 OA
ATOM      7  H   UNL     1       8.954  22.818  54.096  1.00  0.00     0.210 HD
ENDBRANCH   5   6
ENDBRANCH   1   5
BRANCH   1   8
ATOM      8  O   UNL     1       8.192  18.688  53.884  1.00  0.00    -0.388 OA
ATOM      9  H   UNL     1       7.664  18.657  53.043  1.00  0.00     0.211 HD
ENDBRANCH   1   8
TORSDOF 5
ENDMDL
MODEL 9
REMARK VINA RESULT:    -2.689     13.236     13.668
REMARK INTER + INTRA:          -3.452
REMARK INTER:                  -3.233
REMARK INTRA:                  -0.219
REMARK UNBOUND:                -0.212
REMARK SMILES OCC(O)CO
REMARK SMILES IDX 3 1 5 2 6 3 2 5 1 6 4 8
REMARK H PARENT 6 4 1 7 4 9
REMARK Flexibility Score: inf
ROOT
ATOM      1  C   UNL     1      13.016  20.584  40.138  1.00  0.00     0.165 C 
ENDROOT
BRANCH   1   2
ATOM      2  C   UNL     1      14.531  20.323  40.171  1.00  0.00     0.190 C 
BRANCH   2   3
ATOM      3  O   UNL     1      14.999  20.320  41.492  1.00  0.00    -0.394 OA
ATOM      4  H   UNL     1      15.978  20.153  41.446  1.00  0.00     0.210 HD
ENDBRANCH   2   3
ENDBRANCH   1   2
BRANCH   1   5
ATOM      5  C   UNL     1      12.644  21.800  41.004  1.00  0.00     0.190 C 
BRANCH   5   6
ATOM      6  O   UNL     1      13.537  22.856  40.773  1.00  0.00    -0.394 OA
ATOM      7  H   UNL     1      14.334  22.686  41.340  1.00  0.00     0.210 HD
ENDBRANCH   5   6
ENDBRANCH   1   5
BRANCH   1   8
ATOM      8  O   UNL     1      12.306  19.441  40.551  1.00  0.00    -0.388 OA
ATOM      9  H   UNL     1      12.959  18.818  40.967  1.00  0.00     0.211 HD
ENDBRANCH   1   8
TORSDOF 5
ENDMDL
