MODEL 1
REMARK VINA RESULT:    -4.879      0.000      0.000
REMARK INTER + INTRA:          -4.879
REMARK INTER:                  -4.879
REMARK INTRA:                   0.000
REMARK UNBOUND:                 0.000
REMARK SMILES CC1=CC[C@@]2(C)CCCC(C)(C)[C@]23C[C@H]13
REMARK SMILES IDX 1 1 2 2 3 3 4 4 5 5 7 6 8 7 9 8 10 9 13 10 15 11 14 12 11 13
REMARK SMILES IDX 12 14 6 15
REMARK H PARENT
REMARK Flexibility Score: inf
ROOT
ATOM      1  C   UNL     1      33.123  10.580  33.342  1.00  0.00     0.039 C 
ATOM      2  C   UNL     1      31.892   9.785  33.689  1.00  0.00    -0.074 C 
ATOM      3  C   UNL     1      31.365   8.982  32.759  1.00  0.00    -0.027 C 
ATOM      4  C   UNL     1      30.044   8.322  32.955  1.00  0.00     0.034 C 
ATOM      5  C   UNL     1      29.787   7.790  34.400  1.00  0.00    -0.022 C 
ATOM      6  C   UNL     1      30.426   6.372  34.575  1.00  0.00     0.008 C 
ATOM      7  C   UNL     1      31.774   6.413  35.301  1.00  0.00     0.001 C 
ATOM      8  C   UNL     1      31.640   6.915  36.755  1.00  0.00     0.007 C 
ATOM      9  C   UNL     1      30.644   8.113  36.952  1.00  0.00    -0.029 C 
ATOM     10  C   UNL     1      30.331   8.759  35.532  1.00  0.00    -0.012 C 
ATOM     11  C   UNL     1      31.390   9.809  35.114  1.00  0.00     0.022 C 
ATOM     12  C   UNL     1      29.947  10.239  35.368  1.00  0.00     0.017 C 
ATOM     13  C   UNL     1      31.260   9.082  38.007  1.00  0.00     0.012 C 
ATOM     14  C   UNL     1      29.331   7.588  37.588  1.00  0.00     0.012 C 
ATOM     15  C   UNL     1      28.242   7.656  34.503  1.00  0.00     0.012 C 
ENDROOT
TORSDOF 0
ENDMDL
MODEL 2
REMARK VINA RESULT:    -4.683      0.915      1.010
REMARK INTER + INTRA:          -4.683
REMARK INTER:                  -4.683
REMARK INTRA:                   0.000
REMARK UNBOUND:                 0.000
REMARK SMILES CC1=CC[C@@]2(C)CCCC(C)(C)[C@]23C[C@H]13
REMARK SMILES IDX 1 1 2 2 3 3 4 4 5 5 7 6 8 7 9 8 10 9 13 10 15 11 14 12 11 13
REMARK SMILES IDX 12 14 6 15
REMARK H PARENT
REMARK Flexibility Score: inf
ROOT
ATOM      1  C   UNL     1      33.125  10.570  33.371  1.00  0.00     0.039 C 
ATOM      2  C   UNL     1      32.000   9.601  33.623  1.00  0.00    -0.074 C 
ATOM      3  C   UNL     1      32.015   8.424  32.989  1.00  0.00    -0.027 C 
ATOM      4  C   UNL     1      30.847   7.501  33.028  1.00  0.00     0.034 C 
ATOM      5  C   UNL     1      30.132   7.410  34.414  1.00  0.00    -0.022 C 
ATOM      6  C   UNL     1      30.869   6.380  35.335  1.00  0.00     0.008 C 
ATOM      7  C   UNL     1      31.799   7.051  36.350  1.00  0.00     0.001 C 
ATOM      8  C   UNL     1      31.028   7.929  37.359  1.00  0.00     0.007 C 
ATOM      9  C   UNL     1      29.856   8.773  36.741  1.00  0.00    -0.029 C 
ATOM     10  C   UNL     1      30.027   8.806  35.159  1.00  0.00    -0.012 C 
ATOM     11  C   UNL     1      30.983   9.931  34.690  1.00  0.00     0.022 C 
ATOM     12  C   UNL     1      29.508   9.971  34.298  1.00  0.00     0.017 C 
ATOM     13  C   UNL     1      29.847  10.167  37.441  1.00  0.00     0.012 C 
ATOM     14  C   UNL     1      28.502   8.116  37.107  1.00  0.00     0.012 C 
ATOM     15  C   UNL     1      28.713   6.863  34.091  1.00  0.00     0.012 C 
ENDROOT
TORSDOF 0
ENDMDL
MODEL 3
REMARK VINA RESULT:    -4.636      1.600      3.549
REMARK INTER + INTRA:          -4.636
REMARK INTER:                  -4.636
REMARK INTRA:                   0.000
REMARK UNBOUND:                 0.000
REMARK SMILES CC1=CC[C@@]2(C)CCCC(C)(C)[C@]23C[C@H]13
REMARK SMILES IDX 1 1 2 2 3 3 4 4 5 5 7 6 8 7 9 8 10 9 13 10 15 11 14 12 11 13
REMARK SMILES IDX 12 14 6 15
REMARK H PARENT
REMARK Flexibility Score: inf
ROOT
ATOM      1  C   UNL     1      29.907   6.276  30.661  1.00  0.00     0.039 C 
ATOM      2  C   UNL     1      30.502   7.328  31.559  1.00  0.00    -0.074 C 
ATOM      3  C   UNL     1      30.507   8.599  31.142  1.00  0.00    -0.027 C 
ATOM      4  C   UNL     1      31.250   9.659  31.875  1.00  0.00     0.034 C 
ATOM      5  C   UNL     1      31.171   9.556  33.432  1.00  0.00    -0.022 C 
ATOM      6  C   UNL     1      29.860  10.235  33.952  1.00  0.00     0.008 C 
ATOM      7  C   UNL     1      28.752   9.224  34.266  1.00  0.00     0.001 C 
ATOM      8  C   UNL     1      29.135   8.277  35.423  1.00  0.00     0.007 C 
ATOM      9  C   UNL     1      30.624   7.778  35.404  1.00  0.00    -0.029 C 
ATOM     10  C   UNL     1      31.243   8.064  33.966  1.00  0.00    -0.012 C 
ATOM     11  C   UNL     1      30.932   6.935  32.953  1.00  0.00     0.022 C 
ATOM     12  C   UNL     1      32.375   7.209  33.371  1.00  0.00     0.017 C 
ATOM     13  C   UNL     1      30.636   6.284  35.852  1.00  0.00     0.012 C 
ATOM     14  C   UNL     1      31.435   8.541  36.483  1.00  0.00     0.012 C 
ATOM     15  C   UNL     1      32.392  10.371  33.945  1.00  0.00     0.012 C 
ENDROOT
TORSDOF 0
ENDMDL
MODEL 4
REMARK VINA RESULT:    -4.605      1.162      3.333
REMARK INTER + INTRA:          -4.605
REMARK INTER:                  -4.605
REMARK INTRA:                   0.000
REMARK UNBOUND:                 0.000
REMARK SMILES CC1=CC[C@@]2(C)CCCC(C)(C)[C@]23C[C@H]13
REMARK SMILES IDX 1 1 2 2 3 3 4 4 5 5 7 6 8 7 9 8 10 9 13 10 15 11 14 12 11 13
REMARK SMILES IDX 12 14 6 15
REMARK H PARENT
REMARK Flexibility Score: inf
ROOT
ATOM      1  C   UNL     1      31.221   7.733  31.128  1.00  0.00     0.039 C 
ATOM      2  C   UNL     1      31.304   8.226  32.548  1.00  0.00    -0.074 C 
ATOM      3  C   UNL     1      31.821   9.438  32.776  1.00  0.00    -0.027 C 
ATOM      4  C   UNL     1      32.121   9.913  34.155  1.00  0.00     0.034 C 
ATOM      5  C   UNL     1      31.055   9.522  35.228  1.00  0.00    -0.022 C 
ATOM      6  C   UNL     1      29.878  10.554  35.220  1.00  0.00     0.008 C 
ATOM      7  C   UNL     1      28.652  10.050  34.452  1.00  0.00     0.001 C 
ATOM      8  C   UNL     1      28.019   8.806  35.112  1.00  0.00     0.007 C 
ATOM      9  C   UNL     1      29.047   7.753  35.661  1.00  0.00    -0.029 C 
ATOM     10  C   UNL     1      30.478   8.057  35.033  1.00  0.00    -0.012 C 
ATOM     11  C   UNL     1      30.665   7.403  33.642  1.00  0.00     0.022 C 
ATOM     12  C   UNL     1      31.534   6.960  34.818  1.00  0.00     0.017 C 
ATOM     13  C   UNL     1      28.479   6.330  35.369  1.00  0.00     0.012 C 
ATOM     14  C   UNL     1      29.120   7.863  37.205  1.00  0.00     0.012 C 
ATOM     15  C   UNL     1      31.804   9.630  36.586  1.00  0.00     0.012 C 
ENDROOT
TORSDOF 0
ENDMDL
MODEL 5
REMARK VINA RESULT:    -4.529      1.191      4.064
REMARK INTER + INTRA:          -4.529
REMARK INTER:                  -4.529
REMARK INTRA:                   0.000
REMARK UNBOUND:                 0.000
REMARK SMILES CC1=CC[C@@]2(C)CCCC(C)(C)[C@]23C[C@H]13
REMARK SMILES IDX 1 1 2 2 3 3 4 4 5 5 7 6 8 7 9 8 10 9 13 10 15 11 14 12 11 13
REMARK SMILES IDX 12 14 6 15
REMARK H PARENT
REMARK Flexibility Score: inf
ROOT
ATOM      1  C   UNL     1      26.596   7.972  34.822  1.00  0.00     0.039 C 
ATOM      2  C   UNL     1      27.978   8.381  35.257  1.00  0.00    -0.074 C 
ATOM      3  C   UNL     1      28.433   7.949  36.438  1.00  0.00    -0.027 C 
ATOM      4  C   UNL     1      29.698   8.468  37.026  1.00  0.00     0.034 C 
ATOM      5  C   UNL     1      30.855   8.686  35.999  1.00  0.00    -0.022 C 
ATOM      6  C   UNL     1      31.619   7.342  35.755  1.00  0.00     0.008 C 
ATOM      7  C   UNL     1      31.192   6.642  34.461  1.00  0.00     0.001 C 
ATOM      8  C   UNL     1      31.537   7.472  33.206  1.00  0.00     0.007 C 
ATOM      9  C   UNL     1      31.285   9.016  33.343  1.00  0.00    -0.029 C 
ATOM     10  C   UNL     1      30.360   9.274  34.612  1.00  0.00    -0.012 C 
ATOM     11  C   UNL     1      28.853   9.135  34.282  1.00  0.00     0.022 C 
ATOM     12  C   UNL     1      29.419  10.487  34.712  1.00  0.00     0.017 C 
ATOM     13  C   UNL     1      30.718   9.533  31.986  1.00  0.00     0.012 C 
ATOM     14  C   UNL     1      32.642   9.742  33.530  1.00  0.00     0.012 C 
ATOM     15  C   UNL     1      31.818   9.688  36.696  1.00  0.00     0.012 C 
ENDROOT
TORSDOF 0
ENDMDL
MODEL 6
REMARK VINA RESULT:    -4.505      1.393      4.104
REMARK INTER + INTRA:          -4.505
REMARK INTER:                  -4.505
REMARK INTRA:                   0.000
REMARK UNBOUND:                 0.000
REMARK SMILES CC1=CC[C@@]2(C)CCCC(C)(C)[C@]23C[C@H]13
REMARK SMILES IDX 1 1 2 2 3 3 4 4 5 5 7 6 8 7 9 8 10 9 13 10 15 11 14 12 11 13
REMARK SMILES IDX 12 14 6 15
REMARK H PARENT
REMARK Flexibility Score: inf
ROOT
ATOM      1  C   UNL     1      31.213   8.762  37.985  1.00  0.00     0.039 C 
ATOM      2  C   UNL     1      30.663   9.246  36.670  1.00  0.00    -0.074 C 
ATOM      3  C   UNL     1      30.267  10.520  36.570  1.00  0.00    -0.027 C 
ATOM      4  C   UNL     1      29.531  11.018  35.376  1.00  0.00     0.034 C 
ATOM      5  C   UNL     1      30.043  10.457  34.011  1.00  0.00    -0.022 C 
ATOM      6  C   UNL     1      31.263  11.298  33.505  1.00  0.00     0.008 C 
ATOM      7  C   UNL     1      32.608  10.624  33.788  1.00  0.00     0.001 C 
ATOM      8  C   UNL     1      32.766   9.290  33.026  1.00  0.00     0.007 C 
ATOM      9  C   UNL     1      31.474   8.399  32.978  1.00  0.00    -0.029 C 
ATOM     10  C   UNL     1      30.447   8.924  34.074  1.00  0.00    -0.012 C 
ATOM     11  C   UNL     1      30.717   8.322  35.476  1.00  0.00     0.022 C 
ATOM     12  C   UNL     1      29.415   8.002  34.746  1.00  0.00     0.017 C 
ATOM     13  C   UNL     1      31.912   6.910  33.132  1.00  0.00     0.012 C 
ATOM     14  C   UNL     1      30.833   8.500  31.571  1.00  0.00     0.012 C 
ATOM     15  C   UNL     1      28.855  10.661  33.029  1.00  0.00     0.012 C 
ENDROOT
TORSDOF 0
ENDMDL
MODEL 7
REMARK VINA RESULT:    -4.498     10.887     12.918
REMARK INTER + INTRA:          -4.498
REMARK INTER:                  -4.498
REMARK INTRA:                   0.000
REMARK UNBOUND:                 0.000
REMARK SMILES CC1=CC[C@@]2(C)CCCC(C)(C)[C@]23C[C@H]13
REMARK SMILES IDX 1 1 2 2 3 3 4 4 5 5 7 6 8 7 9 8 10 9 13 10 15 11 14 12 11 13
REMARK SMILES IDX 12 14 6 15
REMARK H PARENT
REMARK Flexibility Score: inf
ROOT
ATOM      1  C   UNL     1      20.536   9.927  26.008  1.00  0.00     0.039 C 
ATOM      2  C   UNL     1      20.708  10.467  27.403  1.00  0.00    -0.074 C 
ATOM      3  C   UNL     1      21.271  11.669  27.561  1.00  0.00    -0.027 C 
ATOM      4  C   UNL     1      21.657  12.181  28.904  1.00  0.00     0.034 C 
ATOM      5  C   UNL     1      20.638  11.860  30.044  1.00  0.00    -0.022 C 
ATOM      6  C   UNL     1      19.493  12.927  30.059  1.00  0.00     0.008 C 
ATOM      7  C   UNL     1      18.214  12.436  29.375  1.00  0.00     0.001 C 
ATOM      8  C   UNL     1      17.581  11.235  30.111  1.00  0.00     0.007 C 
ATOM      9  C   UNL     1      18.605  10.170  30.643  1.00  0.00    -0.029 C 
ATOM     10  C   UNL     1      20.009  10.408  29.932  1.00  0.00    -0.012 C 
ATOM     11  C   UNL     1      20.104   9.701  28.557  1.00  0.00     0.022 C 
ATOM     12  C   UNL     1      21.019   9.272  29.701  1.00  0.00     0.017 C 
ATOM     13  C   UNL     1      17.981   8.756  30.432  1.00  0.00     0.012 C 
ATOM     14  C   UNL     1      18.762  10.331  32.176  1.00  0.00     0.012 C 
ATOM     15  C   UNL     1      21.460  11.991  31.357  1.00  0.00     0.012 C 
ENDROOT
TORSDOF 0
ENDMDL
MODEL 8
REMARK VINA RESULT:    -4.454      9.076     11.354
REMARK INTER + INTRA:          -4.454
REMARK INTER:                  -4.454
REMARK INTRA:                   0.000
REMARK UNBOUND:                 0.000
REMARK SMILES CC1=CC[C@@]2(C)CCCC(C)(C)[C@]23C[C@H]13
REMARK SMILES IDX 1 1 2 2 3 3 4 4 5 5 7 6 8 7 9 8 10 9 13 10 15 11 14 12 11 13
REMARK SMILES IDX 12 14 6 15
REMARK H PARENT
REMARK Flexibility Score: inf
ROOT
ATOM      1  C   UNL     1      26.745  11.341  27.671  1.00  0.00     0.039 C 
ATOM      2  C   UNL     1      27.879  10.824  26.826  1.00  0.00    -0.074 C 
ATOM      3  C   UNL     1      28.006   9.503  26.662  1.00  0.00    -0.027 C 
ATOM      4  C   UNL     1      29.206   8.907  26.014  1.00  0.00     0.034 C 
ATOM      5  C   UNL     1      29.747   9.703  24.783  1.00  0.00    -0.022 C 
ATOM      6  C   UNL     1      28.956   9.303  23.492  1.00  0.00     0.008 C 
ATOM      7  C   UNL     1      27.872  10.319  23.120  1.00  0.00     0.001 C 
ATOM      8  C   UNL     1      28.464  11.697  22.752  1.00  0.00     0.007 C 
ATOM      9  C   UNL     1      29.658  12.168  23.658  1.00  0.00    -0.029 C 
ATOM     10  C   UNL     1      29.685  11.276  24.976  1.00  0.00    -0.012 C 
ATOM     11  C   UNL     1      28.737  11.816  26.075  1.00  0.00     0.022 C 
ATOM     12  C   UNL     1      30.245  11.795  26.311  1.00  0.00     0.017 C 
ATOM     13  C   UNL     1      29.506  13.702  23.892  1.00  0.00     0.012 C 
ATOM     14  C   UNL     1      30.989  11.996  22.883  1.00  0.00     0.012 C 
ATOM     15  C   UNL     1      31.222   9.237  24.628  1.00  0.00     0.012 C 
ENDROOT
TORSDOF 0
ENDMDL
MODEL 9
REMARK VINA RESULT:    -4.256      1.275      3.689
REMARK INTER + INTRA:          -4.256
REMARK INTER:                  -4.256
REMARK INTRA:                   0.000
REMARK UNBOUND:                 0.000
REMARK SMILES CC1=CC[C@@]2(C)CCCC(C)(C)[C@]23C[C@H]13
REMARK SMILES IDX 1 1 2 2 3 3 4 4 5 5 7 6 8 7 9 8 10 9 13 10 15 11 14 12 11 13
REMARK SMILES IDX 12 14 6 15
REMARK H PARENT
REMARK Flexibility Score: inf
ROOT
ATOM      1  C   UNL     1      26.297   7.573  34.834  1.00  0.00     0.039 C 
ATOM      2  C   UNL     1      27.730   7.303  35.210  1.00  0.00    -0.074 C 
ATOM      3  C   UNL     1      28.391   6.336  34.565  1.00  0.00    -0.027 C 
ATOM      4  C   UNL     1      29.734   5.875  35.011  1.00  0.00     0.034 C 
ATOM      5  C   UNL     1      30.689   7.013  35.494  1.00  0.00    -0.022 C 
ATOM      6  C   UNL     1      31.413   7.665  34.268  1.00  0.00     0.008 C 
ATOM      7  C   UNL     1      30.772   8.986  33.832  1.00  0.00     0.001 C 
ATOM      8  C   UNL     1      30.880  10.076  34.920  1.00  0.00     0.007 C 
ATOM      9  C   UNL     1      30.640   9.572  36.388  1.00  0.00    -0.029 C 
ATOM     10  C   UNL     1      29.950   8.139  36.332  1.00  0.00    -0.012 C 
ATOM     11  C   UNL     1      28.410   8.229  36.192  1.00  0.00     0.022 C 
ATOM     12  C   UNL     1      29.028   7.624  37.450  1.00  0.00     0.017 C 
ATOM     13  C   UNL     1      29.835  10.672  37.148  1.00  0.00     0.012 C 
ATOM     14  C   UNL     1      31.999   9.469  37.125  1.00  0.00     0.012 C 
ATOM     15  C   UNL     1      31.748   6.294  36.375  1.00  0.00     0.012 C 
ENDROOT
TORSDOF 0
ENDMDL
