MODEL 1
REMARK VINA RESULT:    -5.905      0.000      0.000
REMARK INTER + INTRA:          -6.077
REMARK INTER:                  -6.077
REMARK INTRA:                   0.000
REMARK UNBOUND:                 0.000
REMARK SMILES Oc1ccc2[nH]ccc2c1
REMARK SMILES IDX 3 1 4 2 5 3 9 4 8 5 7 6 6 7 10 8 2 9 1 11
REMARK H PARENT 6 10 1 12
REMARK Flexibility Score: inf
ROOT
ATOM      1  C   UNL     1      76.331  39.062  29.976  1.00  0.00     0.048 A 
ATOM      2  C   UNL     1      75.796  37.980  30.699  1.00  0.00     0.030 A 
ATOM      3  C   UNL     1      75.814  38.054  32.091  1.00  0.00     0.046 A 
ATOM      4  C   UNL     1      76.335  39.138  32.746  1.00  0.00     0.003 A 
ATOM      5  C   UNL     1      76.203  38.904  34.098  1.00  0.00     0.028 A 
ATOM      6  C   UNL     1      75.594  37.656  34.193  1.00  0.00     0.083 A 
ATOM      7  N   UNL     1      75.359  37.141  32.964  1.00  0.00    -0.361 N 
ATOM      8  C   UNL     1      76.872  40.225  32.061  1.00  0.00     0.056 A 
ATOM      9  C   UNL     1      76.869  40.182  30.651  1.00  0.00     0.116 A 
ATOM     10  H   UNL     1      74.914  36.223  32.744  1.00  0.00     0.166 HD
ENDROOT
BRANCH   9  11
ATOM     11  O   UNL     1      77.394  41.240  29.911  1.00  0.00    -0.508 OA
ATOM     12  H   UNL     1      77.504  42.163  30.314  1.00  0.00     0.293 HD
ENDBRANCH   9  11
TORSDOF 1
ENDMDL
MODEL 2
REMARK VINA RESULT:    -5.847      0.950      1.976
REMARK INTER + INTRA:          -6.018
REMARK INTER:                  -6.018
REMARK INTRA:                   0.000
REMARK UNBOUND:                 0.000
REMARK SMILES Oc1ccc2[nH]ccc2c1
REMARK SMILES IDX 3 1 4 2 5 3 9 4 8 5 7 6 6 7 10 8 2 9 1 11
REMARK H PARENT 6 10 1 12
REMARK Flexibility Score: inf
ROOT
ATOM      1  C   UNL     1      77.605  40.261  32.289  1.00  0.00     0.048 A 
ATOM      2  C   UNL     1      77.317  39.367  33.337  1.00  0.00     0.030 A 
ATOM      3  C   UNL     1      76.352  38.387  33.111  1.00  0.00     0.046 A 
ATOM      4  C   UNL     1      75.696  38.287  31.913  1.00  0.00     0.003 A 
ATOM      5  C   UNL     1      74.818  37.230  32.013  1.00  0.00     0.028 A 
ATOM      6  C   UNL     1      74.992  36.732  33.300  1.00  0.00     0.083 A 
ATOM      7  N   UNL     1      75.930  37.443  33.968  1.00  0.00    -0.361 N 
ATOM      8  C   UNL     1      75.956  39.155  30.855  1.00  0.00     0.056 A 
ATOM      9  C   UNL     1      76.928  40.159  31.051  1.00  0.00     0.116 A 
ATOM     10  H   UNL     1      76.257  37.285  34.947  1.00  0.00     0.166 HD
ENDROOT
BRANCH   9  11
ATOM     11  O   UNL     1      77.231  41.057  30.030  1.00  0.00    -0.508 OA
ATOM     12  H   UNL     1      76.763  41.952  29.958  1.00  0.00     0.293 HD
ENDBRANCH   9  11
TORSDOF 1
ENDMDL
MODEL 3
REMARK VINA RESULT:    -5.452      1.650      2.819
REMARK INTER + INTRA:          -5.612
REMARK INTER:                  -5.612
REMARK INTRA:                   0.000
REMARK UNBOUND:                 0.000
REMARK SMILES Oc1ccc2[nH]ccc2c1
REMARK SMILES IDX 3 1 4 2 5 3 9 4 8 5 7 6 6 7 10 8 2 9 1 11
REMARK H PARENT 6 10 1 12
REMARK Flexibility Score: inf
ROOT
ATOM      1  C   UNL     1      76.790  39.123  34.246  1.00  0.00     0.048 A 
ATOM      2  C   UNL     1      75.787  38.142  34.128  1.00  0.00     0.030 A 
ATOM      3  C   UNL     1      75.047  38.107  32.947  1.00  0.00     0.046 A 
ATOM      4  C   UNL     1      75.275  38.992  31.928  1.00  0.00     0.003 A 
ATOM      5  C   UNL     1      74.387  38.694  30.917  1.00  0.00     0.028 A 
ATOM      6  C   UNL     1      73.647  37.615  31.390  1.00  0.00     0.083 A 
ATOM      7  N   UNL     1      74.053  37.261  32.631  1.00  0.00    -0.361 N 
ATOM      8  C   UNL     1      76.259  39.975  32.012  1.00  0.00     0.056 A 
ATOM      9  C   UNL     1      77.027  40.038  33.194  1.00  0.00     0.116 A 
ATOM     10  H   UNL     1      73.671  36.486  33.218  1.00  0.00     0.166 HD
ENDROOT
BRANCH   9  11
ATOM     11  O   UNL     1      78.025  41.000  33.337  1.00  0.00    -0.508 OA
ATOM     12  H   UNL     1      77.900  41.806  33.938  1.00  0.00     0.293 HD
ENDBRANCH   9  11
TORSDOF 1
ENDMDL
MODEL 4
REMARK VINA RESULT:    -5.362      2.455      3.761
REMARK INTER + INTRA:          -5.519
REMARK INTER:                  -5.519
REMARK INTRA:                   0.000
REMARK UNBOUND:                 0.000
REMARK SMILES Oc1ccc2[nH]ccc2c1
REMARK SMILES IDX 3 1 4 2 5 3 9 4 8 5 7 6 6 7 10 8 2 9 1 11
REMARK H PARENT 6 10 1 12
REMARK Flexibility Score: inf
ROOT
ATOM      1  C   UNL     1      77.214  39.938  33.469  1.00  0.00     0.048 A 
ATOM      2  C   UNL     1      77.253  40.283  32.105  1.00  0.00     0.030 A 
ATOM      3  C   UNL     1      76.697  39.389  31.191  1.00  0.00     0.046 A 
ATOM      4  C   UNL     1      76.129  38.210  31.593  1.00  0.00     0.003 A 
ATOM      5  C   UNL     1      75.677  37.564  30.462  1.00  0.00     0.028 A 
ATOM      6  C   UNL     1      76.006  38.408  29.406  1.00  0.00     0.083 A 
ATOM      7  N   UNL     1      76.629  39.522  29.856  1.00  0.00    -0.361 N 
ATOM      8  C   UNL     1      76.073  37.838  32.934  1.00  0.00     0.056 A 
ATOM      9  C   UNL     1      76.627  38.720  33.886  1.00  0.00     0.116 A 
ATOM     10  H   UNL     1      76.981  40.319  29.281  1.00  0.00     0.166 HD
ENDROOT
BRANCH   9  11
ATOM     11  O   UNL     1      76.602  38.403  35.242  1.00  0.00    -0.508 OA
ATOM     12  H   UNL     1      77.316  38.740  35.877  1.00  0.00     0.293 HD
ENDBRANCH   9  11
TORSDOF 1
ENDMDL
MODEL 5
REMARK VINA RESULT:    -5.346      2.750      3.660
REMARK INTER + INTRA:          -5.503
REMARK INTER:                  -5.503
REMARK INTRA:                   0.000
REMARK UNBOUND:                 0.000
REMARK SMILES Oc1ccc2[nH]ccc2c1
REMARK SMILES IDX 3 1 4 2 5 3 9 4 8 5 7 6 6 7 10 8 2 9 1 11
REMARK H PARENT 6 10 1 12
REMARK Flexibility Score: inf
ROOT
ATOM      1  C   UNL     1      74.162  37.640  31.663  1.00  0.00     0.048 A 
ATOM      2  C   UNL     1      74.649  38.488  30.650  1.00  0.00     0.030 A 
ATOM      3  C   UNL     1      75.926  39.024  30.808  1.00  0.00     0.046 A 
ATOM      4  C   UNL     1      76.692  38.745  31.908  1.00  0.00     0.003 A 
ATOM      5  C   UNL     1      77.884  39.421  31.761  1.00  0.00     0.028 A 
ATOM      6  C   UNL     1      77.774  40.093  30.548  1.00  0.00     0.083 A 
ATOM      7  N   UNL     1      76.576  39.847  29.969  1.00  0.00    -0.361 N 
ATOM      8  C   UNL     1      76.241  37.911  32.928  1.00  0.00     0.056 A 
ATOM      9  C   UNL     1      74.952  37.351  32.800  1.00  0.00     0.116 A 
ATOM     10  H   UNL     1      76.231  40.222  29.057  1.00  0.00     0.166 HD
ENDROOT
BRANCH   9  11
ATOM     11  O   UNL     1      74.446  36.510  33.788  1.00  0.00    -0.508 OA
ATOM     12  H   UNL     1      73.993  36.880  34.616  1.00  0.00     0.293 HD
ENDBRANCH   9  11
TORSDOF 1
ENDMDL
MODEL 6
REMARK VINA RESULT:    -5.325      2.623      4.073
REMARK INTER + INTRA:          -5.480
REMARK INTER:                  -5.480
REMARK INTRA:                   0.000
REMARK UNBOUND:                 0.000
REMARK SMILES Oc1ccc2[nH]ccc2c1
REMARK SMILES IDX 3 1 4 2 5 3 9 4 8 5 7 6 6 7 10 8 2 9 1 11
REMARK H PARENT 6 10 1 12
REMARK Flexibility Score: inf
ROOT
ATOM      1  C   UNL     1      75.858  38.430  34.264  1.00  0.00     0.048 A 
ATOM      2  C   UNL     1      76.644  39.494  33.781  1.00  0.00     0.030 A 
ATOM      3  C   UNL     1      76.793  39.619  32.401  1.00  0.00     0.046 A 
ATOM      4  C   UNL     1      76.201  38.743  31.531  1.00  0.00     0.003 A 
ATOM      5  C   UNL     1      76.539  39.138  30.255  1.00  0.00     0.028 A 
ATOM      6  C   UNL     1      77.340  40.263  30.423  1.00  0.00     0.083 A 
ATOM      7  N   UNL     1      77.493  40.553  31.736  1.00  0.00    -0.361 N 
ATOM      8  C   UNL     1      75.418  37.680  31.975  1.00  0.00     0.056 A 
ATOM      9  C   UNL     1      75.247  37.524  33.367  1.00  0.00     0.116 A 
ATOM     10  H   UNL     1      78.041  41.343  32.144  1.00  0.00     0.166 HD
ENDROOT
BRANCH   9  11
ATOM     11  O   UNL     1      74.475  36.479  33.871  1.00  0.00    -0.508 OA
ATOM     12  H   UNL     1      74.259  36.411  34.858  1.00  0.00     0.293 HD
ENDBRANCH   9  11
TORSDOF 1
ENDMDL
MODEL 7
REMARK VINA RESULT:    -5.229      2.285      3.539
REMARK INTER + INTRA:          -5.382
REMARK INTER:                  -5.382
REMARK INTRA:                   0.000
REMARK UNBOUND:                 0.000
REMARK SMILES Oc1ccc2[nH]ccc2c1
REMARK SMILES IDX 3 1 4 2 5 3 9 4 8 5 7 6 6 7 10 8 2 9 1 11
REMARK H PARENT 6 10 1 12
REMARK Flexibility Score: inf
ROOT
ATOM      1  C   UNL     1      75.290  37.382  33.846  1.00  0.00     0.048 A 
ATOM      2  C   UNL     1      75.410  36.925  32.520  1.00  0.00     0.030 A 
ATOM      3  C   UNL     1      75.785  37.847  31.545  1.00  0.00     0.046 A 
ATOM      4  C   UNL     1      76.031  39.159  31.852  1.00  0.00     0.003 A 
ATOM      5  C   UNL     1      76.375  39.798  30.681  1.00  0.00     0.028 A 
ATOM      6  C   UNL     1      76.318  38.814  29.699  1.00  0.00     0.083 A 
ATOM      7  N   UNL     1      75.956  37.624  30.232  1.00  0.00    -0.361 N 
ATOM      8  C   UNL     1      75.922  39.644  33.154  1.00  0.00     0.056 A 
ATOM      9  C   UNL     1      75.543  38.736  34.165  1.00  0.00     0.116 A 
ATOM     10  H   UNL     1      75.837  36.720  29.723  1.00  0.00     0.166 HD
ENDROOT
BRANCH   9  11
ATOM     11  O   UNL     1      75.417  39.163  35.486  1.00  0.00    -0.508 OA
ATOM     12  H   UNL     1      74.748  38.738  36.116  1.00  0.00     0.293 HD
ENDBRANCH   9  11
TORSDOF 1
ENDMDL
MODEL 8
REMARK VINA RESULT:    -5.229      1.742      2.352
REMARK INTER + INTRA:          -5.381
REMARK INTER:                  -5.381
REMARK INTRA:                   0.000
REMARK UNBOUND:                 0.000
REMARK SMILES Oc1ccc2[nH]ccc2c1
REMARK SMILES IDX 3 1 4 2 5 3 9 4 8 5 7 6 6 7 10 8 2 9 1 11
REMARK H PARENT 6 10 1 12
REMARK Flexibility Score: inf
ROOT
ATOM      1  C   UNL     1      76.490  39.532  30.143  1.00  0.00     0.048 A 
ATOM      2  C   UNL     1      76.630  40.240  31.351  1.00  0.00     0.030 A 
ATOM      3  C   UNL     1      76.252  39.598  32.529  1.00  0.00     0.046 A 
ATOM      4  C   UNL     1      75.757  38.321  32.526  1.00  0.00     0.003 A 
ATOM      5  C   UNL     1      75.483  37.982  33.833  1.00  0.00     0.028 A 
ATOM      6  C   UNL     1      75.834  39.102  34.580  1.00  0.00     0.083 A 
ATOM      7  N   UNL     1      76.303  40.087  33.779  1.00  0.00    -0.361 N 
ATOM      8  C   UNL     1      75.606  37.592  31.348  1.00  0.00     0.056 A 
ATOM      9  C   UNL     1      75.980  38.213  30.137  1.00  0.00     0.116 A 
ATOM     10  H   UNL     1      76.636  41.031  34.076  1.00  0.00     0.166 HD
ENDROOT
BRANCH   9  11
ATOM     11  O   UNL     1      75.851  37.534  28.927  1.00  0.00    -0.508 OA
ATOM     12  H   UNL     1      75.507  36.582  28.890  1.00  0.00     0.293 HD
ENDBRANCH   9  11
TORSDOF 1
ENDMDL
MODEL 9
REMARK VINA RESULT:    -5.174      2.346      3.210
REMARK INTER + INTRA:          -5.325
REMARK INTER:                  -5.325
REMARK INTRA:                   0.000
REMARK UNBOUND:                 0.000
REMARK SMILES Oc1ccc2[nH]ccc2c1
REMARK SMILES IDX 3 1 4 2 5 3 9 4 8 5 7 6 6 7 10 8 2 9 1 11
REMARK H PARENT 6 10 1 12
REMARK Flexibility Score: inf
ROOT
ATOM      1  C   UNL     1      74.384  36.931  32.388  1.00  0.00     0.048 A 
ATOM      2  C   UNL     1      75.527  37.170  33.173  1.00  0.00     0.030 A 
ATOM      3  C   UNL     1      76.269  38.320  32.910  1.00  0.00     0.046 A 
ATOM      4  C   UNL     1      75.910  39.197  31.922  1.00  0.00     0.003 A 
ATOM      5  C   UNL     1      76.838  40.216  31.920  1.00  0.00     0.028 A 
ATOM      6  C   UNL     1      77.735  39.893  32.933  1.00  0.00     0.083 A 
ATOM      7  N   UNL     1      77.384  38.734  33.535  1.00  0.00    -0.361 N 
ATOM      8  C   UNL     1      74.785  38.991  31.127  1.00  0.00     0.056 A 
ATOM      9  C   UNL     1      74.011  37.836  31.367  1.00  0.00     0.116 A 
ATOM     10  H   UNL     1      77.879  38.262  34.324  1.00  0.00     0.166 HD
ENDROOT
BRANCH   9  11
ATOM     11  O   UNL     1      72.875  37.576  30.604  1.00  0.00    -0.508 OA
ATOM     12  H   UNL     1      71.950  37.576  31.017  1.00  0.00     0.293 HD
ENDBRANCH   9  11
TORSDOF 1
ENDMDL
