MODEL 1
REMARK VINA RESULT:    -5.046      0.000      0.000
REMARK INTER + INTRA:          -7.129
REMARK INTER:                  -6.816
REMARK INTRA:                  -0.313
REMARK UNBOUND:                -0.313
REMARK SMILES CCCCCCC=CC(=O)[O-]
REMARK SMILES IDX 5 1 6 2 7 3 8 4 9 5 10 6 11 7 4 8 3 9 2 10 1 11
REMARK H PARENT
REMARK Flexibility Score: inf
ROOT
ATOM      1  C   UNL     1      31.033   4.402 -26.594  1.00  0.00     0.004 C 
ENDROOT
BRANCH   1   2
ATOM      2  C   UNL     1      31.165   5.821 -27.161  1.00  0.00     0.027 C 
BRANCH   2   3
ATOM      3  C   UNL     1      31.902   6.721 -26.211  1.00  0.00    -0.025 C 
ATOM      4  C   UNL     1      31.944   6.467 -24.898  1.00  0.00     0.020 C 
BRANCH   4   5
ATOM      5  C   UNL     1      32.649   7.342 -23.948  1.00  0.00     0.064 C 
ATOM      6  O   UNL     1      33.375   8.290 -24.350  1.00  0.00    -0.545 OA
ATOM      7  O   UNL     1      32.512   7.120 -22.584  1.00  0.00    -0.545 OA
ENDBRANCH   4   5
ENDBRANCH   2   3
ENDBRANCH   1   2
BRANCH   1   8
ATOM      8  C   UNL     1      29.585   3.906 -26.683  1.00  0.00     0.000 C 
BRANCH   8   9
ATOM      9  C   UNL     1      28.954   4.289 -28.030  1.00  0.00    -0.000 C 
BRANCH   9  10
ATOM     10  C   UNL     1      27.707   3.454 -28.356  1.00  0.00    -0.003 C 
ATOM     11  C   UNL     1      26.673   3.471 -27.231  1.00  0.00     0.004 C 
ENDBRANCH   9  10
ENDBRANCH   8   9
ENDBRANCH   1   8
TORSDOF 6
ENDMDL
MODEL 2
REMARK VINA RESULT:    -5.040      1.356      2.644
REMARK INTER + INTRA:          -7.120
REMARK INTER:                  -6.764
REMARK INTRA:                  -0.356
REMARK UNBOUND:                -0.313
REMARK SMILES CCCCCCC=CC(=O)[O-]
REMARK SMILES IDX 5 1 6 2 7 3 8 4 9 5 10 6 11 7 4 8 3 9 2 10 1 11
REMARK H PARENT
REMARK Flexibility Score: inf
ROOT
ATOM      1  C   UNL     1      28.718   4.156 -28.144  1.00  0.00     0.004 C 
ENDROOT
BRANCH   1   2
ATOM      2  C   UNL     1      29.871   3.464 -27.408  1.00  0.00     0.027 C 
BRANCH   2   3
ATOM      3  C   UNL     1      30.815   4.467 -26.809  1.00  0.00    -0.025 C 
ATOM      4  C   UNL     1      30.648   4.928 -25.564  1.00  0.00     0.020 C 
BRANCH   4   5
ATOM      5  C   UNL     1      31.552   5.920 -24.963  1.00  0.00     0.064 C 
ATOM      6  O   UNL     1      31.909   5.831 -23.758  1.00  0.00    -0.545 OA
ATOM      7  O   UNL     1      32.022   6.973 -25.737  1.00  0.00    -0.545 OA
ENDBRANCH   4   5
ENDBRANCH   2   3
ENDBRANCH   1   2
BRANCH   1   8
ATOM      8  C   UNL     1      27.375   3.498 -27.806  1.00  0.00     0.000 C 
BRANCH   8   9
ATOM      9  C   UNL     1      26.885   3.930 -26.415  1.00  0.00    -0.000 C 
BRANCH   9  10
ATOM     10  C   UNL     1      25.464   3.433 -26.110  1.00  0.00    -0.003 C 
ATOM     11  C   UNL     1      25.077   2.204 -26.933  1.00  0.00     0.004 C 
ENDBRANCH   9  10
ENDBRANCH   8   9
ENDBRANCH   1   8
TORSDOF 6
ENDMDL
MODEL 3
REMARK VINA RESULT:    -4.938     12.251     15.303
REMARK INTER + INTRA:          -6.983
REMARK INTER:                  -6.653
REMARK INTRA:                  -0.330
REMARK UNBOUND:                -0.313
REMARK SMILES CCCCCCC=CC(=O)[O-]
REMARK SMILES IDX 5 1 6 2 7 3 8 4 9 5 10 6 11 7 4 8 3 9 2 10 1 11
REMARK H PARENT
REMARK Flexibility Score: inf
ROOT
ATOM      1  C   UNL     1      21.419  -3.348 -27.595  1.00  0.00     0.004 C 
ENDROOT
BRANCH   1   2
ATOM      2  C   UNL     1      19.941  -3.128 -27.937  1.00  0.00     0.027 C 
BRANCH   2   3
ATOM      3  C   UNL     1      19.119  -4.342 -27.608  1.00  0.00    -0.025 C 
ATOM      4  C   UNL     1      17.971  -4.247 -26.929  1.00  0.00     0.020 C 
BRANCH   4   5
ATOM      5  C   UNL     1      17.159  -5.423 -26.584  1.00  0.00     0.064 C 
ATOM      6  O   UNL     1      16.755  -5.614 -25.407  1.00  0.00    -0.545 OA
ATOM      7  O   UNL     1      16.830  -6.340 -27.575  1.00  0.00    -0.545 OA
ENDBRANCH   4   5
ENDBRANCH   2   3
ENDBRANCH   1   2
BRANCH   1   8
ATOM      8  C   UNL     1      21.635  -3.374 -26.078  1.00  0.00     0.000 C 
BRANCH   8   9
ATOM      9  C   UNL     1      23.009  -2.797 -25.707  1.00  0.00    -0.000 C 
BRANCH   9  10
ATOM     10  C   UNL     1      23.642  -1.996 -26.854  1.00  0.00    -0.003 C 
ATOM     11  C   UNL     1      23.609  -0.487 -26.611  1.00  0.00     0.004 C 
ENDBRANCH   9  10
ENDBRANCH   8   9
ENDBRANCH   1   8
TORSDOF 6
ENDMDL
MODEL 4
REMARK VINA RESULT:    -4.897      4.074      6.327
REMARK INTER + INTRA:          -6.928
REMARK INTER:                  -6.665
REMARK INTRA:                  -0.264
REMARK UNBOUND:                -0.313
REMARK SMILES CCCCCCC=CC(=O)[O-]
REMARK SMILES IDX 5 1 6 2 7 3 8 4 9 5 10 6 11 7 4 8 3 9 2 10 1 11
REMARK H PARENT
REMARK Flexibility Score: inf
ROOT
ATOM      1  C   UNL     1      30.045   3.628 -27.223  1.00  0.00     0.004 C 
ENDROOT
BRANCH   1   2
ATOM      2  C   UNL     1      28.942   4.164 -28.143  1.00  0.00     0.027 C 
BRANCH   2   3
ATOM      3  C   UNL     1      27.617   3.527 -27.834  1.00  0.00    -0.025 C 
ATOM      4  C   UNL     1      26.890   3.903 -26.777  1.00  0.00     0.020 C 
BRANCH   4   5
ATOM      5  C   UNL     1      25.597   3.283 -26.448  1.00  0.00     0.064 C 
ATOM      6  O   UNL     1      25.069   2.433 -27.213  1.00  0.00    -0.545 OA
ATOM      7  O   UNL     1      24.947   3.641 -25.274  1.00  0.00    -0.545 OA
ENDBRANCH   4   5
ENDBRANCH   2   3
ENDBRANCH   1   2
BRANCH   1   8
ATOM      8  C   UNL     1      31.042   4.733 -26.857  1.00  0.00     0.000 C 
BRANCH   8   9
ATOM      9  C   UNL     1      30.811   5.228 -25.422  1.00  0.00    -0.000 C 
BRANCH   9  10
ATOM     10  C   UNL     1      31.837   6.287 -24.990  1.00  0.00    -0.003 C 
ATOM     11  C   UNL     1      32.231   6.165 -23.518  1.00  0.00     0.004 C 
ENDBRANCH   9  10
ENDBRANCH   8   9
ENDBRANCH   1   8
TORSDOF 6
ENDMDL
MODEL 5
REMARK VINA RESULT:    -4.887     11.923     13.238
REMARK INTER + INTRA:          -6.914
REMARK INTER:                  -6.570
REMARK INTRA:                  -0.344
REMARK UNBOUND:                -0.313
REMARK SMILES CCCCCCC=CC(=O)[O-]
REMARK SMILES IDX 5 1 6 2 7 3 8 4 9 5 10 6 11 7 4 8 3 9 2 10 1 11
REMARK H PARENT
REMARK Flexibility Score: inf
ROOT
ATOM      1  C   UNL     1      29.141  -0.361 -15.107  1.00  0.00     0.004 C 
ENDROOT
BRANCH   1   2
ATOM      2  C   UNL     1      29.012  -1.125 -16.430  1.00  0.00     0.027 C 
BRANCH   2   3
ATOM      3  C   UNL     1      27.582  -1.197 -16.881  1.00  0.00    -0.025 C 
ATOM      4  C   UNL     1      26.569  -1.036 -16.022  1.00  0.00     0.020 C 
BRANCH   4   5
ATOM      5  C   UNL     1      25.161  -1.115 -16.440  1.00  0.00     0.064 C 
ATOM      6  O   UNL     1      24.793  -1.911 -17.343  1.00  0.00    -0.545 OA
ATOM      7  O   UNL     1      24.220  -0.298 -15.827  1.00  0.00    -0.545 OA
ENDBRANCH   4   5
ENDBRANCH   2   3
ENDBRANCH   1   2
BRANCH   1   8
ATOM      8  C   UNL     1      30.607  -0.034 -14.800  1.00  0.00     0.000 C 
BRANCH   8   9
ATOM      9  C   UNL     1      31.175   0.960 -15.824  1.00  0.00    -0.000 C 
BRANCH   9  10
ATOM     10  C   UNL     1      32.427   0.424 -16.534  1.00  0.00    -0.003 C 
ATOM     11  C   UNL     1      33.381  -0.301 -15.585  1.00  0.00     0.004 C 
ENDBRANCH   9  10
ENDBRANCH   8   9
ENDBRANCH   1   8
TORSDOF 6
ENDMDL
MODEL 6
REMARK VINA RESULT:    -4.827      1.975      3.430
REMARK INTER + INTRA:          -6.833
REMARK INTER:                  -6.499
REMARK INTRA:                  -0.333
REMARK UNBOUND:                -0.313
REMARK SMILES CCCCCCC=CC(=O)[O-]
REMARK SMILES IDX 5 1 6 2 7 3 8 4 9 5 10 6 11 7 4 8 3 9 2 10 1 11
REMARK H PARENT
REMARK Flexibility Score: inf
ROOT
ATOM      1  C   UNL     1      27.099   3.399 -27.788  1.00  0.00     0.004 C 
ENDROOT
BRANCH   1   2
ATOM      2  C   UNL     1      28.539   3.766 -28.164  1.00  0.00     0.027 C 
BRANCH   2   3
ATOM      3  C   UNL     1      29.172   4.635 -27.115  1.00  0.00    -0.025 C 
ATOM      4  C   UNL     1      30.499   4.790 -27.043  1.00  0.00     0.020 C 
BRANCH   4   5
ATOM      5  C   UNL     1      31.140   5.625 -26.015  1.00  0.00     0.064 C 
ATOM      6  O   UNL     1      31.856   6.612 -26.331  1.00  0.00    -0.545 OA
ATOM      7  O   UNL     1      30.952   5.321 -24.673  1.00  0.00    -0.545 OA
ENDBRANCH   4   5
ENDBRANCH   2   3
ENDBRANCH   1   2
BRANCH   1   8
ATOM      8  C   UNL     1      26.768   3.858 -26.363  1.00  0.00     0.000 C 
BRANCH   8   9
ATOM      9  C   UNL     1      25.400   3.323 -25.916  1.00  0.00    -0.000 C 
BRANCH   9  10
ATOM     10  C   UNL     1      24.752   2.409 -26.967  1.00  0.00    -0.003 C 
ATOM     11  C   UNL     1      24.688   0.948 -26.522  1.00  0.00     0.004 C 
ENDBRANCH   9  10
ENDBRANCH   8   9
ENDBRANCH   1   8
TORSDOF 6
ENDMDL
MODEL 7
REMARK VINA RESULT:    -4.823      2.329      3.944
REMARK INTER + INTRA:          -6.828
REMARK INTER:                  -6.237
REMARK INTRA:                  -0.591
REMARK UNBOUND:                -0.313
REMARK SMILES CCCCCCC=CC(=O)[O-]
REMARK SMILES IDX 5 1 6 2 7 3 8 4 9 5 10 6 11 7 4 8 3 9 2 10 1 11
REMARK H PARENT
REMARK Flexibility Score: inf
ROOT
ATOM      1  C   UNL     1      26.787   3.246 -27.394  1.00  0.00     0.004 C 
ENDROOT
BRANCH   1   2
ATOM      2  C   UNL     1      28.093   3.430 -28.176  1.00  0.00     0.027 C 
BRANCH   2   3
ATOM      3  C   UNL     1      28.917   4.549 -27.604  1.00  0.00    -0.025 C 
ATOM      4  C   UNL     1      30.231   4.413 -27.394  1.00  0.00     0.020 C 
BRANCH   4   5
ATOM      5  C   UNL     1      31.053   5.490 -26.823  1.00  0.00     0.064 C 
ATOM      6  O   UNL     1      31.489   6.428 -27.542  1.00  0.00    -0.545 OA
ATOM      7  O   UNL     1      31.356   5.474 -25.468  1.00  0.00    -0.545 OA
ENDBRANCH   4   5
ENDBRANCH   2   3
ENDBRANCH   1   2
BRANCH   1   8
ATOM      8  C   UNL     1      26.737   4.179 -26.178  1.00  0.00     0.000 C 
BRANCH   8   9
ATOM      9  C   UNL     1      26.080   3.483 -24.977  1.00  0.00    -0.000 C 
BRANCH   9  10
ATOM     10  C   UNL     1      27.000   3.436 -23.748  1.00  0.00    -0.003 C 
ATOM     11  C   UNL     1      28.341   4.130 -23.984  1.00  0.00     0.004 C 
ENDBRANCH   9  10
ENDBRANCH   8   9
ENDBRANCH   1   8
TORSDOF 6
ENDMDL
MODEL 8
REMARK VINA RESULT:    -4.803     11.342     11.992
REMARK INTER + INTRA:          -6.801
REMARK INTER:                  -6.472
REMARK INTRA:                  -0.328
REMARK UNBOUND:                -0.313
REMARK SMILES CCCCCCC=CC(=O)[O-]
REMARK SMILES IDX 5 1 6 2 7 3 8 4 9 5 10 6 11 7 4 8 3 9 2 10 1 11
REMARK H PARENT
REMARK Flexibility Score: inf
ROOT
ATOM      1  C   UNL     1      28.207  -1.035 -15.378  1.00  0.00     0.004 C 
ENDROOT
BRANCH   1   2
ATOM      2  C   UNL     1      29.246   0.059 -15.101  1.00  0.00     0.027 C 
BRANCH   2   3
ATOM      3  C   UNL     1      30.635  -0.416 -15.415  1.00  0.00    -0.025 C 
ATOM      4  C   UNL     1      31.593   0.432 -15.806  1.00  0.00     0.020 C 
BRANCH   4   5
ATOM      5  C   UNL     1      32.956  -0.014 -16.132  1.00  0.00     0.064 C 
ATOM      6  O   UNL     1      33.745  -0.409 -15.232  1.00  0.00    -0.545 OA
ATOM      7  O   UNL     1      33.382  -0.000 -17.454  1.00  0.00    -0.545 OA
ENDBRANCH   4   5
ENDBRANCH   2   3
ENDBRANCH   1   2
BRANCH   1   8
ATOM      8  C   UNL     1      27.982  -1.211 -16.884  1.00  0.00     0.000 C 
BRANCH   8   9
ATOM      9  C   UNL     1      26.483  -1.228 -17.218  1.00  0.00    -0.000 C 
BRANCH   9  10
ATOM     10  C   UNL     1      25.599  -1.063 -15.973  1.00  0.00    -0.003 C 
ATOM     11  C   UNL     1      24.612   0.098 -16.098  1.00  0.00     0.004 C 
ENDBRANCH   9  10
ENDBRANCH   8   9
ENDBRANCH   1   8
TORSDOF 6
ENDMDL
MODEL 9
REMARK VINA RESULT:    -4.801      5.004      7.134
REMARK INTER + INTRA:          -6.798
REMARK INTER:                  -6.413
REMARK INTRA:                  -0.385
REMARK UNBOUND:                -0.313
REMARK SMILES CCCCCCC=CC(=O)[O-]
REMARK SMILES IDX 5 1 6 2 7 3 8 4 9 5 10 6 11 7 4 8 3 9 2 10 1 11
REMARK H PARENT
REMARK Flexibility Score: inf
ROOT
ATOM      1  C   UNL     1      27.806   3.743 -27.923  1.00  0.00     0.004 C 
ENDROOT
BRANCH   1   2
ATOM      2  C   UNL     1      27.242   4.257 -26.593  1.00  0.00     0.027 C 
BRANCH   2   3
ATOM      3  C   UNL     1      26.077   3.424 -26.138  1.00  0.00    -0.025 C 
ATOM      4  C   UNL     1      25.461   2.573 -26.965  1.00  0.00     0.020 C 
BRANCH   4   5
ATOM      5  C   UNL     1      24.310   1.758 -26.544  1.00  0.00     0.064 C 
ATOM      6  O   UNL     1      24.036   0.672 -27.120  1.00  0.00    -0.545 OA
ATOM      7  O   UNL     1      23.513   2.194 -25.494  1.00  0.00    -0.545 OA
ENDBRANCH   4   5
ENDBRANCH   2   3
ENDBRANCH   1   2
BRANCH   1   8
ATOM      8  C   UNL     1      29.260   4.191 -28.114  1.00  0.00     0.000 C 
BRANCH   8   9
ATOM      9  C   UNL     1      30.131   3.750 -26.929  1.00  0.00    -0.000 C 
BRANCH   9  10
ATOM     10  C   UNL     1      31.133   4.831 -26.498  1.00  0.00    -0.003 C 
ATOM     11  C   UNL     1      31.115   6.054 -27.416  1.00  0.00     0.004 C 
ENDBRANCH   9  10
ENDBRANCH   8   9
ENDBRANCH   1   8
TORSDOF 6
ENDMDL
