MODEL 1
REMARK VINA RESULT:    -4.298      0.000      0.000
REMARK INTER + INTRA:          -8.785
REMARK INTER:                  -7.816
REMARK INTRA:                  -0.969
REMARK UNBOUND:                -0.969
REMARK SMILES CCCCCCCCCCCCCC[C@@H](C)C(=O)[O-]
REMARK SMILES IDX 9 1 10 2 11 3 12 4 13 5 14 6 15 7 16 8 17 9 18 10 19 11 8 12
REMARK SMILES IDX 7 13 6 14 5 15 4 16 3 17 2 18 1 19
REMARK H PARENT
REMARK Flexibility Score: inf
ROOT
ATOM      1  C   UNL     1      20.639 -19.890 -19.221  1.00  0.00     0.000 C 
ENDROOT
BRANCH   1   2
ATOM      2  C   UNL     1      19.791 -20.886 -20.022  1.00  0.00     0.000 C 
BRANCH   2   3
ATOM      3  C   UNL     1      19.628 -22.206 -19.255  1.00  0.00     0.000 C 
BRANCH   3   4
ATOM      4  C   UNL     1      19.055 -23.326 -20.141  1.00  0.00     0.000 C 
BRANCH   4   5
ATOM      5  C   UNL     1      18.119 -24.264 -19.359  1.00  0.00     0.001 C 
BRANCH   5   6
ATOM      6  C   UNL     1      17.256 -23.510 -18.322  1.00  0.00     0.009 C 
BRANCH   6   7
ATOM      7  C   UNL     1      15.741 -23.811 -18.377  1.00  0.00     0.032 C 
ATOM      8  C   UNL     1      15.032 -23.568 -17.038  1.00  0.00     0.014 C 
BRANCH   7   9
ATOM      9  C   UNL     1      15.074 -23.084 -19.519  1.00  0.00     0.044 C 
ATOM     10  O   UNL     1      14.832 -21.849 -19.452  1.00  0.00    -0.550 OA
ATOM     11  O   UNL     1      14.757 -23.776 -20.680  1.00  0.00    -0.550 OA
ENDBRANCH   7   9
ENDBRANCH   6   7
ENDBRANCH   5   6
ENDBRANCH   4   5
ENDBRANCH   3   4
ENDBRANCH   2   3
ENDBRANCH   1   2
BRANCH   1  12
ATOM     12  C   UNL     1      21.315 -20.545 -18.005  1.00  0.00     0.000 C 
BRANCH  12  13
ATOM     13  C   UNL     1      21.492 -19.562 -16.834  1.00  0.00    -0.000 C 
BRANCH  13  14
ATOM     14  C   UNL     1      22.430 -18.393 -17.176  1.00  0.00    -0.000 C 
BRANCH  14  15
ATOM     15  C   UNL     1      21.723 -17.031 -17.102  1.00  0.00    -0.000 C 
BRANCH  15  16
ATOM     16  C   UNL     1      20.267 -17.195 -16.650  1.00  0.00    -0.000 C 
BRANCH  16  17
ATOM     17  C   UNL     1      19.731 -15.899 -16.031  1.00  0.00    -0.000 C 
BRANCH  17  18
ATOM     18  C   UNL     1      18.433 -16.155 -15.257  1.00  0.00    -0.003 C 
ATOM     19  C   UNL     1      17.273 -15.358 -15.847  1.00  0.00     0.004 C 
ENDBRANCH  17  18
ENDBRANCH  16  17
ENDBRANCH  15  16
ENDBRANCH  14  15
ENDBRANCH  13  14
ENDBRANCH  12  13
ENDBRANCH   1  12
TORSDOF 14
ENDMDL
MODEL 2
REMARK VINA RESULT:    -4.149      4.039      8.305
REMARK INTER + INTRA:          -8.513
REMARK INTER:                  -7.357
REMARK INTRA:                  -1.157
REMARK UNBOUND:                -0.969
REMARK SMILES CCCCCCCCCCCCCC[C@@H](C)C(=O)[O-]
REMARK SMILES IDX 9 1 10 2 11 3 12 4 13 5 14 6 15 7 16 8 17 9 18 10 19 11 8 12
REMARK SMILES IDX 7 13 6 14 5 15 4 16 3 17 2 18 1 19
REMARK H PARENT
REMARK Flexibility Score: inf
ROOT
ATOM      1  C   UNL     1      20.765 -20.654 -18.827  1.00  0.00     0.000 C 
ENDROOT
BRANCH   1   2
ATOM      2  C   UNL     1      20.849 -19.146 -18.556  1.00  0.00     0.000 C 
BRANCH   2   3
ATOM      3  C   UNL     1      21.167 -18.871 -17.080  1.00  0.00     0.000 C 
BRANCH   3   4
ATOM      4  C   UNL     1      22.527 -19.454 -16.660  1.00  0.00     0.000 C 
BRANCH   4   5
ATOM      5  C   UNL     1      23.706 -18.683 -17.279  1.00  0.00     0.001 C 
BRANCH   5   6
ATOM      6  C   UNL     1      23.932 -17.309 -16.610  1.00  0.00     0.009 C 
BRANCH   6   7
ATOM      7  C   UNL     1      23.800 -16.087 -17.546  1.00  0.00     0.032 C 
ATOM      8  C   UNL     1      23.489 -16.475 -18.998  1.00  0.00     0.014 C 
BRANCH   7   9
ATOM      9  C   UNL     1      22.820 -15.077 -17.001  1.00  0.00     0.044 C 
ATOM     10  O   UNL     1      21.719 -15.439 -16.504  1.00  0.00    -0.550 OA
ATOM     11  O   UNL     1      23.150 -13.728 -17.010  1.00  0.00    -0.550 OA
ENDBRANCH   7   9
ENDBRANCH   6   7
ENDBRANCH   5   6
ENDBRANCH   4   5
ENDBRANCH   3   4
ENDBRANCH   2   3
ENDBRANCH   1   2
BRANCH   1  12
ATOM     12  C   UNL     1      19.919 -20.977 -20.070  1.00  0.00     0.000 C 
BRANCH  12  13
ATOM     13  C   UNL     1      19.979 -22.468 -20.447  1.00  0.00    -0.000 C 
BRANCH  13  14
ATOM     14  C   UNL     1      18.586 -23.090 -20.632  1.00  0.00    -0.000 C 
BRANCH  14  15
ATOM     15  C   UNL     1      17.547 -22.505 -19.663  1.00  0.00    -0.000 C 
BRANCH  15  16
ATOM     16  C   UNL     1      17.262 -23.479 -18.514  1.00  0.00    -0.000 C 
BRANCH  16  17
ATOM     17  C   UNL     1      16.129 -24.446 -18.877  1.00  0.00    -0.000 C 
BRANCH  17  18
ATOM     18  C   UNL     1      14.796 -23.978 -18.282  1.00  0.00    -0.003 C 
ATOM     19  C   UNL     1      15.016 -23.149 -17.020  1.00  0.00     0.004 C 
ENDBRANCH  17  18
ENDBRANCH  16  17
ENDBRANCH  15  16
ENDBRANCH  14  15
ENDBRANCH  13  14
ENDBRANCH  12  13
ENDBRANCH   1  12
TORSDOF 14
ENDMDL
MODEL 3
REMARK VINA RESULT:    -4.113      3.637      7.520
REMARK INTER + INTRA:          -8.448
REMARK INTER:                  -6.883
REMARK INTRA:                  -1.566
REMARK UNBOUND:                -0.969
REMARK SMILES CCCCCCCCCCCCCC[C@@H](C)C(=O)[O-]
REMARK SMILES IDX 9 1 10 2 11 3 12 4 13 5 14 6 15 7 16 8 17 9 18 10 19 11 8 12
REMARK SMILES IDX 7 13 6 14 5 15 4 16 3 17 2 18 1 19
REMARK H PARENT
REMARK Flexibility Score: inf
ROOT
ATOM      1  C   UNL     1      18.530 -23.149 -20.268  1.00  0.00     0.000 C 
ENDROOT
BRANCH   1   2
ATOM      2  C   UNL     1      19.735 -22.232 -20.516  1.00  0.00     0.000 C 
BRANCH   2   3
ATOM      3  C   UNL     1      19.313 -20.756 -20.499  1.00  0.00     0.000 C 
BRANCH   3   4
ATOM      4  C   UNL     1      20.236 -19.898 -19.617  1.00  0.00     0.000 C 
BRANCH   4   5
ATOM      5  C   UNL     1      20.906 -20.722 -18.504  1.00  0.00     0.001 C 
BRANCH   5   6
ATOM      6  C   UNL     1      21.481 -19.837 -17.376  1.00  0.00     0.009 C 
BRANCH   6   7
ATOM      7  C   UNL     1      21.466 -18.317 -17.654  1.00  0.00     0.032 C 
ATOM      8  C   UNL     1      20.529 -17.545 -16.715  1.00  0.00     0.014 C 
BRANCH   7   9
ATOM      9  C   UNL     1      22.862 -17.744 -17.669  1.00  0.00     0.044 C 
ATOM     10  O   UNL     1      23.690 -18.067 -18.564  1.00  0.00    -0.550 OA
ATOM     11  O   UNL     1      23.232 -16.816 -16.705  1.00  0.00    -0.550 OA
ENDBRANCH   7   9
ENDBRANCH   6   7
ENDBRANCH   5   6
ENDBRANCH   4   5
ENDBRANCH   3   4
ENDBRANCH   2   3
ENDBRANCH   1   2
BRANCH   1  12
ATOM     12  C   UNL     1      17.968 -23.001 -18.843  1.00  0.00     0.000 C 
BRANCH  12  13
ATOM     13  C   UNL     1      16.944 -24.097 -18.501  1.00  0.00    -0.000 C 
BRANCH  13  14
ATOM     14  C   UNL     1      16.045 -23.720 -17.313  1.00  0.00    -0.000 C 
BRANCH  14  15
ATOM     15  C   UNL     1      14.683 -23.164 -17.758  1.00  0.00    -0.000 C 
BRANCH  15  16
ATOM     16  C   UNL     1      14.141 -23.948 -18.959  1.00  0.00    -0.000 C 
BRANCH  16  17
ATOM     17  C   UNL     1      13.954 -23.034 -20.175  1.00  0.00    -0.000 C 
BRANCH  17  18
ATOM     18  C   UNL     1      14.089 -21.559 -19.780  1.00  0.00    -0.003 C 
ATOM     19  C   UNL     1      15.287 -20.911 -20.470  1.00  0.00     0.004 C 
ENDBRANCH  17  18
ENDBRANCH  16  17
ENDBRANCH  15  16
ENDBRANCH  14  15
ENDBRANCH  13  14
ENDBRANCH  12  13
ENDBRANCH   1  12
TORSDOF 14
ENDMDL
MODEL 4
REMARK VINA RESULT:    -4.088      1.799      3.279
REMARK INTER + INTRA:          -8.403
REMARK INTER:                  -7.178
REMARK INTRA:                  -1.226
REMARK UNBOUND:                -0.969
REMARK SMILES CCCCCCCCCCCCCC[C@@H](C)C(=O)[O-]
REMARK SMILES IDX 9 1 10 2 11 3 12 4 13 5 14 6 15 7 16 8 17 9 18 10 19 11 8 12
REMARK SMILES IDX 7 13 6 14 5 15 4 16 3 17 2 18 1 19
REMARK H PARENT
REMARK Flexibility Score: inf
ROOT
ATOM      1  C   UNL     1      20.623 -21.317 -18.566  1.00  0.00     0.000 C 
ENDROOT
BRANCH   1   2
ATOM      2  C   UNL     1      20.448 -21.895 -19.976  1.00  0.00     0.000 C 
BRANCH   2   3
ATOM      3  C   UNL     1      19.411 -23.027 -19.980  1.00  0.00     0.000 C 
BRANCH   3   4
ATOM      4  C   UNL     1      18.061 -22.580 -19.394  1.00  0.00     0.000 C 
BRANCH   4   5
ATOM      5  C   UNL     1      17.468 -23.630 -18.438  1.00  0.00     0.001 C 
BRANCH   5   6
ATOM      6  C   UNL     1      16.239 -24.351 -19.037  1.00  0.00     0.009 C 
BRANCH   6   7
ATOM      7  C   UNL     1      14.888 -24.034 -18.357  1.00  0.00     0.032 C 
ATOM      8  C   UNL     1      15.050 -23.338 -16.998  1.00  0.00     0.014 C 
BRANCH   7   9
ATOM      9  C   UNL     1      13.968 -23.276 -19.283  1.00  0.00     0.044 C 
ATOM     10  O   UNL     1      13.983 -22.016 -19.329  1.00  0.00    -0.550 OA
ATOM     11  O   UNL     1      13.118 -23.976 -20.128  1.00  0.00    -0.550 OA
ENDBRANCH   7   9
ENDBRANCH   6   7
ENDBRANCH   5   6
ENDBRANCH   4   5
ENDBRANCH   3   4
ENDBRANCH   2   3
ENDBRANCH   1   2
BRANCH   1  12
ATOM     12  C   UNL     1      20.968 -19.818 -18.590  1.00  0.00     0.000 C 
BRANCH  12  13
ATOM     13  C   UNL     1      21.300 -19.272 -17.189  1.00  0.00    -0.000 C 
BRANCH  13  14
ATOM     14  C   UNL     1      21.321 -17.736 -17.140  1.00  0.00    -0.000 C 
BRANCH  14  15
ATOM     15  C   UNL     1      22.748 -17.167 -17.140  1.00  0.00    -0.000 C 
BRANCH  15  16
ATOM     16  C   UNL     1      23.123 -16.638 -18.530  1.00  0.00    -0.000 C 
BRANCH  16  17
ATOM     17  C   UNL     1      24.343 -17.377 -19.091  1.00  0.00    -0.000 C 
BRANCH  17  18
ATOM     18  C   UNL     1      24.807 -18.478 -18.131  1.00  0.00    -0.003 C 
ATOM     19  C   UNL     1      24.708 -19.856 -18.781  1.00  0.00     0.004 C 
ENDBRANCH  17  18
ENDBRANCH  16  17
ENDBRANCH  15  16
ENDBRANCH  14  15
ENDBRANCH  13  14
ENDBRANCH  12  13
ENDBRANCH   1  12
TORSDOF 14
ENDMDL
MODEL 5
REMARK VINA RESULT:    -4.086      1.976      2.772
REMARK INTER + INTRA:          -8.399
REMARK INTER:                  -7.434
REMARK INTRA:                  -0.965
REMARK UNBOUND:                -0.969
REMARK SMILES CCCCCCCCCCCCCC[C@@H](C)C(=O)[O-]
REMARK SMILES IDX 9 1 10 2 11 3 12 4 13 5 14 6 15 7 16 8 17 9 18 10 19 11 8 12
REMARK SMILES IDX 7 13 6 14 5 15 4 16 3 17 2 18 1 19
REMARK H PARENT
REMARK Flexibility Score: inf
ROOT
ATOM      1  C   UNL     1      21.040 -20.364 -18.770  1.00  0.00     0.000 C 
ENDROOT
BRANCH   1   2
ATOM      2  C   UNL     1      20.556 -21.818 -18.843  1.00  0.00     0.000 C 
BRANCH   2   3
ATOM      3  C   UNL     1      19.216 -21.913 -19.586  1.00  0.00     0.000 C 
BRANCH   3   4
ATOM      4  C   UNL     1      18.582 -23.309 -19.464  1.00  0.00     0.000 C 
BRANCH   4   5
ATOM      5  C   UNL     1      17.416 -23.331 -18.460  1.00  0.00     0.001 C 
BRANCH   5   6
ATOM      6  C   UNL     1      16.294 -24.309 -18.875  1.00  0.00     0.009 C 
BRANCH   6   7
ATOM      7  C   UNL     1      14.920 -24.060 -18.212  1.00  0.00     0.032 C 
ATOM      8  C   UNL     1      15.012 -23.191 -16.951  1.00  0.00     0.014 C 
BRANCH   7   9
ATOM      9  C   UNL     1      13.917 -23.525 -19.204  1.00  0.00     0.044 C 
ATOM     10  O   UNL     1      13.117 -24.296 -19.802  1.00  0.00    -0.550 OA
ATOM     11  O   UNL     1      13.843 -22.158 -19.436  1.00  0.00    -0.550 OA
ENDBRANCH   7   9
ENDBRANCH   6   7
ENDBRANCH   5   6
ENDBRANCH   4   5
ENDBRANCH   3   4
ENDBRANCH   2   3
ENDBRANCH   1   2
BRANCH   1  12
ATOM     12  C   UNL     1      21.314 -19.913 -17.325  1.00  0.00     0.000 C 
BRANCH  12  13
ATOM     13  C   UNL     1      22.728 -19.330 -17.153  1.00  0.00    -0.000 C 
BRANCH  13  14
ATOM     14  C   UNL     1      23.591 -19.481 -18.416  1.00  0.00    -0.000 C 
BRANCH  14  15
ATOM     15  C   UNL     1      24.524 -18.281 -18.639  1.00  0.00    -0.000 C 
BRANCH  15  16
ATOM     16  C   UNL     1      23.717 -16.994 -18.847  1.00  0.00    -0.000 C 
BRANCH  16  17
ATOM     17  C   UNL     1      24.451 -15.781 -18.264  1.00  0.00    -0.000 C 
BRANCH  17  18
ATOM     18  C   UNL     1      23.740 -15.258 -17.011  1.00  0.00    -0.003 C 
ATOM     19  C   UNL     1      22.274 -15.685 -16.991  1.00  0.00     0.004 C 
ENDBRANCH  17  18
ENDBRANCH  16  17
ENDBRANCH  15  16
ENDBRANCH  14  15
ENDBRANCH  13  14
ENDBRANCH  12  13
ENDBRANCH   1  12
TORSDOF 14
ENDMDL
MODEL 6
REMARK VINA RESULT:    -4.010      2.819      7.440
REMARK INTER + INTRA:          -8.260
REMARK INTER:                  -7.538
REMARK INTRA:                  -0.722
REMARK UNBOUND:                -0.969
REMARK SMILES CCCCCCCCCCCCCC[C@@H](C)C(=O)[O-]
REMARK SMILES IDX 9 1 10 2 11 3 12 4 13 5 14 6 15 7 16 8 17 9 18 10 19 11 8 12
REMARK SMILES IDX 7 13 6 14 5 15 4 16 3 17 2 18 1 19
REMARK H PARENT
REMARK Flexibility Score: inf
ROOT
ATOM      1  C   UNL     1      21.881 -20.296 -18.380  1.00  0.00     0.000 C 
ENDROOT
BRANCH   1   2
ATOM      2  C   UNL     1      21.626 -19.502 -17.092  1.00  0.00     0.000 C 
BRANCH   2   3
ATOM      3  C   UNL     1      22.508 -18.246 -17.039  1.00  0.00     0.000 C 
BRANCH   3   4
ATOM      4  C   UNL     1      21.676 -16.952 -17.030  1.00  0.00     0.000 C 
BRANCH   4   5
ATOM      5  C   UNL     1      20.252 -17.180 -16.495  1.00  0.00     0.001 C 
BRANCH   5   6
ATOM      6  C   UNL     1      19.490 -15.858 -16.252  1.00  0.00     0.009 C 
BRANCH   6   7
ATOM      7  C   UNL     1      18.264 -15.962 -15.317  1.00  0.00     0.032 C 
ATOM      8  C   UNL     1      18.625 -15.801 -13.834  1.00  0.00     0.014 C 
BRANCH   7   9
ATOM      9  C   UNL     1      17.162 -15.024 -15.744  1.00  0.00     0.044 C 
ATOM     10  O   UNL     1      16.826 -14.044 -15.025  1.00  0.00    -0.550 OA
ATOM     11  O   UNL     1      16.534 -15.216 -16.967  1.00  0.00    -0.550 OA
ENDBRANCH   7   9
ENDBRANCH   6   7
ENDBRANCH   5   6
ENDBRANCH   4   5
ENDBRANCH   3   4
ENDBRANCH   2   3
ENDBRANCH   1   2
BRANCH   1  12
ATOM     12  C   UNL     1      20.617 -20.418 -19.248  1.00  0.00     0.000 C 
BRANCH  12  13
ATOM     13  C   UNL     1      20.371 -21.861 -19.722  1.00  0.00    -0.000 C 
BRANCH  13  14
ATOM     14  C   UNL     1      19.019 -22.419 -19.250  1.00  0.00    -0.000 C 
BRANCH  14  15
ATOM     15  C   UNL     1      18.832 -23.900 -19.618  1.00  0.00    -0.000 C 
BRANCH  15  16
ATOM     16  C   UNL     1      17.431 -24.387 -19.226  1.00  0.00    -0.000 C 
BRANCH  16  17
ATOM     17  C   UNL     1      16.761 -23.411 -18.253  1.00  0.00    -0.000 C 
BRANCH  17  18
ATOM     18  C   UNL     1      15.388 -23.932 -17.812  1.00  0.00    -0.003 C 
ATOM     19  C   UNL     1      14.261 -23.108 -18.431  1.00  0.00     0.004 C 
ENDBRANCH  17  18
ENDBRANCH  16  17
ENDBRANCH  15  16
ENDBRANCH  14  15
ENDBRANCH  13  14
ENDBRANCH  12  13
ENDBRANCH   1  12
TORSDOF 14
ENDMDL
MODEL 7
REMARK VINA RESULT:    -4.003      3.741      8.212
REMARK INTER + INTRA:          -8.248
REMARK INTER:                  -7.127
REMARK INTRA:                  -1.121
REMARK UNBOUND:                -0.969
REMARK SMILES CCCCCCCCCCCCCC[C@@H](C)C(=O)[O-]
REMARK SMILES IDX 9 1 10 2 11 3 12 4 13 5 14 6 15 7 16 8 17 9 18 10 19 11 8 12
REMARK SMILES IDX 7 13 6 14 5 15 4 16 3 17 2 18 1 19
REMARK H PARENT
REMARK Flexibility Score: inf
ROOT
ATOM      1  C   UNL     1      21.364 -19.804 -17.162  1.00  0.00     0.000 C 
ENDROOT
BRANCH   1   2
ATOM      2  C   UNL     1      22.836 -19.459 -16.902  1.00  0.00     0.000 C 
BRANCH   2   3
ATOM      3  C   UNL     1      23.652 -19.525 -18.202  1.00  0.00     0.000 C 
BRANCH   3   4
ATOM      4  C   UNL     1      24.813 -18.517 -18.210  1.00  0.00     0.000 C 
BRANCH   4   5
ATOM      5  C   UNL     1      24.641 -17.441 -19.297  1.00  0.00     0.001 C 
BRANCH   5   6
ATOM      6  C   UNL     1      23.606 -16.362 -18.905  1.00  0.00     0.009 C 
BRANCH   6   7
ATOM      7  C   UNL     1      23.665 -15.894 -17.433  1.00  0.00     0.032 C 
ATOM      8  C   UNL     1      24.772 -14.863 -17.176  1.00  0.00     0.014 C 
BRANCH   7   9
ATOM      9  C   UNL     1      22.316 -15.419 -16.951  1.00  0.00     0.044 C 
ATOM     10  O   UNL     1      22.090 -14.196 -16.749  1.00  0.00    -0.550 OA
ATOM     11  O   UNL     1      21.293 -16.339 -16.764  1.00  0.00    -0.550 OA
ENDBRANCH   7   9
ENDBRANCH   6   7
ENDBRANCH   5   6
ENDBRANCH   4   5
ENDBRANCH   3   4
ENDBRANCH   2   3
ENDBRANCH   1   2
BRANCH   1  12
ATOM     12  C   UNL     1      21.096 -20.139 -18.639  1.00  0.00     0.000 C 
BRANCH  12  13
ATOM     13  C   UNL     1      20.527 -21.557 -18.822  1.00  0.00    -0.000 C 
BRANCH  13  14
ATOM     14  C   UNL     1      19.476 -21.636 -19.941  1.00  0.00    -0.000 C 
BRANCH  14  15
ATOM     15  C   UNL     1      18.696 -22.959 -19.924  1.00  0.00    -0.000 C 
BRANCH  15  16
ATOM     16  C   UNL     1      17.311 -22.768 -19.293  1.00  0.00    -0.000 C 
BRANCH  16  17
ATOM     17  C   UNL     1      17.127 -23.684 -18.077  1.00  0.00    -0.000 C 
BRANCH  17  18
ATOM     18  C   UNL     1      15.661 -23.718 -17.632  1.00  0.00    -0.003 C 
ATOM     19  C   UNL     1      14.834 -22.674 -18.377  1.00  0.00     0.004 C 
ENDBRANCH  17  18
ENDBRANCH  16  17
ENDBRANCH  15  16
ENDBRANCH  14  15
ENDBRANCH  13  14
ENDBRANCH  12  13
ENDBRANCH   1  12
TORSDOF 14
ENDMDL
MODEL 8
REMARK VINA RESULT:    -3.987      3.985      8.273
REMARK INTER + INTRA:          -8.219
REMARK INTER:                  -7.183
REMARK INTRA:                  -1.035
REMARK UNBOUND:                -0.969
REMARK SMILES CCCCCCCCCCCCCC[C@@H](C)C(=O)[O-]
REMARK SMILES IDX 9 1 10 2 11 3 12 4 13 5 14 6 15 7 16 8 17 9 18 10 19 11 8 12
REMARK SMILES IDX 7 13 6 14 5 15 4 16 3 17 2 18 1 19
REMARK H PARENT
REMARK Flexibility Score: inf
ROOT
ATOM      1  C   UNL     1      19.689 -20.768 -19.953  1.00  0.00     0.000 C 
ENDROOT
BRANCH   1   2
ATOM      2  C   UNL     1      20.608 -21.278 -18.836  1.00  0.00     0.000 C 
BRANCH   2   3
ATOM      3  C   UNL     1      21.641 -20.211 -18.447  1.00  0.00     0.000 C 
BRANCH   3   4
ATOM      4  C   UNL     1      21.284 -19.510 -17.125  1.00  0.00     0.000 C 
BRANCH   4   5
ATOM      5  C   UNL     1      21.236 -17.979 -17.274  1.00  0.00     0.001 C 
BRANCH   5   6
ATOM      6  C   UNL     1      22.590 -17.309 -16.947  1.00  0.00     0.009 C 
BRANCH   6   7
ATOM      7  C   UNL     1      23.097 -16.294 -17.997  1.00  0.00     0.032 C 
ATOM      8  C   UNL     1      23.677 -15.020 -17.369  1.00  0.00     0.014 C 
BRANCH   7   9
ATOM      9  C   UNL     1      24.052 -16.939 -18.972  1.00  0.00     0.044 C 
ATOM     10  O   UNL     1      24.567 -18.064 -18.731  1.00  0.00    -0.550 OA
ATOM     11  O   UNL     1      24.339 -16.303 -20.172  1.00  0.00    -0.550 OA
ENDBRANCH   7   9
ENDBRANCH   6   7
ENDBRANCH   5   6
ENDBRANCH   4   5
ENDBRANCH   3   4
ENDBRANCH   2   3
ENDBRANCH   1   2
BRANCH   1  12
ATOM     12  C   UNL     1      18.898 -21.906 -20.621  1.00  0.00     0.000 C 
BRANCH  12  13
ATOM     13  C   UNL     1      19.271 -23.288 -20.056  1.00  0.00    -0.000 C 
BRANCH  13  14
ATOM     14  C   UNL     1      18.051 -24.067 -19.538  1.00  0.00    -0.000 C 
BRANCH  14  15
ATOM     15  C   UNL     1      16.971 -23.145 -18.949  1.00  0.00    -0.000 C 
BRANCH  15  16
ATOM     16  C   UNL     1      16.461 -23.689 -17.608  1.00  0.00    -0.000 C 
BRANCH  16  17
ATOM     17  C   UNL     1      14.930 -23.663 -17.548  1.00  0.00    -0.000 C 
BRANCH  17  18
ATOM     18  C   UNL     1      14.331 -23.372 -18.929  1.00  0.00    -0.003 C 
ATOM     19  C   UNL     1      13.575 -24.584 -19.468  1.00  0.00     0.004 C 
ENDBRANCH  17  18
ENDBRANCH  16  17
ENDBRANCH  15  16
ENDBRANCH  14  15
ENDBRANCH  13  14
ENDBRANCH  12  13
ENDBRANCH   1  12
TORSDOF 14
ENDMDL
MODEL 9
REMARK VINA RESULT:    -3.786      2.287      3.085
REMARK INTER + INTRA:          -7.853
REMARK INTER:                  -6.792
REMARK INTRA:                  -1.061
REMARK UNBOUND:                -0.969
REMARK SMILES CCCCCCCCCCCCCC[C@@H](C)C(=O)[O-]
REMARK SMILES IDX 9 1 10 2 11 3 12 4 13 5 14 6 15 7 16 8 17 9 18 10 19 11 8 12
REMARK SMILES IDX 7 13 6 14 5 15 4 16 3 17 2 18 1 19
REMARK H PARENT
REMARK Flexibility Score: inf
ROOT
ATOM      1  C   UNL     1      20.260 -21.430 -19.879  1.00  0.00     0.000 C 
ENDROOT
BRANCH   1   2
ATOM      2  C   UNL     1      19.956 -22.759 -19.176  1.00  0.00     0.000 C 
BRANCH   2   3
ATOM      3  C   UNL     1      18.450 -23.056 -19.194  1.00  0.00     0.000 C 
BRANCH   3   4
ATOM      4  C   UNL     1      17.683 -22.117 -20.141  1.00  0.00     0.000 C 
BRANCH   4   5
ATOM      5  C   UNL     1      16.265 -22.631 -20.445  1.00  0.00     0.001 C 
BRANCH   5   6
ATOM      6  C   UNL     1      15.210 -22.075 -19.462  1.00  0.00     0.009 C 
BRANCH   6   7
ATOM      7  C   UNL     1      14.473 -23.136 -18.613  1.00  0.00     0.032 C 
ATOM      8  C   UNL     1      14.369 -24.498 -19.314  1.00  0.00     0.014 C 
BRANCH   7   9
ATOM      9  C   UNL     1      15.066 -23.246 -17.230  1.00  0.00     0.044 C 
ATOM     10  O   UNL     1      16.074 -23.971 -17.010  1.00  0.00    -0.550 OA
ATOM     11  O   UNL     1      14.520 -22.507 -16.189  1.00  0.00    -0.550 OA
ENDBRANCH   7   9
ENDBRANCH   6   7
ENDBRANCH   5   6
ENDBRANCH   4   5
ENDBRANCH   3   4
ENDBRANCH   2   3
ENDBRANCH   1   2
BRANCH   1  12
ATOM     12  C   UNL     1      21.398 -20.655 -19.193  1.00  0.00     0.000 C 
BRANCH  12  13
ATOM     13  C   UNL     1      20.892 -19.399 -18.461  1.00  0.00    -0.000 C 
BRANCH  13  14
ATOM     14  C   UNL     1      21.463 -19.269 -17.040  1.00  0.00    -0.000 C 
BRANCH  14  15
ATOM     15  C   UNL     1      22.989 -19.082 -17.033  1.00  0.00    -0.000 C 
BRANCH  15  16
ATOM     16  C   UNL     1      23.404 -17.960 -17.994  1.00  0.00    -0.000 C 
BRANCH  16  17
ATOM     17  C   UNL     1      24.236 -16.895 -17.271  1.00  0.00    -0.000 C 
BRANCH  17  18
ATOM     18  C   UNL     1      23.648 -15.496 -17.492  1.00  0.00    -0.003 C 
ATOM     19  C   UNL     1      22.264 -15.373 -16.859  1.00  0.00     0.004 C 
ENDBRANCH  17  18
ENDBRANCH  16  17
ENDBRANCH  15  16
ENDBRANCH  14  15
ENDBRANCH  13  14
ENDBRANCH  12  13
ENDBRANCH   1  12
TORSDOF 14
ENDMDL
