MODEL 1
REMARK VINA RESULT:    -6.409      0.000      0.000
REMARK INTER + INTRA:         -11.431
REMARK INTER:                  -9.593
REMARK INTRA:                  -1.838
REMARK UNBOUND:                -1.838
REMARK SMILES O=c1c(O[C@@H]2O[C@@H](CO)[C@@H](O)[C@@H](O)[C@@H]2O)c(-c2cc(O)c(O)c(O)c2)oc2cc(O)cc(O)c12
REMARK SMILES IDX 4 1 3 2 16 3 26 4 2 5 27 6 1 7 34 8 28 9 32 10 29 11 31 12
REMARK SMILES IDX 17 13 18 14 19 15 25 16 21 17 23 18 20 19 22 21 24 23 33 25
REMARK SMILES IDX 30 27 5 29 14 30 6 31 12 32 7 33 10 34 15 35 13 37 8 39 9 40
REMARK SMILES IDX 11 42
REMARK H PARENT 20 20 22 22 24 24 33 26 30 28 15 36 13 38 9 41 11 43
REMARK Flexibility Score: inf
ROOT
ATOM      1  O   UNL     1     -36.901   6.194  79.472  1.00  0.00    -0.454 OA
ENDROOT
BRANCH   1   2
ATOM      2  C   UNL     1     -37.953   5.470  80.057  1.00  0.00     0.214 A 
ATOM      3  C   UNL     1     -39.268   5.827  79.724  1.00  0.00     0.181 A 
ATOM      4  O   UNL     1     -40.291   5.253  80.342  1.00  0.00    -0.452 OA
ATOM      5  C   UNL     1     -37.751   4.432  80.987  1.00  0.00     0.239 A 
ATOM      6  C   UNL     1     -40.150   4.316  81.269  1.00  0.00     0.146 A 
ATOM      7  O   UNL     1     -36.586   4.007  81.180  1.00  0.00    -0.285 OA
ATOM      8  C   UNL     1     -38.862   3.855  81.654  1.00  0.00     0.111 A 
ATOM      9  C   UNL     1     -41.301   3.783  81.853  1.00  0.00     0.094 A 
ATOM     10  C   UNL     1     -38.779   2.840  82.663  1.00  0.00     0.134 A 
ATOM     11  C   UNL     1     -41.208   2.776  82.812  1.00  0.00     0.123 A 
ATOM     12  C   UNL     1     -39.954   2.307  83.207  1.00  0.00     0.093 A 
BRANCH   3  13
ATOM     13  C   UNL     1     -39.555   6.862  78.704  1.00  0.00     0.029 A 
ATOM     14  C   UNL     1     -39.113   6.715  77.379  1.00  0.00     0.062 A 
ATOM     15  C   UNL     1     -39.375   7.703  76.426  1.00  0.00     0.162 A 
ATOM     16  C   UNL     1     -40.303   7.996  79.054  1.00  0.00     0.062 A 
ATOM     17  C   UNL     1     -40.106   8.856  76.782  1.00  0.00     0.200 A 
ATOM     18  C   UNL     1     -40.573   8.999  78.114  1.00  0.00     0.162 A 
BRANCH  15  19
ATOM     19  O   UNL     1     -38.900   7.520  75.125  1.00  0.00    -0.504 OA
ATOM     20  H   UNL     1     -39.262   8.046  74.338  1.00  0.00     0.293 HD
ENDBRANCH  15  19
BRANCH  17  21
ATOM     21  O   UNL     1     -40.346   9.824  75.797  1.00  0.00    -0.502 OA
ATOM     22  H   UNL     1     -39.910   9.823  74.879  1.00  0.00     0.293 HD
ENDBRANCH  17  21
BRANCH  18  23
ATOM     23  O   UNL     1     -41.297  10.116  78.546  1.00  0.00    -0.504 OA
ATOM     24  H   UNL     1     -41.890  10.123  79.364  1.00  0.00     0.293 HD
ENDBRANCH  18  23
ENDBRANCH   3  13
BRANCH  10  25
ATOM     25  O   UNL     1     -37.584   2.335  83.184  1.00  0.00    -0.507 OA
ATOM     26  H   UNL     1     -37.494   1.719  83.975  1.00  0.00     0.293 HD
ENDBRANCH  10  25
BRANCH  11  27
ATOM     27  O   UNL     1     -42.370   2.250  83.375  1.00  0.00    -0.508 OA
ATOM     28  H   UNL     1     -43.050   1.745  82.819  1.00  0.00     0.293 HD
ENDBRANCH  11  27
ENDBRANCH   1   2
BRANCH   1  29
ATOM     29  C   UNL     1     -36.158   7.263  80.067  1.00  0.00     0.339 C 
ATOM     30  C   UNL     1     -34.649   6.950  80.037  1.00  0.00     0.214 C 
ATOM     31  O   UNL     1     -36.427   8.507  79.430  1.00  0.00    -0.332 OA
ATOM     32  C   UNL     1     -34.145   6.955  78.574  1.00  0.00     0.180 C 
ATOM     33  C   UNL     1     -36.072   8.490  78.053  1.00  0.00     0.179 C 
ATOM     34  C   UNL     1     -34.553   8.268  77.869  1.00  0.00     0.177 C 
BRANCH  30  35
ATOM     35  O   UNL     1     -34.417   5.706  80.647  1.00  0.00    -0.384 OA
ATOM     36  H   UNL     1     -34.431   5.024  79.923  1.00  0.00     0.211 HD
ENDBRANCH  30  35
BRANCH  32  37
ATOM     37  O   UNL     1     -32.754   6.750  78.500  1.00  0.00    -0.387 OA
ATOM     38  H   UNL     1     -32.310   7.557  78.865  1.00  0.00     0.211 HD
ENDBRANCH  32  37
BRANCH  33  39
ATOM     39  C   UNL     1     -36.555   9.792  77.403  1.00  0.00     0.191 C 
BRANCH  39  40
ATOM     40  O   UNL     1     -35.791  10.088  76.266  1.00  0.00    -0.394 OA
ATOM     41  H   UNL     1     -35.119  10.763  76.553  1.00  0.00     0.210 HD
ENDBRANCH  39  40
ENDBRANCH  33  39
BRANCH  34  42
ATOM     42  O   UNL     1     -33.831   9.345  78.419  1.00  0.00    -0.387 OA
ATOM     43  H   UNL     1     -34.143  10.173  77.959  1.00  0.00     0.211 HD
ENDBRANCH  34  42
ENDBRANCH   1  29
TORSDOF 13
ENDMDL
MODEL 2
REMARK VINA RESULT:    -6.299      2.788      4.947
REMARK INTER + INTRA:         -11.267
REMARK INTER:                 -10.076
REMARK INTRA:                  -1.191
REMARK UNBOUND:                -1.838
REMARK SMILES O=c1c(O[C@@H]2O[C@@H](CO)[C@@H](O)[C@@H](O)[C@@H]2O)c(-c2cc(O)c(O)c(O)c2)oc2cc(O)cc(O)c12
REMARK SMILES IDX 4 1 3 2 16 3 26 4 2 5 27 6 1 7 34 8 28 9 32 10 29 11 31 12
REMARK SMILES IDX 17 13 18 14 19 15 25 16 21 17 23 18 20 19 22 21 24 23 33 25
REMARK SMILES IDX 30 27 5 29 14 30 6 31 12 32 7 33 10 34 15 35 13 37 8 39 9 40
REMARK SMILES IDX 11 42
REMARK H PARENT 20 20 22 22 24 24 33 26 30 28 15 36 13 38 9 41 11 43
REMARK Flexibility Score: inf
ROOT
ATOM      1  O   UNL     1     -38.074   5.626  81.662  1.00  0.00    -0.454 OA
ENDROOT
BRANCH   1   2
ATOM      2  C   UNL     1     -38.829   4.976  80.673  1.00  0.00     0.214 A 
ATOM      3  C   UNL     1     -38.298   4.900  79.376  1.00  0.00     0.181 A 
ATOM      4  O   UNL     1     -39.026   4.402  78.386  1.00  0.00    -0.452 OA
ATOM      5  C   UNL     1     -40.106   4.430  80.911  1.00  0.00     0.239 A 
ATOM      6  C   UNL     1     -40.256   3.935  78.549  1.00  0.00     0.146 A 
ATOM      7  O   UNL     1     -40.526   4.360  82.092  1.00  0.00    -0.285 OA
ATOM      8  C   UNL     1     -40.874   3.930  79.829  1.00  0.00     0.111 A 
ATOM      9  C   UNL     1     -40.928   3.435  77.432  1.00  0.00     0.094 A 
ATOM     10  C   UNL     1     -42.206   3.411  79.936  1.00  0.00     0.134 A 
ATOM     11  C   UNL     1     -42.212   2.907  77.554  1.00  0.00     0.123 A 
ATOM     12  C   UNL     1     -42.840   2.891  78.801  1.00  0.00     0.093 A 
BRANCH   3  13
ATOM     13  C   UNL     1     -36.935   5.390  79.068  1.00  0.00     0.029 A 
ATOM     14  C   UNL     1     -35.810   4.570  79.255  1.00  0.00     0.062 A 
ATOM     15  C   UNL     1     -34.526   5.045  78.976  1.00  0.00     0.162 A 
ATOM     16  C   UNL     1     -36.760   6.684  78.554  1.00  0.00     0.062 A 
ATOM     17  C   UNL     1     -34.347   6.354  78.482  1.00  0.00     0.200 A 
ATOM     18  C   UNL     1     -35.481   7.179  78.271  1.00  0.00     0.162 A 
BRANCH  15  19
ATOM     19  O   UNL     1     -33.437   4.198  79.195  1.00  0.00    -0.504 OA
ATOM     20  H   UNL     1     -32.988   3.689  78.443  1.00  0.00     0.293 HD
ENDBRANCH  15  19
BRANCH  17  21
ATOM     21  O   UNL     1     -33.042   6.794  78.217  1.00  0.00    -0.502 OA
ATOM     22  H   UNL     1     -32.809   7.734  77.910  1.00  0.00     0.293 HD
ENDBRANCH  17  21
BRANCH  18  23
ATOM     23  O   UNL     1     -35.384   8.491  77.792  1.00  0.00    -0.504 OA
ATOM     24  H   UNL     1     -34.731   8.785  77.079  1.00  0.00     0.293 HD
ENDBRANCH  18  23
ENDBRANCH   3  13
BRANCH  10  25
ATOM     25  O   UNL     1     -42.960   3.399  81.113  1.00  0.00    -0.507 OA
ATOM     26  H   UNL     1     -43.642   4.087  81.389  1.00  0.00     0.293 HD
ENDBRANCH  10  25
BRANCH  11  27
ATOM     27  O   UNL     1     -42.862   2.403  76.429  1.00  0.00    -0.508 OA
ATOM     28  H   UNL     1     -42.834   1.417  76.194  1.00  0.00     0.293 HD
ENDBRANCH  11  27
ENDBRANCH   1   2
BRANCH   1  29
ATOM     29  C   UNL     1     -38.575   6.433  82.733  1.00  0.00     0.339 C 
ATOM     30  C   UNL     1     -37.429   6.831  83.685  1.00  0.00     0.214 C 
ATOM     31  O   UNL     1     -39.251   7.588  82.248  1.00  0.00    -0.332 OA
ATOM     32  C   UNL     1     -36.457   7.791  82.957  1.00  0.00     0.180 C 
ATOM     33  C   UNL     1     -38.396   8.425  81.480  1.00  0.00     0.179 C 
ATOM     34  C   UNL     1     -37.233   8.975  82.339  1.00  0.00     0.177 C 
BRANCH  30  35
ATOM     35  O   UNL     1     -36.763   5.676  84.125  1.00  0.00    -0.384 OA
ATOM     36  H   UNL     1     -37.115   5.468  85.032  1.00  0.00     0.211 HD
ENDBRANCH  30  35
BRANCH  32  37
ATOM     37  O   UNL     1     -35.435   8.245  83.812  1.00  0.00    -0.387 OA
ATOM     38  H   UNL     1     -34.802   7.496  83.951  1.00  0.00     0.211 HD
ENDBRANCH  32  37
BRANCH  33  39
ATOM     39  C   UNL     1     -39.236   9.542  80.850  1.00  0.00     0.191 C 
BRANCH  39  40
ATOM     40  O   UNL     1     -40.087  10.117  81.803  1.00  0.00    -0.394 OA
ATOM     41  H   UNL     1     -40.189   9.440  82.526  1.00  0.00     0.210 HD
ENDBRANCH  39  40
ENDBRANCH  33  39
BRANCH  34  42
ATOM     42  O   UNL     1     -37.731   9.803  83.363  1.00  0.00    -0.387 OA
ATOM     43  H   UNL     1     -37.699  10.741  83.026  1.00  0.00     0.211 HD
ENDBRANCH  34  42
ENDBRANCH   1  29
TORSDOF 13
ENDMDL
MODEL 3
REMARK VINA RESULT:    -6.019      2.568      7.368
REMARK INTER + INTRA:         -10.848
REMARK INTER:                 -10.263
REMARK INTRA:                  -0.584
REMARK UNBOUND:                -1.838
REMARK SMILES O=c1c(O[C@@H]2O[C@@H](CO)[C@@H](O)[C@@H](O)[C@@H]2O)c(-c2cc(O)c(O)c(O)c2)oc2cc(O)cc(O)c12
REMARK SMILES IDX 4 1 3 2 16 3 26 4 2 5 27 6 1 7 34 8 28 9 32 10 29 11 31 12
REMARK SMILES IDX 17 13 18 14 19 15 25 16 21 17 23 18 20 19 22 21 24 23 33 25
REMARK SMILES IDX 30 27 5 29 14 30 6 31 12 32 7 33 10 34 15 35 13 37 8 39 9 40
REMARK SMILES IDX 11 42
REMARK H PARENT 20 20 22 22 24 24 33 26 30 28 15 36 13 38 9 41 11 43
REMARK Flexibility Score: inf
ROOT
ATOM      1  O   UNL     1     -37.657   4.371  81.815  1.00  0.00    -0.454 OA
ENDROOT
BRANCH   1   2
ATOM      2  C   UNL     1     -37.080   5.330  80.968  1.00  0.00     0.214 A 
ATOM      3  C   UNL     1     -37.432   5.313  79.609  1.00  0.00     0.181 A 
ATOM      4  O   UNL     1     -36.822   6.122  78.754  1.00  0.00    -0.452 OA
ATOM      5  C   UNL     1     -36.140   6.283  81.408  1.00  0.00     0.239 A 
ATOM      6  C   UNL     1     -35.887   6.990  79.111  1.00  0.00     0.146 A 
ATOM      7  O   UNL     1     -35.931   6.404  82.640  1.00  0.00    -0.285 OA
ATOM      8  C   UNL     1     -35.483   7.116  80.467  1.00  0.00     0.111 A 
ATOM      9  C   UNL     1     -35.313   7.791  78.120  1.00  0.00     0.094 A 
ATOM     10  C   UNL     1     -34.467   8.074  80.786  1.00  0.00     0.134 A 
ATOM     11  C   UNL     1     -34.346   8.739  78.447  1.00  0.00     0.123 A 
ATOM     12  C   UNL     1     -33.933   8.881  79.773  1.00  0.00     0.093 A 
BRANCH   3  13
ATOM     13  C   UNL     1     -38.462   4.386  79.088  1.00  0.00     0.029 A 
ATOM     14  C   UNL     1     -39.818   4.753  79.058  1.00  0.00     0.062 A 
ATOM     15  C   UNL     1     -40.786   3.867  78.578  1.00  0.00     0.162 A 
ATOM     16  C   UNL     1     -38.082   3.131  78.590  1.00  0.00     0.062 A 
ATOM     17  C   UNL     1     -40.408   2.595  78.099  1.00  0.00     0.200 A 
ATOM     18  C   UNL     1     -39.038   2.227  78.108  1.00  0.00     0.162 A 
BRANCH  15  19
ATOM     19  O   UNL     1     -42.123   4.270  78.583  1.00  0.00    -0.504 OA
ATOM     20  H   UNL     1     -42.421   5.154  78.979  1.00  0.00     0.293 HD
ENDBRANCH  15  19
BRANCH  17  21
ATOM     21  O   UNL     1     -41.410   1.734  77.629  1.00  0.00    -0.502 OA
ATOM     22  H   UNL     1     -41.270   1.045  76.894  1.00  0.00     0.293 HD
ENDBRANCH  17  21
BRANCH  18  23
ATOM     23  O   UNL     1     -38.585   0.981  77.658  1.00  0.00    -0.504 OA
ATOM     24  H   UNL     1     -38.400   0.764  76.689  1.00  0.00     0.293 HD
ENDBRANCH  18  23
ENDBRANCH   3  13
BRANCH  10  25
ATOM     25  O   UNL     1     -33.928   8.264  82.062  1.00  0.00    -0.507 OA
ATOM     26  H   UNL     1     -33.200   7.713  82.488  1.00  0.00     0.293 HD
ENDBRANCH  10  25
BRANCH  11  27
ATOM     27  O   UNL     1     -33.794   9.536  77.445  1.00  0.00    -0.508 OA
ATOM     28  H   UNL     1     -32.796   9.556  77.270  1.00  0.00     0.293 HD
ENDBRANCH  11  27
ENDBRANCH   1   2
BRANCH   1  29
ATOM     29  C   UNL     1     -38.370   4.617  83.031  1.00  0.00     0.339 C 
ATOM     30  C   UNL     1     -39.777   5.171  82.727  1.00  0.00     0.214 C 
ATOM     31  O   UNL     1     -38.454   3.447  83.837  1.00  0.00    -0.332 OA
ATOM     32  C   UNL     1     -40.631   4.075  82.044  1.00  0.00     0.180 C 
ATOM     33  C   UNL     1     -39.140   2.391  83.177  1.00  0.00     0.179 C 
ATOM     34  C   UNL     1     -40.608   2.776  82.880  1.00  0.00     0.177 C 
BRANCH  30  35
ATOM     35  O   UNL     1     -39.665   6.307  81.908  1.00  0.00    -0.384 OA
ATOM     36  H   UNL     1     -39.496   5.980  80.984  1.00  0.00     0.211 HD
ENDBRANCH  30  35
BRANCH  32  37
ATOM     37  O   UNL     1     -41.950   4.508  81.816  1.00  0.00    -0.387 OA
ATOM     38  H   UNL     1     -41.921   5.480  81.622  1.00  0.00     0.211 HD
ENDBRANCH  32  37
BRANCH  33  39
ATOM     39  C   UNL     1     -39.030   1.121  84.030  1.00  0.00     0.191 C 
BRANCH  39  40
ATOM     40  O   UNL     1     -39.139  -0.022  83.227  1.00  0.00    -0.394 OA
ATOM     41  H   UNL     1     -39.821  -0.602  83.663  1.00  0.00     0.210 HD
ENDBRANCH  39  40
ENDBRANCH  33  39
BRANCH  34  42
ATOM     42  O   UNL     1     -41.313   2.974  84.083  1.00  0.00    -0.387 OA
ATOM     43  H   UNL     1     -40.792   3.629  84.625  1.00  0.00     0.211 HD
ENDBRANCH  34  42
ENDBRANCH   1  29
TORSDOF 13
ENDMDL
MODEL 4
REMARK VINA RESULT:    -5.991      2.628      4.920
REMARK INTER + INTRA:         -10.806
REMARK INTER:                 -10.212
REMARK INTRA:                  -0.594
REMARK UNBOUND:                -1.838
REMARK SMILES O=c1c(O[C@@H]2O[C@@H](CO)[C@@H](O)[C@@H](O)[C@@H]2O)c(-c2cc(O)c(O)c(O)c2)oc2cc(O)cc(O)c12
REMARK SMILES IDX 4 1 3 2 16 3 26 4 2 5 27 6 1 7 34 8 28 9 32 10 29 11 31 12
REMARK SMILES IDX 17 13 18 14 19 15 25 16 21 17 23 18 20 19 22 21 24 23 33 25
REMARK SMILES IDX 30 27 5 29 14 30 6 31 12 32 7 33 10 34 15 35 13 37 8 39 9 40
REMARK SMILES IDX 11 42
REMARK H PARENT 20 20 22 22 24 24 33 26 30 28 15 36 13 38 9 41 11 43
REMARK Flexibility Score: inf
ROOT
ATOM      1  O   UNL     1     -38.214   5.936  81.405  1.00  0.00    -0.454 OA
ENDROOT
BRANCH   1   2
ATOM      2  C   UNL     1     -38.953   5.193  80.470  1.00  0.00     0.214 A 
ATOM      3  C   UNL     1     -38.448   5.078  79.166  1.00  0.00     0.181 A 
ATOM      4  O   UNL     1     -39.169   4.488  78.223  1.00  0.00    -0.452 OA
ATOM      5  C   UNL     1     -40.191   4.591  80.769  1.00  0.00     0.239 A 
ATOM      6  C   UNL     1     -40.366   3.963  78.441  1.00  0.00     0.146 A 
ATOM      7  O   UNL     1     -40.579   4.560  81.963  1.00  0.00    -0.285 OA
ATOM      8  C   UNL     1     -40.953   3.991  79.734  1.00  0.00     0.111 A 
ATOM      9  C   UNL     1     -41.034   3.367  77.369  1.00  0.00     0.094 A 
ATOM     10  C   UNL     1     -42.251   3.406  79.902  1.00  0.00     0.134 A 
ATOM     11  C   UNL     1     -42.282   2.776  77.551  1.00  0.00     0.123 A 
ATOM     12  C   UNL     1     -42.880   2.792  78.812  1.00  0.00     0.093 A 
BRANCH   3  13
ATOM     13  C   UNL     1     -37.122   5.627  78.798  1.00  0.00     0.029 A 
ATOM     14  C   UNL     1     -35.948   4.884  79.006  1.00  0.00     0.062 A 
ATOM     15  C   UNL     1     -34.700   5.415  78.669  1.00  0.00     0.162 A 
ATOM     16  C   UNL     1     -37.034   6.896  78.208  1.00  0.00     0.062 A 
ATOM     17  C   UNL     1     -34.607   6.701  78.097  1.00  0.00     0.200 A 
ATOM     18  C   UNL     1     -35.792   7.447  77.867  1.00  0.00     0.162 A 
BRANCH  15  19
ATOM     19  O   UNL     1     -33.559   4.646  78.910  1.00  0.00    -0.504 OA
ATOM     20  H   UNL     1     -32.984   4.774  79.734  1.00  0.00     0.293 HD
ENDBRANCH  15  19
BRANCH  17  21
ATOM     21  O   UNL     1     -33.336   7.198  77.776  1.00  0.00    -0.502 OA
ATOM     22  H   UNL     1     -32.660   6.704  77.200  1.00  0.00     0.293 HD
ENDBRANCH  17  21
BRANCH  18  23
ATOM     23  O   UNL     1     -35.781   8.732  77.311  1.00  0.00    -0.504 OA
ATOM     24  H   UNL     1     -36.551   9.383  77.380  1.00  0.00     0.293 HD
ENDBRANCH  18  23
ENDBRANCH   3  13
BRANCH  10  25
ATOM     25  O   UNL     1     -42.976   3.414  81.098  1.00  0.00    -0.507 OA
ATOM     26  H   UNL     1     -43.923   3.736  81.215  1.00  0.00     0.293 HD
ENDBRANCH  10  25
BRANCH  11  27
ATOM     27  O   UNL     1     -42.927   2.178  76.469  1.00  0.00    -0.508 OA
ATOM     28  H   UNL     1     -42.749   1.215  76.209  1.00  0.00     0.293 HD
ENDBRANCH  11  27
ENDBRANCH   1   2
BRANCH   1  29
ATOM     29  C   UNL     1     -37.853   5.532  82.730  1.00  0.00     0.339 C 
ATOM     30  C   UNL     1     -36.890   4.329  82.681  1.00  0.00     0.214 C 
ATOM     31  O   UNL     1     -37.279   6.606  83.468  1.00  0.00    -0.332 OA
ATOM     32  C   UNL     1     -35.536   4.769  82.074  1.00  0.00     0.180 C 
ATOM     33  C   UNL     1     -36.091   7.097  82.859  1.00  0.00     0.179 C 
ATOM     34  C   UNL     1     -34.992   6.009  82.818  1.00  0.00     0.177 C 
BRANCH  30  35
ATOM     35  O   UNL     1     -37.470   3.297  81.924  1.00  0.00    -0.384 OA
ATOM     36  H   UNL     1     -38.393   3.169  82.272  1.00  0.00     0.211 HD
ENDBRANCH  30  35
BRANCH  32  37
ATOM     37  O   UNL     1     -34.596   3.721  82.080  1.00  0.00    -0.387 OA
ATOM     38  H   UNL     1     -35.053   2.907  82.412  1.00  0.00     0.211 HD
ENDBRANCH  32  37
BRANCH  33  39
ATOM     39  C   UNL     1     -35.638   8.356  83.608  1.00  0.00     0.191 C 
BRANCH  39  40
ATOM     40  O   UNL     1     -34.245   8.496  83.539  1.00  0.00    -0.394 OA
ATOM     41  H   UNL     1     -33.902   8.303  84.453  1.00  0.00     0.210 HD
ENDBRANCH  39  40
ENDBRANCH  33  39
BRANCH  34  42
ATOM     42  O   UNL     1     -34.611   5.649  84.125  1.00  0.00    -0.387 OA
ATOM     43  H   UNL     1     -34.461   6.495  84.631  1.00  0.00     0.211 HD
ENDBRANCH  34  42
ENDBRANCH   1  29
TORSDOF 13
ENDMDL
MODEL 5
REMARK VINA RESULT:    -5.937      2.116      6.918
REMARK INTER + INTRA:         -10.725
REMARK INTER:                  -9.305
REMARK INTRA:                  -1.420
REMARK UNBOUND:                -1.838
REMARK SMILES O=c1c(O[C@@H]2O[C@@H](CO)[C@@H](O)[C@@H](O)[C@@H]2O)c(-c2cc(O)c(O)c(O)c2)oc2cc(O)cc(O)c12
REMARK SMILES IDX 4 1 3 2 16 3 26 4 2 5 27 6 1 7 34 8 28 9 32 10 29 11 31 12
REMARK SMILES IDX 17 13 18 14 19 15 25 16 21 17 23 18 20 19 22 21 24 23 33 25
REMARK SMILES IDX 30 27 5 29 14 30 6 31 12 32 7 33 10 34 15 35 13 37 8 39 9 40
REMARK SMILES IDX 11 42
REMARK H PARENT 20 20 22 22 24 24 33 26 30 28 15 36 13 38 9 41 11 43
REMARK Flexibility Score: inf
ROOT
ATOM      1  O   UNL     1     -38.129   5.602  80.698  1.00  0.00    -0.454 OA
ENDROOT
BRANCH   1   2
ATOM      2  C   UNL     1     -38.262   6.421  79.564  1.00  0.00     0.214 A 
ATOM      3  C   UNL     1     -39.242   6.086  78.617  1.00  0.00     0.181 A 
ATOM      4  O   UNL     1     -39.323   6.759  77.477  1.00  0.00    -0.452 OA
ATOM      5  C   UNL     1     -37.439   7.536  79.317  1.00  0.00     0.239 A 
ATOM      6  C   UNL     1     -38.529   7.775  77.172  1.00  0.00     0.146 A 
ATOM      7  O   UNL     1     -36.664   7.932  80.222  1.00  0.00    -0.285 OA
ATOM      8  C   UNL     1     -37.528   8.220  78.078  1.00  0.00     0.111 A 
ATOM      9  C   UNL     1     -38.707   8.409  75.940  1.00  0.00     0.094 A 
ATOM     10  C   UNL     1     -36.703   9.325  77.687  1.00  0.00     0.134 A 
ATOM     11  C   UNL     1     -37.916   9.500  75.583  1.00  0.00     0.123 A 
ATOM     12  C   UNL     1     -36.927   9.955  76.456  1.00  0.00     0.093 A 
BRANCH   3  13
ATOM     13  C   UNL     1     -40.188   4.969  78.842  1.00  0.00     0.029 A 
ATOM     14  C   UNL     1     -40.919   4.869  80.037  1.00  0.00     0.062 A 
ATOM     15  C   UNL     1     -41.798   3.804  80.248  1.00  0.00     0.162 A 
ATOM     16  C   UNL     1     -40.381   4.007  77.839  1.00  0.00     0.062 A 
ATOM     17  C   UNL     1     -41.976   2.823  79.250  1.00  0.00     0.200 A 
ATOM     18  C   UNL     1     -41.256   2.931  78.033  1.00  0.00     0.162 A 
BRANCH  15  19
ATOM     19  O   UNL     1     -42.490   3.737  81.459  1.00  0.00    -0.504 OA
ATOM     20  H   UNL     1     -43.339   4.265  81.628  1.00  0.00     0.293 HD
ENDBRANCH  15  19
BRANCH  17  21
ATOM     21  O   UNL     1     -42.866   1.769  79.501  1.00  0.00    -0.502 OA
ATOM     22  H   UNL     1     -42.828   1.176  80.327  1.00  0.00     0.293 HD
ENDBRANCH  17  21
BRANCH  18  23
ATOM     23  O   UNL     1     -41.371   1.994  76.999  1.00  0.00    -0.504 OA
ATOM     24  H   UNL     1     -41.861   2.167  76.132  1.00  0.00     0.293 HD
ENDBRANCH  18  23
ENDBRANCH   3  13
BRANCH  10  25
ATOM     25  O   UNL     1     -35.642   9.830  78.444  1.00  0.00    -0.507 OA
ATOM     26  H   UNL     1     -35.669  10.645  79.035  1.00  0.00     0.293 HD
ENDBRANCH  10  25
BRANCH  11  27
ATOM     27  O   UNL     1     -38.117  10.125  74.354  1.00  0.00    -0.508 OA
ATOM     28  H   UNL     1     -39.023  10.127  73.898  1.00  0.00     0.293 HD
ENDBRANCH  11  27
ENDBRANCH   1   2
BRANCH   1  29
ATOM     29  C   UNL     1     -37.359   4.400  80.802  1.00  0.00     0.339 C 
ATOM     30  C   UNL     1     -36.090   4.648  81.642  1.00  0.00     0.214 C 
ATOM     31  O   UNL     1     -38.124   3.332  81.350  1.00  0.00    -0.332 OA
ATOM     32  C   UNL     1     -36.484   4.933  83.112  1.00  0.00     0.180 C 
ATOM     33  C   UNL     1     -38.590   3.627  82.661  1.00  0.00     0.179 C 
ATOM     34  C   UNL     1     -37.412   3.818  83.645  1.00  0.00     0.177 C 
BRANCH  30  35
ATOM     35  O   UNL     1     -35.370   5.723  81.095  1.00  0.00    -0.384 OA
ATOM     36  H   UNL     1     -35.473   5.665  80.107  1.00  0.00     0.211 HD
ENDBRANCH  30  35
BRANCH  32  37
ATOM     37  O   UNL     1     -35.354   5.089  83.935  1.00  0.00    -0.387 OA
ATOM     38  H   UNL     1     -35.346   6.023  84.265  1.00  0.00     0.211 HD
ENDBRANCH  32  37
BRANCH  33  39
ATOM     39  C   UNL     1     -39.548   2.515  83.106  1.00  0.00     0.191 C 
BRANCH  39  40
ATOM     40  O   UNL     1     -39.129   1.275  82.605  1.00  0.00    -0.394 OA
ATOM     41  H   UNL     1     -39.410   0.596  83.277  1.00  0.00     0.210 HD
ENDBRANCH  39  40
ENDBRANCH  33  39
BRANCH  34  42
ATOM     42  O   UNL     1     -36.686   2.619  83.776  1.00  0.00    -0.387 OA
ATOM     43  H   UNL     1     -35.888   2.818  84.340  1.00  0.00     0.211 HD
ENDBRANCH  34  42
ENDBRANCH   1  29
TORSDOF 13
ENDMDL
MODEL 6
REMARK VINA RESULT:    -5.917      2.496      6.955
REMARK INTER + INTRA:         -10.696
REMARK INTER:                  -9.694
REMARK INTRA:                  -1.001
REMARK UNBOUND:                -1.838
REMARK SMILES O=c1c(O[C@@H]2O[C@@H](CO)[C@@H](O)[C@@H](O)[C@@H]2O)c(-c2cc(O)c(O)c(O)c2)oc2cc(O)cc(O)c12
REMARK SMILES IDX 4 1 3 2 16 3 26 4 2 5 27 6 1 7 34 8 28 9 32 10 29 11 31 12
REMARK SMILES IDX 17 13 18 14 19 15 25 16 21 17 23 18 20 19 22 21 24 23 33 25
REMARK SMILES IDX 30 27 5 29 14 30 6 31 12 32 7 33 10 34 15 35 13 37 8 39 9 40
REMARK SMILES IDX 11 42
REMARK H PARENT 20 20 22 22 24 24 33 26 30 28 15 36 13 38 9 41 11 43
REMARK Flexibility Score: inf
ROOT
ATOM      1  O   UNL     1     -39.318   5.884  81.533  1.00  0.00    -0.454 OA
ENDROOT
BRANCH   1   2
ATOM      2  C   UNL     1     -38.477   6.516  80.602  1.00  0.00     0.214 A 
ATOM      3  C   UNL     1     -38.369   5.956  79.320  1.00  0.00     0.181 A 
ATOM      4  O   UNL     1     -37.498   6.449  78.450  1.00  0.00    -0.452 OA
ATOM      5  C   UNL     1     -37.712   7.659  80.905  1.00  0.00     0.239 A 
ATOM      6  C   UNL     1     -36.712   7.483  78.711  1.00  0.00     0.146 A 
ATOM      7  O   UNL     1     -37.911   8.252  81.994  1.00  0.00    -0.285 OA
ATOM      8  C   UNL     1     -36.768   8.147  79.966  1.00  0.00     0.111 A 
ATOM      9  C   UNL     1     -35.832   7.914  77.716  1.00  0.00     0.094 A 
ATOM     10  C   UNL     1     -35.890   9.259  80.185  1.00  0.00     0.134 A 
ATOM     11  C   UNL     1     -35.003   9.014  77.930  1.00  0.00     0.123 A 
ATOM     12  C   UNL     1     -35.040   9.683  79.155  1.00  0.00     0.093 A 
BRANCH   3  13
ATOM     13  C   UNL     1     -39.194   4.797  78.909  1.00  0.00     0.029 A 
ATOM     14  C   UNL     1     -40.594   4.891  78.841  1.00  0.00     0.062 A 
ATOM     15  C   UNL     1     -41.365   3.788  78.467  1.00  0.00     0.162 A 
ATOM     16  C   UNL     1     -38.571   3.590  78.555  1.00  0.00     0.062 A 
ATOM     17  C   UNL     1     -40.742   2.567  78.134  1.00  0.00     0.200 A 
ATOM     18  C   UNL     1     -39.328   2.472  78.180  1.00  0.00     0.162 A 
BRANCH  15  19
ATOM     19  O   UNL     1     -42.755   3.925  78.431  1.00  0.00    -0.504 OA
ATOM     20  H   UNL     1     -43.208   4.826  78.339  1.00  0.00     0.293 HD
ENDBRANCH  15  19
BRANCH  17  21
ATOM     21  O   UNL     1     -41.552   1.483  77.765  1.00  0.00    -0.502 OA
ATOM     22  H   UNL     1     -42.565   1.527  77.698  1.00  0.00     0.293 HD
ENDBRANCH  17  21
BRANCH  18  23
ATOM     23  O   UNL     1     -38.637   1.294  77.872  1.00  0.00    -0.504 OA
ATOM     24  H   UNL     1     -38.347   0.614  78.560  1.00  0.00     0.293 HD
ENDBRANCH  18  23
ENDBRANCH   3  13
BRANCH  10  25
ATOM     25  O   UNL     1     -35.791   9.967  81.386  1.00  0.00    -0.507 OA
ATOM     26  H   UNL     1     -35.111   9.812  82.112  1.00  0.00     0.293 HD
ENDBRANCH  10  25
BRANCH  11  27
ATOM     27  O   UNL     1     -34.139   9.435  76.920  1.00  0.00    -0.508 OA
ATOM     28  H   UNL     1     -33.388   8.845  76.582  1.00  0.00     0.293 HD
ENDBRANCH  11  27
ENDBRANCH   1   2
BRANCH   1  29
ATOM     29  C   UNL     1     -38.961   5.428  82.842  1.00  0.00     0.339 C 
ATOM     30  C   UNL     1     -39.878   4.267  83.275  1.00  0.00     0.214 C 
ATOM     31  O   UNL     1     -37.593   5.040  82.908  1.00  0.00    -0.332 OA
ATOM     32  C   UNL     1     -39.601   3.027  82.391  1.00  0.00     0.180 C 
ATOM     33  C   UNL     1     -37.297   3.973  82.016  1.00  0.00     0.179 C 
ATOM     34  C   UNL     1     -38.091   2.698  82.385  1.00  0.00     0.177 C 
BRANCH  30  35
ATOM     35  O   UNL     1     -41.220   4.669  83.174  1.00  0.00    -0.384 OA
ATOM     36  H   UNL     1     -41.234   5.487  82.608  1.00  0.00     0.211 HD
ENDBRANCH  30  35
BRANCH  32  37
ATOM     37  O   UNL     1     -40.361   1.915  82.800  1.00  0.00    -0.387 OA
ATOM     38  H   UNL     1     -40.880   2.181  83.601  1.00  0.00     0.211 HD
ENDBRANCH  32  37
BRANCH  33  39
ATOM     39  C   UNL     1     -35.782   3.737  82.014  1.00  0.00     0.191 C 
BRANCH  39  40
ATOM     40  O   UNL     1     -35.319   3.494  83.315  1.00  0.00    -0.394 OA
ATOM     41  H   UNL     1     -34.921   2.583  83.301  1.00  0.00     0.210 HD
ENDBRANCH  39  40
ENDBRANCH  33  39
BRANCH  34  42
ATOM     42  O   UNL     1     -37.702   2.231  83.656  1.00  0.00    -0.387 OA
ATOM     43  H   UNL     1     -36.985   1.554  83.514  1.00  0.00     0.211 HD
ENDBRANCH  34  42
ENDBRANCH   1  29
TORSDOF 13
ENDMDL
MODEL 7
REMARK VINA RESULT:    -5.900      1.786      6.755
REMARK INTER + INTRA:         -10.670
REMARK INTER:                  -9.229
REMARK INTRA:                  -1.441
REMARK UNBOUND:                -1.838
REMARK SMILES O=c1c(O[C@@H]2O[C@@H](CO)[C@@H](O)[C@@H](O)[C@@H]2O)c(-c2cc(O)c(O)c(O)c2)oc2cc(O)cc(O)c12
REMARK SMILES IDX 4 1 3 2 16 3 26 4 2 5 27 6 1 7 34 8 28 9 32 10 29 11 31 12
REMARK SMILES IDX 17 13 18 14 19 15 25 16 21 17 23 18 20 19 22 21 24 23 33 25
REMARK SMILES IDX 30 27 5 29 14 30 6 31 12 32 7 33 10 34 15 35 13 37 8 39 9 40
REMARK SMILES IDX 11 42
REMARK H PARENT 20 20 22 22 24 24 33 26 30 28 15 36 13 38 9 41 11 43
REMARK Flexibility Score: inf
ROOT
ATOM      1  O   UNL     1     -37.306   5.961  81.002  1.00  0.00    -0.454 OA
ENDROOT
BRANCH   1   2
ATOM      2  C   UNL     1     -37.956   6.659  79.971  1.00  0.00     0.214 A 
ATOM      3  C   UNL     1     -39.299   6.351  79.706  1.00  0.00     0.181 A 
ATOM      4  O   UNL     1     -39.915   6.898  78.667  1.00  0.00    -0.452 OA
ATOM      5  C   UNL     1     -37.316   7.624  79.170  1.00  0.00     0.239 A 
ATOM      6  C   UNL     1     -39.335   7.763  77.848  1.00  0.00     0.146 A 
ATOM      7  O   UNL     1     -36.166   8.014  79.490  1.00  0.00    -0.285 OA
ATOM      8  C   UNL     1     -37.990   8.172  78.049  1.00  0.00     0.111 A 
ATOM      9  C   UNL     1     -40.084   8.274  76.785  1.00  0.00     0.094 A 
ATOM     10  C   UNL     1     -37.422   9.111  77.126  1.00  0.00     0.134 A 
ATOM     11  C   UNL     1     -39.530   9.207  75.911  1.00  0.00     0.123 A 
ATOM     12  C   UNL     1     -38.209   9.624  76.088  1.00  0.00     0.093 A 
BRANCH   3  13
ATOM     13  C   UNL     1     -40.056   5.397  80.549  1.00  0.00     0.029 A 
ATOM     14  C   UNL     1     -40.077   5.526  81.948  1.00  0.00     0.062 A 
ATOM     15  C   UNL     1     -40.781   4.613  82.738  1.00  0.00     0.162 A 
ATOM     16  C   UNL     1     -40.786   4.362  79.947  1.00  0.00     0.062 A 
ATOM     17  C   UNL     1     -41.497   3.558  82.134  1.00  0.00     0.200 A 
ATOM     18  C   UNL     1     -41.495   3.435  80.721  1.00  0.00     0.162 A 
BRANCH  15  19
ATOM     19  O   UNL     1     -40.759   4.773  84.125  1.00  0.00    -0.504 OA
ATOM     20  H   UNL     1     -40.267   4.132  84.736  1.00  0.00     0.293 HD
ENDBRANCH  15  19
BRANCH  17  21
ATOM     21  O   UNL     1     -42.189   2.662  82.962  1.00  0.00    -0.502 OA
ATOM     22  H   UNL     1     -42.479   1.731  82.676  1.00  0.00     0.293 HD
ENDBRANCH  17  21
BRANCH  18  23
ATOM     23  O   UNL     1     -42.174   2.411  80.050  1.00  0.00    -0.504 OA
ATOM     24  H   UNL     1     -41.775   1.504  79.852  1.00  0.00     0.293 HD
ENDBRANCH  18  23
ENDBRANCH   3  13
BRANCH  10  25
ATOM     25  O   UNL     1     -36.097   9.556  77.161  1.00  0.00    -0.507 OA
ATOM     26  H   UNL     1     -35.738  10.310  77.724  1.00  0.00     0.293 HD
ENDBRANCH  10  25
BRANCH  11  27
ATOM     27  O   UNL     1     -40.297   9.712  74.863  1.00  0.00    -0.508 OA
ATOM     28  H   UNL     1     -40.464  10.706  74.755  1.00  0.00     0.293 HD
ENDBRANCH  11  27
ENDBRANCH   1   2
BRANCH   1  29
ATOM     29  C   UNL     1     -36.488   4.794  80.865  1.00  0.00     0.339 C 
ATOM     30  C   UNL     1     -35.055   5.084  81.353  1.00  0.00     0.214 C 
ATOM     31  O   UNL     1     -37.041   3.681  81.560  1.00  0.00    -0.332 OA
ATOM     32  C   UNL     1     -35.063   5.321  82.883  1.00  0.00     0.180 C 
ATOM     33  C   UNL     1     -37.160   3.928  82.955  1.00  0.00     0.179 C 
ATOM     34  C   UNL     1     -35.774   4.154  83.604  1.00  0.00     0.177 C 
BRANCH  30  35
ATOM     35  O   UNL     1     -34.546   6.202  80.672  1.00  0.00    -0.384 OA
ATOM     36  H   UNL     1     -35.160   6.960  80.864  1.00  0.00     0.211 HD
ENDBRANCH  30  35
BRANCH  32  37
ATOM     37  O   UNL     1     -33.764   5.513  83.388  1.00  0.00    -0.387 OA
ATOM     38  H   UNL     1     -33.750   5.182  84.322  1.00  0.00     0.211 HD
ENDBRANCH  32  37
BRANCH  33  39
ATOM     39  C   UNL     1     -37.923   2.764  83.599  1.00  0.00     0.191 C 
BRANCH  39  40
ATOM     40  O   UNL     1     -38.383   1.874  82.618  1.00  0.00    -0.394 OA
ATOM     41  H   UNL     1     -38.685   2.437  81.855  1.00  0.00     0.210 HD
ENDBRANCH  39  40
ENDBRANCH  33  39
BRANCH  34  42
ATOM     42  O   UNL     1     -34.992   2.988  83.504  1.00  0.00    -0.387 OA
ATOM     43  H   UNL     1     -35.335   2.469  82.725  1.00  0.00     0.211 HD
ENDBRANCH  34  42
ENDBRANCH   1  29
TORSDOF 13
ENDMDL
MODEL 8
REMARK VINA RESULT:    -5.612      2.224      5.360
REMARK INTER + INTRA:         -10.238
REMARK INTER:                  -8.797
REMARK INTRA:                  -1.441
REMARK UNBOUND:                -1.838
REMARK SMILES O=c1c(O[C@@H]2O[C@@H](CO)[C@@H](O)[C@@H](O)[C@@H]2O)c(-c2cc(O)c(O)c(O)c2)oc2cc(O)cc(O)c12
REMARK SMILES IDX 4 1 3 2 16 3 26 4 2 5 27 6 1 7 34 8 28 9 32 10 29 11 31 12
REMARK SMILES IDX 17 13 18 14 19 15 25 16 21 17 23 18 20 19 22 21 24 23 33 25
REMARK SMILES IDX 30 27 5 29 14 30 6 31 12 32 7 33 10 34 15 35 13 37 8 39 9 40
REMARK SMILES IDX 11 42
REMARK H PARENT 20 20 22 22 24 24 33 26 30 28 15 36 13 38 9 41 11 43
REMARK Flexibility Score: inf
ROOT
ATOM      1  O   UNL     1     -38.929   7.099  79.763  1.00  0.00    -0.454 OA
ENDROOT
BRANCH   1   2
ATOM      2  C   UNL     1     -37.949   6.263  80.322  1.00  0.00     0.214 A 
ATOM      3  C   UNL     1     -38.266   4.910  80.518  1.00  0.00     0.181 A 
ATOM      4  O   UNL     1     -37.417   4.112  81.151  1.00  0.00    -0.452 OA
ATOM      5  C   UNL     1     -36.682   6.723  80.729  1.00  0.00     0.239 A 
ATOM      6  C   UNL     1     -36.240   4.515  81.608  1.00  0.00     0.146 A 
ATOM      7  O   UNL     1     -36.334   7.891  80.425  1.00  0.00    -0.285 OA
ATOM      8  C   UNL     1     -35.805   5.856  81.429  1.00  0.00     0.111 A 
ATOM      9  C   UNL     1     -35.429   3.585  82.261  1.00  0.00     0.094 A 
ATOM     10  C   UNL     1     -34.521   6.227  81.947  1.00  0.00     0.134 A 
ATOM     11  C   UNL     1     -34.170   3.950  82.735  1.00  0.00     0.123 A 
ATOM     12  C   UNL     1     -33.721   5.262  82.571  1.00  0.00     0.093 A 
BRANCH   3  13
ATOM     13  C   UNL     1     -39.552   4.340  80.054  1.00  0.00     0.029 A 
ATOM     14  C   UNL     1     -39.694   3.841  78.749  1.00  0.00     0.062 A 
ATOM     15  C   UNL     1     -40.915   3.319  78.314  1.00  0.00     0.162 A 
ATOM     16  C   UNL     1     -40.642   4.272  80.935  1.00  0.00     0.062 A 
ATOM     17  C   UNL     1     -42.019   3.271  79.192  1.00  0.00     0.200 A 
ATOM     18  C   UNL     1     -41.875   3.755  80.517  1.00  0.00     0.162 A 
BRANCH  15  19
ATOM     19  O   UNL     1     -41.013   2.850  77.002  1.00  0.00    -0.504 OA
ATOM     20  H   UNL     1     -40.198   2.610  76.451  1.00  0.00     0.293 HD
ENDBRANCH  15  19
BRANCH  17  21
ATOM     21  O   UNL     1     -43.227   2.742  78.716  1.00  0.00    -0.502 OA
ATOM     22  H   UNL     1     -43.291   2.016  78.008  1.00  0.00     0.293 HD
ENDBRANCH  17  21
BRANCH  18  23
ATOM     23  O   UNL     1     -42.924   3.749  81.444  1.00  0.00    -0.504 OA
ATOM     24  H   UNL     1     -43.522   2.953  81.615  1.00  0.00     0.293 HD
ENDBRANCH  18  23
ENDBRANCH   3  13
BRANCH  10  25
ATOM     25  O   UNL     1     -33.990   7.519  81.900  1.00  0.00    -0.507 OA
ATOM     26  H   UNL     1     -33.659   7.996  81.077  1.00  0.00     0.293 HD
ENDBRANCH  10  25
BRANCH  11  27
ATOM     27  O   UNL     1     -33.372   3.004  83.375  1.00  0.00    -0.508 OA
ATOM     28  H   UNL     1     -33.676   2.045  83.498  1.00  0.00     0.293 HD
ENDBRANCH  11  27
ENDBRANCH   1   2
BRANCH   1  29
ATOM     29  C   UNL     1     -39.312   7.169  78.385  1.00  0.00     0.339 C 
ATOM     30  C   UNL     1     -40.714   7.797  78.250  1.00  0.00     0.214 C 
ATOM     31  O   UNL     1     -38.360   7.891  77.611  1.00  0.00    -0.332 OA
ATOM     32  C   UNL     1     -40.660   9.286  78.668  1.00  0.00     0.180 C 
ATOM     33  C   UNL     1     -38.217   9.233  78.057  1.00  0.00     0.179 C 
ATOM     34  C   UNL     1     -39.539  10.020  77.899  1.00  0.00     0.177 C 
BRANCH  30  35
ATOM     35  O   UNL     1     -41.625   7.082  79.044  1.00  0.00    -0.384 OA
ATOM     36  H   UNL     1     -41.093   6.438  79.584  1.00  0.00     0.211 HD
ENDBRANCH  30  35
BRANCH  32  37
ATOM     37  O   UNL     1     -41.901   9.924  78.487  1.00  0.00    -0.387 OA
ATOM     38  H   UNL     1     -42.190   9.765  77.553  1.00  0.00     0.211 HD
ENDBRANCH  32  37
BRANCH  33  39
ATOM     39  C   UNL     1     -37.055   9.885  77.297  1.00  0.00     0.191 C 
BRANCH  39  40
ATOM     40  O   UNL     1     -37.091   9.528  75.943  1.00  0.00    -0.394 OA
ATOM     41  H   UNL     1     -37.789   8.823  75.861  1.00  0.00     0.210 HD
ENDBRANCH  39  40
ENDBRANCH  33  39
BRANCH  34  42
ATOM     42  O   UNL     1     -39.887  10.122  76.538  1.00  0.00    -0.387 OA
ATOM     43  H   UNL     1     -39.735  11.070  76.265  1.00  0.00     0.211 HD
ENDBRANCH  34  42
ENDBRANCH   1  29
TORSDOF 13
ENDMDL
MODEL 9
REMARK VINA RESULT:    -5.506      1.621      5.036
REMARK INTER + INTRA:         -10.080
REMARK INTER:                  -8.094
REMARK INTRA:                  -1.987
REMARK UNBOUND:                -1.838
REMARK SMILES O=c1c(O[C@@H]2O[C@@H](CO)[C@@H](O)[C@@H](O)[C@@H]2O)c(-c2cc(O)c(O)c(O)c2)oc2cc(O)cc(O)c12
REMARK SMILES IDX 4 1 3 2 16 3 26 4 2 5 27 6 1 7 34 8 28 9 32 10 29 11 31 12
REMARK SMILES IDX 17 13 18 14 19 15 25 16 21 17 23 18 20 19 22 21 24 23 33 25
REMARK SMILES IDX 30 27 5 29 14 30 6 31 12 32 7 33 10 34 15 35 13 37 8 39 9 40
REMARK SMILES IDX 11 42
REMARK H PARENT 20 20 22 22 24 24 33 26 30 28 15 36 13 38 9 41 11 43
REMARK Flexibility Score: inf
ROOT
ATOM      1  O   UNL     1     -37.811   7.435  79.418  1.00  0.00    -0.454 OA
ENDROOT
BRANCH   1   2
ATOM      2  C   UNL     1     -37.902   6.393  80.356  1.00  0.00     0.214 A 
ATOM      3  C   UNL     1     -36.735   6.011  81.036  1.00  0.00     0.181 A 
ATOM      4  O   UNL     1     -36.749   4.957  81.840  1.00  0.00    -0.452 OA
ATOM      5  C   UNL     1     -39.095   5.694  80.620  1.00  0.00     0.239 A 
ATOM      6  C   UNL     1     -37.832   4.229  82.070  1.00  0.00     0.146 A 
ATOM      7  O   UNL     1     -40.170   6.121  80.132  1.00  0.00    -0.285 OA
ATOM      8  C   UNL     1     -39.075   4.553  81.462  1.00  0.00     0.111 A 
ATOM      9  C   UNL     1     -37.727   3.139  82.937  1.00  0.00     0.094 A 
ATOM     10  C   UNL     1     -40.208   3.726  81.753  1.00  0.00     0.134 A 
ATOM     11  C   UNL     1     -38.842   2.359  83.234  1.00  0.00     0.123 A 
ATOM     12  C   UNL     1     -40.074   2.658  82.649  1.00  0.00     0.093 A 
BRANCH   3  13
ATOM     13  C   UNL     1     -35.460   6.745  80.860  1.00  0.00     0.029 A 
ATOM     14  C   UNL     1     -35.095   7.780  81.735  1.00  0.00     0.062 A 
ATOM     15  C   UNL     1     -33.897   8.478  81.554  1.00  0.00     0.162 A 
ATOM     16  C   UNL     1     -34.588   6.386  79.822  1.00  0.00     0.062 A 
ATOM     17  C   UNL     1     -33.030   8.134  80.496  1.00  0.00     0.200 A 
ATOM     18  C   UNL     1     -33.385   7.075  79.622  1.00  0.00     0.162 A 
BRANCH  15  19
ATOM     19  O   UNL     1     -33.585   9.512  82.440  1.00  0.00    -0.504 OA
ATOM     20  H   UNL     1     -34.293  10.000  82.974  1.00  0.00     0.293 HD
ENDBRANCH  15  19
BRANCH  17  21
ATOM     21  O   UNL     1     -31.839   8.859  80.347  1.00  0.00    -0.502 OA
ATOM     22  H   UNL     1     -30.968   8.460  80.009  1.00  0.00     0.293 HD
ENDBRANCH  17  21
BRANCH  18  23
ATOM     23  O   UNL     1     -32.582   6.680  78.545  1.00  0.00    -0.504 OA
ATOM     24  H   UNL     1     -31.752   6.111  78.638  1.00  0.00     0.293 HD
ENDBRANCH  18  23
ENDBRANCH   3  13
BRANCH  10  25
ATOM     25  O   UNL     1     -41.474   3.885  81.182  1.00  0.00    -0.507 OA
ATOM     26  H   UNL     1     -42.025   4.728  81.185  1.00  0.00     0.293 HD
ENDBRANCH  10  25
BRANCH  11  27
ATOM     27  O   UNL     1     -38.718   1.282  84.110  1.00  0.00    -0.508 OA
ATOM     28  H   UNL     1     -38.383   1.402  85.060  1.00  0.00     0.293 HD
ENDBRANCH  11  27
ENDBRANCH   1   2
BRANCH   1  29
ATOM     29  C   UNL     1     -37.566   7.306  78.014  1.00  0.00     0.339 C 
ATOM     30  C   UNL     1     -38.716   7.941  77.208  1.00  0.00     0.214 C 
ATOM     31  O   UNL     1     -36.316   7.879  77.644  1.00  0.00    -0.332 OA
ATOM     32  C   UNL     1     -38.715   9.475  77.418  1.00  0.00     0.180 C 
ATOM     33  C   UNL     1     -36.259   9.269  77.936  1.00  0.00     0.179 C 
ATOM     34  C   UNL     1     -37.314  10.056  77.124  1.00  0.00     0.177 C 
BRANCH  30  35
ATOM     35  O   UNL     1     -39.938   7.377  77.612  1.00  0.00    -0.384 OA
ATOM     36  H   UNL     1     -40.626   7.686  76.964  1.00  0.00     0.211 HD
ENDBRANCH  30  35
BRANCH  32  37
ATOM     37  O   UNL     1     -39.701  10.109  76.639  1.00  0.00    -0.387 OA
ATOM     38  H   UNL     1     -39.333  10.235  75.728  1.00  0.00     0.211 HD
ENDBRANCH  32  37
BRANCH  33  39
ATOM     39  C   UNL     1     -34.832   9.769  77.679  1.00  0.00     0.191 C 
BRANCH  39  40
ATOM     40  O   UNL     1     -34.158   8.905  76.806  1.00  0.00    -0.394 OA
ATOM     41  H   UNL     1     -34.194   8.004  77.225  1.00  0.00     0.210 HD
ENDBRANCH  39  40
ENDBRANCH  33  39
BRANCH  34  42
ATOM     42  O   UNL     1     -37.041   9.960  75.746  1.00  0.00    -0.387 OA
ATOM     43  H   UNL     1     -36.057   9.826  75.649  1.00  0.00     0.211 HD
ENDBRANCH  34  42
ENDBRANCH   1  29
TORSDOF 13
ENDMDL
