MODEL 1
REMARK VINA RESULT:    -6.621      0.000      0.000
REMARK INTER + INTRA:          -8.480
REMARK INTER:                  -7.782
REMARK INTRA:                  -0.698
REMARK UNBOUND:                -0.698
REMARK SMILES C=C(C)[C@@H]1CC[C@]2(C(=O)[O-])CC[C@@]3(C)[C@H](CC[C@@H]4[C@]5(C)C[C@@H](O)[C@@H](O)C(C)(C)[C@H]5CC[C@@]43C)[C@H]12
REMARK SMILES IDX 7 1 6 2 34 3 11 4 5 5 15 6 4 7 12 8 16 9 13 10 17 11 32 12
REMARK SMILES IDX 14 13 18 14 31 15 33 16 19 17 30 18 29 19 21 20 20 21 26 22
REMARK SMILES IDX 22 23 24 24 27 25 28 26 8 27 9 28 10 29 2 30 3 31 1 32 23 33
REMARK SMILES IDX 25 35
REMARK H PARENT 23 34 25 36
REMARK Flexibility Score: inf
ROOT
ATOM      1  C   UNL     1     -12.656 -10.190  98.152  1.00  0.00     0.014 C 
ATOM      2  C   UNL     1     -11.177 -10.244  98.598  1.00  0.00     0.014 C 
ATOM      3  C   UNL     1     -12.802  -8.764  97.535  1.00  0.00     0.012 C 
ATOM      4  C   UNL     1     -13.034 -11.363  97.203  1.00  0.00     0.014 C 
ATOM      5  C   UNL     1     -10.736  -8.797  98.854  1.00  0.00     0.009 C 
ATOM      6  C   UNL     1     -12.485  -8.666  95.987  1.00  0.00     0.000 C 
ATOM      7  C   UNL     1     -11.928  -7.895  98.476  1.00  0.00     0.018 C 
ATOM      8  C   UNL     1     -12.795 -11.150  95.700  1.00  0.00     0.008 C 
ATOM      9  C   UNL     1     -10.985  -8.665  95.654  1.00  0.00     0.005 C 
ATOM     10  C   UNL     1     -13.240  -9.752  95.146  1.00  0.00    -0.024 C 
ATOM     11  C   UNL     1     -10.740  -8.368  94.194  1.00  0.00     0.005 C 
ATOM     12  C   UNL     1     -12.927  -9.625  93.546  1.00  0.00    -0.024 C 
ATOM     13  C   UNL     1     -14.779  -9.577  95.412  1.00  0.00     0.012 C 
ATOM     14  C   UNL     1     -11.371  -9.405  93.224  1.00  0.00     0.002 C 
ATOM     15  C   UNL     1     -13.723  -8.426  92.931  1.00  0.00     0.008 C 
ATOM     16  C   UNL     1     -13.435 -10.939  92.856  1.00  0.00     0.012 C 
ATOM     17  C   UNL     1     -11.026  -9.062  91.679  1.00  0.00    -0.023 C 
ATOM     18  C   UNL     1     -13.427  -8.127  91.453  1.00  0.00     0.005 C 
ATOM     19  C   UNL     1     -11.928  -7.861  91.196  1.00  0.00     0.004 C 
ATOM     20  C   UNL     1      -9.525  -8.615  91.506  1.00  0.00     0.042 C 
ATOM     21  C   UNL     1     -11.222 -10.364  90.831  1.00  0.00     0.012 C 
ATOM     22  C   UNL     1     -11.601  -7.273  89.758  1.00  0.00    -0.003 C 
ATOM     23  C   UNL     1      -9.128  -8.036  90.129  1.00  0.00     0.144 C 
ATOM     24  C   UNL     1     -10.081  -6.908  89.684  1.00  0.00     0.149 C 
ATOM     25  C   UNL     1     -12.389  -5.947  89.549  1.00  0.00     0.014 C 
ATOM     26  C   UNL     1     -12.005  -8.213  88.592  1.00  0.00     0.014 C 
ENDROOT
BRANCH   1  27
ATOM     27  C   UNL     1     -13.528 -10.348  99.401  1.00  0.00     0.048 C 
ATOM     28  O   UNL     1     -13.129 -10.994 100.407  1.00  0.00    -0.550 OA
ATOM     29  O   UNL     1     -14.752  -9.691  99.478  1.00  0.00    -0.550 OA
ENDBRANCH   1  27
BRANCH   7  30
ATOM     30  C   UNL     1     -11.614  -6.471  98.004  1.00  0.00    -0.077 C 
ATOM     31  C   UNL     1     -12.739  -5.508  97.714  1.00  0.00     0.039 C 
ATOM     32  C   UNL     1     -10.363  -5.974  98.019  1.00  0.00     0.008 C 
ENDBRANCH   7  30
BRANCH  23  33
ATOM     33  O   UNL     1      -9.000  -9.035  89.152  1.00  0.00    -0.390 OA
ATOM     34  H   UNL     1      -9.373  -8.674  88.306  1.00  0.00     0.211 HD
ENDBRANCH  23  33
BRANCH  24  35
ATOM     35  O   UNL     1      -9.727  -6.493  88.384  1.00  0.00    -0.390 OA
ATOM     36  H   UNL     1      -9.021  -7.107  88.051  1.00  0.00     0.211 HD
ENDBRANCH  24  35
TORSDOF 4
ENDMDL
MODEL 2
REMARK VINA RESULT:    -6.435      1.926      7.740
REMARK INTER + INTRA:          -8.262
REMARK INTER:                  -8.127
REMARK INTRA:                  -0.135
REMARK UNBOUND:                -0.698
REMARK SMILES C=C(C)[C@@H]1CC[C@]2(C(=O)[O-])CC[C@@]3(C)[C@H](CC[C@@H]4[C@]5(C)C[C@@H](O)[C@@H](O)C(C)(C)[C@H]5CC[C@@]43C)[C@H]12
REMARK SMILES IDX 7 1 6 2 34 3 11 4 5 5 15 6 4 7 12 8 16 9 13 10 17 11 32 12
REMARK SMILES IDX 14 13 18 14 31 15 33 16 19 17 30 18 29 19 21 20 20 21 26 22
REMARK SMILES IDX 22 23 24 24 27 25 28 26 8 27 9 28 10 29 2 30 3 31 1 32 23 33
REMARK SMILES IDX 25 35
REMARK H PARENT 23 34 25 36
REMARK Flexibility Score: inf
ROOT
ATOM      1  C   UNL     1     -10.264  -9.368  90.955  1.00  0.00     0.014 C 
ATOM      2  C   UNL     1     -10.585  -7.930  90.490  1.00  0.00     0.014 C 
ATOM      3  C   UNL     1      -9.495  -9.158  92.296  1.00  0.00     0.012 C 
ATOM      4  C   UNL     1     -11.535 -10.259  91.054  1.00  0.00     0.014 C 
ATOM      5  C   UNL     1      -9.522  -7.014  91.108  1.00  0.00     0.009 C 
ATOM      6  C   UNL     1     -10.404  -9.100  93.591  1.00  0.00     0.000 C 
ATOM      7  C   UNL     1      -8.633  -7.903  92.001  1.00  0.00     0.018 C 
ATOM      8  C   UNL     1     -12.306 -10.230  92.384  1.00  0.00     0.008 C 
ATOM      9  C   UNL     1     -11.130  -7.761  93.787  1.00  0.00     0.005 C 
ATOM     10  C   UNL     1     -11.414 -10.296  93.671  1.00  0.00    -0.024 C 
ATOM     11  C   UNL     1     -11.816  -7.692  95.131  1.00  0.00     0.005 C 
ATOM     12  C   UNL     1     -12.330 -10.243  95.026  1.00  0.00    -0.024 C 
ATOM     13  C   UNL     1     -10.581 -11.628  93.634  1.00  0.00     0.012 C 
ATOM     14  C   UNL     1     -12.906  -8.780  95.339  1.00  0.00     0.002 C 
ATOM     15  C   UNL     1     -11.495 -10.710  96.264  1.00  0.00     0.008 C 
ATOM     16  C   UNL     1     -13.514 -11.255  94.839  1.00  0.00     0.012 C 
ATOM     17  C   UNL     1     -13.642  -8.618  96.773  1.00  0.00    -0.023 C 
ATOM     18  C   UNL     1     -12.208 -10.596  97.621  1.00  0.00     0.005 C 
ATOM     19  C   UNL     1     -12.693  -9.159  97.911  1.00  0.00     0.004 C 
ATOM     20  C   UNL     1     -13.945  -7.107  97.102  1.00  0.00     0.042 C 
ATOM     21  C   UNL     1     -15.018  -9.362  96.706  1.00  0.00     0.012 C 
ATOM     22  C   UNL     1     -13.179  -8.918  99.404  1.00  0.00    -0.003 C 
ATOM     23  C   UNL     1     -14.429  -6.791  98.536  1.00  0.00     0.144 C 
ATOM     24  C   UNL     1     -13.495  -7.398  99.602  1.00  0.00     0.149 C 
ATOM     25  C   UNL     1     -12.025  -9.267 100.387  1.00  0.00     0.014 C 
ATOM     26  C   UNL     1     -14.389  -9.797  99.816  1.00  0.00     0.014 C 
ENDROOT
BRANCH   1  27
ATOM     27  C   UNL     1      -9.367 -10.014  89.894  1.00  0.00     0.048 C 
ATOM     28  O   UNL     1      -8.147  -9.715  89.791  1.00  0.00    -0.550 OA
ATOM     29  O   UNL     1      -9.873 -11.022  89.080  1.00  0.00    -0.550 OA
ENDBRANCH   1  27
BRANCH   7  30
ATOM     30  C   UNL     1      -7.949  -7.239  93.201  1.00  0.00    -0.077 C 
ATOM     31  C   UNL     1      -6.926  -8.005  94.005  1.00  0.00     0.039 C 
ATOM     32  C   UNL     1      -8.079  -5.925  93.459  1.00  0.00     0.008 C 
ENDBRANCH   7  30
BRANCH  23  33
ATOM     33  O   UNL     1     -15.768  -7.161  98.735  1.00  0.00    -0.390 OA
ATOM     34  H   UNL     1     -16.015  -6.899  99.660  1.00  0.00     0.211 HD
ENDBRANCH  23  33
BRANCH  24  35
ATOM     35  O   UNL     1     -14.042  -7.163 100.880  1.00  0.00    -0.390 OA
ATOM     36  H   UNL     1     -13.599  -7.782 101.518  1.00  0.00     0.211 HD
ENDBRANCH  24  35
TORSDOF 4
ENDMDL
MODEL 3
REMARK VINA RESULT:    -6.352      1.668      7.987
REMARK INTER + INTRA:          -8.164
REMARK INTER:                  -7.547
REMARK INTRA:                  -0.617
REMARK UNBOUND:                -0.698
REMARK SMILES C=C(C)[C@@H]1CC[C@]2(C(=O)[O-])CC[C@@]3(C)[C@H](CC[C@@H]4[C@]5(C)C[C@@H](O)[C@@H](O)C(C)(C)[C@H]5CC[C@@]43C)[C@H]12
REMARK SMILES IDX 7 1 6 2 34 3 11 4 5 5 15 6 4 7 12 8 16 9 13 10 17 11 32 12
REMARK SMILES IDX 14 13 18 14 31 15 33 16 19 17 30 18 29 19 21 20 20 21 26 22
REMARK SMILES IDX 22 23 24 24 27 25 28 26 8 27 9 28 10 29 2 30 3 31 1 32 23 33
REMARK SMILES IDX 25 35
REMARK H PARENT 23 34 25 36
REMARK Flexibility Score: inf
ROOT
ATOM      1  C   UNL     1     -12.808  -8.722  89.313  1.00  0.00     0.014 C 
ATOM      2  C   UNL     1     -14.300  -9.114  89.215  1.00  0.00     0.014 C 
ATOM      3  C   UNL     1     -12.801  -7.558  90.352  1.00  0.00     0.012 C 
ATOM      4  C   UNL     1     -11.898  -9.932  89.670  1.00  0.00     0.014 C 
ATOM      5  C   UNL     1     -15.113  -7.871  89.600  1.00  0.00     0.009 C 
ATOM      6  C   UNL     1     -12.631  -8.005  91.862  1.00  0.00     0.000 C 
ATOM      7  C   UNL     1     -14.098  -6.783  90.004  1.00  0.00     0.018 C 
ATOM      8  C   UNL     1     -11.696 -10.238  91.162  1.00  0.00     0.008 C 
ATOM      9  C   UNL     1     -13.910  -8.573  92.494  1.00  0.00     0.005 C 
ATOM     10  C   UNL     1     -11.426  -8.987  92.067  1.00  0.00    -0.024 C 
ATOM     11  C   UNL     1     -13.746  -8.793  93.979  1.00  0.00     0.005 C 
ATOM     12  C   UNL     1     -11.242  -9.421  93.634  1.00  0.00    -0.024 C 
ATOM     13  C   UNL     1     -10.129  -8.266  91.550  1.00  0.00     0.012 C 
ATOM     14  C   UNL     1     -12.625  -9.805  94.348  1.00  0.00     0.002 C 
ATOM     15  C   UNL     1     -10.585  -8.256  94.446  1.00  0.00     0.008 C 
ATOM     16  C   UNL     1     -10.261 -10.644  93.675  1.00  0.00     0.012 C 
ATOM     17  C   UNL     1     -12.537 -10.039  95.948  1.00  0.00    -0.023 C 
ATOM     18  C   UNL     1     -10.462  -8.495  95.960  1.00  0.00     0.005 C 
ATOM     19  C   UNL     1     -11.825  -8.801  96.618  1.00  0.00     0.004 C 
ATOM     20  C   UNL     1     -13.968 -10.158  96.597  1.00  0.00     0.042 C 
ATOM     21  C   UNL     1     -11.798 -11.395  96.206  1.00  0.00     0.012 C 
ATOM     22  C   UNL     1     -11.807  -8.777  98.206  1.00  0.00    -0.003 C 
ATOM     23  C   UNL     1     -14.034 -10.146  98.141  1.00  0.00     0.144 C 
ATOM     24  C   UNL     1     -13.269  -8.948  98.738  1.00  0.00     0.149 C 
ATOM     25  C   UNL     1     -11.313  -7.385  98.697  1.00  0.00     0.014 C 
ATOM     26  C   UNL     1     -10.857  -9.829  98.837  1.00  0.00     0.014 C 
ENDROOT
BRANCH   1  27
ATOM     27  C   UNL     1     -12.359  -8.237  87.931  1.00  0.00     0.048 C 
ATOM     28  O   UNL     1     -12.747  -8.806  86.875  1.00  0.00    -0.550 OA
ATOM     29  O   UNL     1     -11.582  -7.089  87.819  1.00  0.00    -0.550 OA
ENDBRANCH   1  27
BRANCH   7  30
ATOM     30  C   UNL     1     -14.560  -5.725  91.012  1.00  0.00    -0.077 C 
ATOM     31  C   UNL     1     -13.597  -4.666  91.488  1.00  0.00     0.039 C 
ATOM     32  C   UNL     1     -15.855  -5.580  91.351  1.00  0.00     0.008 C 
ENDBRANCH   7  30
BRANCH  23  33
ATOM     33  O   UNL     1     -13.620 -11.366  98.697  1.00  0.00    -0.390 OA
ATOM     34  H   UNL     1     -13.723 -12.063  97.998  1.00  0.00     0.211 HD
ENDBRANCH  23  33
BRANCH  24  35
ATOM     35  O   UNL     1     -13.281  -9.050 100.145  1.00  0.00    -0.390 OA
ATOM     36  H   UNL     1     -12.652  -8.371 100.504  1.00  0.00     0.211 HD
ENDBRANCH  24  35
TORSDOF 4
ENDMDL
MODEL 4
REMARK VINA RESULT:    -6.316      1.415      1.933
REMARK INTER + INTRA:          -8.121
REMARK INTER:                  -7.429
REMARK INTRA:                  -0.692
REMARK UNBOUND:                -0.698
REMARK SMILES C=C(C)[C@@H]1CC[C@]2(C(=O)[O-])CC[C@@]3(C)[C@H](CC[C@@H]4[C@]5(C)C[C@@H](O)[C@@H](O)C(C)(C)[C@H]5CC[C@@]43C)[C@H]12
REMARK SMILES IDX 7 1 6 2 34 3 11 4 5 5 15 6 4 7 12 8 16 9 13 10 17 11 32 12
REMARK SMILES IDX 14 13 18 14 31 15 33 16 19 17 30 18 29 19 21 20 20 21 26 22
REMARK SMILES IDX 22 23 24 24 27 25 28 26 8 27 9 28 10 29 2 30 3 31 1 32 23 33
REMARK SMILES IDX 25 35
REMARK H PARENT 23 34 25 36
REMARK Flexibility Score: inf
ROOT
ATOM      1  C   UNL     1     -12.221  -8.994  98.669  1.00  0.00     0.014 C 
ATOM      2  C   UNL     1     -11.325  -7.766  98.944  1.00  0.00     0.014 C 
ATOM      3  C   UNL     1     -13.278  -8.459  97.653  1.00  0.00     0.012 C 
ATOM      4  C   UNL     1     -11.407 -10.229  98.186  1.00  0.00     0.014 C 
ATOM      5  C   UNL     1     -12.182  -6.521  98.681  1.00  0.00     0.009 C 
ATOM      6  C   UNL     1     -12.875  -8.595  96.128  1.00  0.00     0.000 C 
ATOM      7  C   UNL     1     -13.548  -7.021  98.170  1.00  0.00     0.018 C 
ATOM      8  C   UNL     1     -11.148 -10.346  96.676  1.00  0.00     0.008 C 
ATOM      9  C   UNL     1     -11.867  -7.539  95.650  1.00  0.00     0.005 C 
ATOM     10  C   UNL     1     -12.383 -10.038  95.762  1.00  0.00    -0.024 C 
ATOM     11  C   UNL     1     -11.675  -7.592  94.153  1.00  0.00     0.005 C 
ATOM     12  C   UNL     1     -11.996 -10.176  94.179  1.00  0.00    -0.024 C 
ATOM     13  C   UNL     1     -13.537 -11.042  96.126  1.00  0.00     0.012 C 
ATOM     14  C   UNL     1     -11.120  -8.948  93.636  1.00  0.00     0.002 C 
ATOM     15  C   UNL     1     -13.292 -10.268  93.308  1.00  0.00     0.008 C 
ATOM     16  C   UNL     1     -11.204 -11.518  93.999  1.00  0.00     0.012 C 
ATOM     17  C   UNL     1     -10.883  -8.921  92.033  1.00  0.00    -0.023 C 
ATOM     18  C   UNL     1     -13.067 -10.286  91.788  1.00  0.00     0.005 C 
ATOM     19  C   UNL     1     -12.273  -9.056  91.298  1.00  0.00     0.004 C 
ATOM     20  C   UNL     1     -10.240  -7.561  91.564  1.00  0.00     0.042 C 
ATOM     21  C   UNL     1      -9.874 -10.061  91.667  1.00  0.00     0.012 C 
ATOM     22  C   UNL     1     -12.252  -8.872  89.721  1.00  0.00    -0.003 C 
ATOM     23  C   UNL     1     -10.179  -7.311  90.040  1.00  0.00     0.144 C 
ATOM     24  C   UNL     1     -11.552  -7.517  89.370  1.00  0.00     0.149 C 
ATOM     25  C   UNL     1     -13.713  -8.771  89.192  1.00  0.00     0.014 C 
ATOM     26  C   UNL     1     -11.591 -10.054  88.963  1.00  0.00     0.014 C 
ENDROOT
BRANCH   1  27
ATOM     27  C   UNL     1     -12.878  -9.402  99.992  1.00  0.00     0.048 C 
ATOM     28  O   UNL     1     -12.350  -9.124 101.102  1.00  0.00    -0.550 OA
ATOM     29  O   UNL     1     -14.129 -10.010  99.986  1.00  0.00    -0.550 OA
ENDBRANCH   1  27
BRANCH   7  30
ATOM     30  C   UNL     1     -14.339  -6.093  97.242  1.00  0.00    -0.077 C 
ATOM     31  C   UNL     1     -15.769  -6.419  96.889  1.00  0.00     0.039 C 
ATOM     32  C   UNL     1     -13.872  -4.885  96.875  1.00  0.00     0.008 C 
ENDBRANCH   7  30
BRANCH  23  33
ATOM     33  O   UNL     1      -9.171  -8.065  89.420  1.00  0.00    -0.390 OA
ATOM     34  H   UNL     1      -8.939  -7.611  88.569  1.00  0.00     0.211 HD
ENDBRANCH  23  33
BRANCH  24  35
ATOM     35  O   UNL     1     -11.409  -7.373  87.975  1.00  0.00    -0.390 OA
ATOM     36  H   UNL     1     -10.485  -7.059  87.795  1.00  0.00     0.211 HD
ENDBRANCH  24  35
TORSDOF 4
ENDMDL
MODEL 5
REMARK VINA RESULT:    -6.249      1.370      8.102
REMARK INTER + INTRA:          -8.043
REMARK INTER:                  -7.464
REMARK INTRA:                  -0.579
REMARK UNBOUND:                -0.698
REMARK SMILES C=C(C)[C@@H]1CC[C@]2(C(=O)[O-])CC[C@@]3(C)[C@H](CC[C@@H]4[C@]5(C)C[C@@H](O)[C@@H](O)C(C)(C)[C@H]5CC[C@@]43C)[C@H]12
REMARK SMILES IDX 7 1 6 2 34 3 11 4 5 5 15 6 4 7 12 8 16 9 13 10 17 11 32 12
REMARK SMILES IDX 14 13 18 14 31 15 33 16 19 17 30 18 29 19 21 20 20 21 26 22
REMARK SMILES IDX 22 23 24 24 27 25 28 26 8 27 9 28 10 29 2 30 3 31 1 32 23 33
REMARK SMILES IDX 25 35
REMARK H PARENT 23 34 25 36
REMARK Flexibility Score: inf
ROOT
ATOM      1  C   UNL     1      -9.397  -8.811  90.997  1.00  0.00     0.014 C 
ATOM      2  C   UNL     1      -9.740 -10.270  90.620  1.00  0.00     0.014 C 
ATOM      3  C   UNL     1     -10.784  -8.183  91.339  1.00  0.00     0.012 C 
ATOM      4  C   UNL     1      -8.335  -8.723  92.131  1.00  0.00     0.014 C 
ATOM      5  C   UNL     1     -11.190 -10.272  90.120  1.00  0.00     0.009 C 
ATOM      6  C   UNL     1     -11.228  -8.316  92.853  1.00  0.00     0.000 C 
ATOM      7  C   UNL     1     -11.720  -8.833  90.286  1.00  0.00     0.018 C 
ATOM      8  C   UNL     1      -8.854  -8.751  93.577  1.00  0.00     0.008 C 
ATOM      9  C   UNL     1     -11.755  -9.708  93.232  1.00  0.00     0.005 C 
ATOM     10  C   UNL     1     -10.110  -7.854  93.851  1.00  0.00    -0.024 C 
ATOM     11  C   UNL     1     -12.347  -9.719  94.621  1.00  0.00     0.005 C 
ATOM     12  C   UNL     1     -10.588  -7.968  95.411  1.00  0.00    -0.024 C 
ATOM     13  C   UNL     1      -9.746  -6.365  93.504  1.00  0.00     0.012 C 
ATOM     14  C   UNL     1     -11.335  -9.348  95.741  1.00  0.00     0.002 C 
ATOM     15  C   UNL     1     -11.558  -6.794  95.769  1.00  0.00     0.008 C 
ATOM     16  C   UNL     1      -9.311  -7.824  96.311  1.00  0.00     0.012 C 
ATOM     17  C   UNL     1     -12.015  -9.433  97.209  1.00  0.00    -0.023 C 
ATOM     18  C   UNL     1     -12.171  -6.851  97.178  1.00  0.00     0.005 C 
ATOM     19  C   UNL     1     -12.933  -8.169  97.433  1.00  0.00     0.004 C 
ATOM     20  C   UNL     1     -12.935 -10.705  97.350  1.00  0.00     0.042 C 
ATOM     21  C   UNL     1     -10.874  -9.567  98.272  1.00  0.00     0.012 C 
ATOM     22  C   UNL     1     -13.819  -8.171  98.751  1.00  0.00    -0.003 C 
ATOM     23  C   UNL     1     -13.825 -10.782  98.611  1.00  0.00     0.144 C 
ATOM     24  C   UNL     1     -14.651  -9.495  98.809  1.00  0.00     0.149 C 
ATOM     25  C   UNL     1     -14.845  -7.001  98.688  1.00  0.00     0.014 C 
ATOM     26  C   UNL     1     -13.002  -7.968 100.054  1.00  0.00     0.014 C 
ENDROOT
BRANCH   1  27
ATOM     27  C   UNL     1      -8.772  -8.144  89.768  1.00  0.00     0.048 C 
ATOM     28  O   UNL     1      -9.160  -7.015  89.362  1.00  0.00    -0.550 OA
ATOM     29  O   UNL     1      -7.689  -8.741  89.132  1.00  0.00    -0.550 OA
ENDBRANCH   1  27
BRANCH   7  30
ATOM     30  C   UNL     1     -13.227  -8.655  90.501  1.00  0.00    -0.077 C 
ATOM     31  C   UNL     1     -13.814  -7.270  90.618  1.00  0.00     0.039 C 
ATOM     32  C   UNL     1     -14.089  -9.684  90.399  1.00  0.00     0.008 C 
ENDBRANCH   7  30
BRANCH  23  33
ATOM     33  O   UNL     1     -13.090 -11.119  99.758  1.00  0.00    -0.390 OA
ATOM     34  H   UNL     1     -13.656 -10.913 100.546  1.00  0.00     0.211 HD
ENDBRANCH  23  33
BRANCH  24  35
ATOM     35  O   UNL     1     -15.362  -9.587 100.023  1.00  0.00    -0.390 OA
ATOM     36  H   UNL     1     -15.322  -8.700 100.467  1.00  0.00     0.211 HD
ENDBRANCH  24  35
TORSDOF 4
ENDMDL
MODEL 6
REMARK VINA RESULT:    -6.198      3.633      7.643
REMARK INTER + INTRA:          -7.983
REMARK INTER:                  -7.278
REMARK INTRA:                  -0.705
REMARK UNBOUND:                -0.698
REMARK SMILES C=C(C)[C@@H]1CC[C@]2(C(=O)[O-])CC[C@@]3(C)[C@H](CC[C@@H]4[C@]5(C)C[C@@H](O)[C@@H](O)C(C)(C)[C@H]5CC[C@@]43C)[C@H]12
REMARK SMILES IDX 7 1 6 2 34 3 11 4 5 5 15 6 4 7 12 8 16 9 13 10 17 11 32 12
REMARK SMILES IDX 14 13 18 14 31 15 33 16 19 17 30 18 29 19 21 20 20 21 26 22
REMARK SMILES IDX 22 23 24 24 27 25 28 26 8 27 9 28 10 29 2 30 3 31 1 32 23 33
REMARK SMILES IDX 25 35
REMARK H PARENT 23 34 25 36
REMARK Flexibility Score: inf
ROOT
ATOM      1  C   UNL     1      -7.044  -4.221  92.653  1.00  0.00     0.014 C 
ATOM      2  C   UNL     1      -7.229  -3.408  93.954  1.00  0.00     0.014 C 
ATOM      3  C   UNL     1      -6.644  -5.641  93.161  1.00  0.00     0.012 C 
ATOM      4  C   UNL     1      -8.303  -4.176  91.739  1.00  0.00     0.014 C 
ATOM      5  C   UNL     1      -6.356  -4.074  95.024  1.00  0.00     0.009 C 
ATOM      6  C   UNL     1      -7.855  -6.625  93.430  1.00  0.00     0.000 C 
ATOM      7  C   UNL     1      -5.730  -5.324  94.373  1.00  0.00     0.018 C 
ATOM      8  C   UNL     1      -9.388  -5.234  91.994  1.00  0.00     0.008 C 
ATOM      9  C   UNL     1      -8.601  -6.355  94.745  1.00  0.00     0.005 C 
ATOM     10  C   UNL     1      -8.857  -6.690  92.227  1.00  0.00    -0.024 C 
ATOM     11  C   UNL     1      -9.608  -7.440  95.046  1.00  0.00     0.005 C 
ATOM     12  C   UNL     1     -10.089  -7.730  92.503  1.00  0.00    -0.024 C 
ATOM     13  C   UNL     1      -8.049  -7.136  90.955  1.00  0.00     0.012 C 
ATOM     14  C   UNL     1     -10.720  -7.584  93.970  1.00  0.00     0.002 C 
ATOM     15  C   UNL     1      -9.602  -9.207  92.331  1.00  0.00     0.008 C 
ATOM     16  C   UNL     1     -11.190  -7.461  91.418  1.00  0.00     0.012 C 
ATOM     17  C   UNL     1     -11.798  -8.722  94.377  1.00  0.00    -0.023 C 
ATOM     18  C   UNL     1     -10.639 -10.288  92.676  1.00  0.00     0.005 C 
ATOM     19  C   UNL     1     -11.176 -10.148  94.117  1.00  0.00     0.004 C 
ATOM     20  C   UNL     1     -12.169  -8.649  95.907  1.00  0.00     0.042 C 
ATOM     21  C   UNL     1     -13.114  -8.463  93.569  1.00  0.00     0.012 C 
ATOM     22  C   UNL     1     -12.027 -11.388  94.625  1.00  0.00    -0.003 C 
ATOM     23  C   UNL     1     -13.003  -9.820  96.476  1.00  0.00     0.144 C 
ATOM     24  C   UNL     1     -12.376 -11.187  96.137  1.00  0.00     0.149 C 
ATOM     25  C   UNL     1     -11.165 -12.681  94.533  1.00  0.00     0.014 C 
ATOM     26  C   UNL     1     -13.306 -11.653  93.788  1.00  0.00     0.014 C 
ENDROOT
BRANCH   1  27
ATOM     27  C   UNL     1      -5.908  -3.575  91.854  1.00  0.00     0.048 C 
ATOM     28  O   UNL     1      -5.252  -4.226  90.997  1.00  0.00    -0.550 OA
ATOM     29  O   UNL     1      -5.645  -2.217  91.998  1.00  0.00    -0.550 OA
ENDBRANCH   1  27
BRANCH   7  30
ATOM     30  C   UNL     1      -5.373  -6.497  95.293  1.00  0.00    -0.077 C 
ATOM     31  C   UNL     1      -4.682  -7.714  94.729  1.00  0.00     0.039 C 
ATOM     32  C   UNL     1      -5.478  -6.410  96.632  1.00  0.00     0.008 C 
ENDBRANCH   7  30
BRANCH  23  33
ATOM     33  O   UNL     1     -14.350  -9.746  96.089  1.00  0.00    -0.390 OA
ATOM     34  H   UNL     1     -14.899 -10.025  96.867  1.00  0.00     0.211 HD
ENDBRANCH  23  33
BRANCH  24  35
ATOM     35  O   UNL     1     -13.232 -12.211  96.594  1.00  0.00    -0.390 OA
ATOM     36  H   UNL     1     -14.162 -11.958  96.355  1.00  0.00     0.211 HD
ENDBRANCH  24  35
TORSDOF 4
ENDMDL
MODEL 7
REMARK VINA RESULT:    -6.121      2.117      7.947
REMARK INTER + INTRA:          -7.892
REMARK INTER:                  -7.185
REMARK INTRA:                  -0.707
REMARK UNBOUND:                -0.698
REMARK SMILES C=C(C)[C@@H]1CC[C@]2(C(=O)[O-])CC[C@@]3(C)[C@H](CC[C@@H]4[C@]5(C)C[C@@H](O)[C@@H](O)C(C)(C)[C@H]5CC[C@@]43C)[C@H]12
REMARK SMILES IDX 7 1 6 2 34 3 11 4 5 5 15 6 4 7 12 8 16 9 13 10 17 11 32 12
REMARK SMILES IDX 14 13 18 14 31 15 33 16 19 17 30 18 29 19 21 20 20 21 26 22
REMARK SMILES IDX 22 23 24 24 27 25 28 26 8 27 9 28 10 29 2 30 3 31 1 32 23 33
REMARK SMILES IDX 25 35
REMARK H PARENT 23 34 25 36
REMARK Flexibility Score: inf
ROOT
ATOM      1  C   UNL     1     -13.371  -9.381  91.533  1.00  0.00     0.014 C 
ATOM      2  C   UNL     1     -14.516  -8.354  91.387  1.00  0.00     0.014 C 
ATOM      3  C   UNL     1     -12.274  -8.600  92.321  1.00  0.00     0.012 C 
ATOM      4  C   UNL     1     -13.843 -10.707  92.196  1.00  0.00     0.014 C 
ATOM      5  C   UNL     1     -13.876  -6.961  91.450  1.00  0.00     0.009 C 
ATOM      6  C   UNL     1     -12.373  -8.707  93.898  1.00  0.00     0.000 C 
ATOM      7  C   UNL     1     -12.372  -7.175  91.718  1.00  0.00     0.018 C 
ATOM      8  C   UNL     1     -13.809 -10.771  93.731  1.00  0.00     0.008 C 
ATOM      9  C   UNL     1     -13.463  -7.820  94.518  1.00  0.00     0.005 C 
ATOM     10  C   UNL     1     -12.514 -10.187  94.393  1.00  0.00    -0.024 C 
ATOM     11  C   UNL     1     -13.379  -7.808  96.026  1.00  0.00     0.005 C 
ATOM     12  C   UNL     1     -12.588 -10.290  96.024  1.00  0.00    -0.024 C 
ATOM     13  C   UNL     1     -11.274 -10.990  93.857  1.00  0.00     0.012 C 
ATOM     14  C   UNL     1     -13.571  -9.205  96.679  1.00  0.00     0.002 C 
ATOM     15  C   UNL     1     -11.166 -10.092  96.646  1.00  0.00     0.008 C 
ATOM     16  C   UNL     1     -13.070 -11.737  96.388  1.00  0.00     0.012 C 
ATOM     17  C   UNL     1     -13.526  -9.117  98.296  1.00  0.00    -0.023 C 
ATOM     18  C   UNL     1     -11.117 -10.050  98.181  1.00  0.00     0.005 C 
ATOM     19  C   UNL     1     -12.030  -8.953  98.769  1.00  0.00     0.004 C 
ATOM     20  C   UNL     1     -14.322  -7.867  98.831  1.00  0.00     0.042 C 
ATOM     21  C   UNL     1     -14.224 -10.393  98.877  1.00  0.00     0.012 C 
ATOM     22  C   UNL     1     -11.811  -8.674 100.317  1.00  0.00    -0.003 C 
ATOM     23  C   UNL     1     -14.163  -7.532 100.331  1.00  0.00     0.144 C 
ATOM     24  C   UNL     1     -12.681  -7.446 100.746  1.00  0.00     0.149 C 
ATOM     25  C   UNL     1     -10.326  -8.279 100.566  1.00  0.00     0.014 C 
ATOM     26  C   UNL     1     -12.097  -9.902 101.219  1.00  0.00     0.014 C 
ENDROOT
BRANCH   1  27
ATOM     27  C   UNL     1     -12.890  -9.750  90.126  1.00  0.00     0.048 C 
ATOM     28  O   UNL     1     -11.776 -10.307  89.936  1.00  0.00    -0.550 OA
ATOM     29  O   UNL     1     -13.730  -9.557  89.034  1.00  0.00    -0.550 OA
ENDBRANCH   1  27
BRANCH   7  30
ATOM     30  C   UNL     1     -11.621  -6.061  92.456  1.00  0.00    -0.077 C 
ATOM     31  C   UNL     1     -10.130  -6.166  92.663  1.00  0.00     0.039 C 
ATOM     32  C   UNL     1     -12.207  -4.889  92.765  1.00  0.00     0.008 C 
ENDBRANCH   7  30
BRANCH  23  33
ATOM     33  O   UNL     1     -14.889  -8.413 101.149  1.00  0.00    -0.390 OA
ATOM     34  H   UNL     1     -15.359  -9.053 100.554  1.00  0.00     0.211 HD
ENDBRANCH  23  33
BRANCH  24  35
ATOM     35  O   UNL     1     -12.604  -7.239 102.138  1.00  0.00    -0.390 OA
ATOM     36  H   UNL     1     -12.733  -8.118 102.583  1.00  0.00     0.211 HD
ENDBRANCH  24  35
TORSDOF 4
ENDMDL
MODEL 8
REMARK VINA RESULT:    -6.045      1.740      7.916
REMARK INTER + INTRA:          -7.803
REMARK INTER:                  -7.162
REMARK INTRA:                  -0.641
REMARK UNBOUND:                -0.698
REMARK SMILES C=C(C)[C@@H]1CC[C@]2(C(=O)[O-])CC[C@@]3(C)[C@H](CC[C@@H]4[C@]5(C)C[C@@H](O)[C@@H](O)C(C)(C)[C@H]5CC[C@@]43C)[C@H]12
REMARK SMILES IDX 7 1 6 2 34 3 11 4 5 5 15 6 4 7 12 8 16 9 13 10 17 11 32 12
REMARK SMILES IDX 14 13 18 14 31 15 33 16 19 17 30 18 29 19 21 20 20 21 26 22
REMARK SMILES IDX 22 23 24 24 27 25 28 26 8 27 9 28 10 29 2 30 3 31 1 32 23 33
REMARK SMILES IDX 25 35
REMARK H PARENT 23 34 25 36
REMARK Flexibility Score: inf
ROOT
ATOM      1  C   UNL     1     -12.621  -7.798  89.879  1.00  0.00     0.014 C 
ATOM      2  C   UNL     1     -13.122  -6.336  89.886  1.00  0.00     0.014 C 
ATOM      3  C   UNL     1     -11.485  -7.803  90.948  1.00  0.00     0.012 C 
ATOM      4  C   UNL     1     -13.767  -8.820  90.128  1.00  0.00     0.014 C 
ATOM      5  C   UNL     1     -11.954  -5.467  90.369  1.00  0.00     0.009 C 
ATOM      6  C   UNL     1     -11.953  -8.125  92.426  1.00  0.00     0.000 C 
ATOM      7  C   UNL     1     -10.802  -6.429  90.725  1.00  0.00     0.018 C 
ATOM      8  C   UNL     1     -14.092  -9.163  91.590  1.00  0.00     0.008 C 
ATOM      9  C   UNL     1     -12.631  -6.946  93.139  1.00  0.00     0.005 C 
ATOM     10  C   UNL     1     -12.846  -9.411  92.508  1.00  0.00    -0.024 C 
ATOM     11  C   UNL     1     -12.873  -7.244  94.600  1.00  0.00     0.005 C 
ATOM     12  C   UNL     1     -13.301  -9.752  94.042  1.00  0.00    -0.024 C 
ATOM     13  C   UNL     1     -12.017 -10.607  91.913  1.00  0.00     0.012 C 
ATOM     14  C   UNL     1     -13.805  -8.461  94.850  1.00  0.00     0.002 C 
ATOM     15  C   UNL     1     -12.110 -10.384  94.835  1.00  0.00     0.008 C 
ATOM     16  C   UNL     1     -14.448 -10.820  93.971  1.00  0.00     0.012 C 
ATOM     17  C   UNL     1     -14.069  -8.694  96.431  1.00  0.00    -0.023 C 
ATOM     18  C   UNL     1     -12.374 -10.645  96.326  1.00  0.00     0.005 C 
ATOM     19  C   UNL     1     -12.798  -9.365  97.079  1.00  0.00     0.004 C 
ATOM     20  C   UNL     1     -14.311  -7.332  97.185  1.00  0.00     0.042 C 
ATOM     21  C   UNL     1     -15.372  -9.549  96.591  1.00  0.00     0.012 C 
ATOM     22  C   UNL     1     -12.809  -9.507  98.661  1.00  0.00    -0.003 C 
ATOM     23  C   UNL     1     -14.341  -7.389  98.730  1.00  0.00     0.144 C 
ATOM     24  C   UNL     1     -13.103  -8.110  99.301  1.00  0.00     0.149 C 
ATOM     25  C   UNL     1     -11.396  -9.936  99.153  1.00  0.00     0.014 C 
ATOM     26  C   UNL     1     -13.801 -10.579  99.185  1.00  0.00     0.014 C 
ENDROOT
BRANCH   1  27
ATOM     27  C   UNL     1     -12.072  -8.098  88.481  1.00  0.00     0.048 C 
ATOM     28  O   UNL     1     -11.618  -9.235  88.181  1.00  0.00    -0.550 OA
ATOM     29  O   UNL     1     -12.154  -7.133  87.482  1.00  0.00    -0.550 OA
ENDBRANCH   1  27
BRANCH   7  30
ATOM     30  C   UNL     1      -9.805  -5.972  91.796  1.00  0.00    -0.077 C 
ATOM     31  C   UNL     1      -8.604  -6.826  92.121  1.00  0.00     0.039 C 
ATOM     32  C   UNL     1      -9.851  -4.739  92.333  1.00  0.00     0.008 C 
ENDBRANCH   7  30
BRANCH  23  33
ATOM     33  O   UNL     1     -15.539  -7.934  99.215  1.00  0.00    -0.390 OA
ATOM     34  H   UNL     1     -15.341  -8.852  99.536  1.00  0.00     0.211 HD
ENDBRANCH  23  33
BRANCH  24  35
ATOM     35  O   UNL     1     -13.238  -8.217 100.700  1.00  0.00    -0.390 OA
ATOM     36  H   UNL     1     -12.338  -8.098 101.102  1.00  0.00     0.211 HD
ENDBRANCH  24  35
TORSDOF 4
ENDMDL
MODEL 9
REMARK VINA RESULT:    -6.001      1.955      3.905
REMARK INTER + INTRA:          -7.751
REMARK INTER:                  -7.097
REMARK INTRA:                  -0.654
REMARK UNBOUND:                -0.698
REMARK SMILES C=C(C)[C@@H]1CC[C@]2(C(=O)[O-])CC[C@@]3(C)[C@H](CC[C@@H]4[C@]5(C)C[C@@H](O)[C@@H](O)C(C)(C)[C@H]5CC[C@@]43C)[C@H]12
REMARK SMILES IDX 7 1 6 2 34 3 11 4 5 5 15 6 4 7 12 8 16 9 13 10 17 11 32 12
REMARK SMILES IDX 14 13 18 14 31 15 33 16 19 17 30 18 29 19 21 20 20 21 26 22
REMARK SMILES IDX 22 23 24 24 27 25 28 26 8 27 9 28 10 29 2 30 3 31 1 32 23 33
REMARK SMILES IDX 25 35
REMARK H PARENT 23 34 25 36
REMARK Flexibility Score: inf
ROOT
ATOM      1  C   UNL     1     -14.864  -7.060  97.449  1.00  0.00     0.014 C 
ATOM      2  C   UNL     1     -15.912  -8.156  97.156  1.00  0.00     0.014 C 
ATOM      3  C   UNL     1     -13.503  -7.819  97.362  1.00  0.00     0.012 C 
ATOM      4  C   UNL     1     -14.999  -5.836  96.497  1.00  0.00     0.014 C 
ATOM      5  C   UNL     1     -15.282  -9.495  97.559  1.00  0.00     0.009 C 
ATOM      6  C   UNL     1     -12.845  -7.858  95.922  1.00  0.00     0.000 C 
ATOM      7  C   UNL     1     -13.838  -9.190  98.005  1.00  0.00     0.018 C 
ATOM      8  C   UNL     1     -14.243  -5.904  95.161  1.00  0.00     0.008 C 
ATOM      9  C   UNL     1     -13.486  -8.877  94.968  1.00  0.00     0.005 C 
ATOM     10  C   UNL     1     -12.773  -6.441  95.255  1.00  0.00    -0.024 C 
ATOM     11  C   UNL     1     -12.696  -9.013  93.688  1.00  0.00     0.005 C 
ATOM     12  C   UNL     1     -12.067  -6.487  93.780  1.00  0.00    -0.024 C 
ATOM     13  C   UNL     1     -11.958  -5.502  96.215  1.00  0.00     0.012 C 
ATOM     14  C   UNL     1     -12.592  -7.697  92.868  1.00  0.00     0.002 C 
ATOM     15  C   UNL     1     -10.515  -6.628  93.925  1.00  0.00     0.008 C 
ATOM     16  C   UNL     1     -12.357  -5.119  93.071  1.00  0.00     0.012 C 
ATOM     17  C   UNL     1     -11.783  -7.922  91.483  1.00  0.00    -0.023 C 
ATOM     18  C   UNL     1      -9.742  -6.799  92.608  1.00  0.00     0.005 C 
ATOM     19  C   UNL     1     -10.238  -8.011  91.789  1.00  0.00     0.004 C 
ATOM     20  C   UNL     1     -12.195  -9.272  90.783  1.00  0.00     0.042 C 
ATOM     21  C   UNL     1     -12.155  -6.759  90.502  1.00  0.00     0.012 C 
ATOM     22  C   UNL     1      -9.302  -8.406  90.568  1.00  0.00    -0.003 C 
ATOM     23  C   UNL     1     -11.334  -9.722  89.580  1.00  0.00     0.144 C 
ATOM     24  C   UNL     1      -9.831  -9.730  89.923  1.00  0.00     0.149 C 
ATOM     25  C   UNL     1      -7.867  -8.705  91.091  1.00  0.00     0.014 C 
ATOM     26  C   UNL     1      -9.158  -7.286  89.504  1.00  0.00     0.014 C 
ENDROOT
BRANCH   1  27
ATOM     27  C   UNL     1     -15.118  -6.533  98.865  1.00  0.00     0.048 C 
ATOM     28  O   UNL     1     -16.125  -6.895  99.531  1.00  0.00    -0.550 OA
ATOM     29  O   UNL     1     -14.178  -5.711  99.478  1.00  0.00    -0.550 OA
ENDBRANCH   1  27
BRANCH   7  30
ATOM     30  C   UNL     1     -12.797 -10.302  97.837  1.00  0.00    -0.077 C 
ATOM     31  C   UNL     1     -11.416 -10.137  98.423  1.00  0.00     0.039 C 
ATOM     32  C   UNL     1     -13.120 -11.514  97.349  1.00  0.00     0.008 C 
ENDBRANCH   7  30
BRANCH  23  33
ATOM     33  O   UNL     1     -11.608  -8.975  88.425  1.00  0.00    -0.390 OA
ATOM     34  H   UNL     1     -11.289  -9.501  87.646  1.00  0.00     0.211 HD
ENDBRANCH  23  33
BRANCH  24  35
ATOM     35  O   UNL     1      -9.097 -10.050  88.763  1.00  0.00    -0.390 OA
ATOM     36  H   UNL     1      -8.599  -9.237  88.485  1.00  0.00     0.211 HD
ENDBRANCH  24  35
TORSDOF 4
ENDMDL
