MODEL 1
REMARK VINA RESULT:    -5.508      0.000      0.000
REMARK INTER + INTRA:          -5.508
REMARK INTER:                  -5.508
REMARK INTRA:                   0.000
REMARK UNBOUND:                 0.000
REMARK SMILES O=c1ccc2ccccc2o1
REMARK SMILES IDX 7 1 8 2 9 3 10 4 5 5 6 6 4 7 3 8 2 9 1 10 11 11
REMARK H PARENT
REMARK Flexibility Score: inf
ROOT
ATOM      1  C   UNL     1     -29.479  -8.539   1.484  1.00  0.00     0.001 A 
ATOM      2  C   UNL     1     -28.748  -9.252   0.529  1.00  0.00     0.004 A 
ATOM      3  C   UNL     1     -28.263  -8.606  -0.614  1.00  0.00     0.048 A 
ATOM      4  C   UNL     1     -28.510  -7.243  -0.805  1.00  0.00     0.138 A 
ATOM      5  C   UNL     1     -29.249  -6.521   0.160  1.00  0.00     0.018 A 
ATOM      6  C   UNL     1     -29.732  -7.174   1.303  1.00  0.00     0.012 A 
ATOM      7  C   UNL     1     -29.479  -5.160  -0.058  1.00  0.00     0.019 A 
ATOM      8  C   UNL     1     -28.978  -4.557  -1.212  1.00  0.00     0.094 A 
ATOM      9  C   UNL     1     -28.255  -5.334  -2.125  1.00  0.00     0.336 A 
ATOM     10  O   UNL     1     -27.795  -4.809  -3.171  1.00  0.00    -0.246 OA
ATOM     11  O   UNL     1     -28.050  -6.628  -1.893  1.00  0.00    -0.423 OA
ENDROOT
TORSDOF 0
ENDMDL
MODEL 2
REMARK VINA RESULT:    -5.453      1.541      2.290
REMARK INTER + INTRA:          -5.453
REMARK INTER:                  -5.453
REMARK INTRA:                   0.000
REMARK UNBOUND:                 0.000
REMARK SMILES O=c1ccc2ccccc2o1
REMARK SMILES IDX 7 1 8 2 9 3 10 4 5 5 6 6 4 7 3 8 2 9 1 10 11 11
REMARK H PARENT
REMARK Flexibility Score: inf
ROOT
ATOM      1  C   UNL     1     -28.625  -9.043   0.141  1.00  0.00     0.001 A 
ATOM      2  C   UNL     1     -29.382  -8.540   1.204  1.00  0.00     0.004 A 
ATOM      3  C   UNL     1     -29.750  -7.191   1.230  1.00  0.00     0.048 A 
ATOM      4  C   UNL     1     -29.361  -6.339   0.191  1.00  0.00     0.138 A 
ATOM      5  C   UNL     1     -28.596  -6.847  -0.884  1.00  0.00     0.018 A 
ATOM      6  C   UNL     1     -28.231  -8.200  -0.904  1.00  0.00     0.012 A 
ATOM      7  C   UNL     1     -28.222  -5.972  -1.908  1.00  0.00     0.019 A 
ATOM      8  C   UNL     1     -28.611  -4.634  -1.840  1.00  0.00     0.094 A 
ATOM      9  C   UNL     1     -29.368  -4.200  -0.746  1.00  0.00     0.336 A 
ATOM     10  O   UNL     1     -29.728  -2.997  -0.667  1.00  0.00    -0.246 OA
ATOM     11  O   UNL     1     -29.711  -5.054   0.216  1.00  0.00    -0.423 OA
ENDROOT
TORSDOF 0
ENDMDL
MODEL 3
REMARK VINA RESULT:    -5.451      1.752      3.900
REMARK INTER + INTRA:          -5.451
REMARK INTER:                  -5.451
REMARK INTRA:                   0.000
REMARK UNBOUND:                 0.000
REMARK SMILES O=c1ccc2ccccc2o1
REMARK SMILES IDX 7 1 8 2 9 3 10 4 5 5 6 6 4 7 3 8 2 9 1 10 11 11
REMARK H PARENT
REMARK Flexibility Score: inf
ROOT
ATOM      1  C   UNL     1     -28.994  -4.675  -0.857  1.00  0.00     0.001 A 
ATOM      2  C   UNL     1     -28.234  -5.411  -1.772  1.00  0.00     0.004 A 
ATOM      3  C   UNL     1     -28.026  -6.781  -1.573  1.00  0.00     0.048 A 
ATOM      4  C   UNL     1     -28.577  -7.418  -0.457  1.00  0.00     0.138 A 
ATOM      5  C   UNL     1     -29.346  -6.674   0.467  1.00  0.00     0.018 A 
ATOM      6  C   UNL     1     -29.551  -5.303   0.263  1.00  0.00     0.012 A 
ATOM      7  C   UNL     1     -29.885  -7.339   1.573  1.00  0.00     0.019 A 
ATOM      8  C   UNL     1     -29.651  -8.705   1.731  1.00  0.00     0.094 A 
ATOM      9  C   UNL     1     -28.881  -9.377   0.775  1.00  0.00     0.336 A 
ATOM     10  O   UNL     1     -28.659 -10.609   0.900  1.00  0.00    -0.246 OA
ATOM     11  O   UNL     1     -28.379  -8.721  -0.268  1.00  0.00    -0.423 OA
ENDROOT
TORSDOF 0
ENDMDL
MODEL 4
REMARK VINA RESULT:    -5.450      2.057      4.364
REMARK INTER + INTRA:          -5.450
REMARK INTER:                  -5.450
REMARK INTRA:                   0.000
REMARK UNBOUND:                 0.000
REMARK SMILES O=c1ccc2ccccc2o1
REMARK SMILES IDX 7 1 8 2 9 3 10 4 5 5 6 6 4 7 3 8 2 9 1 10 11 11
REMARK H PARENT
REMARK Flexibility Score: inf
ROOT
ATOM      1  C   UNL     1     -28.643  -4.490  -1.614  1.00  0.00     0.001 A 
ATOM      2  C   UNL     1     -29.391  -4.077  -0.507  1.00  0.00     0.004 A 
ATOM      3  C   UNL     1     -29.762  -5.000   0.476  1.00  0.00     0.048 A 
ATOM      4  C   UNL     1     -29.385  -6.342   0.355  1.00  0.00     0.138 A 
ATOM      5  C   UNL     1     -28.629  -6.760  -0.764  1.00  0.00     0.018 A 
ATOM      6  C   UNL     1     -28.260  -5.830  -1.746  1.00  0.00     0.012 A 
ATOM      7  C   UNL     1     -28.266  -8.107  -0.857  1.00  0.00     0.019 A 
ATOM      8  C   UNL     1     -28.658  -8.992   0.147  1.00  0.00     0.094 A 
ATOM      9  C   UNL     1     -29.406  -8.508   1.226  1.00  0.00     0.336 A 
ATOM     10  O   UNL     1     -29.769  -9.291   2.142  1.00  0.00    -0.246 OA
ATOM     11  O   UNL     1     -29.738  -7.221   1.291  1.00  0.00    -0.423 OA
ENDROOT
TORSDOF 0
ENDMDL
MODEL 5
REMARK VINA RESULT:    -5.447      1.248      3.539
REMARK INTER + INTRA:          -5.447
REMARK INTER:                  -5.447
REMARK INTRA:                   0.000
REMARK UNBOUND:                 0.000
REMARK SMILES O=c1ccc2ccccc2o1
REMARK SMILES IDX 7 1 8 2 9 3 10 4 5 5 6 6 4 7 3 8 2 9 1 10 11 11
REMARK H PARENT
REMARK Flexibility Score: inf
ROOT
ATOM      1  C   UNL     1     -29.791  -4.457  -0.110  1.00  0.00     0.001 A 
ATOM      2  C   UNL     1     -28.949  -4.291  -1.214  1.00  0.00     0.004 A 
ATOM      3  C   UNL     1     -28.184  -5.365  -1.683  1.00  0.00     0.048 A 
ATOM      4  C   UNL     1     -28.260  -6.609  -1.049  1.00  0.00     0.138 A 
ATOM      5  C   UNL     1     -29.112  -6.777   0.067  1.00  0.00     0.018 A 
ATOM      6  C   UNL     1     -29.875  -5.698   0.533  1.00  0.00     0.012 A 
ATOM      7  C   UNL     1     -29.168  -8.032   0.680  1.00  0.00     0.019 A 
ATOM      8  C   UNL     1     -28.388  -9.074   0.178  1.00  0.00     0.094 A 
ATOM      9  C   UNL     1     -27.567  -8.835  -0.930  1.00  0.00     0.336 A 
ATOM     10  O   UNL     1     -26.856  -9.762  -1.398  1.00  0.00    -0.246 OA
ATOM     11  O   UNL     1     -27.532  -7.631  -1.496  1.00  0.00    -0.423 OA
ENDROOT
TORSDOF 0
ENDMDL
MODEL 6
REMARK VINA RESULT:    -5.322      9.697     11.325
REMARK INTER + INTRA:          -5.322
REMARK INTER:                  -5.322
REMARK INTRA:                   0.000
REMARK UNBOUND:                 0.000
REMARK SMILES O=c1ccc2ccccc2o1
REMARK SMILES IDX 7 1 8 2 9 3 10 4 5 5 6 6 4 7 3 8 2 9 1 10 11 11
REMARK H PARENT
REMARK Flexibility Score: inf
ROOT
ATOM      1  C   UNL     1     -35.825 -15.736   4.115  1.00  0.00     0.001 A 
ATOM      2  C   UNL     1     -35.483 -16.628   5.137  1.00  0.00     0.004 A 
ATOM      3  C   UNL     1     -34.168 -16.684   5.611  1.00  0.00     0.048 A 
ATOM      4  C   UNL     1     -33.190 -15.848   5.064  1.00  0.00     0.138 A 
ATOM      5  C   UNL     1     -33.535 -14.946   4.031  1.00  0.00     0.018 A 
ATOM      6  C   UNL     1     -34.854 -14.895   3.560  1.00  0.00     0.012 A 
ATOM      7  C   UNL     1     -32.536 -14.123   3.503  1.00  0.00     0.019 A 
ATOM      8  C   UNL     1     -31.238 -14.213   4.007  1.00  0.00     0.094 A 
ATOM      9  C   UNL     1     -30.969 -15.129   5.030  1.00  0.00     0.336 A 
ATOM     10  O   UNL     1     -29.804 -15.225   5.497  1.00  0.00    -0.246 OA
ATOM     11  O   UNL     1     -31.938 -15.902   5.515  1.00  0.00    -0.423 OA
ENDROOT
TORSDOF 0
ENDMDL
MODEL 7
REMARK VINA RESULT:    -5.288     11.786     13.148
REMARK INTER + INTRA:          -5.288
REMARK INTER:                  -5.288
REMARK INTRA:                   0.000
REMARK UNBOUND:                 0.000
REMARK SMILES O=c1ccc2ccccc2o1
REMARK SMILES IDX 7 1 8 2 9 3 10 4 5 5 6 6 4 7 3 8 2 9 1 10 11 11
REMARK H PARENT
REMARK Flexibility Score: inf
ROOT
ATOM      1  C   UNL     1     -39.044 -13.881   4.559  1.00  0.00     0.001 A 
ATOM      2  C   UNL     1     -39.125 -14.652   5.723  1.00  0.00     0.004 A 
ATOM      3  C   UNL     1     -38.028 -15.414   6.140  1.00  0.00     0.048 A 
ATOM      4  C   UNL     1     -36.845 -15.406   5.393  1.00  0.00     0.138 A 
ATOM      5  C   UNL     1     -36.763 -14.626   4.216  1.00  0.00     0.018 A 
ATOM      6  C   UNL     1     -37.866 -13.865   3.804  1.00  0.00     0.012 A 
ATOM      7  C   UNL     1     -35.569 -14.638   3.491  1.00  0.00     0.019 A 
ATOM      8  C   UNL     1     -34.501 -15.412   3.944  1.00  0.00     0.094 A 
ATOM      9  C   UNL     1     -34.653 -16.160   5.116  1.00  0.00     0.336 A 
ATOM     10  O   UNL     1     -33.701 -16.865   5.541  1.00  0.00    -0.246 OA
ATOM     11  O   UNL     1     -35.801 -16.132   5.789  1.00  0.00    -0.423 OA
ENDROOT
TORSDOF 0
ENDMDL
MODEL 8
REMARK VINA RESULT:    -5.279      1.797      2.669
REMARK INTER + INTRA:          -5.279
REMARK INTER:                  -5.279
REMARK INTRA:                   0.000
REMARK UNBOUND:                 0.000
REMARK SMILES O=c1ccc2ccccc2o1
REMARK SMILES IDX 7 1 8 2 9 3 10 4 5 5 6 6 4 7 3 8 2 9 1 10 11 11
REMARK H PARENT
REMARK Flexibility Score: inf
ROOT
ATOM      1  C   UNL     1     -28.162  -7.715  -0.635  1.00  0.00     0.001 A 
ATOM      2  C   UNL     1     -27.771  -7.223  -1.885  1.00  0.00     0.004 A 
ATOM      3  C   UNL     1     -28.249  -5.988  -2.337  1.00  0.00     0.048 A 
ATOM      4  C   UNL     1     -29.121  -5.241  -1.538  1.00  0.00     0.138 A 
ATOM      5  C   UNL     1     -29.516  -5.737  -0.275  1.00  0.00     0.018 A 
ATOM      6  C   UNL     1     -29.033  -6.975   0.172  1.00  0.00     0.012 A 
ATOM      7  C   UNL     1     -30.387  -4.967   0.501  1.00  0.00     0.019 A 
ATOM      8  C   UNL     1     -30.839  -3.742   0.011  1.00  0.00     0.094 A 
ATOM      9  C   UNL     1     -30.407  -3.314  -1.249  1.00  0.00     0.336 A 
ATOM     10  O   UNL     1     -30.803  -2.211  -1.709  1.00  0.00    -0.246 OA
ATOM     11  O   UNL     1     -29.576  -4.065  -1.968  1.00  0.00    -0.423 OA
ENDROOT
TORSDOF 0
ENDMDL
MODEL 9
REMARK VINA RESULT:    -5.267      9.085     10.992
REMARK INTER + INTRA:          -5.267
REMARK INTER:                  -5.267
REMARK INTRA:                   0.000
REMARK UNBOUND:                 0.000
REMARK SMILES O=c1ccc2ccccc2o1
REMARK SMILES IDX 7 1 8 2 9 3 10 4 5 5 6 6 4 7 3 8 2 9 1 10 11 11
REMARK H PARENT
REMARK Flexibility Score: inf
ROOT
ATOM      1  C   UNL     1     -35.443 -16.504   5.214  1.00  0.00     0.001 A 
ATOM      2  C   UNL     1     -35.757 -15.669   4.136  1.00  0.00     0.004 A 
ATOM      3  C   UNL     1     -34.760 -14.894   3.533  1.00  0.00     0.048 A 
ATOM      4  C   UNL     1     -33.446 -14.951   4.007  1.00  0.00     0.138 A 
ATOM      5  C   UNL     1     -33.128 -15.794   5.097  1.00  0.00     0.018 A 
ATOM      6  C   UNL     1     -34.131 -16.568   5.697  1.00  0.00     0.012 A 
ATOM      7  C   UNL     1     -31.806 -15.830   5.548  1.00  0.00     0.019 A 
ATOM      8  C   UNL     1     -30.845 -15.040   4.917  1.00  0.00     0.094 A 
ATOM      9  C   UNL     1     -31.232 -14.228   3.844  1.00  0.00     0.336 A 
ATOM     10  O   UNL     1     -30.380 -13.508   3.262  1.00  0.00    -0.246 OA
ATOM     11  O   UNL     1     -32.497 -14.212   3.434  1.00  0.00    -0.423 OA
ENDROOT
TORSDOF 0
ENDMDL
