MODEL 1
REMARK VINA RESULT:    71.264      0.000      0.000
REMARK INTER + INTRA:          93.595
REMARK INTER:                  94.178
REMARK INTRA:                  -0.582
REMARK UNBOUND:                -0.582
REMARK SMILES C=C(CC[C@@H](C)[C@@H]1CC[C@]2(C)[C@H]3CC[C@H]4C(C)(C)[C@@H](O)CC[C@@]45C[C@@]35CC[C@@]12C)C(C)C
REMARK SMILES IDX 4 1 3 2 2 3 1 4 30 5 31 6 32 7 5 8 6 9 7 10 8 11 28 12 9 13
REMARK SMILES IDX 10 14 27 15 29 16 11 17 12 18 26 19 25 20 13 21 23 22 24 23
REMARK SMILES IDX 14 24 15 25 22 26 16 27 21 28 19 29 17 30 18 31 20 32
REMARK H PARENT 20 33
REMARK Flexibility Score: inf
ROOT
ATOM      1  C   UNL     1     -29.971  26.815   6.125  1.00  0.00     0.008 C 
ENDROOT
BRANCH   1   2
ATOM      2  C   UNL     1     -28.453  26.534   5.984  1.00  0.00     0.031 C 
BRANCH   2   3
ATOM      3  C   UNL     1     -27.699  27.626   5.244  1.00  0.00    -0.075 C 
ATOM      4  C   UNL     1     -28.212  28.120   4.102  1.00  0.00     0.008 C 
BRANCH   3   5
ATOM      5  C   UNL     1     -26.309  28.043   5.713  1.00  0.00     0.008 C 
ATOM      6  C   UNL     1     -26.088  29.557   5.581  1.00  0.00     0.012 C 
ATOM      7  C   UNL     1     -25.223  27.268   4.957  1.00  0.00     0.012 C 
ENDBRANCH   3   5
ENDBRANCH   2   3
ENDBRANCH   1   2
BRANCH   1   8
ATOM      8  C   UNL     1     -30.854  25.558   6.352  1.00  0.00    -0.010 C 
ATOM      9  C   UNL     1     -30.039  24.491   7.117  1.00  0.00     0.008 C 
BRANCH   8  10
ATOM     10  C   UNL     1     -32.175  25.886   7.149  1.00  0.00    -0.002 C 
ATOM     11  C   UNL     1     -32.082  25.401   8.627  1.00  0.00     0.005 C 
ATOM     12  C   UNL     1     -33.552  25.305   6.677  1.00  0.00    -0.024 C 
ATOM     13  C   UNL     1     -33.472  24.911   9.062  1.00  0.00     0.008 C 
ATOM     14  C   UNL     1     -34.426  25.429   7.984  1.00  0.00    -0.024 C 
ATOM     15  C   UNL     1     -34.289  26.077   5.549  1.00  0.00     0.008 C 
ATOM     16  C   UNL     1     -33.329  23.820   6.212  1.00  0.00     0.012 C 
ATOM     17  C   UNL     1     -34.782  26.917   8.364  1.00  0.00     0.012 C 
ATOM     18  C   UNL     1     -35.753  24.620   7.823  1.00  0.00     0.002 C 
ATOM     19  C   UNL     1     -35.710  25.512   5.289  1.00  0.00     0.008 C 
ATOM     20  C   UNL     1     -36.531  25.153   6.575  1.00  0.00    -0.020 C 
ATOM     21  C   UNL     1     -36.607  24.564   9.106  1.00  0.00     0.005 C 
ATOM     22  C   UNL     1     -37.913  24.489   6.377  1.00  0.00    -0.020 C 
ATOM     23  C   UNL     1     -37.833  25.967   6.759  1.00  0.00     0.015 C 
ATOM     24  C   UNL     1     -37.933  23.797   8.928  1.00  0.00     0.005 C 
ATOM     25  C   UNL     1     -38.330  23.442   7.459  1.00  0.00     0.004 C 
ATOM     26  C   UNL     1     -38.314  24.157   4.923  1.00  0.00     0.010 C 
ATOM     27  C   UNL     1     -39.844  23.027   7.304  1.00  0.00    -0.006 C 
ATOM     28  C   UNL     1     -39.778  23.741   4.830  1.00  0.00     0.033 C 
ATOM     29  C   UNL     1     -40.107  22.610   5.819  1.00  0.00     0.120 C 
ATOM     30  C   UNL     1     -40.803  24.179   7.717  1.00  0.00     0.014 C 
ATOM     31  C   UNL     1     -40.146  21.802   8.203  1.00  0.00     0.014 C 
BRANCH  29  32
ATOM     32  O   UNL     1     -41.447  22.218   5.645  1.00  0.00    -0.393 OA
ATOM     33  H   UNL     1     -41.542  21.319   6.057  1.00  0.00     0.210 HD
ENDBRANCH  29  32
ENDBRANCH   8  10
ENDBRANCH   1   8
TORSDOF 6
ENDMDL
