MODEL 1
REMARK VINA RESULT:    -5.767      0.000      0.000
REMARK INTER + INTRA:         -10.566
REMARK INTER:                  -8.801
REMARK INTRA:                  -1.765
REMARK UNBOUND:                -1.765
REMARK SMILES CC(=O)CCC=C(C)CCC=C(C)CCC=C(C)C
REMARK SMILES IDX 10 1 11 2 12 3 13 4 14 5 15 6 16 7 18 8 17 9 19 10 9 11 7 12
REMARK SMILES IDX 6 13 8 14 5 15 4 16 2 17 3 18 1 19
REMARK H PARENT
REMARK Flexibility Score: inf
ROOT
ATOM      1  C   UNL     1      15.564 -35.265  20.086  1.00  0.00     0.032 C 
ENDROOT
BRANCH   1   2
ATOM      2  C   UNL     1      14.732 -34.004  20.118  1.00  0.00    -0.028 C 
ATOM      3  C   UNL     1      14.502 -33.264  21.226  1.00  0.00    -0.077 C 
ATOM      4  C   UNL     1      14.993 -33.689  22.589  1.00  0.00     0.039 C 
BRANCH   3   5
ATOM      5  C   UNL     1      13.674 -32.001  21.111  1.00  0.00     0.034 C 
BRANCH   5   6
ATOM      6  C   UNL     1      13.502 -31.307  22.469  1.00  0.00     0.032 C 
BRANCH   6   7
ATOM      7  C   UNL     1      12.251 -30.462  22.521  1.00  0.00    -0.028 C 
ATOM      8  C   UNL     1      13.393 -28.533  23.639  1.00  0.00     0.039 C 
ATOM      9  C   UNL     1      12.193 -29.205  23.013  1.00  0.00    -0.080 C 
ATOM     10  C   UNL     1      10.880 -28.470  22.947  1.00  0.00     0.039 C 
ENDBRANCH   6   7
ENDBRANCH   5   6
ENDBRANCH   3   5
ENDBRANCH   1   2
BRANCH   1  11
ATOM     11  C   UNL     1      16.944 -35.019  19.461  1.00  0.00     0.034 C 
BRANCH  11  12
ATOM     12  C   UNL     1      17.904 -34.382  20.446  1.00  0.00    -0.077 C 
ATOM     13  C   UNL     1      18.371 -33.138  20.205  1.00  0.00    -0.028 C 
ATOM     14  C   UNL     1      18.311 -35.151  21.681  1.00  0.00     0.039 C 
BRANCH  13  15
ATOM     15  C   UNL     1      19.318 -32.420  21.136  1.00  0.00     0.035 C 
BRANCH  15  16
ATOM     16  C   UNL     1      18.886 -30.962  21.350  1.00  0.00     0.079 C 
BRANCH  16  17
ATOM     17  C   UNL     1      17.628 -30.797  22.176  1.00  0.00     0.130 C 
ATOM     18  O   UNL     1      16.668 -30.242  21.666  1.00  0.00    -0.300 OA
ATOM     19  C   UNL     1      17.512 -31.286  23.594  1.00  0.00     0.087 C 
ENDBRANCH  16  17
ENDBRANCH  15  16
ENDBRANCH  13  15
ENDBRANCH  11  12
ENDBRANCH   1  11
TORSDOF 9
ENDMDL
MODEL 2
REMARK VINA RESULT:    -5.712      1.997      2.610
REMARK INTER + INTRA:         -10.483
REMARK INTER:                  -8.877
REMARK INTRA:                  -1.606
REMARK UNBOUND:                -1.765
REMARK SMILES CC(=O)CCC=C(C)CCC=C(C)CCC=C(C)C
REMARK SMILES IDX 10 1 11 2 12 3 13 4 14 5 15 6 16 7 18 8 17 9 19 10 9 11 7 12
REMARK SMILES IDX 6 13 8 14 5 15 4 16 2 17 3 18 1 19
REMARK H PARENT
REMARK Flexibility Score: inf
ROOT
ATOM      1  C   UNL     1      16.134 -34.513  21.149  1.00  0.00     0.032 C 
ENDROOT
BRANCH   1   2
ATOM      2  C   UNL     1      15.076 -33.764  21.925  1.00  0.00    -0.028 C 
ATOM      3  C   UNL     1      15.147 -33.485  23.247  1.00  0.00    -0.077 C 
ATOM      4  C   UNL     1      16.278 -33.988  24.112  1.00  0.00     0.039 C 
BRANCH   3   5
ATOM      5  C   UNL     1      14.028 -32.696  23.896  1.00  0.00     0.034 C 
BRANCH   5   6
ATOM      6  C   UNL     1      13.403 -31.688  22.922  1.00  0.00     0.032 C 
BRANCH   6   7
ATOM      7  C   UNL     1      13.163 -30.345  23.570  1.00  0.00    -0.028 C 
ATOM      8  C   UNL     1      14.719 -29.131  22.027  1.00  0.00     0.039 C 
ATOM      9  C   UNL     1      13.721 -29.185  23.160  1.00  0.00    -0.080 C 
ATOM     10  C   UNL     1      13.341 -27.915  23.877  1.00  0.00     0.039 C 
ENDBRANCH   6   7
ENDBRANCH   5   6
ENDBRANCH   3   5
ENDBRANCH   1   2
BRANCH   1  11
ATOM     11  C   UNL     1      16.876 -33.594  20.169  1.00  0.00     0.034 C 
BRANCH  11  12
ATOM     12  C   UNL     1      17.886 -32.713  20.876  1.00  0.00    -0.077 C 
ATOM     13  C   UNL     1      17.686 -31.378  20.917  1.00  0.00    -0.028 C 
ATOM     14  C   UNL     1      19.091 -33.350  21.528  1.00  0.00     0.039 C 
BRANCH  13  15
ATOM     15  C   UNL     1      18.631 -30.425  21.611  1.00  0.00     0.035 C 
BRANCH  15  16
ATOM     16  C   UNL     1      18.625 -29.048  20.933  1.00  0.00     0.079 C 
BRANCH  16  17
ATOM     17  C   UNL     1      19.965 -28.344  20.934  1.00  0.00     0.130 C 
ATOM     18  O   UNL     1      20.960 -28.993  21.215  1.00  0.00    -0.300 OA
ATOM     19  C   UNL     1      20.122 -26.885  20.607  1.00  0.00     0.087 C 
ENDBRANCH  16  17
ENDBRANCH  15  16
ENDBRANCH  13  15
ENDBRANCH  11  12
ENDBRANCH   1  11
TORSDOF 9
ENDMDL
MODEL 3
REMARK VINA RESULT:    -5.682      1.544      5.210
REMARK INTER + INTRA:         -10.437
REMARK INTER:                  -8.029
REMARK INTRA:                  -2.408
REMARK UNBOUND:                -1.765
REMARK SMILES CC(=O)CCC=C(C)CCC=C(C)CCC=C(C)C
REMARK SMILES IDX 10 1 11 2 12 3 13 4 14 5 15 6 16 7 18 8 17 9 19 10 9 11 7 12
REMARK SMILES IDX 6 13 8 14 5 15 4 16 2 17 3 18 1 19
REMARK H PARENT
REMARK Flexibility Score: inf
ROOT
ATOM      1  C   UNL     1      15.133 -34.006  23.283  1.00  0.00     0.032 C 
ENDROOT
BRANCH   1   2
ATOM      2  C   UNL     1      15.673 -34.617  22.011  1.00  0.00    -0.028 C 
ATOM      3  C   UNL     1      15.294 -34.255  20.764  1.00  0.00    -0.077 C 
ATOM      4  C   UNL     1      14.200 -33.242  20.522  1.00  0.00     0.039 C 
BRANCH   3   5
ATOM      5  C   UNL     1      15.941 -34.928  19.571  1.00  0.00     0.034 C 
BRANCH   5   6
ATOM      6  C   UNL     1      17.468 -34.778  19.591  1.00  0.00     0.032 C 
BRANCH   6   7
ATOM      7  C   UNL     1      17.896 -33.360  19.887  1.00  0.00    -0.028 C 
ATOM      8  C   UNL     1      19.369 -34.023  21.802  1.00  0.00     0.039 C 
ATOM      9  C   UNL     1      18.772 -33.009  20.854  1.00  0.00    -0.080 C 
ATOM     10  C   UNL     1      19.141 -31.555  20.992  1.00  0.00     0.039 C 
ENDBRANCH   6   7
ENDBRANCH   5   6
ENDBRANCH   3   5
ENDBRANCH   1   2
BRANCH   1  11
ATOM     11  C   UNL     1      16.262 -33.506  24.196  1.00  0.00     0.034 C 
BRANCH  11  12
ATOM     12  C   UNL     1      16.673 -32.087  23.860  1.00  0.00    -0.077 C 
ATOM     13  C   UNL     1      15.886 -31.343  23.054  1.00  0.00    -0.028 C 
ATOM     14  C   UNL     1      17.953 -31.533  24.442  1.00  0.00     0.039 C 
BRANCH  13  15
ATOM     15  C   UNL     1      16.209 -29.916  22.677  1.00  0.00     0.035 C 
BRANCH  15  16
ATOM     16  C   UNL     1      15.038 -29.264  21.927  1.00  0.00     0.079 C 
BRANCH  16  17
ATOM     17  C   UNL     1      13.758 -29.166  22.729  1.00  0.00     0.130 C 
ATOM     18  O   UNL     1      13.669 -28.290  23.573  1.00  0.00    -0.300 OA
ATOM     19  C   UNL     1      12.596 -30.100  22.531  1.00  0.00     0.087 C 
ENDBRANCH  16  17
ENDBRANCH  15  16
ENDBRANCH  13  15
ENDBRANCH  11  12
ENDBRANCH   1  11
TORSDOF 9
ENDMDL
MODEL 4
REMARK VINA RESULT:    -5.636      1.907      5.435
REMARK INTER + INTRA:         -10.367
REMARK INTER:                  -7.684
REMARK INTRA:                  -2.683
REMARK UNBOUND:                -1.765
REMARK SMILES CC(=O)CCC=C(C)CCC=C(C)CCC=C(C)C
REMARK SMILES IDX 10 1 11 2 12 3 13 4 14 5 15 6 16 7 18 8 17 9 19 10 9 11 7 12
REMARK SMILES IDX 6 13 8 14 5 15 4 16 2 17 3 18 1 19
REMARK H PARENT
REMARK Flexibility Score: inf
ROOT
ATOM      1  C   UNL     1      16.808 -34.125  19.552  1.00  0.00     0.032 C 
ENDROOT
BRANCH   1   2
ATOM      2  C   UNL     1      18.140 -33.902  20.231  1.00  0.00    -0.028 C 
ATOM      3  C   UNL     1      18.499 -32.761  20.862  1.00  0.00    -0.077 C 
ATOM      4  C   UNL     1      17.613 -31.538  20.871  1.00  0.00     0.039 C 
BRANCH   3   5
ATOM      5  C   UNL     1      19.855 -32.683  21.531  1.00  0.00     0.034 C 
BRANCH   5   6
ATOM      6  C   UNL     1      20.030 -33.774  22.595  1.00  0.00     0.032 C 
BRANCH   6   7
ATOM      7  C   UNL     1      19.087 -33.589  23.760  1.00  0.00    -0.028 C 
ATOM      8  C   UNL     1      17.974 -35.809  23.434  1.00  0.00     0.039 C 
ATOM      9  C   UNL     1      18.181 -34.505  24.168  1.00  0.00    -0.080 C 
ATOM     10  C   UNL     1      17.347 -34.195  25.383  1.00  0.00     0.039 C 
ENDBRANCH   6   7
ENDBRANCH   5   6
ENDBRANCH   3   5
ENDBRANCH   1   2
BRANCH   1  11
ATOM     11  C   UNL     1      15.801 -34.808  20.489  1.00  0.00     0.034 C 
BRANCH  11  12
ATOM     12  C   UNL     1      14.944 -33.800  21.227  1.00  0.00    -0.077 C 
ATOM     13  C   UNL     1      15.051 -33.697  22.570  1.00  0.00    -0.028 C 
ATOM     14  C   UNL     1      13.993 -32.926  20.443  1.00  0.00     0.039 C 
BRANCH  13  15
ATOM     15  C   UNL     1      14.248 -32.712  23.386  1.00  0.00     0.035 C 
BRANCH  15  16
ATOM     16  C   UNL     1      14.991 -31.377  23.530  1.00  0.00     0.079 C 
BRANCH  16  17
ATOM     17  C   UNL     1      14.180 -30.163  23.130  1.00  0.00     0.130 C 
ATOM     18  O   UNL     1      13.135 -29.944  23.722  1.00  0.00    -0.300 OA
ATOM     19  C   UNL     1      14.605 -29.220  22.038  1.00  0.00     0.087 C 
ENDBRANCH  16  17
ENDBRANCH  15  16
ENDBRANCH  13  15
ENDBRANCH  11  12
ENDBRANCH   1  11
TORSDOF 9
ENDMDL
MODEL 5
REMARK VINA RESULT:    -5.596      2.064      3.832
REMARK INTER + INTRA:         -10.305
REMARK INTER:                  -8.396
REMARK INTRA:                  -1.908
REMARK UNBOUND:                -1.765
REMARK SMILES CC(=O)CCC=C(C)CCC=C(C)CCC=C(C)C
REMARK SMILES IDX 10 1 11 2 12 3 13 4 14 5 15 6 16 7 18 8 17 9 19 10 9 11 7 12
REMARK SMILES IDX 6 13 8 14 5 15 4 16 2 17 3 18 1 19
REMARK H PARENT
REMARK Flexibility Score: inf
ROOT
ATOM      1  C   UNL     1      18.433 -32.393  24.027  1.00  0.00     0.032 C 
ENDROOT
BRANCH   1   2
ATOM      2  C   UNL     1      16.926 -32.333  23.943  1.00  0.00    -0.028 C 
ATOM      3  C   UNL     1      16.111 -33.412  23.968  1.00  0.00    -0.077 C 
ATOM      4  C   UNL     1      16.651 -34.822  23.993  1.00  0.00     0.039 C 
BRANCH   3   5
ATOM      5  C   UNL     1      14.612 -33.207  23.909  1.00  0.00     0.034 C 
BRANCH   5   6
ATOM      6  C   UNL     1      14.229 -32.070  22.953  1.00  0.00     0.032 C 
BRANCH   6   7
ATOM      7  C   UNL     1      13.419 -30.997  23.641  1.00  0.00    -0.028 C 
ATOM      8  C   UNL     1      14.593 -29.118  22.471  1.00  0.00     0.039 C 
ATOM      9  C   UNL     1      13.548 -29.671  23.412  1.00  0.00    -0.080 C 
ATOM     10  C   UNL     1      12.628 -28.726  24.139  1.00  0.00     0.039 C 
ENDBRANCH   6   7
ENDBRANCH   5   6
ENDBRANCH   3   5
ENDBRANCH   1   2
BRANCH   1  11
ATOM     11  C   UNL     1      19.097 -31.611  22.885  1.00  0.00     0.034 C 
BRANCH  11  12
ATOM     12  C   UNL     1      18.459 -31.919  21.545  1.00  0.00    -0.077 C 
ATOM     13  C   UNL     1      18.656 -33.130  20.980  1.00  0.00    -0.028 C 
ATOM     14  C   UNL     1      17.610 -30.865  20.874  1.00  0.00     0.039 C 
BRANCH  13  15
ATOM     15  C   UNL     1      18.049 -33.529  19.656  1.00  0.00     0.035 C 
BRANCH  15  16
ATOM     16  C   UNL     1      17.903 -35.054  19.552  1.00  0.00     0.079 C 
BRANCH  16  17
ATOM     17  C   UNL     1      16.520 -35.573  19.879  1.00  0.00     0.130 C 
ATOM     18  O   UNL     1      16.323 -36.776  19.817  1.00  0.00    -0.300 OA
ATOM     19  C   UNL     1      15.381 -34.674  20.277  1.00  0.00     0.087 C 
ENDBRANCH  16  17
ENDBRANCH  15  16
ENDBRANCH  13  15
ENDBRANCH  11  12
ENDBRANCH   1  11
TORSDOF 9
ENDMDL
MODEL 6
REMARK VINA RESULT:    -5.530      1.871      3.621
REMARK INTER + INTRA:         -10.205
REMARK INTER:                  -8.041
REMARK INTRA:                  -2.164
REMARK UNBOUND:                -1.765
REMARK SMILES CC(=O)CCC=C(C)CCC=C(C)CCC=C(C)C
REMARK SMILES IDX 10 1 11 2 12 3 13 4 14 5 15 6 16 7 18 8 17 9 19 10 9 11 7 12
REMARK SMILES IDX 6 13 8 14 5 15 4 16 2 17 3 18 1 19
REMARK H PARENT
REMARK Flexibility Score: inf
ROOT
ATOM      1  C   UNL     1      17.081 -31.914  24.033  1.00  0.00     0.032 C 
ENDROOT
BRANCH   1   2
ATOM      2  C   UNL     1      15.694 -32.154  23.483  1.00  0.00    -0.028 C 
ATOM      3  C   UNL     1      15.366 -32.090  22.173  1.00  0.00    -0.077 C 
ATOM      4  C   UNL     1      16.362 -31.674  21.117  1.00  0.00     0.039 C 
BRANCH   3   5
ATOM      5  C   UNL     1      13.940 -32.386  21.754  1.00  0.00     0.034 C 
BRANCH   5   6
ATOM      6  C   UNL     1      13.221 -31.126  21.253  1.00  0.00     0.032 C 
BRANCH   6   7
ATOM      7  C   UNL     1      12.463 -30.427  22.358  1.00  0.00    -0.028 C 
ATOM      8  C   UNL     1      14.270 -28.739  22.761  1.00  0.00     0.039 C 
ATOM      9  C   UNL     1      12.906 -29.337  23.021  1.00  0.00    -0.080 C 
ATOM     10  C   UNL     1      12.011 -28.720  24.063  1.00  0.00     0.039 C 
ENDBRANCH   6   7
ENDBRANCH   5   6
ENDBRANCH   3   5
ENDBRANCH   1   2
BRANCH   1  11
ATOM     11  C   UNL     1      17.757 -33.225  24.458  1.00  0.00     0.034 C 
BRANCH  11  12
ATOM     12  C   UNL     1      18.354 -33.962  23.277  1.00  0.00    -0.077 C 
ATOM     13  C   UNL     1      17.844 -35.160  22.917  1.00  0.00    -0.028 C 
ATOM     14  C   UNL     1      19.504 -33.337  22.522  1.00  0.00     0.039 C 
BRANCH  13  15
ATOM     15  C   UNL     1      18.365 -35.958  21.746  1.00  0.00     0.035 C 
BRANCH  15  16
ATOM     16  C   UNL     1      17.218 -36.417  20.834  1.00  0.00     0.079 C 
BRANCH  16  17
ATOM     17  C   UNL     1      16.622 -35.321  19.978  1.00  0.00     0.130 C 
ATOM     18  O   UNL     1      15.429 -35.085  20.086  1.00  0.00    -0.300 OA
ATOM     19  C   UNL     1      17.433 -34.511  19.004  1.00  0.00     0.087 C 
ENDBRANCH  16  17
ENDBRANCH  15  16
ENDBRANCH  13  15
ENDBRANCH  11  12
ENDBRANCH   1  11
TORSDOF 9
ENDMDL
MODEL 7
REMARK VINA RESULT:    -5.513      3.491      4.683
REMARK INTER + INTRA:         -10.179
REMARK INTER:                  -8.948
REMARK INTRA:                  -1.230
REMARK UNBOUND:                -1.765
REMARK SMILES CC(=O)CCC=C(C)CCC=C(C)CCC=C(C)C
REMARK SMILES IDX 10 1 11 2 12 3 13 4 14 5 15 6 16 7 18 8 17 9 19 10 9 11 7 12
REMARK SMILES IDX 6 13 8 14 5 15 4 16 2 17 3 18 1 19
REMARK H PARENT
REMARK Flexibility Score: inf
ROOT
ATOM      1  C   UNL     1      17.872 -31.276  21.007  1.00  0.00     0.032 C 
ENDROOT
BRANCH   1   2
ATOM      2  C   UNL     1      16.636 -31.847  21.662  1.00  0.00    -0.028 C 
ATOM      3  C   UNL     1      16.470 -31.988  22.996  1.00  0.00    -0.077 C 
ATOM      4  C   UNL     1      17.568 -31.661  23.979  1.00  0.00     0.039 C 
BRANCH   3   5
ATOM      5  C   UNL     1      15.164 -32.546  23.522  1.00  0.00     0.034 C 
BRANCH   5   6
ATOM      6  C   UNL     1      13.955 -31.980  22.765  1.00  0.00     0.032 C 
BRANCH   6   7
ATOM      7  C   UNL     1      13.238 -30.912  23.556  1.00  0.00    -0.028 C 
ATOM      8  C   UNL     1      14.372 -29.024  22.361  1.00  0.00     0.039 C 
ATOM      9  C   UNL     1      13.390 -29.583  23.365  1.00  0.00    -0.080 C 
ATOM     10  C   UNL     1      12.563 -28.640  24.199  1.00  0.00     0.039 C 
ENDBRANCH   6   7
ENDBRANCH   5   6
ENDBRANCH   3   5
ENDBRANCH   1   2
BRANCH   1  11
ATOM     11  C   UNL     1      17.969 -29.756  21.205  1.00  0.00     0.034 C 
BRANCH  11  12
ATOM     12  C   UNL     1      19.399 -29.264  21.110  1.00  0.00    -0.077 C 
ATOM     13  C   UNL     1      19.634 -27.960  20.852  1.00  0.00    -0.028 C 
ATOM     14  C   UNL     1      20.531 -30.244  21.314  1.00  0.00     0.039 C 
BRANCH  13  15
ATOM     15  C   UNL     1      21.024 -27.378  20.754  1.00  0.00     0.035 C 
BRANCH  15  16
ATOM     16  C   UNL     1      20.975 -25.881  20.416  1.00  0.00     0.079 C 
BRANCH  16  17
ATOM     17  C   UNL     1      21.162 -24.965  21.607  1.00  0.00     0.130 C 
ATOM     18  O   UNL     1      22.292 -24.595  21.882  1.00  0.00    -0.300 OA
ATOM     19  C   UNL     1      20.018 -24.492  22.462  1.00  0.00     0.087 C 
ENDBRANCH  16  17
ENDBRANCH  15  16
ENDBRANCH  13  15
ENDBRANCH  11  12
ENDBRANCH   1  11
TORSDOF 9
ENDMDL
MODEL 8
REMARK VINA RESULT:    -5.437      2.392      4.111
REMARK INTER + INTRA:         -10.062
REMARK INTER:                  -7.687
REMARK INTRA:                  -2.376
REMARK UNBOUND:                -1.765
REMARK SMILES CC(=O)CCC=C(C)CCC=C(C)CCC=C(C)C
REMARK SMILES IDX 10 1 11 2 12 3 13 4 14 5 15 6 16 7 18 8 17 9 19 10 9 11 7 12
REMARK SMILES IDX 6 13 8 14 5 15 4 16 2 17 3 18 1 19
REMARK H PARENT
REMARK Flexibility Score: inf
ROOT
ATOM      1  C   UNL     1      15.005 -34.725  20.471  1.00  0.00     0.032 C 
ENDROOT
BRANCH   1   2
ATOM      2  C   UNL     1      14.958 -33.873  21.719  1.00  0.00    -0.028 C 
ATOM      3  C   UNL     1      14.261 -32.720  21.836  1.00  0.00    -0.077 C 
ATOM      4  C   UNL     1      13.516 -32.113  20.671  1.00  0.00     0.039 C 
BRANCH   3   5
ATOM      5  C   UNL     1      14.275 -31.980  23.157  1.00  0.00     0.034 C 
BRANCH   5   6
ATOM      6  C   UNL     1      15.261 -30.804  23.142  1.00  0.00     0.032 C 
BRANCH   6   7
ATOM      7  C   UNL     1      16.660 -31.230  23.522  1.00  0.00    -0.028 C 
ATOM      8  C   UNL     1      17.497 -31.192  21.161  1.00  0.00     0.039 C 
ATOM      9  C   UNL     1      17.681 -31.377  22.650  1.00  0.00    -0.080 C 
ATOM     10  C   UNL     1      19.035 -31.757  23.190  1.00  0.00     0.039 C 
ENDBRANCH   6   7
ENDBRANCH   5   6
ENDBRANCH   3   5
ENDBRANCH   1   2
BRANCH   1  11
ATOM     11  C   UNL     1      16.410 -34.752  19.855  1.00  0.00     0.034 C 
BRANCH  11  12
ATOM     12  C   UNL     1      17.370 -35.590  20.674  1.00  0.00    -0.077 C 
ATOM     13  C   UNL     1      18.097 -35.001  21.649  1.00  0.00    -0.028 C 
ATOM     14  C   UNL     1      17.488 -37.068  20.387  1.00  0.00     0.039 C 
BRANCH  13  15
ATOM     15  C   UNL     1      19.066 -35.760  22.524  1.00  0.00     0.035 C 
BRANCH  15  16
ATOM     16  C   UNL     1      18.394 -36.219  23.826  1.00  0.00     0.079 C 
BRANCH  16  17
ATOM     17  C   UNL     1      17.967 -35.091  24.740  1.00  0.00     0.130 C 
ATOM     18  O   UNL     1      18.828 -34.498  25.371  1.00  0.00    -0.300 OA
ATOM     19  C   UNL     1      16.532 -34.671  24.905  1.00  0.00     0.087 C 
ENDBRANCH  16  17
ENDBRANCH  15  16
ENDBRANCH  13  15
ENDBRANCH  11  12
ENDBRANCH   1  11
TORSDOF 9
ENDMDL
MODEL 9
REMARK VINA RESULT:    -5.396      2.498      3.403
REMARK INTER + INTRA:         -10.001
REMARK INTER:                  -8.083
REMARK INTRA:                  -1.918
REMARK UNBOUND:                -1.765
REMARK SMILES CC(=O)CCC=C(C)CCC=C(C)CCC=C(C)C
REMARK SMILES IDX 10 1 11 2 12 3 13 4 14 5 15 6 16 7 18 8 17 9 19 10 9 11 7 12
REMARK SMILES IDX 6 13 8 14 5 15 4 16 2 17 3 18 1 19
REMARK H PARENT
REMARK Flexibility Score: inf
ROOT
ATOM      1  C   UNL     1      14.797 -34.098  20.873  1.00  0.00     0.032 C 
ENDROOT
BRANCH   1   2
ATOM      2  C   UNL     1      15.250 -32.707  21.249  1.00  0.00    -0.028 C 
ATOM      3  C   UNL     1      15.484 -32.292  22.515  1.00  0.00    -0.077 C 
ATOM      4  C   UNL     1      15.221 -33.177  23.710  1.00  0.00     0.039 C 
BRANCH   3   5
ATOM      5  C   UNL     1      15.967 -30.875  22.749  1.00  0.00     0.034 C 
BRANCH   5   6
ATOM      6  C   UNL     1      15.144 -29.853  21.954  1.00  0.00     0.032 C 
BRANCH   6   7
ATOM      7  C   UNL     1      14.141 -29.131  22.822  1.00  0.00    -0.028 C 
ATOM      8  C   UNL     1      12.236 -30.614  22.150  1.00  0.00     0.039 C 
ATOM      9  C   UNL     1      12.841 -29.480  22.945  1.00  0.00    -0.080 C 
ATOM     10  C   UNL     1      11.976 -28.693  23.894  1.00  0.00     0.039 C 
ENDBRANCH   6   7
ENDBRANCH   5   6
ENDBRANCH   3   5
ENDBRANCH   1   2
BRANCH   1  11
ATOM     11  C   UNL     1      15.813 -34.799  19.960  1.00  0.00     0.034 C 
BRANCH  11  12
ATOM     12  C   UNL     1      17.160 -34.960  20.635  1.00  0.00    -0.077 C 
ATOM     13  C   UNL     1      17.257 -35.721  21.746  1.00  0.00    -0.028 C 
ATOM     14  C   UNL     1      18.368 -34.270  20.045  1.00  0.00     0.039 C 
BRANCH  13  15
ATOM     15  C   UNL     1      18.560 -35.949  22.476  1.00  0.00     0.035 C 
BRANCH  15  16
ATOM     16  C   UNL     1      18.598 -35.167  23.797  1.00  0.00     0.079 C 
BRANCH  16  17
ATOM     17  C   UNL     1      18.240 -35.986  25.019  1.00  0.00     0.130 C 
ATOM     18  O   UNL     1      19.066 -36.775  25.450  1.00  0.00    -0.300 OA
ATOM     19  C   UNL     1      16.916 -35.870  25.722  1.00  0.00     0.087 C 
ENDBRANCH  16  17
ENDBRANCH  15  16
ENDBRANCH  13  15
ENDBRANCH  11  12
ENDBRANCH   1  11
TORSDOF 9
ENDMDL
