MODEL 1
REMARK VINA RESULT:    -7.666      0.000      0.000
REMARK INTER + INTRA:          -9.573
REMARK INTER:                  -9.459
REMARK INTRA:                  -0.114
REMARK UNBOUND:                -0.114
REMARK SMILES O=c1c(O)c(-c2cc(O)c(O)c(O)c2)oc2cc(O)cc(O)c12
REMARK SMILES IDX 5 1 3 2 2 3 1 4 23 5 21 6 20 7 18 8 17 9 16 10 15 11 6 12
REMARK SMILES IDX 7 13 8 14 14 15 10 16 12 17 9 18 11 20 13 22 4 24 22 26
REMARK SMILES IDX 19 28
REMARK H PARENT 9 19 11 21 13 23 4 25 22 27 19 29
REMARK Flexibility Score: inf
ROOT
ATOM      1  C   UNL     1     169.521 149.244 147.345  1.00  0.00     0.180 A 
ATOM      2  C   UNL     1     170.135 150.443 147.749  1.00  0.00     0.208 A 
ATOM      3  C   UNL     1     169.393 151.635 147.712  1.00  0.00     0.238 A 
ATOM      4  O   UNL     1     169.931 152.695 148.125  1.00  0.00    -0.285 OA
ATOM      5  C   UNL     1     168.053 151.616 147.256  1.00  0.00     0.111 A 
ATOM      6  C   UNL     1     167.221 152.770 147.139  1.00  0.00     0.134 A 
ATOM      7  C   UNL     1     165.871 152.616 146.802  1.00  0.00     0.093 A 
ATOM      8  C   UNL     1     165.339 151.356 146.514  1.00  0.00     0.123 A 
ATOM      9  C   UNL     1     166.157 150.231 146.569  1.00  0.00     0.094 A 
ATOM     10  C   UNL     1     167.500 150.349 146.937  1.00  0.00     0.146 A 
ATOM     11  O   UNL     1     168.242 149.249 146.986  1.00  0.00    -0.452 OA
ENDROOT
BRANCH   1  12
ATOM     12  C   UNL     1     170.246 147.953 147.333  1.00  0.00     0.029 A 
ATOM     13  C   UNL     1     169.687 146.842 147.984  1.00  0.00     0.062 A 
ATOM     14  C   UNL     1     170.339 145.605 147.971  1.00  0.00     0.162 A 
ATOM     15  C   UNL     1     171.456 147.800 146.635  1.00  0.00     0.062 A 
ATOM     16  C   UNL     1     171.560 145.462 147.289  1.00  0.00     0.200 A 
ATOM     17  C   UNL     1     172.115 146.563 146.616  1.00  0.00     0.162 A 
BRANCH  14  18
ATOM     18  O   UNL     1     169.759 144.529 148.642  1.00  0.00    -0.504 OA
ATOM     19  H   UNL     1     169.675 144.505 149.652  1.00  0.00     0.293 HD
ENDBRANCH  14  18
BRANCH  16  20
ATOM     20  O   UNL     1     172.207 144.225 147.284  1.00  0.00    -0.502 OA
ATOM     21  H   UNL     1     172.776 143.910 148.060  1.00  0.00     0.293 HD
ENDBRANCH  16  20
BRANCH  17  22
ATOM     22  O   UNL     1     173.319 146.425 145.925  1.00  0.00    -0.504 OA
ATOM     23  H   UNL     1     174.206 146.364 146.412  1.00  0.00     0.293 HD
ENDBRANCH  17  22
ENDBRANCH   1  12
BRANCH   2  24
ATOM     24  O   UNL     1     171.453 150.435 148.215  1.00  0.00    -0.502 OA
ATOM     25  H   UNL     1     171.682 150.332 149.195  1.00  0.00     0.293 HD
ENDBRANCH   2  24
BRANCH   6  26
ATOM     26  O   UNL     1     167.674 154.080 147.314  1.00  0.00    -0.507 OA
ATOM     27  H   UNL     1     168.409 154.512 146.772  1.00  0.00     0.293 HD
ENDBRANCH   6  26
BRANCH   8  28
ATOM     28  O   UNL     1     163.998 151.214 146.164  1.00  0.00    -0.508 OA
ATOM     29  H   UNL     1     163.550 150.305 146.140  1.00  0.00     0.293 HD
ENDBRANCH   8  28
TORSDOF 7
ENDMDL
MODEL 2
REMARK VINA RESULT:    -7.418      1.562      7.365
REMARK INTER + INTRA:          -9.267
REMARK INTER:                  -9.316
REMARK INTRA:                   0.049
REMARK UNBOUND:                -0.114
REMARK SMILES O=c1c(O)c(-c2cc(O)c(O)c(O)c2)oc2cc(O)cc(O)c12
REMARK SMILES IDX 5 1 3 2 2 3 1 4 23 5 21 6 20 7 18 8 17 9 16 10 15 11 6 12
REMARK SMILES IDX 7 13 8 14 14 15 10 16 12 17 9 18 11 20 13 22 4 24 22 26
REMARK SMILES IDX 19 28
REMARK H PARENT 9 19 11 21 13 23 4 25 22 27 19 29
REMARK Flexibility Score: inf
ROOT
ATOM      1  C   UNL     1     168.384 149.174 146.890  1.00  0.00     0.180 A 
ATOM      2  C   UNL     1     167.478 148.105 146.995  1.00  0.00     0.208 A 
ATOM      3  C   UNL     1     167.948 146.793 146.819  1.00  0.00     0.238 A 
ATOM      4  O   UNL     1     167.142 145.838 146.968  1.00  0.00    -0.285 OA
ATOM      5  C   UNL     1     169.314 146.569 146.524  1.00  0.00     0.111 A 
ATOM      6  C   UNL     1     169.891 145.285 146.286  1.00  0.00     0.134 A 
ATOM      7  C   UNL     1     171.277 145.169 146.133  1.00  0.00     0.093 A 
ATOM      8  C   UNL     1     172.101 146.298 146.143  1.00  0.00     0.123 A 
ATOM      9  C   UNL     1     171.540 147.561 146.315  1.00  0.00     0.094 A 
ATOM     10  C   UNL     1     170.163 147.705 146.507  1.00  0.00     0.146 A 
ATOM     11  O   UNL     1     169.672 148.926 146.678  1.00  0.00    -0.452 OA
ENDROOT
BRANCH   1  12
ATOM     12  C   UNL     1     167.959 150.585 147.038  1.00  0.00     0.029 A 
ATOM     13  C   UNL     1     168.782 151.484 147.735  1.00  0.00     0.062 A 
ATOM     14  C   UNL     1     168.416 152.827 147.872  1.00  0.00     0.162 A 
ATOM     15  C   UNL     1     166.776 151.058 146.447  1.00  0.00     0.062 A 
ATOM     16  C   UNL     1     167.220 153.291 147.297  1.00  0.00     0.200 A 
ATOM     17  C   UNL     1     166.402 152.403 146.579  1.00  0.00     0.162 A 
BRANCH  14  18
ATOM     18  O   UNL     1     169.253 153.685 148.584  1.00  0.00    -0.504 OA
ATOM     19  H   UNL     1     169.540 153.490 149.537  1.00  0.00     0.293 HD
ENDBRANCH  14  18
BRANCH  16  20
ATOM     20  O   UNL     1     166.860 154.631 147.442  1.00  0.00    -0.502 OA
ATOM     21  H   UNL     1     165.962 154.911 147.817  1.00  0.00     0.293 HD
ENDBRANCH  16  20
BRANCH  17  22
ATOM     22  O   UNL     1     165.221 152.859 145.994  1.00  0.00    -0.504 OA
ATOM     23  H   UNL     1     164.453 152.231 145.788  1.00  0.00     0.293 HD
ENDBRANCH  17  22
ENDBRANCH   1  12
BRANCH   2  24
ATOM     24  O   UNL     1     166.137 148.348 147.308  1.00  0.00    -0.502 OA
ATOM     25  H   UNL     1     165.521 147.625 147.657  1.00  0.00     0.293 HD
ENDBRANCH   2  24
BRANCH   6  26
ATOM     26  O   UNL     1     169.149 144.106 146.165  1.00  0.00    -0.507 OA
ATOM     27  H   UNL     1     169.492 143.251 145.751  1.00  0.00     0.293 HD
ENDBRANCH   6  26
BRANCH   8  28
ATOM     28  O   UNL     1     173.478 146.175 145.974  1.00  0.00    -0.508 OA
ATOM     29  H   UNL     1     173.953 146.588 145.180  1.00  0.00     0.293 HD
ENDBRANCH   8  28
TORSDOF 7
ENDMDL
MODEL 3
REMARK VINA RESULT:    -7.373      6.822      9.980
REMARK INTER + INTRA:          -9.211
REMARK INTER:                  -8.916
REMARK INTRA:                  -0.295
REMARK UNBOUND:                -0.114
REMARK SMILES O=c1c(O)c(-c2cc(O)c(O)c(O)c2)oc2cc(O)cc(O)c12
REMARK SMILES IDX 5 1 3 2 2 3 1 4 23 5 21 6 20 7 18 8 17 9 16 10 15 11 6 12
REMARK SMILES IDX 7 13 8 14 14 15 10 16 12 17 9 18 11 20 13 22 4 24 22 26
REMARK SMILES IDX 19 28
REMARK H PARENT 9 19 11 21 13 23 4 25 22 27 19 29
REMARK Flexibility Score: inf
ROOT
ATOM      1  C   UNL     1     168.912 144.835 154.157  1.00  0.00     0.180 A 
ATOM      2  C   UNL     1     168.762 143.470 154.457  1.00  0.00     0.208 A 
ATOM      3  C   UNL     1     168.500 142.567 153.415  1.00  0.00     0.238 A 
ATOM      4  O   UNL     1     168.420 141.340 153.683  1.00  0.00    -0.285 OA
ATOM      5  C   UNL     1     168.374 143.042 152.087  1.00  0.00     0.111 A 
ATOM      6  C   UNL     1     168.070 142.222 150.959  1.00  0.00     0.134 A 
ATOM      7  C   UNL     1     168.099 142.778 149.674  1.00  0.00     0.093 A 
ATOM      8  C   UNL     1     168.358 144.137 149.482  1.00  0.00     0.123 A 
ATOM      9  C   UNL     1     168.598 144.957 150.582  1.00  0.00     0.094 A 
ATOM     10  C   UNL     1     168.611 144.425 151.874  1.00  0.00     0.146 A 
ATOM     11  O   UNL     1     168.854 145.240 152.893  1.00  0.00    -0.452 OA
ENDROOT
BRANCH   1  12
ATOM     12  C   UNL     1     169.165 145.849 155.205  1.00  0.00     0.029 A 
ATOM     13  C   UNL     1     170.453 145.972 155.750  1.00  0.00     0.062 A 
ATOM     14  C   UNL     1     170.726 146.935 156.727  1.00  0.00     0.162 A 
ATOM     15  C   UNL     1     168.157 146.732 155.627  1.00  0.00     0.062 A 
ATOM     16  C   UNL     1     169.708 147.803 157.161  1.00  0.00     0.200 A 
ATOM     17  C   UNL     1     168.422 147.702 156.604  1.00  0.00     0.162 A 
BRANCH  14  18
ATOM     18  O   UNL     1     172.014 147.015 157.254  1.00  0.00    -0.504 OA
ATOM     19  H   UNL     1     172.362 146.345 157.930  1.00  0.00     0.293 HD
ENDBRANCH  14  18
BRANCH  16  20
ATOM     20  O   UNL     1     169.988 148.759 158.138  1.00  0.00    -0.502 OA
ATOM     21  H   UNL     1     170.929 149.084 158.322  1.00  0.00     0.293 HD
ENDBRANCH  16  20
BRANCH  17  22
ATOM     22  O   UNL     1     167.412 148.569 157.019  1.00  0.00    -0.504 OA
ATOM     23  H   UNL     1     167.609 149.529 157.279  1.00  0.00     0.293 HD
ENDBRANCH  17  22
ENDBRANCH   1  12
BRANCH   2  24
ATOM     24  O   UNL     1     168.911 143.020 155.773  1.00  0.00    -0.502 OA
ATOM     25  H   UNL     1     168.208 143.177 156.484  1.00  0.00     0.293 HD
ENDBRANCH   2  24
BRANCH   6  26
ATOM     26  O   UNL     1     167.707 140.875 151.047  1.00  0.00    -0.507 OA
ATOM     27  H   UNL     1     168.314 140.100 150.821  1.00  0.00     0.293 HD
ENDBRANCH   6  26
BRANCH   8  28
ATOM     28  O   UNL     1     168.370 144.685 148.201  1.00  0.00    -0.508 OA
ATOM     29  H   UNL     1     168.435 145.685 148.053  1.00  0.00     0.293 HD
ENDBRANCH   8  28
TORSDOF 7
ENDMDL
MODEL 4
REMARK VINA RESULT:    -7.358      3.830      7.710
REMARK INTER + INTRA:          -9.192
REMARK INTER:                  -8.849
REMARK INTRA:                  -0.343
REMARK UNBOUND:                -0.114
REMARK SMILES O=c1c(O)c(-c2cc(O)c(O)c(O)c2)oc2cc(O)cc(O)c12
REMARK SMILES IDX 5 1 3 2 2 3 1 4 23 5 21 6 20 7 18 8 17 9 16 10 15 11 6 12
REMARK SMILES IDX 7 13 8 14 14 15 10 16 12 17 9 18 11 20 13 22 4 24 22 26
REMARK SMILES IDX 19 28
REMARK H PARENT 9 19 11 21 13 23 4 25 22 27 19 29
REMARK Flexibility Score: inf
ROOT
ATOM      1  C   UNL     1     167.292 153.133 149.479  1.00  0.00     0.180 A 
ATOM      2  C   UNL     1     168.548 153.277 148.865  1.00  0.00     0.208 A 
ATOM      3  C   UNL     1     168.918 152.381 147.849  1.00  0.00     0.238 A 
ATOM      4  O   UNL     1     170.021 152.549 147.267  1.00  0.00    -0.285 OA
ATOM      5  C   UNL     1     168.034 151.341 147.472  1.00  0.00     0.111 A 
ATOM      6  C   UNL     1     168.322 150.352 146.484  1.00  0.00     0.134 A 
ATOM      7  C   UNL     1     167.324 149.450 146.098  1.00  0.00     0.093 A 
ATOM      8  C   UNL     1     166.068 149.459 146.712  1.00  0.00     0.123 A 
ATOM      9  C   UNL     1     165.797 150.383 147.718  1.00  0.00     0.094 A 
ATOM     10  C   UNL     1     166.762 151.319 148.100  1.00  0.00     0.146 A 
ATOM     11  O   UNL     1     166.459 152.188 149.057  1.00  0.00    -0.452 OA
ENDROOT
BRANCH   1  12
ATOM     12  C   UNL     1     166.842 154.023 150.573  1.00  0.00     0.029 A 
ATOM     13  C   UNL     1     167.049 153.636 151.907  1.00  0.00     0.062 A 
ATOM     14  C   UNL     1     166.653 154.467 152.960  1.00  0.00     0.162 A 
ATOM     15  C   UNL     1     166.264 155.275 150.306  1.00  0.00     0.062 A 
ATOM     16  C   UNL     1     166.056 155.709 152.688  1.00  0.00     0.200 A 
ATOM     17  C   UNL     1     165.866 156.115 151.356  1.00  0.00     0.162 A 
BRANCH  14  18
ATOM     18  O   UNL     1     166.863 154.040 154.271  1.00  0.00    -0.504 OA
ATOM     19  H   UNL     1     167.749 154.170 154.745  1.00  0.00     0.293 HD
ENDBRANCH  14  18
BRANCH  16  20
ATOM     20  O   UNL     1     165.661 156.531 153.745  1.00  0.00    -0.502 OA
ATOM     21  H   UNL     1     165.425 157.506 153.611  1.00  0.00     0.293 HD
ENDBRANCH  16  20
BRANCH  17  22
ATOM     22  O   UNL     1     165.287 157.352 151.079  1.00  0.00    -0.504 OA
ATOM     23  H   UNL     1     164.461 157.434 150.496  1.00  0.00     0.293 HD
ENDBRANCH  17  22
ENDBRANCH   1  12
BRANCH   2  24
ATOM     24  O   UNL     1     169.396 154.324 149.239  1.00  0.00    -0.502 OA
ATOM     25  H   UNL     1     169.872 154.906 148.561  1.00  0.00     0.293 HD
ENDBRANCH   2  24
BRANCH   6  26
ATOM     26  O   UNL     1     169.572 150.196 145.876  1.00  0.00    -0.507 OA
ATOM     27  H   UNL     1     170.438 150.567 146.238  1.00  0.00     0.293 HD
ENDBRANCH   6  26
BRANCH   8  28
ATOM     28  O   UNL     1     165.085 148.548 146.333  1.00  0.00    -0.508 OA
ATOM     29  H   UNL     1     164.281 148.833 145.786  1.00  0.00     0.293 HD
ENDBRANCH   8  28
TORSDOF 7
ENDMDL
MODEL 5
REMARK VINA RESULT:    -7.350      6.870      9.934
REMARK INTER + INTRA:          -9.182
REMARK INTER:                  -8.890
REMARK INTRA:                  -0.292
REMARK UNBOUND:                -0.114
REMARK SMILES O=c1c(O)c(-c2cc(O)c(O)c(O)c2)oc2cc(O)cc(O)c12
REMARK SMILES IDX 5 1 3 2 2 3 1 4 23 5 21 6 20 7 18 8 17 9 16 10 15 11 6 12
REMARK SMILES IDX 7 13 8 14 14 15 10 16 12 17 9 18 11 20 13 22 4 24 22 26
REMARK SMILES IDX 19 28
REMARK H PARENT 9 19 11 21 13 23 4 25 22 27 19 29
REMARK Flexibility Score: inf
ROOT
ATOM      1  C   UNL     1     168.997 144.853 154.196  1.00  0.00     0.180 A 
ATOM      2  C   UNL     1     168.838 143.493 154.512  1.00  0.00     0.208 A 
ATOM      3  C   UNL     1     168.550 142.582 153.483  1.00  0.00     0.238 A 
ATOM      4  O   UNL     1     168.463 141.359 153.765  1.00  0.00    -0.285 OA
ATOM      5  C   UNL     1     168.409 143.045 152.152  1.00  0.00     0.111 A 
ATOM      6  C   UNL     1     168.079 142.217 151.037  1.00  0.00     0.134 A 
ATOM      7  C   UNL     1     168.094 142.760 149.747  1.00  0.00     0.093 A 
ATOM      8  C   UNL     1     168.363 144.115 149.537  1.00  0.00     0.123 A 
ATOM      9  C   UNL     1     168.629 144.943 150.625  1.00  0.00     0.094 A 
ATOM     10  C   UNL     1     168.656 144.423 151.921  1.00  0.00     0.146 A 
ATOM     11  O   UNL     1     168.923 145.246 152.929  1.00  0.00    -0.452 OA
ENDROOT
BRANCH   1  12
ATOM     12  C   UNL     1     169.276 145.876 155.230  1.00  0.00     0.029 A 
ATOM     13  C   UNL     1     168.238 146.712 155.670  1.00  0.00     0.062 A 
ATOM     14  C   UNL     1     168.468 147.673 156.661  1.00  0.00     0.162 A 
ATOM     15  C   UNL     1     170.544 145.989 155.822  1.00  0.00     0.062 A 
ATOM     16  C   UNL     1     169.745 147.797 157.236  1.00  0.00     0.200 A 
ATOM     17  C   UNL     1     170.783 146.948 156.817  1.00  0.00     0.162 A 
BRANCH  14  18
ATOM     18  O   UNL     1     167.415 148.495 157.060  1.00  0.00    -0.504 OA
ATOM     19  H   UNL     1     167.214 149.375 156.601  1.00  0.00     0.293 HD
ENDBRANCH  14  18
BRANCH  16  20
ATOM     20  O   UNL     1     169.967 148.760 158.221  1.00  0.00    -0.502 OA
ATOM     21  H   UNL     1     169.225 149.353 158.572  1.00  0.00     0.293 HD
ENDBRANCH  16  20
BRANCH  17  22
ATOM     22  O   UNL     1     172.048 147.056 157.393  1.00  0.00    -0.504 OA
ATOM     23  H   UNL     1     172.217 147.652 158.195  1.00  0.00     0.293 HD
ENDBRANCH  17  22
ENDBRANCH   1  12
BRANCH   2  24
ATOM     24  O   UNL     1     169.003 143.054 155.830  1.00  0.00    -0.502 OA
ATOM     25  H   UNL     1     169.168 142.083 156.062  1.00  0.00     0.293 HD
ENDBRANCH   2  24
BRANCH   6  26
ATOM     26  O   UNL     1     167.704 140.875 151.145  1.00  0.00    -0.507 OA
ATOM     27  H   UNL     1     168.298 140.092 150.913  1.00  0.00     0.293 HD
ENDBRANCH   6  26
BRANCH   8  28
ATOM     28  O   UNL     1     168.361 144.650 148.251  1.00  0.00    -0.508 OA
ATOM     29  H   UNL     1     168.996 145.393 147.985  1.00  0.00     0.293 HD
ENDBRANCH   8  28
TORSDOF 7
ENDMDL
MODEL 6
REMARK VINA RESULT:    -7.331      3.846      7.805
REMARK INTER + INTRA:          -9.159
REMARK INTER:                  -8.818
REMARK INTRA:                  -0.341
REMARK UNBOUND:                -0.114
REMARK SMILES O=c1c(O)c(-c2cc(O)c(O)c(O)c2)oc2cc(O)cc(O)c12
REMARK SMILES IDX 5 1 3 2 2 3 1 4 23 5 21 6 20 7 18 8 17 9 16 10 15 11 6 12
REMARK SMILES IDX 7 13 8 14 14 15 10 16 12 17 9 18 11 20 13 22 4 24 22 26
REMARK SMILES IDX 19 28
REMARK H PARENT 9 19 11 21 13 23 4 25 22 27 19 29
REMARK Flexibility Score: inf
ROOT
ATOM      1  C   UNL     1     167.318 153.130 149.530  1.00  0.00     0.180 A 
ATOM      2  C   UNL     1     168.569 153.262 148.903  1.00  0.00     0.208 A 
ATOM      3  C   UNL     1     168.915 152.370 147.876  1.00  0.00     0.238 A 
ATOM      4  O   UNL     1     170.014 152.527 147.283  1.00  0.00    -0.285 OA
ATOM      5  C   UNL     1     168.013 151.346 147.499  1.00  0.00     0.111 A 
ATOM      6  C   UNL     1     168.276 150.362 146.499  1.00  0.00     0.134 A 
ATOM      7  C   UNL     1     167.260 149.479 146.116  1.00  0.00     0.093 A 
ATOM      8  C   UNL     1     166.011 149.500 146.744  1.00  0.00     0.123 A 
ATOM      9  C   UNL     1     165.765 150.418 147.761  1.00  0.00     0.094 A 
ATOM     10  C   UNL     1     166.747 151.337 148.140  1.00  0.00     0.146 A 
ATOM     11  O   UNL     1     166.466 152.202 149.108  1.00  0.00    -0.452 OA
ENDROOT
BRANCH   1  12
ATOM     12  C   UNL     1     166.893 154.017 150.636  1.00  0.00     0.029 A 
ATOM     13  C   UNL     1     166.312 155.261 150.340  1.00  0.00     0.062 A 
ATOM     14  C   UNL     1     165.883 156.110 151.365  1.00  0.00     0.162 A 
ATOM     15  C   UNL     1     167.006 153.618 151.978  1.00  0.00     0.062 A 
ATOM     16  C   UNL     1     166.017 155.715 152.707  1.00  0.00     0.200 A 
ATOM     17  C   UNL     1     166.576 154.462 153.012  1.00  0.00     0.162 A 
BRANCH  14  18
ATOM     18  O   UNL     1     165.324 157.343 151.029  1.00  0.00    -0.504 OA
ATOM     19  H   UNL     1     164.719 157.459 150.224  1.00  0.00     0.293 HD
ENDBRANCH  14  18
BRANCH  16  20
ATOM     20  O   UNL     1     165.589 156.570 153.724  1.00  0.00    -0.502 OA
ATOM     21  H   UNL     1     164.778 156.366 154.294  1.00  0.00     0.293 HD
ENDBRANCH  16  20
BRANCH  17  22
ATOM     22  O   UNL     1     166.700 154.058 154.340  1.00  0.00    -0.504 OA
ATOM     23  H   UNL     1     166.666 154.724 155.104  1.00  0.00     0.293 HD
ENDBRANCH  17  22
ENDBRANCH   1  12
BRANCH   2  24
ATOM     24  O   UNL     1     169.437 154.293 149.277  1.00  0.00    -0.502 OA
ATOM     25  H   UNL     1     169.300 155.252 148.981  1.00  0.00     0.293 HD
ENDBRANCH   2  24
BRANCH   6  26
ATOM     26  O   UNL     1     169.516 150.194 145.876  1.00  0.00    -0.507 OA
ATOM     27  H   UNL     1     169.707 150.406 144.908  1.00  0.00     0.293 HD
ENDBRANCH   6  26
BRANCH   8  28
ATOM     28  O   UNL     1     165.011 148.607 146.367  1.00  0.00    -0.508 OA
ATOM     29  H   UNL     1     164.617 148.614 145.434  1.00  0.00     0.293 HD
ENDBRANCH   8  28
TORSDOF 7
ENDMDL
MODEL 7
REMARK VINA RESULT:    -7.221      5.272      8.383
REMARK INTER + INTRA:          -9.024
REMARK INTER:                  -8.825
REMARK INTRA:                  -0.199
REMARK UNBOUND:                -0.114
REMARK SMILES O=c1c(O)c(-c2cc(O)c(O)c(O)c2)oc2cc(O)cc(O)c12
REMARK SMILES IDX 5 1 3 2 2 3 1 4 23 5 21 6 20 7 18 8 17 9 16 10 15 11 6 12
REMARK SMILES IDX 7 13 8 14 14 15 10 16 12 17 9 18 11 20 13 22 4 24 22 26
REMARK SMILES IDX 19 28
REMARK H PARENT 9 19 11 21 13 23 4 25 22 27 19 29
REMARK Flexibility Score: inf
ROOT
ATOM      1  C   UNL     1     165.132 151.959 150.219  1.00  0.00     0.180 A 
ATOM      2  C   UNL     1     165.587 151.895 148.890  1.00  0.00     0.208 A 
ATOM      3  C   UNL     1     165.283 150.762 148.119  1.00  0.00     0.238 A 
ATOM      4  O   UNL     1     165.647 150.735 146.915  1.00  0.00    -0.285 OA
ATOM      5  C   UNL     1     164.543 149.699 148.691  1.00  0.00     0.111 A 
ATOM      6  C   UNL     1     164.212 148.487 148.015  1.00  0.00     0.134 A 
ATOM      7  C   UNL     1     163.364 147.561 148.633  1.00  0.00     0.093 A 
ATOM      8  C   UNL     1     162.887 147.773 149.930  1.00  0.00     0.123 A 
ATOM      9  C   UNL     1     163.252 148.926 150.620  1.00  0.00     0.094 A 
ATOM     10  C   UNL     1     164.068 149.886 150.015  1.00  0.00     0.146 A 
ATOM     11  O   UNL     1     164.383 150.976 150.705  1.00  0.00    -0.452 OA
ENDROOT
BRANCH   1  12
ATOM     12  C   UNL     1     165.434 153.110 151.101  1.00  0.00     0.029 A 
ATOM     13  C   UNL     1     166.292 152.931 152.198  1.00  0.00     0.062 A 
ATOM     14  C   UNL     1     166.611 154.005 153.035  1.00  0.00     0.162 A 
ATOM     15  C   UNL     1     164.926 154.391 150.831  1.00  0.00     0.062 A 
ATOM     16  C   UNL     1     166.084 155.281 152.774  1.00  0.00     0.200 A 
ATOM     17  C   UNL     1     165.243 155.473 151.664  1.00  0.00     0.162 A 
BRANCH  14  18
ATOM     18  O   UNL     1     167.455 153.784 154.123  1.00  0.00    -0.504 OA
ATOM     19  H   UNL     1     167.789 152.858 154.367  1.00  0.00     0.293 HD
ENDBRANCH  14  18
BRANCH  16  20
ATOM     20  O   UNL     1     166.404 156.346 153.616  1.00  0.00    -0.502 OA
ATOM     21  H   UNL     1     166.058 156.406 154.566  1.00  0.00     0.293 HD
ENDBRANCH  16  20
BRANCH  17  22
ATOM     22  O   UNL     1     164.727 156.739 151.390  1.00  0.00    -0.504 OA
ATOM     23  H   UNL     1     165.228 157.403 150.810  1.00  0.00     0.293 HD
ENDBRANCH  17  22
ENDBRANCH   1  12
BRANCH   2  24
ATOM     24  O   UNL     1     166.299 152.965 148.339  1.00  0.00    -0.502 OA
ATOM     25  H   UNL     1     166.698 152.931 147.410  1.00  0.00     0.293 HD
ENDBRANCH   2  24
BRANCH   6  26
ATOM     26  O   UNL     1     164.709 148.133 146.757  1.00  0.00    -0.507 OA
ATOM     27  H   UNL     1     165.610 147.709 146.593  1.00  0.00     0.293 HD
ENDBRANCH   6  26
BRANCH   8  28
ATOM     28  O   UNL     1     162.056 146.839 150.544  1.00  0.00    -0.508 OA
ATOM     29  H   UNL     1     161.921 145.913 150.155  1.00  0.00     0.293 HD
ENDBRANCH   8  28
TORSDOF 7
ENDMDL
MODEL 8
REMARK VINA RESULT:    -7.149      3.863      8.373
REMARK INTER + INTRA:          -8.934
REMARK INTER:                  -8.567
REMARK INTRA:                  -0.367
REMARK UNBOUND:                -0.114
REMARK SMILES O=c1c(O)c(-c2cc(O)c(O)c(O)c2)oc2cc(O)cc(O)c12
REMARK SMILES IDX 5 1 3 2 2 3 1 4 23 5 21 6 20 7 18 8 17 9 16 10 15 11 6 12
REMARK SMILES IDX 7 13 8 14 14 15 10 16 12 17 9 18 11 20 13 22 4 24 22 26
REMARK SMILES IDX 19 28
REMARK H PARENT 9 19 11 21 13 23 4 25 22 27 19 29
REMARK Flexibility Score: inf
ROOT
ATOM      1  C   UNL     1     167.068 153.119 149.624  1.00  0.00     0.180 A 
ATOM      2  C   UNL     1     166.143 152.295 148.961  1.00  0.00     0.208 A 
ATOM      3  C   UNL     1     166.611 151.366 148.018  1.00  0.00     0.238 A 
ATOM      4  O   UNL     1     165.783 150.594 147.467  1.00  0.00    -0.285 OA
ATOM      5  C   UNL     1     167.996 151.285 147.736  1.00  0.00     0.111 A 
ATOM      6  C   UNL     1     168.577 150.408 146.771  1.00  0.00     0.134 A 
ATOM      7  C   UNL     1     169.970 150.319 146.670  1.00  0.00     0.093 A 
ATOM      8  C   UNL     1     170.803 151.122 147.454  1.00  0.00     0.123 A 
ATOM      9  C   UNL     1     170.244 152.022 148.357  1.00  0.00     0.094 A 
ATOM     10  C   UNL     1     168.858 152.108 148.507  1.00  0.00     0.146 A 
ATOM     11  O   UNL     1     168.367 152.973 149.387  1.00  0.00    -0.452 OA
ENDROOT
BRANCH   1  12
ATOM     12  C   UNL     1     166.649 154.139 150.613  1.00  0.00     0.029 A 
ATOM     13  C   UNL     1     166.675 153.825 151.981  1.00  0.00     0.062 A 
ATOM     14  C   UNL     1     166.304 154.775 152.938  1.00  0.00     0.162 A 
ATOM     15  C   UNL     1     166.279 155.434 150.215  1.00  0.00     0.062 A 
ATOM     16  C   UNL     1     165.914 156.063 152.533  1.00  0.00     0.200 A 
ATOM     17  C   UNL     1     165.907 156.393 151.168  1.00  0.00     0.162 A 
BRANCH  14  18
ATOM     18  O   UNL     1     166.329 154.420 154.286  1.00  0.00    -0.504 OA
ATOM     19  H   UNL     1     166.129 153.476 154.598  1.00  0.00     0.293 HD
ENDBRANCH  14  18
BRANCH  16  20
ATOM     20  O   UNL     1     165.542 157.005 153.495  1.00  0.00    -0.502 OA
ATOM     21  H   UNL     1     164.859 156.800 154.213  1.00  0.00     0.293 HD
ENDBRANCH  16  20
BRANCH  17  22
ATOM     22  O   UNL     1     165.535 157.674 150.761  1.00  0.00    -0.504 OA
ATOM     23  H   UNL     1     165.775 158.495 151.305  1.00  0.00     0.293 HD
ENDBRANCH  17  22
ENDBRANCH   1  12
BRANCH   2  24
ATOM     24  O   UNL     1     164.782 152.377 149.269  1.00  0.00    -0.502 OA
ATOM     25  H   UNL     1     164.190 151.559 149.340  1.00  0.00     0.293 HD
ENDBRANCH   2  24
BRANCH   6  26
ATOM     26  O   UNL     1     167.835 149.632 145.875  1.00  0.00    -0.507 OA
ATOM     27  H   UNL     1     166.941 149.212 146.082  1.00  0.00     0.293 HD
ENDBRANCH   6  26
BRANCH   8  28
ATOM     28  O   UNL     1     172.188 151.038 147.335  1.00  0.00    -0.508 OA
ATOM     29  H   UNL     1     172.649 151.119 146.437  1.00  0.00     0.293 HD
ENDBRANCH   8  28
TORSDOF 7
ENDMDL
MODEL 9
REMARK VINA RESULT:    -7.061      1.562      6.725
REMARK INTER + INTRA:          -8.826
REMARK INTER:                  -8.775
REMARK INTRA:                  -0.051
REMARK UNBOUND:                -0.114
REMARK SMILES O=c1c(O)c(-c2cc(O)c(O)c(O)c2)oc2cc(O)cc(O)c12
REMARK SMILES IDX 5 1 3 2 2 3 1 4 23 5 21 6 20 7 18 8 17 9 16 10 15 11 6 12
REMARK SMILES IDX 7 13 8 14 14 15 10 16 12 17 9 18 11 20 13 22 4 24 22 26
REMARK SMILES IDX 19 28
REMARK H PARENT 9 19 11 21 13 23 4 25 22 27 19 29
REMARK Flexibility Score: inf
ROOT
ATOM      1  C   UNL     1     169.294 149.053 146.843  1.00  0.00     0.180 A 
ATOM      2  C   UNL     1     170.601 148.754 146.423  1.00  0.00     0.208 A 
ATOM      3  C   UNL     1     170.992 147.409 146.316  1.00  0.00     0.238 A 
ATOM      4  O   UNL     1     172.146 147.148 145.888  1.00  0.00    -0.285 OA
ATOM      5  C   UNL     1     170.076 146.381 146.646  1.00  0.00     0.111 A 
ATOM      6  C   UNL     1     170.377 144.987 146.612  1.00  0.00     0.134 A 
ATOM      7  C   UNL     1     169.356 144.055 146.831  1.00  0.00     0.093 A 
ATOM      8  C   UNL     1     168.059 144.467 147.147  1.00  0.00     0.123 A 
ATOM      9  C   UNL     1     167.769 145.826 147.240  1.00  0.00     0.094 A 
ATOM     10  C   UNL     1     168.759 146.781 146.991  1.00  0.00     0.146 A 
ATOM     11  O   UNL     1     168.437 148.066 147.081  1.00  0.00    -0.452 OA
ENDROOT
BRANCH   1  12
ATOM     12  C   UNL     1     168.817 150.446 147.004  1.00  0.00     0.029 A 
ATOM     13  C   UNL     1     167.578 150.818 146.459  1.00  0.00     0.062 A 
ATOM     14  C   UNL     1     167.093 152.121 146.614  1.00  0.00     0.162 A 
ATOM     15  C   UNL     1     169.552 151.390 147.740  1.00  0.00     0.062 A 
ATOM     16  C   UNL     1     167.842 153.068 147.333  1.00  0.00     0.200 A 
ATOM     17  C   UNL     1     169.072 152.697 147.901  1.00  0.00     0.162 A 
BRANCH  14  18
ATOM     18  O   UNL     1     165.865 152.455 146.045  1.00  0.00    -0.504 OA
ATOM     19  H   UNL     1     165.635 152.227 145.084  1.00  0.00     0.293 HD
ENDBRANCH  14  18
BRANCH  16  20
ATOM     20  O   UNL     1     167.353 154.367 147.480  1.00  0.00    -0.502 OA
ATOM     21  H   UNL     1     166.944 154.695 148.346  1.00  0.00     0.293 HD
ENDBRANCH  16  20
BRANCH  17  22
ATOM     22  O   UNL     1     169.814 153.628 148.628  1.00  0.00    -0.504 OA
ATOM     23  H   UNL     1     170.556 153.341 149.257  1.00  0.00     0.293 HD
ENDBRANCH  17  22
ENDBRANCH   1  12
BRANCH   2  24
ATOM     24  O   UNL     1     171.483 149.784 146.082  1.00  0.00    -0.502 OA
ATOM     25  H   UNL     1     172.488 149.676 146.128  1.00  0.00     0.293 HD
ENDBRANCH   2  24
BRANCH   6  26
ATOM     26  O   UNL     1     171.658 144.469 146.397  1.00  0.00    -0.507 OA
ATOM     27  H   UNL     1     171.876 143.722 145.755  1.00  0.00     0.293 HD
ENDBRANCH   6  26
BRANCH   8  28
ATOM     28  O   UNL     1     167.052 143.533 147.380  1.00  0.00    -0.508 OA
ATOM     29  H   UNL     1     166.120 143.816 147.657  1.00  0.00     0.293 HD
ENDBRANCH   8  28
TORSDOF 7
ENDMDL
