MODEL 1
REMARK VINA RESULT:    -4.701      0.000      0.000
REMARK INTER + INTRA:         -15.372
REMARK INTER:                 -11.846
REMARK INTRA:                  -3.525
REMARK UNBOUND:                -3.525
REMARK SMILES CCCCCCCCCCCCCCCCCCCCCCCCCCCC(=O)[O-]
REMARK SMILES IDX 15 1 16 2 17 3 18 4 19 5 20 6 21 7 22 8 23 9 24 10 25 11
REMARK SMILES IDX 26 12 27 13 28 14 29 15 30 16 14 17 13 18 12 19 11 20 10 21
REMARK SMILES IDX 9 22 8 23 7 24 6 25 5 26 4 27 3 28 2 29 1 30
REMARK H PARENT
REMARK Flexibility Score: inf
ROOT
ATOM      1  C   UNL     1      13.943  21.902  24.241  1.00  0.00     0.000 C 
ENDROOT
BRANCH   1   2
ATOM      2  C   UNL     1      13.208  21.605  22.921  1.00  0.00     0.000 C 
BRANCH   2   3
ATOM      3  C   UNL     1      13.308  22.720  21.856  1.00  0.00     0.000 C 
BRANCH   3   4
ATOM      4  C   UNL     1      14.318  22.491  20.711  1.00  0.00     0.000 C 
BRANCH   4   5
ATOM      5  C   UNL     1      13.801  22.768  19.286  1.00  0.00     0.000 C 
BRANCH   5   6
ATOM      6  C   UNL     1      12.417  23.437  19.265  1.00  0.00     0.000 C 
BRANCH   6   7
ATOM      7  C   UNL     1      11.376  22.623  18.479  1.00  0.00     0.000 C 
BRANCH   7   8
ATOM      8  C   UNL     1      11.728  21.126  18.342  1.00  0.00     0.000 C 
BRANCH   8   9
ATOM      9  C   UNL     1      10.866  20.420  17.279  1.00  0.00     0.000 C 
BRANCH   9  10
ATOM     10  C   UNL     1      11.726  19.730  16.198  1.00  0.00     0.000 C 
BRANCH  10  11
ATOM     11  C   UNL     1      11.060  18.487  15.583  1.00  0.00     0.000 C 
BRANCH  11  12
ATOM     12  C   UNL     1      11.849  17.195  15.852  1.00  0.00     0.006 C 
BRANCH  12  13
ATOM     13  C   UNL     1      11.779  16.770  17.325  1.00  0.00     0.053 C 
BRANCH  13  14
ATOM     14  C   UNL     1      11.221  15.389  17.478  1.00  0.00     0.041 C 
ATOM     15  O   UNL     1       9.978  15.194  17.398  1.00  0.00    -0.550 OA
ATOM     16  O   UNL     1      12.074  14.312  17.685  1.00  0.00    -0.550 OA
ENDBRANCH  13  14
ENDBRANCH  12  13
ENDBRANCH  11  12
ENDBRANCH  10  11
ENDBRANCH   9  10
ENDBRANCH   8   9
ENDBRANCH   7   8
ENDBRANCH   6   7
ENDBRANCH   5   6
ENDBRANCH   4   5
ENDBRANCH   3   4
ENDBRANCH   2   3
ENDBRANCH   1   2
BRANCH   1  17
ATOM     17  C   UNL     1      14.097  23.406  24.536  1.00  0.00     0.000 C 
BRANCH  17  18
ATOM     18  C   UNL     1      15.572  23.850  24.653  1.00  0.00     0.000 C 
BRANCH  18  19
ATOM     19  C   UNL     1      16.506  23.235  23.593  1.00  0.00     0.000 C 
BRANCH  19  20
ATOM     20  C   UNL     1      17.651  22.367  24.142  1.00  0.00     0.000 C 
BRANCH  20  21
ATOM     21  C   UNL     1      17.574  20.908  23.664  1.00  0.00     0.000 C 
BRANCH  21  22
ATOM     22  C   UNL     1      17.069  20.786  22.218  1.00  0.00    -0.000 C 
BRANCH  22  23
ATOM     23  C   UNL     1      17.658  19.569  21.481  1.00  0.00    -0.000 C 
BRANCH  23  24
ATOM     24  C   UNL     1      16.671  18.383  21.439  1.00  0.00    -0.000 C 
BRANCH  24  25
ATOM     25  C   UNL     1      15.278  18.719  21.999  1.00  0.00    -0.000 C 
BRANCH  25  26
ATOM     26  C   UNL     1      14.649  17.553  22.781  1.00  0.00    -0.000 C 
BRANCH  26  27
ATOM     27  C   UNL     1      13.996  18.007  24.096  1.00  0.00    -0.000 C 
BRANCH  27  28
ATOM     28  C   UNL     1      15.009  18.597  25.087  1.00  0.00    -0.000 C 
BRANCH  28  29
ATOM     29  C   UNL     1      15.100  17.736  26.353  1.00  0.00    -0.003 C 
ATOM     30  C   UNL     1      13.715  17.421  26.908  1.00  0.00     0.004 C 
ENDBRANCH  28  29
ENDBRANCH  27  28
ENDBRANCH  26  27
ENDBRANCH  25  26
ENDBRANCH  24  25
ENDBRANCH  23  24
ENDBRANCH  22  23
ENDBRANCH  21  22
ENDBRANCH  20  21
ENDBRANCH  19  20
ENDBRANCH  18  19
ENDBRANCH  17  18
ENDBRANCH   1  17
TORSDOF 26
ENDMDL
MODEL 2
REMARK VINA RESULT:    -4.671      1.878      3.656
REMARK INTER + INTRA:         -15.296
REMARK INTER:                 -11.642
REMARK INTRA:                  -3.654
REMARK UNBOUND:                -3.525
REMARK SMILES CCCCCCCCCCCCCCCCCCCCCCCCCCCC(=O)[O-]
REMARK SMILES IDX 15 1 16 2 17 3 18 4 19 5 20 6 21 7 22 8 23 9 24 10 25 11
REMARK SMILES IDX 26 12 27 13 28 14 29 15 30 16 14 17 13 18 12 19 11 20 10 21
REMARK SMILES IDX 9 22 8 23 7 24 6 25 5 26 4 27 3 28 2 29 1 30
REMARK H PARENT
REMARK Flexibility Score: inf
ROOT
ATOM      1  C   UNL     1      15.868  22.027  24.063  1.00  0.00     0.000 C 
ENDROOT
BRANCH   1   2
ATOM      2  C   UNL     1      15.120  23.061  23.202  1.00  0.00     0.000 C 
BRANCH   2   3
ATOM      3  C   UNL     1      13.650  22.706  22.890  1.00  0.00     0.000 C 
BRANCH   3   4
ATOM      4  C   UNL     1      13.382  21.997  21.544  1.00  0.00     0.000 C 
BRANCH   4   5
ATOM      5  C   UNL     1      14.381  22.294  20.411  1.00  0.00     0.000 C 
BRANCH   5   6
ATOM      6  C   UNL     1      13.761  23.094  19.253  1.00  0.00     0.000 C 
BRANCH   6   7
ATOM      7  C   UNL     1      12.342  23.594  19.571  1.00  0.00     0.000 C 
BRANCH   7   8
ATOM      8  C   UNL     1      11.273  23.122  18.562  1.00  0.00     0.000 C 
BRANCH   8   9
ATOM      9  C   UNL     1      10.502  21.888  19.064  1.00  0.00     0.000 C 
BRANCH   9  10
ATOM     10  C   UNL     1      11.275  20.575  18.808  1.00  0.00     0.000 C 
BRANCH  10  11
ATOM     11  C   UNL     1      11.676  20.372  17.337  1.00  0.00     0.000 C 
BRANCH  11  12
ATOM     12  C   UNL     1      10.463  20.259  16.400  1.00  0.00     0.006 C 
BRANCH  12  13
ATOM     13  C   UNL     1       9.814  18.871  16.458  1.00  0.00     0.053 C 
BRANCH  13  14
ATOM     14  C   UNL     1       8.930  18.620  15.274  1.00  0.00     0.041 C 
ATOM     15  O   UNL     1       8.908  17.485  14.729  1.00  0.00    -0.550 OA
ATOM     16  O   UNL     1       8.113  19.633  14.790  1.00  0.00    -0.550 OA
ENDBRANCH  13  14
ENDBRANCH  12  13
ENDBRANCH  11  12
ENDBRANCH  10  11
ENDBRANCH   9  10
ENDBRANCH   8   9
ENDBRANCH   7   8
ENDBRANCH   6   7
ENDBRANCH   5   6
ENDBRANCH   4   5
ENDBRANCH   3   4
ENDBRANCH   2   3
ENDBRANCH   1   2
BRANCH   1  17
ATOM     17  C   UNL     1      17.349  21.856  23.677  1.00  0.00     0.000 C 
BRANCH  17  18
ATOM     18  C   UNL     1      17.659  20.469  23.074  1.00  0.00     0.000 C 
BRANCH  18  19
ATOM     19  C   UNL     1      17.213  20.299  21.608  1.00  0.00     0.000 C 
BRANCH  19  20
ATOM     20  C   UNL     1      16.253  19.128  21.339  1.00  0.00     0.000 C 
BRANCH  20  21
ATOM     21  C   UNL     1      15.767  18.448  22.631  1.00  0.00     0.000 C 
BRANCH  21  22
ATOM     22  C   UNL     1      14.268  18.667  22.885  1.00  0.00    -0.000 C 
BRANCH  22  23
ATOM     23  C   UNL     1      13.942  18.895  24.372  1.00  0.00    -0.000 C 
BRANCH  23  24
ATOM     24  C   UNL     1      15.154  18.608  25.282  1.00  0.00    -0.000 C 
BRANCH  24  25
ATOM     25  C   UNL     1      14.828  17.690  26.474  1.00  0.00    -0.000 C 
BRANCH  25  26
ATOM     26  C   UNL     1      13.404  17.895  27.016  1.00  0.00    -0.000 C 
BRANCH  26  27
ATOM     27  C   UNL     1      12.709  16.570  27.369  1.00  0.00    -0.000 C 
BRANCH  27  28
ATOM     28  C   UNL     1      11.314  16.776  27.976  1.00  0.00    -0.000 C 
BRANCH  28  29
ATOM     29  C   UNL     1      11.410  17.061  29.480  1.00  0.00    -0.003 C 
ATOM     30  C   UNL     1      11.830  15.816  30.253  1.00  0.00     0.004 C 
ENDBRANCH  28  29
ENDBRANCH  27  28
ENDBRANCH  26  27
ENDBRANCH  25  26
ENDBRANCH  24  25
ENDBRANCH  23  24
ENDBRANCH  22  23
ENDBRANCH  21  22
ENDBRANCH  20  21
ENDBRANCH  19  20
ENDBRANCH  18  19
ENDBRANCH  17  18
ENDBRANCH   1  17
TORSDOF 26
ENDMDL
MODEL 3
REMARK VINA RESULT:    -4.590      4.664      8.872
REMARK INTER + INTRA:         -15.093
REMARK INTER:                  -9.752
REMARK INTRA:                  -5.341
REMARK UNBOUND:                -3.525
REMARK SMILES CCCCCCCCCCCCCCCCCCCCCCCCCCCC(=O)[O-]
REMARK SMILES IDX 15 1 16 2 17 3 18 4 19 5 20 6 21 7 22 8 23 9 24 10 25 11
REMARK SMILES IDX 26 12 27 13 28 14 29 15 30 16 14 17 13 18 12 19 11 20 10 21
REMARK SMILES IDX 9 22 8 23 7 24 6 25 5 26 4 27 3 28 2 29 1 30
REMARK H PARENT
REMARK Flexibility Score: inf
ROOT
ATOM      1  C   UNL     1      13.306  18.471  22.917  1.00  0.00     0.000 C 
ENDROOT
BRANCH   1   2
ATOM      2  C   UNL     1      14.491  17.768  23.604  1.00  0.00     0.000 C 
BRANCH   2   3
ATOM      3  C   UNL     1      15.121  18.552  24.776  1.00  0.00     0.000 C 
BRANCH   3   4
ATOM      4  C   UNL     1      15.070  17.877  26.164  1.00  0.00     0.000 C 
BRANCH   4   5
ATOM      5  C   UNL     1      14.005  18.411  27.140  1.00  0.00     0.000 C 
BRANCH   5   6
ATOM      6  C   UNL     1      12.581  17.946  26.794  1.00  0.00     0.000 C 
BRANCH   6   7
ATOM      7  C   UNL     1      11.692  19.091  26.278  1.00  0.00     0.000 C 
BRANCH   7   8
ATOM      8  C   UNL     1      12.369  20.477  26.326  1.00  0.00     0.000 C 
BRANCH   8   9
ATOM      9  C   UNL     1      11.771  21.380  27.420  1.00  0.00     0.000 C 
BRANCH   9  10
ATOM     10  C   UNL     1      12.859  21.990  28.331  1.00  0.00     0.000 C 
BRANCH  10  11
ATOM     11  C   UNL     1      13.230  21.100  29.529  1.00  0.00     0.000 C 
BRANCH  11  12
ATOM     12  C   UNL     1      12.003  20.638  30.330  1.00  0.00     0.006 C 
BRANCH  12  13
ATOM     13  C   UNL     1      11.841  19.112  30.313  1.00  0.00     0.053 C 
BRANCH  13  14
ATOM     14  C   UNL     1      10.684  18.667  31.153  1.00  0.00     0.041 C 
ATOM     15  O   UNL     1      10.103  17.577  30.904  1.00  0.00    -0.550 OA
ATOM     16  O   UNL     1      10.264  19.442  32.226  1.00  0.00    -0.550 OA
ENDBRANCH  13  14
ENDBRANCH  12  13
ENDBRANCH  11  12
ENDBRANCH  10  11
ENDBRANCH   9  10
ENDBRANCH   8   9
ENDBRANCH   7   8
ENDBRANCH   6   7
ENDBRANCH   5   6
ENDBRANCH   4   5
ENDBRANCH   3   4
ENDBRANCH   2   3
ENDBRANCH   1   2
BRANCH   1  17
ATOM     17  C   UNL     1      13.468  20.000  22.819  1.00  0.00     0.000 C 
BRANCH  17  18
ATOM     18  C   UNL     1      14.061  20.459  21.469  1.00  0.00     0.000 C 
BRANCH  18  19
ATOM     19  C   UNL     1      13.458  21.768  20.923  1.00  0.00     0.000 C 
BRANCH  19  20
ATOM     20  C   UNL     1      12.170  22.243  21.614  1.00  0.00     0.000 C 
BRANCH  20  21
ATOM     21  C   UNL     1      12.063  23.776  21.687  1.00  0.00     0.000 C 
BRANCH  21  22
ATOM     22  C   UNL     1      11.826  24.284  23.117  1.00  0.00    -0.000 C 
BRANCH  22  23
ATOM     23  C   UNL     1      12.467  23.380  24.185  1.00  0.00    -0.000 C 
BRANCH  23  24
ATOM     24  C   UNL     1      13.602  24.096  24.947  1.00  0.00    -0.000 C 
BRANCH  24  25
ATOM     25  C   UNL     1      14.977  23.970  24.266  1.00  0.00    -0.000 C 
BRANCH  25  26
ATOM     26  C   UNL     1      15.556  22.548  24.344  1.00  0.00    -0.000 C 
BRANCH  26  27
ATOM     27  C   UNL     1      16.674  22.309  23.317  1.00  0.00    -0.000 C 
BRANCH  27  28
ATOM     28  C   UNL     1      17.255  20.890  23.393  1.00  0.00    -0.000 C 
BRANCH  28  29
ATOM     29  C   UNL     1      17.800  20.447  22.030  1.00  0.00    -0.003 C 
ATOM     30  C   UNL     1      17.443  18.994  21.737  1.00  0.00     0.004 C 
ENDBRANCH  28  29
ENDBRANCH  27  28
ENDBRANCH  26  27
ENDBRANCH  25  26
ENDBRANCH  24  25
ENDBRANCH  23  24
ENDBRANCH  22  23
ENDBRANCH  21  22
ENDBRANCH  20  21
ENDBRANCH  19  20
ENDBRANCH  18  19
ENDBRANCH  17  18
ENDBRANCH   1  17
TORSDOF 26
ENDMDL
MODEL 4
REMARK VINA RESULT:    -4.586      1.562      4.125
REMARK INTER + INTRA:         -15.081
REMARK INTER:                 -11.042
REMARK INTRA:                  -4.039
REMARK UNBOUND:                -3.525
REMARK SMILES CCCCCCCCCCCCCCCCCCCCCCCCCCCC(=O)[O-]
REMARK SMILES IDX 15 1 16 2 17 3 18 4 19 5 20 6 21 7 22 8 23 9 24 10 25 11
REMARK SMILES IDX 26 12 27 13 28 14 29 15 30 16 14 17 13 18 12 19 11 20 10 21
REMARK SMILES IDX 9 22 8 23 7 24 6 25 5 26 4 27 3 28 2 29 1 30
REMARK H PARENT
REMARK Flexibility Score: inf
ROOT
ATOM      1  C   UNL     1      11.663  24.005  19.575  1.00  0.00     0.000 C 
ENDROOT
BRANCH   1   2
ATOM      2  C   UNL     1      10.791  23.668  18.351  1.00  0.00     0.000 C 
BRANCH   2   3
ATOM      3  C   UNL     1      10.070  22.304  18.423  1.00  0.00     0.000 C 
BRANCH   3   4
ATOM      4  C   UNL     1      10.227  21.374  17.200  1.00  0.00     0.000 C 
BRANCH   4   5
ATOM      5  C   UNL     1      11.405  20.383  17.249  1.00  0.00     0.000 C 
BRANCH   5   6
ATOM      6  C   UNL     1      11.640  19.659  15.913  1.00  0.00     0.000 C 
BRANCH   6   7
ATOM      7  C   UNL     1      10.869  18.332  15.814  1.00  0.00     0.000 C 
BRANCH   7   8
ATOM      8  C   UNL     1      11.735  17.084  16.087  1.00  0.00     0.000 C 
BRANCH   8   9
ATOM      9  C   UNL     1      11.156  16.207  17.211  1.00  0.00     0.000 C 
BRANCH   9  10
ATOM     10  C   UNL     1      10.692  17.045  18.423  1.00  0.00     0.000 C 
BRANCH  10  11
ATOM     11  C   UNL     1      11.815  17.346  19.430  1.00  0.00     0.000 C 
BRANCH  11  12
ATOM     12  C   UNL     1      12.005  16.224  20.463  1.00  0.00     0.006 C 
BRANCH  12  13
ATOM     13  C   UNL     1      13.204  15.327  20.130  1.00  0.00     0.053 C 
BRANCH  13  14
ATOM     14  C   UNL     1      12.802  13.890  19.995  1.00  0.00     0.041 C 
ATOM     15  O   UNL     1      13.101  13.243  18.956  1.00  0.00    -0.550 OA
ATOM     16  O   UNL     1      12.120  13.259  21.027  1.00  0.00    -0.550 OA
ENDBRANCH  13  14
ENDBRANCH  12  13
ENDBRANCH  11  12
ENDBRANCH  10  11
ENDBRANCH   9  10
ENDBRANCH   8   9
ENDBRANCH   7   8
ENDBRANCH   6   7
ENDBRANCH   5   6
ENDBRANCH   4   5
ENDBRANCH   3   4
ENDBRANCH   2   3
ENDBRANCH   1   2
BRANCH   1  17
ATOM     17  C   UNL     1      13.161  23.715  19.364  1.00  0.00     0.000 C 
BRANCH  17  18
ATOM     18  C   UNL     1      13.535  22.242  19.637  1.00  0.00     0.000 C 
BRANCH  18  19
ATOM     19  C   UNL     1      14.647  22.053  20.688  1.00  0.00     0.000 C 
BRANCH  19  20
ATOM     20  C   UNL     1      14.495  22.887  21.970  1.00  0.00     0.000 C 
BRANCH  20  21
ATOM     21  C   UNL     1      14.777  22.075  23.246  1.00  0.00     0.000 C 
BRANCH  21  22
ATOM     22  C   UNL     1      15.902  22.684  24.097  1.00  0.00    -0.000 C 
BRANCH  22  23
ATOM     23  C   UNL     1      17.294  22.148  23.717  1.00  0.00    -0.000 C 
BRANCH  23  24
ATOM     24  C   UNL     1      17.273  20.633  23.425  1.00  0.00    -0.000 C 
BRANCH  24  25
ATOM     25  C   UNL     1      17.780  20.268  22.018  1.00  0.00    -0.000 C 
BRANCH  25  26
ATOM     26  C   UNL     1      16.971  19.134  21.366  1.00  0.00    -0.000 C 
BRANCH  26  27
ATOM     27  C   UNL     1      15.978  18.481  22.339  1.00  0.00    -0.000 C 
BRANCH  27  28
ATOM     28  C   UNL     1      14.523  18.585  21.859  1.00  0.00    -0.000 C 
BRANCH  28  29
ATOM     29  C   UNL     1      13.550  18.503  23.042  1.00  0.00    -0.003 C 
ATOM     30  C   UNL     1      14.294  18.531  24.373  1.00  0.00     0.004 C 
ENDBRANCH  28  29
ENDBRANCH  27  28
ENDBRANCH  26  27
ENDBRANCH  25  26
ENDBRANCH  24  25
ENDBRANCH  23  24
ENDBRANCH  22  23
ENDBRANCH  21  22
ENDBRANCH  20  21
ENDBRANCH  19  20
ENDBRANCH  18  19
ENDBRANCH  17  18
ENDBRANCH   1  17
TORSDOF 26
ENDMDL
MODEL 5
REMARK VINA RESULT:    -4.562      4.985     10.036
REMARK INTER + INTRA:         -15.022
REMARK INTER:                  -9.239
REMARK INTRA:                  -5.783
REMARK UNBOUND:                -3.525
REMARK SMILES CCCCCCCCCCCCCCCCCCCCCCCCCCCC(=O)[O-]
REMARK SMILES IDX 15 1 16 2 17 3 18 4 19 5 20 6 21 7 22 8 23 9 24 10 25 11
REMARK SMILES IDX 26 12 27 13 28 14 29 15 30 16 14 17 13 18 12 19 11 20 10 21
REMARK SMILES IDX 9 22 8 23 7 24 6 25 5 26 4 27 3 28 2 29 1 30
REMARK H PARENT
REMARK Flexibility Score: inf
ROOT
ATOM      1  C   UNL     1       6.804  18.660  17.703  1.00  0.00     0.000 C 
ENDROOT
BRANCH   1   2
ATOM      2  C   UNL     1       7.587  17.371  17.395  1.00  0.00     0.000 C 
BRANCH   2   3
ATOM      3  C   UNL     1       8.859  17.163  18.247  1.00  0.00     0.000 C 
BRANCH   3   4
ATOM      4  C   UNL     1      10.199  17.108  17.483  1.00  0.00     0.000 C 
BRANCH   4   5
ATOM      5  C   UNL     1      10.111  17.214  15.949  1.00  0.00     0.000 C 
BRANCH   5   6
ATOM      6  C   UNL     1      11.015  18.313  15.367  1.00  0.00     0.000 C 
BRANCH   6   7
ATOM      7  C   UNL     1      11.436  19.354  16.418  1.00  0.00     0.000 C 
BRANCH   7   8
ATOM      8  C   UNL     1      10.683  20.697  16.302  1.00  0.00     0.000 C 
BRANCH   8   9
ATOM      9  C   UNL     1       9.660  20.891  17.435  1.00  0.00     0.000 C 
BRANCH   9  10
ATOM     10  C   UNL     1      10.335  20.978  18.821  1.00  0.00     0.000 C 
BRANCH  10  11
ATOM     11  C   UNL     1      10.391  22.406  19.390  1.00  0.00     0.000 C 
BRANCH  11  12
ATOM     12  C   UNL     1      11.751  23.085  19.162  1.00  0.00     0.006 C 
BRANCH  12  13
ATOM     13  C   UNL     1      12.905  22.074  19.129  1.00  0.00     0.053 C 
BRANCH  13  14
ATOM     14  C   UNL     1      14.199  22.693  19.559  1.00  0.00     0.041 C 
ATOM     15  O   UNL     1      14.850  23.420  18.761  1.00  0.00    -0.550 OA
ATOM     16  O   UNL     1      14.674  22.488  20.848  1.00  0.00    -0.550 OA
ENDBRANCH  13  14
ENDBRANCH  12  13
ENDBRANCH  11  12
ENDBRANCH  10  11
ENDBRANCH   9  10
ENDBRANCH   8   9
ENDBRANCH   7   8
ENDBRANCH   6   7
ENDBRANCH   5   6
ENDBRANCH   4   5
ENDBRANCH   3   4
ENDBRANCH   2   3
ENDBRANCH   1   2
BRANCH   1  17
ATOM     17  C   UNL     1       6.140  19.290  16.464  1.00  0.00     0.000 C 
BRANCH  17  18
ATOM     18  C   UNL     1       6.620  18.662  15.137  1.00  0.00     0.000 C 
BRANCH  18  19
ATOM     19  C   UNL     1       7.646  19.514  14.365  1.00  0.00     0.000 C 
BRANCH  19  20
ATOM     20  C   UNL     1       7.143  20.887  13.889  1.00  0.00     0.000 C 
BRANCH  20  21
ATOM     21  C   UNL     1       7.844  22.057  14.600  1.00  0.00     0.000 C 
BRANCH  21  22
ATOM     22  C   UNL     1       7.300  23.426  14.162  1.00  0.00    -0.000 C 
BRANCH  22  23
ATOM     23  C   UNL     1       8.092  24.602  14.762  1.00  0.00    -0.000 C 
BRANCH  23  24
ATOM     24  C   UNL     1       9.454  24.154  15.332  1.00  0.00    -0.000 C 
BRANCH  24  25
ATOM     25  C   UNL     1       9.840  24.866  16.641  1.00  0.00    -0.000 C 
BRANCH  25  26
ATOM     26  C   UNL     1       8.711  25.749  17.198  1.00  0.00    -0.000 C 
BRANCH  26  27
ATOM     27  C   UNL     1       8.042  25.140  18.439  1.00  0.00    -0.000 C 
BRANCH  27  28
ATOM     28  C   UNL     1       6.510  25.231  18.392  1.00  0.00    -0.000 C 
BRANCH  28  29
ATOM     29  C   UNL     1       5.913  24.025  17.657  1.00  0.00    -0.003 C 
ATOM     30  C   UNL     1       6.607  22.730  18.064  1.00  0.00     0.004 C 
ENDBRANCH  28  29
ENDBRANCH  27  28
ENDBRANCH  26  27
ENDBRANCH  25  26
ENDBRANCH  24  25
ENDBRANCH  23  24
ENDBRANCH  22  23
ENDBRANCH  21  22
ENDBRANCH  20  21
ENDBRANCH  19  20
ENDBRANCH  18  19
ENDBRANCH  17  18
ENDBRANCH   1  17
TORSDOF 26
ENDMDL
MODEL 6
REMARK VINA RESULT:    -4.557      4.425      6.774
REMARK INTER + INTRA:         -15.009
REMARK INTER:                  -9.855
REMARK INTRA:                  -5.154
REMARK UNBOUND:                -3.525
REMARK SMILES CCCCCCCCCCCCCCCCCCCCCCCCCCCC(=O)[O-]
REMARK SMILES IDX 15 1 16 2 17 3 18 4 19 5 20 6 21 7 22 8 23 9 24 10 25 11
REMARK SMILES IDX 26 12 27 13 28 14 29 15 30 16 14 17 13 18 12 19 11 20 10 21
REMARK SMILES IDX 9 22 8 23 7 24 6 25 5 26 4 27 3 28 2 29 1 30
REMARK H PARENT
REMARK Flexibility Score: inf
ROOT
ATOM      1  C   UNL     1      13.633  21.693  20.530  1.00  0.00     0.000 C 
ENDROOT
BRANCH   1   2
ATOM      2  C   UNL     1      13.266  22.460  19.247  1.00  0.00     0.000 C 
BRANCH   2   3
ATOM      3  C   UNL     1      12.591  23.830  19.480  1.00  0.00     0.000 C 
BRANCH   3   4
ATOM      4  C   UNL     1      11.254  23.818  20.253  1.00  0.00     0.000 C 
BRANCH   4   5
ATOM      5  C   UNL     1      11.102  24.877  21.361  1.00  0.00     0.000 C 
BRANCH   5   6
ATOM      6  C   UNL     1      11.142  24.279  22.777  1.00  0.00     0.000 C 
BRANCH   6   7
ATOM      7  C   UNL     1      11.194  22.742  22.771  1.00  0.00     0.000 C 
BRANCH   7   8
ATOM      8  C   UNL     1      10.339  22.084  23.875  1.00  0.00     0.000 C 
BRANCH   8   9
ATOM      9  C   UNL     1      11.203  21.419  24.962  1.00  0.00     0.000 C 
BRANCH   9  10
ATOM     10  C   UNL     1      11.130  22.175  26.307  1.00  0.00     0.000 C 
BRANCH  10  11
ATOM     11  C   UNL     1      12.492  22.324  27.005  1.00  0.00     0.000 C 
BRANCH  11  12
ATOM     12  C   UNL     1      13.402  23.356  26.319  1.00  0.00     0.006 C 
BRANCH  12  13
ATOM     13  C   UNL     1      12.685  24.690  26.076  1.00  0.00     0.053 C 
BRANCH  13  14
ATOM     14  C   UNL     1      13.646  25.779  25.711  1.00  0.00     0.041 C 
ATOM     15  O   UNL     1      14.760  25.495  25.197  1.00  0.00    -0.550 OA
ATOM     16  O   UNL     1      13.300  27.109  25.914  1.00  0.00    -0.550 OA
ENDBRANCH  13  14
ENDBRANCH  12  13
ENDBRANCH  11  12
ENDBRANCH  10  11
ENDBRANCH   9  10
ENDBRANCH   8   9
ENDBRANCH   7   8
ENDBRANCH   6   7
ENDBRANCH   5   6
ENDBRANCH   4   5
ENDBRANCH   3   4
ENDBRANCH   2   3
ENDBRANCH   1   2
BRANCH   1  17
ATOM     17  C   UNL     1      14.774  22.344  21.334  1.00  0.00     0.000 C 
BRANCH  17  18
ATOM     18  C   UNL     1      14.687  22.056  22.848  1.00  0.00     0.000 C 
BRANCH  18  19
ATOM     19  C   UNL     1      15.860  22.623  23.672  1.00  0.00     0.000 C 
BRANCH  19  20
ATOM     20  C   UNL     1      17.225  21.961  23.424  1.00  0.00     0.000 C 
BRANCH  20  21
ATOM     21  C   UNL     1      17.179  20.430  23.566  1.00  0.00     0.000 C 
BRANCH  21  22
ATOM     22  C   UNL     1      17.997  19.711  22.482  1.00  0.00    -0.000 C 
BRANCH  22  23
ATOM     23  C   UNL     1      17.185  19.440  21.203  1.00  0.00    -0.000 C 
BRANCH  23  24
ATOM     24  C   UNL     1      16.862  17.941  21.028  1.00  0.00    -0.000 C 
BRANCH  24  25
ATOM     25  C   UNL     1      15.636  17.475  21.834  1.00  0.00    -0.000 C 
BRANCH  25  26
ATOM     26  C   UNL     1      14.409  18.379  21.635  1.00  0.00    -0.000 C 
BRANCH  26  27
ATOM     27  C   UNL     1      13.566  18.521  22.912  1.00  0.00    -0.000 C 
BRANCH  27  28
ATOM     28  C   UNL     1      14.360  18.192  24.185  1.00  0.00    -0.000 C 
BRANCH  28  29
ATOM     29  C   UNL     1      14.068  19.215  25.290  1.00  0.00    -0.003 C 
ATOM     30  C   UNL     1      14.066  18.556  26.666  1.00  0.00     0.004 C 
ENDBRANCH  28  29
ENDBRANCH  27  28
ENDBRANCH  26  27
ENDBRANCH  25  26
ENDBRANCH  24  25
ENDBRANCH  23  24
ENDBRANCH  22  23
ENDBRANCH  21  22
ENDBRANCH  20  21
ENDBRANCH  19  20
ENDBRANCH  18  19
ENDBRANCH  17  18
ENDBRANCH   1  17
TORSDOF 26
ENDMDL
MODEL 7
REMARK VINA RESULT:    -4.554      1.819      5.299
REMARK INTER + INTRA:         -15.002
REMARK INTER:                 -10.305
REMARK INTRA:                  -4.697
REMARK UNBOUND:                -3.525
REMARK SMILES CCCCCCCCCCCCCCCCCCCCCCCCCCCC(=O)[O-]
REMARK SMILES IDX 15 1 16 2 17 3 18 4 19 5 20 6 21 7 22 8 23 9 24 10 25 11
REMARK SMILES IDX 26 12 27 13 28 14 29 15 30 16 14 17 13 18 12 19 11 20 10 21
REMARK SMILES IDX 9 22 8 23 7 24 6 25 5 26 4 27 3 28 2 29 1 30
REMARK H PARENT
REMARK Flexibility Score: inf
ROOT
ATOM      1  C   UNL     1      10.331  20.724  16.968  1.00  0.00     0.000 C 
ENDROOT
BRANCH   1   2
ATOM      2  C   UNL     1      11.553  19.927  16.478  1.00  0.00     0.000 C 
BRANCH   2   3
ATOM      3  C   UNL     1      11.228  18.766  15.512  1.00  0.00     0.000 C 
BRANCH   3   4
ATOM      4  C   UNL     1       9.735  18.533  15.192  1.00  0.00     0.000 C 
BRANCH   4   5
ATOM      5  C   UNL     1       9.103  17.264  15.795  1.00  0.00     0.000 C 
BRANCH   5   6
ATOM      6  C   UNL     1       7.723  17.518  16.424  1.00  0.00     0.000 C 
BRANCH   6   7
ATOM      7  C   UNL     1       7.817  18.095  17.847  1.00  0.00     0.000 C 
BRANCH   7   8
ATOM      8  C   UNL     1       8.592  17.198  18.835  1.00  0.00     0.000 C 
BRANCH   8   9
ATOM      9  C   UNL     1       9.867  17.880  19.364  1.00  0.00     0.000 C 
BRANCH   9  10
ATOM     10  C   UNL     1      11.006  16.868  19.616  1.00  0.00     0.000 C 
BRANCH  10  11
ATOM     11  C   UNL     1      12.158  16.971  18.602  1.00  0.00     0.000 C 
BRANCH  11  12
ATOM     12  C   UNL     1      12.114  15.864  17.537  1.00  0.00     0.006 C 
BRANCH  12  13
ATOM     13  C   UNL     1      12.326  14.470  18.142  1.00  0.00     0.053 C 
BRANCH  13  14
ATOM     14  C   UNL     1      11.173  13.558  17.855  1.00  0.00     0.041 C 
ATOM     15  O   UNL     1      10.041  14.036  17.575  1.00  0.00    -0.550 OA
ATOM     16  O   UNL     1      11.354  12.181  17.871  1.00  0.00    -0.550 OA
ENDBRANCH  13  14
ENDBRANCH  12  13
ENDBRANCH  11  12
ENDBRANCH  10  11
ENDBRANCH   9  10
ENDBRANCH   8   9
ENDBRANCH   7   8
ENDBRANCH   6   7
ENDBRANCH   5   6
ENDBRANCH   4   5
ENDBRANCH   3   4
ENDBRANCH   2   3
ENDBRANCH   1   2
BRANCH   1  17
ATOM     17  C   UNL     1      10.538  21.389  18.341  1.00  0.00     0.000 C 
BRANCH  17  18
ATOM     18  C   UNL     1      12.024  21.469  18.756  1.00  0.00     0.000 C 
BRANCH  18  19
ATOM     19  C   UNL     1      12.509  22.888  19.112  1.00  0.00     0.000 C 
BRANCH  19  20
ATOM     20  C   UNL     1      14.004  23.012  19.447  1.00  0.00     0.000 C 
BRANCH  20  21
ATOM     21  C   UNL     1      14.450  22.040  20.552  1.00  0.00     0.000 C 
BRANCH  21  22
ATOM     22  C   UNL     1      14.177  22.584  21.963  1.00  0.00    -0.000 C 
BRANCH  22  23
ATOM     23  C   UNL     1      15.464  22.794  22.780  1.00  0.00    -0.000 C 
BRANCH  23  24
ATOM     24  C   UNL     1      15.408  22.078  24.146  1.00  0.00    -0.000 C 
BRANCH  24  25
ATOM     25  C   UNL     1      15.551  20.549  24.047  1.00  0.00    -0.000 C 
BRANCH  25  26
ATOM     26  C   UNL     1      16.828  20.112  23.311  1.00  0.00    -0.000 C 
BRANCH  26  27
ATOM     27  C   UNL     1      16.529  19.326  22.025  1.00  0.00    -0.000 C 
BRANCH  27  28
ATOM     28  C   UNL     1      15.494  18.212  22.239  1.00  0.00    -0.000 C 
BRANCH  28  29
ATOM     29  C   UNL     1      14.328  18.350  21.252  1.00  0.00    -0.003 C 
ATOM     30  C   UNL     1      13.067  18.842  21.954  1.00  0.00     0.004 C 
ENDBRANCH  28  29
ENDBRANCH  27  28
ENDBRANCH  26  27
ENDBRANCH  25  26
ENDBRANCH  24  25
ENDBRANCH  23  24
ENDBRANCH  22  23
ENDBRANCH  21  22
ENDBRANCH  20  21
ENDBRANCH  19  20
ENDBRANCH  18  19
ENDBRANCH  17  18
ENDBRANCH   1  17
TORSDOF 26
ENDMDL
MODEL 8
REMARK VINA RESULT:    -4.470      4.854      9.250
REMARK INTER + INTRA:         -14.791
REMARK INTER:                 -10.389
REMARK INTRA:                  -4.401
REMARK UNBOUND:                -3.525
REMARK SMILES CCCCCCCCCCCCCCCCCCCCCCCCCCCC(=O)[O-]
REMARK SMILES IDX 15 1 16 2 17 3 18 4 19 5 20 6 21 7 22 8 23 9 24 10 25 11
REMARK SMILES IDX 26 12 27 13 28 14 29 15 30 16 14 17 13 18 12 19 11 20 10 21
REMARK SMILES IDX 9 22 8 23 7 24 6 25 5 26 4 27 3 28 2 29 1 30
REMARK H PARENT
REMARK Flexibility Score: inf
ROOT
ATOM      1  C   UNL     1      10.856  17.626  26.198  1.00  0.00     0.000 C 
ENDROOT
BRANCH   1   2
ATOM      2  C   UNL     1      10.691  18.804  27.175  1.00  0.00     0.000 C 
BRANCH   2   3
ATOM      3  C   UNL     1      10.461  20.177  26.505  1.00  0.00     0.000 C 
BRANCH   3   4
ATOM      4  C   UNL     1      11.723  20.950  26.064  1.00  0.00     0.000 C 
BRANCH   4   5
ATOM      5  C   UNL     1      12.845  21.070  27.111  1.00  0.00     0.000 C 
BRANCH   5   6
ATOM      6  C   UNL     1      12.435  21.890  28.344  1.00  0.00     0.000 C 
BRANCH   6   7
ATOM      7  C   UNL     1      12.424  21.056  29.636  1.00  0.00     0.000 C 
BRANCH   7   8
ATOM      8  C   UNL     1      11.069  21.065  30.374  1.00  0.00     0.000 C 
BRANCH   8   9
ATOM      9  C   UNL     1      10.656  19.662  30.853  1.00  0.00     0.000 C 
BRANCH   9  10
ATOM     10  C   UNL     1      11.777  18.621  30.639  1.00  0.00     0.000 C 
BRANCH  10  11
ATOM     11  C   UNL     1      11.256  17.222  30.267  1.00  0.00     0.000 C 
BRANCH  11  12
ATOM     12  C   UNL     1      11.795  16.120  31.191  1.00  0.00     0.006 C 
BRANCH  12  13
ATOM     13  C   UNL     1      10.702  15.536  32.096  1.00  0.00     0.053 C 
BRANCH  13  14
ATOM     14  C   UNL     1      10.062  14.327  31.486  1.00  0.00     0.041 C 
ATOM     15  O   UNL     1       9.541  13.447  32.221  1.00  0.00    -0.550 OA
ATOM     16  O   UNL     1      10.019  14.185  30.105  1.00  0.00    -0.550 OA
ENDBRANCH  13  14
ENDBRANCH  12  13
ENDBRANCH  11  12
ENDBRANCH  10  11
ENDBRANCH   9  10
ENDBRANCH   8   9
ENDBRANCH   7   8
ENDBRANCH   6   7
ENDBRANCH   5   6
ENDBRANCH   4   5
ENDBRANCH   3   4
ENDBRANCH   2   3
ENDBRANCH   1   2
BRANCH   1  17
ATOM     17  C   UNL     1      12.120  16.784  26.454  1.00  0.00     0.000 C 
BRANCH  17  18
ATOM     18  C   UNL     1      13.259  17.590  27.115  1.00  0.00     0.000 C 
BRANCH  18  19
ATOM     19  C   UNL     1      14.636  17.409  26.448  1.00  0.00     0.000 C 
BRANCH  19  20
ATOM     20  C   UNL     1      15.111  18.584  25.578  1.00  0.00     0.000 C 
BRANCH  20  21
ATOM     21  C   UNL     1      14.277  18.752  24.297  1.00  0.00     0.000 C 
BRANCH  21  22
ATOM     22  C   UNL     1      14.654  17.735  23.209  1.00  0.00    -0.000 C 
BRANCH  22  23
ATOM     23  C   UNL     1      15.434  18.370  22.044  1.00  0.00    -0.000 C 
BRANCH  23  24
ATOM     24  C   UNL     1      14.850  19.738  21.631  1.00  0.00    -0.000 C 
BRANCH  24  25
ATOM     25  C   UNL     1      15.907  20.849  21.507  1.00  0.00    -0.000 C 
BRANCH  25  26
ATOM     26  C   UNL     1      16.986  20.774  22.600  1.00  0.00    -0.000 C 
BRANCH  26  27
ATOM     27  C   UNL     1      16.732  21.763  23.749  1.00  0.00    -0.000 C 
BRANCH  27  28
ATOM     28  C   UNL     1      15.594  22.747  23.443  1.00  0.00    -0.000 C 
BRANCH  28  29
ATOM     29  C   UNL     1      14.754  23.018  24.697  1.00  0.00    -0.003 C 
ATOM     30  C   UNL     1      13.553  23.902  24.377  1.00  0.00     0.004 C 
ENDBRANCH  28  29
ENDBRANCH  27  28
ENDBRANCH  26  27
ENDBRANCH  25  26
ENDBRANCH  24  25
ENDBRANCH  23  24
ENDBRANCH  22  23
ENDBRANCH  21  22
ENDBRANCH  20  21
ENDBRANCH  19  20
ENDBRANCH  18  19
ENDBRANCH  17  18
ENDBRANCH   1  17
TORSDOF 26
ENDMDL
MODEL 9
REMARK VINA RESULT:    -4.470      3.036      5.707
REMARK INTER + INTRA:         -14.790
REMARK INTER:                  -9.455
REMARK INTRA:                  -5.335
REMARK UNBOUND:                -3.525
REMARK SMILES CCCCCCCCCCCCCCCCCCCCCCCCCCCC(=O)[O-]
REMARK SMILES IDX 15 1 16 2 17 3 18 4 19 5 20 6 21 7 22 8 23 9 24 10 25 11
REMARK SMILES IDX 26 12 27 13 28 14 29 15 30 16 14 17 13 18 12 19 11 20 10 21
REMARK SMILES IDX 9 22 8 23 7 24 6 25 5 26 4 27 3 28 2 29 1 30
REMARK H PARENT
REMARK Flexibility Score: inf
ROOT
ATOM      1  C   UNL     1      11.553  24.648  24.858  1.00  0.00     0.000 C 
ENDROOT
BRANCH   1   2
ATOM      2  C   UNL     1      11.251  24.922  26.343  1.00  0.00     0.000 C 
BRANCH   2   3
ATOM      3  C   UNL     1      10.484  23.795  27.069  1.00  0.00     0.000 C 
BRANCH   3   4
ATOM      4  C   UNL     1      11.004  23.396  28.467  1.00  0.00     0.000 C 
BRANCH   4   5
ATOM      5  C   UNL     1      11.170  21.886  28.723  1.00  0.00     0.000 C 
BRANCH   5   6
ATOM      6  C   UNL     1      12.611  21.393  28.515  1.00  0.00     0.000 C 
BRANCH   6   7
ATOM      7  C   UNL     1      12.728  20.360  27.381  1.00  0.00     0.000 C 
BRANCH   7   8
ATOM      8  C   UNL     1      12.635  20.973  25.968  1.00  0.00     0.000 C 
BRANCH   8   9
ATOM      9  C   UNL     1      11.448  20.411  25.166  1.00  0.00     0.000 C 
BRANCH   9  10
ATOM     10  C   UNL     1      11.282  21.114  23.801  1.00  0.00     0.000 C 
BRANCH  10  11
ATOM     11  C   UNL     1      12.616  21.445  23.112  1.00  0.00     0.000 C 
BRANCH  11  12
ATOM     12  C   UNL     1      12.431  22.202  21.787  1.00  0.00     0.006 C 
BRANCH  12  13
ATOM     13  C   UNL     1      12.913  21.386  20.581  1.00  0.00     0.053 C 
BRANCH  13  14
ATOM     14  C   UNL     1      12.358  21.915  19.294  1.00  0.00     0.041 C 
ATOM     15  O   UNL     1      12.120  21.131  18.337  1.00  0.00    -0.550 OA
ATOM     16  O   UNL     1      12.079  23.269  19.161  1.00  0.00    -0.550 OA
ENDBRANCH  13  14
ENDBRANCH  12  13
ENDBRANCH  11  12
ENDBRANCH  10  11
ENDBRANCH   9  10
ENDBRANCH   8   9
ENDBRANCH   7   8
ENDBRANCH   6   7
ENDBRANCH   5   6
ENDBRANCH   4   5
ENDBRANCH   3   4
ENDBRANCH   2   3
ENDBRANCH   1   2
BRANCH   1  17
ATOM     17  C   UNL     1      13.036  24.827  24.487  1.00  0.00     0.000 C 
BRANCH  17  18
ATOM     18  C   UNL     1      13.999  24.270  25.558  1.00  0.00     0.000 C 
BRANCH  18  19
ATOM     19  C   UNL     1      15.455  24.105  25.081  1.00  0.00     0.000 C 
BRANCH  19  20
ATOM     20  C   UNL     1      15.628  23.465  23.693  1.00  0.00     0.000 C 
BRANCH  20  21
ATOM     21  C   UNL     1      15.863  21.947  23.762  1.00  0.00     0.000 C 
BRANCH  21  22
ATOM     22  C   UNL     1      17.354  21.579  23.748  1.00  0.00    -0.000 C 
BRANCH  22  23
ATOM     23  C   UNL     1      17.753  20.752  22.512  1.00  0.00    -0.000 C 
BRANCH  23  24
ATOM     24  C   UNL     1      16.523  20.192  21.766  1.00  0.00    -0.000 C 
BRANCH  24  25
ATOM     25  C   UNL     1      16.684  18.728  21.321  1.00  0.00    -0.000 C 
BRANCH  25  26
ATOM     26  C   UNL     1      15.645  17.790  21.958  1.00  0.00    -0.000 C 
BRANCH  26  27
ATOM     27  C   UNL     1      14.492  18.554  22.628  1.00  0.00    -0.000 C 
BRANCH  27  28
ATOM     28  C   UNL     1      14.150  18.008  24.022  1.00  0.00    -0.000 C 
BRANCH  28  29
ATOM     29  C   UNL     1      15.137  18.533  25.072  1.00  0.00    -0.003 C 
ATOM     30  C   UNL     1      15.026  17.748  26.375  1.00  0.00     0.004 C 
ENDBRANCH  28  29
ENDBRANCH  27  28
ENDBRANCH  26  27
ENDBRANCH  25  26
ENDBRANCH  24  25
ENDBRANCH  23  24
ENDBRANCH  22  23
ENDBRANCH  21  22
ENDBRANCH  20  21
ENDBRANCH  19  20
ENDBRANCH  18  19
ENDBRANCH  17  18
ENDBRANCH   1  17
TORSDOF 26
ENDMDL
