MODEL 1
REMARK VINA RESULT:    -7.024      0.000      0.000
REMARK INTER + INTRA:         -11.942
REMARK INTER:                 -10.103
REMARK INTRA:                  -1.839
REMARK UNBOUND:                -1.839
REMARK SMILES O=c1c(O[C@@H]2O[C@@H](CO)[C@H](O)[C@H](O)[C@@H]2O)c(-c2ccc(O)cc2)oc2cc(O)cc(O)c12
REMARK SMILES IDX 4 1 3 2 16 3 24 4 2 5 25 6 1 7 32 8 26 9 30 10 27 11 29 12
REMARK SMILES IDX 17 13 18 14 19 15 20 16 23 17 22 18 21 19 31 21 28 23 5 25
REMARK SMILES IDX 14 26 6 27 12 28 7 29 10 30 15 31 13 33 8 35 9 36 11 38
REMARK H PARENT 21 20 31 22 28 24 15 32 13 34 9 37 11 39
REMARK Flexibility Score: inf
ROOT
ATOM      1  O   UNL     1      -6.641   6.655  14.332  1.00  0.00    -0.454 OA
ENDROOT
BRANCH   1   2
ATOM      2  C   UNL     1      -5.470   6.012  14.755  1.00  0.00     0.214 A 
ATOM      3  C   UNL     1      -4.191   6.442  14.343  1.00  0.00     0.180 A 
ATOM      4  O   UNL     1      -3.115   5.746  14.698  1.00  0.00    -0.452 OA
ATOM      5  C   UNL     1      -5.570   4.905  15.604  1.00  0.00     0.239 A 
ATOM      6  C   UNL     1      -3.168   4.667  15.472  1.00  0.00     0.146 A 
ATOM      7  O   UNL     1      -6.708   4.541  16.008  1.00  0.00    -0.285 OA
ATOM      8  C   UNL     1      -4.406   4.202  15.976  1.00  0.00     0.111 A 
ATOM      9  C   UNL     1      -1.982   4.001  15.793  1.00  0.00     0.094 A 
ATOM     10  C   UNL     1      -4.426   3.060  16.811  1.00  0.00     0.134 A 
ATOM     11  C   UNL     1      -2.007   2.871  16.618  1.00  0.00     0.123 A 
ATOM     12  C   UNL     1      -3.224   2.406  17.124  1.00  0.00     0.093 A 
BRANCH   3  13
ATOM     13  C   UNL     1      -3.994   7.665  13.536  1.00  0.00     0.021 A 
ATOM     14  C   UNL     1      -4.031   8.940  14.131  1.00  0.00     0.016 A 
ATOM     15  C   UNL     1      -3.832  10.085  13.356  1.00  0.00     0.047 A 
ATOM     16  C   UNL     1      -3.579   9.973  11.985  1.00  0.00     0.115 A 
ATOM     17  C   UNL     1      -3.716   7.557  12.164  1.00  0.00     0.016 A 
ATOM     18  C   UNL     1      -3.517   8.705  11.392  1.00  0.00     0.047 A 
BRANCH  16  19
ATOM     19  O   UNL     1      -3.387  11.124  11.225  1.00  0.00    -0.508 OA
ATOM     20  H   UNL     1      -3.299  12.036  11.659  1.00  0.00     0.293 HD
ENDBRANCH  16  19
ENDBRANCH   3  13
BRANCH  10  21
ATOM     21  O   UNL     1      -5.624   2.570  17.330  1.00  0.00    -0.507 OA
ATOM     22  H   UNL     1      -6.069   1.741  16.954  1.00  0.00     0.293 HD
ENDBRANCH  10  21
BRANCH  11  23
ATOM     23  O   UNL     1      -0.829   2.204  16.943  1.00  0.00    -0.508 OA
ATOM     24  H   UNL     1      -0.058   2.680  17.398  1.00  0.00     0.293 HD
ENDBRANCH  11  23
ENDBRANCH   1   2
BRANCH   1  25
ATOM     25  C   UNL     1      -7.221   6.445  13.038  1.00  0.00     0.339 C 
ATOM     26  C   UNL     1      -8.668   5.923  13.159  1.00  0.00     0.214 C 
ATOM     27  O   UNL     1      -7.172   7.631  12.263  1.00  0.00    -0.332 OA
ATOM     28  C   UNL     1      -9.591   7.009  13.737  1.00  0.00     0.180 C 
ATOM     29  C   UNL     1      -7.906   8.686  12.864  1.00  0.00     0.179 C 
ATOM     30  C   UNL     1      -9.409   8.320  12.950  1.00  0.00     0.177 C 
BRANCH  26  31
ATOM     31  O   UNL     1      -8.715   4.773  13.964  1.00  0.00    -0.384 OA
ATOM     32  H   UNL     1      -8.257   4.051  13.460  1.00  0.00     0.211 HD
ENDBRANCH  26  31
BRANCH  28  33
ATOM     33  O   UNL     1      -9.307   7.231  15.097  1.00  0.00    -0.387 OA
ATOM     34  H   UNL     1      -9.780   6.526  15.610  1.00  0.00     0.211 HD
ENDBRANCH  28  33
BRANCH  29  35
ATOM     35  C   UNL     1      -7.683   9.950  12.017  1.00  0.00     0.191 C 
BRANCH  35  36
ATOM     36  O   UNL     1      -8.735  10.150  11.112  1.00  0.00    -0.394 OA
ATOM     37  H   UNL     1      -8.524  10.979  10.608  1.00  0.00     0.210 HD
ENDBRANCH  35  36
ENDBRANCH  29  35
BRANCH  30  38
ATOM     38  O   UNL     1     -10.125   9.353  13.577  1.00  0.00    -0.387 OA
ATOM     39  H   UNL     1     -10.799   8.919  14.164  1.00  0.00     0.211 HD
ENDBRANCH  30  38
ENDBRANCH   1  25
TORSDOF 11
ENDMDL
MODEL 2
REMARK VINA RESULT:    -6.675      1.263      2.424
REMARK INTER + INTRA:         -11.441
REMARK INTER:                 -10.803
REMARK INTRA:                  -0.638
REMARK UNBOUND:                -1.839
REMARK SMILES O=c1c(O[C@@H]2O[C@@H](CO)[C@H](O)[C@H](O)[C@@H]2O)c(-c2ccc(O)cc2)oc2cc(O)cc(O)c12
REMARK SMILES IDX 4 1 3 2 16 3 24 4 2 5 25 6 1 7 32 8 26 9 30 10 27 11 29 12
REMARK SMILES IDX 17 13 18 14 19 15 20 16 23 17 22 18 21 19 31 21 28 23 5 25
REMARK SMILES IDX 14 26 6 27 12 28 7 29 10 30 15 31 13 33 8 35 9 36 11 38
REMARK H PARENT 21 20 31 22 28 24 15 32 13 34 9 37 11 39
REMARK Flexibility Score: inf
ROOT
ATOM      1  O   UNL     1      -6.375   6.484  13.683  1.00  0.00    -0.454 OA
ENDROOT
BRANCH   1   2
ATOM      2  C   UNL     1      -5.263   5.919  14.319  1.00  0.00     0.214 A 
ATOM      3  C   UNL     1      -3.959   6.426  14.134  1.00  0.00     0.180 A 
ATOM      4  O   UNL     1      -2.924   5.801  14.686  1.00  0.00    -0.452 OA
ATOM      5  C   UNL     1      -5.444   4.811  15.154  1.00  0.00     0.239 A 
ATOM      6  C   UNL     1      -3.048   4.726  15.456  1.00  0.00     0.146 A 
ATOM      7  O   UNL     1      -6.612   4.379  15.355  1.00  0.00    -0.285 OA
ATOM      8  C   UNL     1      -4.325   4.186  15.739  1.00  0.00     0.111 A 
ATOM      9  C   UNL     1      -1.899   4.137  15.995  1.00  0.00     0.094 A 
ATOM     10  C   UNL     1      -4.424   3.049  16.576  1.00  0.00     0.134 A 
ATOM     11  C   UNL     1      -2.003   3.013  16.820  1.00  0.00     0.123 A 
ATOM     12  C   UNL     1      -3.259   2.474  17.109  1.00  0.00     0.093 A 
BRANCH   3  13
ATOM     13  C   UNL     1      -3.696   7.655  13.355  1.00  0.00     0.021 A 
ATOM     14  C   UNL     1      -3.354   8.860  13.996  1.00  0.00     0.016 A 
ATOM     15  C   UNL     1      -3.098  10.010  13.244  1.00  0.00     0.047 A 
ATOM     16  C   UNL     1      -3.165   9.968  11.849  1.00  0.00     0.115 A 
ATOM     17  C   UNL     1      -3.739   7.612  11.953  1.00  0.00     0.016 A 
ATOM     18  C   UNL     1      -3.482   8.765  11.204  1.00  0.00     0.047 A 
BRANCH  16  19
ATOM     19  O   UNL     1      -2.911  11.124  11.113  1.00  0.00    -0.508 OA
ATOM     20  H   UNL     1      -2.850  12.032  11.559  1.00  0.00     0.293 HD
ENDBRANCH  16  19
ENDBRANCH   3  13
BRANCH  10  21
ATOM     21  O   UNL     1      -5.664   2.487  16.882  1.00  0.00    -0.507 OA
ATOM     22  H   UNL     1      -5.747   1.548  17.252  1.00  0.00     0.293 HD
ENDBRANCH  10  21
BRANCH  11  23
ATOM     23  O   UNL     1      -0.863   2.422  17.360  1.00  0.00    -0.508 OA
ATOM     24  H   UNL     1      -0.742   1.416  17.372  1.00  0.00     0.293 HD
ENDBRANCH  11  23
ENDBRANCH   1   2
BRANCH   1  25
ATOM     25  C   UNL     1      -6.882   7.784  14.008  1.00  0.00     0.339 C 
ATOM     26  C   UNL     1      -8.341   7.945  13.534  1.00  0.00     0.214 C 
ATOM     27  O   UNL     1      -6.770   8.038  15.399  1.00  0.00    -0.332 OA
ATOM     28  C   UNL     1      -9.280   7.038  14.347  1.00  0.00     0.180 C 
ATOM     29  C   UNL     1      -7.522   7.111  16.168  1.00  0.00     0.179 C 
ATOM     30  C   UNL     1      -9.032   7.247  15.852  1.00  0.00     0.177 C 
BRANCH  26  31
ATOM     31  O   UNL     1      -8.452   7.650  12.165  1.00  0.00    -0.384 OA
ATOM     32  H   UNL     1      -7.705   8.118  11.710  1.00  0.00     0.211 HD
ENDBRANCH  26  31
BRANCH  28  33
ATOM     33  O   UNL     1      -9.073   5.685  14.017  1.00  0.00    -0.387 OA
ATOM     34  H   UNL     1      -8.652   5.667  13.119  1.00  0.00     0.211 HD
ENDBRANCH  28  33
BRANCH  29  35
ATOM     35  C   UNL     1      -7.230   7.392  17.651  1.00  0.00     0.191 C 
BRANCH  35  36
ATOM     36  O   UNL     1      -6.695   6.264  18.288  1.00  0.00    -0.394 OA
ATOM     37  H   UNL     1      -7.438   5.842  18.793  1.00  0.00     0.210 HD
ENDBRANCH  35  36
ENDBRANCH  29  35
BRANCH  30  38
ATOM     38  O   UNL     1      -9.768   6.304  16.589  1.00  0.00    -0.387 OA
ATOM     39  H   UNL     1     -10.561   6.067  16.040  1.00  0.00     0.211 HD
ENDBRANCH  30  38
ENDBRANCH   1  25
TORSDOF 11
ENDMDL
MODEL 3
REMARK VINA RESULT:    -6.373      1.922      5.881
REMARK INTER + INTRA:         -11.006
REMARK INTER:                  -9.418
REMARK INTRA:                  -1.587
REMARK UNBOUND:                -1.839
REMARK SMILES O=c1c(O[C@@H]2O[C@@H](CO)[C@H](O)[C@H](O)[C@@H]2O)c(-c2ccc(O)cc2)oc2cc(O)cc(O)c12
REMARK SMILES IDX 4 1 3 2 16 3 24 4 2 5 25 6 1 7 32 8 26 9 30 10 27 11 29 12
REMARK SMILES IDX 17 13 18 14 19 15 20 16 23 17 22 18 21 19 31 21 28 23 5 25
REMARK SMILES IDX 14 26 6 27 12 28 7 29 10 30 15 31 13 33 8 35 9 36 11 38
REMARK H PARENT 21 20 31 22 28 24 15 32 13 34 9 37 11 39
REMARK Flexibility Score: inf
ROOT
ATOM      1  O   UNL     1      -6.526   7.448  12.727  1.00  0.00    -0.454 OA
ENDROOT
BRANCH   1   2
ATOM      2  C   UNL     1      -5.193   7.876  12.766  1.00  0.00     0.214 A 
ATOM      3  C   UNL     1      -4.296   7.434  13.761  1.00  0.00     0.180 A 
ATOM      4  O   UNL     1      -3.066   7.937  13.811  1.00  0.00    -0.452 OA
ATOM      5  C   UNL     1      -4.737   8.776  11.797  1.00  0.00     0.239 A 
ATOM      6  C   UNL     1      -2.605   8.821  12.933  1.00  0.00     0.146 A 
ATOM      7  O   UNL     1      -5.523   9.143  10.881  1.00  0.00    -0.285 OA
ATOM      8  C   UNL     1      -3.421   9.273  11.869  1.00  0.00     0.111 A 
ATOM      9  C   UNL     1      -1.295   9.293  13.066  1.00  0.00     0.094 A 
ATOM     10  C   UNL     1      -2.893  10.203  10.942  1.00  0.00     0.134 A 
ATOM     11  C   UNL     1      -0.779  10.213  12.147  1.00  0.00     0.123 A 
ATOM     12  C   UNL     1      -1.575  10.663  11.091  1.00  0.00     0.093 A 
BRANCH   3  13
ATOM     13  C   UNL     1      -4.667   6.404  14.754  1.00  0.00     0.021 A 
ATOM     14  C   UNL     1      -5.126   6.763  16.034  1.00  0.00     0.016 A 
ATOM     15  C   UNL     1      -5.483   5.777  16.958  1.00  0.00     0.047 A 
ATOM     16  C   UNL     1      -5.401   4.425  16.612  1.00  0.00     0.115 A 
ATOM     17  C   UNL     1      -4.608   5.046  14.403  1.00  0.00     0.016 A 
ATOM     18  C   UNL     1      -4.967   4.062  15.330  1.00  0.00     0.047 A 
BRANCH  16  19
ATOM     19  O   UNL     1      -5.756   3.454  17.545  1.00  0.00    -0.508 OA
ATOM     20  H   UNL     1      -5.056   2.930  18.057  1.00  0.00     0.293 HD
ENDBRANCH  16  19
ENDBRANCH   3  13
BRANCH  10  21
ATOM     21  O   UNL     1      -3.663  10.673   9.878  1.00  0.00    -0.507 OA
ATOM     22  H   UNL     1      -4.648  10.888   9.986  1.00  0.00     0.293 HD
ENDBRANCH  10  21
BRANCH  11  23
ATOM     23  O   UNL     1       0.525  10.686  12.274  1.00  0.00    -0.508 OA
ATOM     24  H   UNL     1       1.287  10.074  12.544  1.00  0.00     0.293 HD
ENDBRANCH  11  23
ENDBRANCH   1   2
BRANCH   1  25
ATOM     25  C   UNL     1      -7.627   8.292  13.088  1.00  0.00     0.339 C 
ATOM     26  C   UNL     1      -8.815   8.094  12.124  1.00  0.00     0.214 C 
ATOM     27  O   UNL     1      -8.019   8.064  14.431  1.00  0.00    -0.332 OA
ATOM     28  C   UNL     1      -9.430   6.696  12.299  1.00  0.00     0.180 C 
ATOM     29  C   UNL     1      -8.455   6.729  14.636  1.00  0.00     0.179 C 
ATOM     30  C   UNL     1      -9.719   6.437  13.789  1.00  0.00     0.177 C 
BRANCH  26  31
ATOM     31  O   UNL     1      -8.409   8.278  10.792  1.00  0.00    -0.384 OA
ATOM     32  H   UNL     1      -8.221   9.246  10.681  1.00  0.00     0.211 HD
ENDBRANCH  26  31
BRANCH  28  33
ATOM     33  O   UNL     1      -8.561   5.705  11.806  1.00  0.00    -0.387 OA
ATOM     34  H   UNL     1      -7.659   5.905  12.167  1.00  0.00     0.211 HD
ENDBRANCH  28  33
BRANCH  29  35
ATOM     35  C   UNL     1      -8.732   6.555  16.138  1.00  0.00     0.191 C 
BRANCH  35  36
ATOM     36  O   UNL     1     -10.097   6.351  16.385  1.00  0.00    -0.394 OA
ATOM     37  H   UNL     1     -10.195   5.412  16.692  1.00  0.00     0.210 HD
ENDBRANCH  35  36
ENDBRANCH  29  35
BRANCH  30  38
ATOM     38  O   UNL     1     -10.125   5.104  13.968  1.00  0.00    -0.387 OA
ATOM     39  H   UNL     1     -11.057   5.131  14.310  1.00  0.00     0.211 HD
ENDBRANCH  30  38
ENDBRANCH   1  25
TORSDOF 11
ENDMDL
MODEL 4
REMARK VINA RESULT:    -6.331      1.264      2.021
REMARK INTER + INTRA:         -10.946
REMARK INTER:                 -10.235
REMARK INTRA:                  -0.712
REMARK UNBOUND:                -1.839
REMARK SMILES O=c1c(O[C@@H]2O[C@@H](CO)[C@H](O)[C@H](O)[C@@H]2O)c(-c2ccc(O)cc2)oc2cc(O)cc(O)c12
REMARK SMILES IDX 4 1 3 2 16 3 24 4 2 5 25 6 1 7 32 8 26 9 30 10 27 11 29 12
REMARK SMILES IDX 17 13 18 14 19 15 20 16 23 17 22 18 21 19 31 21 28 23 5 25
REMARK SMILES IDX 14 26 6 27 12 28 7 29 10 30 15 31 13 33 8 35 9 36 11 38
REMARK H PARENT 21 20 31 22 28 24 15 32 13 34 9 37 11 39
REMARK Flexibility Score: inf
ROOT
ATOM      1  O   UNL     1      -6.872   6.967  13.993  1.00  0.00    -0.454 OA
ENDROOT
BRANCH   1   2
ATOM      2  C   UNL     1      -5.704   6.323  14.421  1.00  0.00     0.214 A 
ATOM      3  C   UNL     1      -4.430   6.688  13.938  1.00  0.00     0.180 A 
ATOM      4  O   UNL     1      -3.360   5.989  14.305  1.00  0.00    -0.452 OA
ATOM      5  C   UNL     1      -5.802   5.280  15.348  1.00  0.00     0.239 A 
ATOM      6  C   UNL     1      -3.413   4.968  15.154  1.00  0.00     0.146 A 
ATOM      7  O   UNL     1      -6.934   4.977  15.815  1.00  0.00    -0.285 OA
ATOM      8  C   UNL     1      -4.644   4.574  15.730  1.00  0.00     0.111 A 
ATOM      9  C   UNL     1      -2.233   4.293  15.482  1.00  0.00     0.094 A 
ATOM     10  C   UNL     1      -4.663   3.493  16.644  1.00  0.00     0.134 A 
ATOM     11  C   UNL     1      -2.258   3.225  16.384  1.00  0.00     0.123 A 
ATOM     12  C   UNL     1      -3.467   2.830  16.961  1.00  0.00     0.093 A 
BRANCH   3  13
ATOM     13  C   UNL     1      -4.230   7.847  13.041  1.00  0.00     0.021 A 
ATOM     14  C   UNL     1      -4.032   9.139  13.559  1.00  0.00     0.016 A 
ATOM     15  C   UNL     1      -3.835  10.222  12.698  1.00  0.00     0.047 A 
ATOM     16  C   UNL     1      -3.816  10.026  11.314  1.00  0.00     0.115 A 
ATOM     17  C   UNL     1      -4.187   7.651  11.651  1.00  0.00     0.016 A 
ATOM     18  C   UNL     1      -3.988   8.737  10.793  1.00  0.00     0.047 A 
BRANCH  16  19
ATOM     19  O   UNL     1      -3.621  11.115  10.468  1.00  0.00    -0.508 OA
ATOM     20  H   UNL     1      -3.323  12.016  10.825  1.00  0.00     0.293 HD
ENDBRANCH  16  19
ENDBRANCH   3  13
BRANCH  10  21
ATOM     21  O   UNL     1      -5.855   3.073  17.236  1.00  0.00    -0.507 OA
ATOM     22  H   UNL     1      -6.143   3.406  18.148  1.00  0.00     0.293 HD
ENDBRANCH  10  21
BRANCH  11  23
ATOM     23  O   UNL     1      -1.086   2.549  16.716  1.00  0.00    -0.508 OA
ATOM     24  H   UNL     1      -0.768   2.480  17.676  1.00  0.00     0.293 HD
ENDBRANCH  11  23
ENDBRANCH   1   2
BRANCH   1  25
ATOM     25  C   UNL     1      -8.083   6.264  13.689  1.00  0.00     0.339 C 
ATOM     26  C   UNL     1      -9.282   7.232  13.619  1.00  0.00     0.214 C 
ATOM     27  O   UNL     1      -7.953   5.529  12.483  1.00  0.00    -0.332 OA
ATOM     28  C   UNL     1      -9.157   8.166  12.403  1.00  0.00     0.180 C 
ATOM     29  C   UNL     1      -7.692   6.375  11.374  1.00  0.00     0.179 C 
ATOM     30  C   UNL     1      -8.883   7.337  11.135  1.00  0.00     0.177 C 
BRANCH  26  31
ATOM     31  O   UNL     1      -9.379   7.987  14.799  1.00  0.00    -0.384 OA
ATOM     32  H   UNL     1      -8.514   8.462  14.907  1.00  0.00     0.211 HD
ENDBRANCH  26  31
BRANCH  28  33
ATOM     33  O   UNL     1      -8.117   9.095  12.595  1.00  0.00    -0.387 OA
ATOM     34  H   UNL     1      -7.992   9.572  11.735  1.00  0.00     0.211 HD
ENDBRANCH  28  33
BRANCH  29  35
ATOM     35  C   UNL     1      -7.442   5.477  10.152  1.00  0.00     0.191 C 
BRANCH  35  36
ATOM     36  O   UNL     1      -7.808   4.148  10.412  1.00  0.00    -0.394 OA
ATOM     37  H   UNL     1      -7.335   3.879  11.242  1.00  0.00     0.210 HD
ENDBRANCH  35  36
ENDBRANCH  29  35
BRANCH  30  38
ATOM     38  O   UNL     1      -8.605   8.195  10.059  1.00  0.00    -0.387 OA
ATOM     39  H   UNL     1      -7.763   8.672  10.282  1.00  0.00     0.211 HD
ENDBRANCH  30  38
ENDBRANCH   1  25
TORSDOF 11
ENDMDL
MODEL 5
REMARK VINA RESULT:    -6.268      1.145      2.328
REMARK INTER + INTRA:         -10.855
REMARK INTER:                  -9.893
REMARK INTRA:                  -0.962
REMARK UNBOUND:                -1.839
REMARK SMILES O=c1c(O[C@@H]2O[C@@H](CO)[C@H](O)[C@H](O)[C@@H]2O)c(-c2ccc(O)cc2)oc2cc(O)cc(O)c12
REMARK SMILES IDX 4 1 3 2 16 3 24 4 2 5 25 6 1 7 32 8 26 9 30 10 27 11 29 12
REMARK SMILES IDX 17 13 18 14 19 15 20 16 23 17 22 18 21 19 31 21 28 23 5 25
REMARK SMILES IDX 14 26 6 27 12 28 7 29 10 30 15 31 13 33 8 35 9 36 11 38
REMARK H PARENT 21 20 31 22 28 24 15 32 13 34 9 37 11 39
REMARK Flexibility Score: inf
ROOT
ATOM      1  O   UNL     1      -6.014   6.985  13.906  1.00  0.00    -0.454 OA
ENDROOT
BRANCH   1   2
ATOM      2  C   UNL     1      -4.946   6.256  14.444  1.00  0.00     0.214 A 
ATOM      3  C   UNL     1      -3.603   6.576  14.154  1.00  0.00     0.180 A 
ATOM      4  O   UNL     1      -2.626   5.800  14.616  1.00  0.00    -0.452 OA
ATOM      5  C   UNL     1      -5.216   5.173  15.287  1.00  0.00     0.239 A 
ATOM      6  C   UNL     1      -2.840   4.741  15.388  1.00  0.00     0.146 A 
ATOM      7  O   UNL     1      -6.413   4.908  15.582  1.00  0.00    -0.285 OA
ATOM      8  C   UNL     1      -4.155   4.385  15.774  1.00  0.00     0.111 A 
ATOM      9  C   UNL     1      -1.748   3.986  15.826  1.00  0.00     0.094 A 
ATOM     10  C   UNL     1      -4.346   3.260  16.611  1.00  0.00     0.134 A 
ATOM     11  C   UNL     1      -1.944   2.874  16.653  1.00  0.00     0.123 A 
ATOM     12  C   UNL     1      -3.237   2.516  17.042  1.00  0.00     0.093 A 
BRANCH   3  13
ATOM     13  C   UNL     1      -3.230   7.767  13.362  1.00  0.00     0.021 A 
ATOM     14  C   UNL     1      -2.627   8.883  13.970  1.00  0.00     0.016 A 
ATOM     15  C   UNL     1      -2.272   9.997  13.205  1.00  0.00     0.047 A 
ATOM     16  C   UNL     1      -2.499  10.005  11.826  1.00  0.00     0.115 A 
ATOM     17  C   UNL     1      -3.434   7.770  11.973  1.00  0.00     0.016 A 
ATOM     18  C   UNL     1      -3.076   8.886  11.210  1.00  0.00     0.047 A 
BRANCH  16  19
ATOM     19  O   UNL     1      -2.142  11.124  11.077  1.00  0.00    -0.508 OA
ATOM     20  H   UNL     1      -2.598  12.019  11.213  1.00  0.00     0.293 HD
ENDBRANCH  16  19
ENDBRANCH   3  13
BRANCH  10  21
ATOM     21  O   UNL     1      -5.625   2.876  17.016  1.00  0.00    -0.507 OA
ATOM     22  H   UNL     1      -5.899   2.878  17.992  1.00  0.00     0.293 HD
ENDBRANCH  10  21
BRANCH  11  23
ATOM     23  O   UNL     1      -0.861   2.118  17.093  1.00  0.00    -0.508 OA
ATOM     24  H   UNL     1      -0.111   1.849  16.465  1.00  0.00     0.293 HD
ENDBRANCH  11  23
ENDBRANCH   1   2
BRANCH   1  25
ATOM     25  C   UNL     1      -6.755   7.953  14.659  1.00  0.00     0.339 C 
ATOM     26  C   UNL     1      -7.082   9.191  13.799  1.00  0.00     0.214 C 
ATOM     27  O   UNL     1      -7.937   7.381  15.195  1.00  0.00    -0.332 OA
ATOM     28  C   UNL     1      -8.085   8.833  12.689  1.00  0.00     0.180 C 
ATOM     29  C   UNL     1      -8.808   6.915  14.175  1.00  0.00     0.179 C 
ATOM     30  C   UNL     1      -9.292   8.095  13.296  1.00  0.00     0.177 C 
BRANCH  26  31
ATOM     31  O   UNL     1      -5.912   9.727  13.236  1.00  0.00    -0.384 OA
ATOM     32  H   UNL     1      -5.171   9.514  13.860  1.00  0.00     0.211 HD
ENDBRANCH  26  31
BRANCH  28  33
ATOM     33  O   UNL     1      -7.477   8.023  11.712  1.00  0.00    -0.387 OA
ATOM     34  H   UNL     1      -6.621   7.700  12.096  1.00  0.00     0.211 HD
ENDBRANCH  28  33
BRANCH  29  35
ATOM     35  C   UNL     1      -9.987   6.203  14.860  1.00  0.00     0.191 C 
BRANCH  35  36
ATOM     36  O   UNL     1     -10.057   6.527  16.222  1.00  0.00    -0.394 OA
ATOM     37  H   UNL     1     -11.019   6.517  16.469  1.00  0.00     0.210 HD
ENDBRANCH  35  36
ENDBRANCH  29  35
BRANCH  30  38
ATOM     38  O   UNL     1     -10.125   7.623  12.268  1.00  0.00    -0.387 OA
ATOM     39  H   UNL     1     -10.945   7.269  12.703  1.00  0.00     0.211 HD
ENDBRANCH  30  38
ENDBRANCH   1  25
TORSDOF 11
ENDMDL
MODEL 6
REMARK VINA RESULT:    -5.972      1.585      4.498
REMARK INTER + INTRA:         -10.429
REMARK INTER:                  -8.466
REMARK INTRA:                  -1.962
REMARK UNBOUND:                -1.839
REMARK SMILES O=c1c(O[C@@H]2O[C@@H](CO)[C@H](O)[C@H](O)[C@@H]2O)c(-c2ccc(O)cc2)oc2cc(O)cc(O)c12
REMARK SMILES IDX 4 1 3 2 16 3 24 4 2 5 25 6 1 7 32 8 26 9 30 10 27 11 29 12
REMARK SMILES IDX 17 13 18 14 19 15 20 16 23 17 22 18 21 19 31 21 28 23 5 25
REMARK SMILES IDX 14 26 6 27 12 28 7 29 10 30 15 31 13 33 8 35 9 36 11 38
REMARK H PARENT 21 20 31 22 28 24 15 32 13 34 9 37 11 39
REMARK Flexibility Score: inf
ROOT
ATOM      1  O   UNL     1      -4.112   6.638  13.857  1.00  0.00    -0.454 OA
ENDROOT
BRANCH   1   2
ATOM      2  C   UNL     1      -4.376   5.539  14.685  1.00  0.00     0.214 A 
ATOM      3  C   UNL     1      -5.686   5.058  14.891  1.00  0.00     0.180 A 
ATOM      4  O   UNL     1      -5.897   4.070  15.756  1.00  0.00    -0.452 OA
ATOM      5  C   UNL     1      -3.313   4.905  15.336  1.00  0.00     0.239 A 
ATOM      6  C   UNL     1      -4.921   3.465  16.423  1.00  0.00     0.146 A 
ATOM      7  O   UNL     1      -2.136   5.305  15.124  1.00  0.00    -0.285 OA
ATOM      8  C   UNL     1      -3.572   3.848  16.231  1.00  0.00     0.111 A 
ATOM      9  C   UNL     1      -5.241   2.433  17.311  1.00  0.00     0.094 A 
ATOM     10  C   UNL     1      -2.555   3.171  16.945  1.00  0.00     0.134 A 
ATOM     11  C   UNL     1      -4.231   1.769  18.015  1.00  0.00     0.123 A 
ATOM     12  C   UNL     1      -2.896   2.137  17.830  1.00  0.00     0.093 A 
BRANCH   3  13
ATOM     13  C   UNL     1      -6.850   5.602  14.159  1.00  0.00     0.021 A 
ATOM     14  C   UNL     1      -7.836   6.355  14.822  1.00  0.00     0.016 A 
ATOM     15  C   UNL     1      -8.924   6.871  14.113  1.00  0.00     0.047 A 
ATOM     16  C   UNL     1      -9.033   6.657  12.736  1.00  0.00     0.115 A 
ATOM     17  C   UNL     1      -6.951   5.410  12.772  1.00  0.00     0.016 A 
ATOM     18  C   UNL     1      -8.041   5.929  12.066  1.00  0.00     0.047 A 
BRANCH  16  19
ATOM     19  O   UNL     1     -10.125   7.175  12.044  1.00  0.00    -0.508 OA
ATOM     20  H   UNL     1     -10.957   6.621  11.877  1.00  0.00     0.293 HD
ENDBRANCH  16  19
ENDBRANCH   3  13
BRANCH  10  21
ATOM     21  O   UNL     1      -1.212   3.516  16.783  1.00  0.00    -0.507 OA
ATOM     22  H   UNL     1      -0.473   2.828  16.854  1.00  0.00     0.293 HD
ENDBRANCH  10  21
BRANCH  11  23
ATOM     23  O   UNL     1      -4.543   0.740  18.901  1.00  0.00    -0.508 OA
ATOM     24  H   UNL     1      -4.198  -0.203  18.760  1.00  0.00     0.293 HD
ENDBRANCH  11  23
ENDBRANCH   1   2
BRANCH   1  25
ATOM     25  C   UNL     1      -3.987   7.976  14.354  1.00  0.00     0.339 C 
ATOM     26  C   UNL     1      -2.787   8.697  13.707  1.00  0.00     0.214 C 
ATOM     27  O   UNL     1      -5.186   8.705  14.151  1.00  0.00    -0.332 OA
ATOM     28  C   UNL     1      -3.045   8.948  12.211  1.00  0.00     0.180 C 
ATOM     29  C   UNL     1      -5.510   8.818  12.774  1.00  0.00     0.179 C 
ATOM     30  C   UNL     1      -4.417   9.621  12.025  1.00  0.00     0.177 C 
BRANCH  26  31
ATOM     31  O   UNL     1      -1.610   7.949  13.874  1.00  0.00    -0.384 OA
ATOM     32  H   UNL     1      -1.442   7.484  13.013  1.00  0.00     0.211 HD
ENDBRANCH  26  31
BRANCH  28  33
ATOM     33  O   UNL     1      -3.008   7.739  11.491  1.00  0.00    -0.387 OA
ATOM     34  H   UNL     1      -3.920   7.590  11.130  1.00  0.00     0.211 HD
ENDBRANCH  28  33
BRANCH  29  35
ATOM     35  C   UNL     1      -6.881   9.507  12.673  1.00  0.00     0.191 C 
BRANCH  35  36
ATOM     36  O   UNL     1      -7.419   9.387  11.383  1.00  0.00    -0.394 OA
ATOM     37  H   UNL     1      -7.280  10.262  10.934  1.00  0.00     0.210 HD
ENDBRANCH  35  36
ENDBRANCH  29  35
BRANCH  30  38
ATOM     38  O   UNL     1      -4.724   9.699  10.657  1.00  0.00    -0.387 OA
ATOM     39  H   UNL     1      -4.138   9.045  10.193  1.00  0.00     0.211 HD
ENDBRANCH  30  38
ENDBRANCH   1  25
TORSDOF 11
ENDMDL
MODEL 7
REMARK VINA RESULT:    -5.453      2.148      6.451
REMARK INTER + INTRA:          -9.684
REMARK INTER:                  -9.738
REMARK INTRA:                   0.054
REMARK UNBOUND:                -1.839
REMARK SMILES O=c1c(O[C@@H]2O[C@@H](CO)[C@H](O)[C@H](O)[C@@H]2O)c(-c2ccc(O)cc2)oc2cc(O)cc(O)c12
REMARK SMILES IDX 4 1 3 2 16 3 24 4 2 5 25 6 1 7 32 8 26 9 30 10 27 11 29 12
REMARK SMILES IDX 17 13 18 14 19 15 20 16 23 17 22 18 21 19 31 21 28 23 5 25
REMARK SMILES IDX 14 26 6 27 12 28 7 29 10 30 15 31 13 33 8 35 9 36 11 38
REMARK H PARENT 21 20 31 22 28 24 15 32 13 34 9 37 11 39
REMARK Flexibility Score: inf
ROOT
ATOM      1  O   UNL     1      -4.925   6.504  14.017  1.00  0.00    -0.454 OA
ENDROOT
BRANCH   1   2
ATOM      2  C   UNL     1      -4.249   7.381  13.159  1.00  0.00     0.214 A 
ATOM      3  C   UNL     1      -4.775   7.748  11.902  1.00  0.00     0.180 A 
ATOM      4  O   UNL     1      -4.055   8.511  11.084  1.00  0.00    -0.452 OA
ATOM      5  C   UNL     1      -3.012   7.902  13.553  1.00  0.00     0.239 A 
ATOM      6  C   UNL     1      -2.861   8.997  11.403  1.00  0.00     0.146 A 
ATOM      7  O   UNL     1      -2.557   7.610  14.692  1.00  0.00    -0.285 OA
ATOM      8  C   UNL     1      -2.287   8.724  12.668  1.00  0.00     0.111 A 
ATOM      9  C   UNL     1      -2.179   9.793  10.477  1.00  0.00     0.094 A 
ATOM     10  C   UNL     1      -1.020   9.270  12.982  1.00  0.00     0.134 A 
ATOM     11  C   UNL     1      -0.927  10.329  10.793  1.00  0.00     0.123 A 
ATOM     12  C   UNL     1      -0.353  10.068  12.040  1.00  0.00     0.093 A 
BRANCH   3  13
ATOM     13  C   UNL     1      -6.121   7.329  11.458  1.00  0.00     0.021 A 
ATOM     14  C   UNL     1      -7.272   8.015  11.885  1.00  0.00     0.016 A 
ATOM     15  C   UNL     1      -8.536   7.612  11.448  1.00  0.00     0.047 A 
ATOM     16  C   UNL     1      -8.666   6.532  10.569  1.00  0.00     0.115 A 
ATOM     17  C   UNL     1      -6.255   6.260  10.557  1.00  0.00     0.016 A 
ATOM     18  C   UNL     1      -7.521   5.859  10.121  1.00  0.00     0.047 A 
BRANCH  16  19
ATOM     19  O   UNL     1      -9.934   6.139  10.145  1.00  0.00    -0.508 OA
ATOM     20  H   UNL     1     -10.753   6.707  10.330  1.00  0.00     0.293 HD
ENDBRANCH  16  19
ENDBRANCH   3  13
BRANCH  10  21
ATOM     21  O   UNL     1      -0.419   9.028  14.218  1.00  0.00    -0.507 OA
ATOM     22  H   UNL     1      -0.279   8.087  14.567  1.00  0.00     0.293 HD
ENDBRANCH  10  21
BRANCH  11  23
ATOM     23  O   UNL     1      -0.243  11.123   9.875  1.00  0.00    -0.508 OA
ATOM     24  H   UNL     1      -0.672  11.416   9.004  1.00  0.00     0.293 HD
ENDBRANCH  11  23
ENDBRANCH   1   2
BRANCH   1  25
ATOM     25  C   UNL     1      -4.952   6.672  15.440  1.00  0.00     0.339 C 
ATOM     26  C   UNL     1      -6.320   6.260  16.021  1.00  0.00     0.214 C 
ATOM     27  O   UNL     1      -3.900   5.947  16.055  1.00  0.00    -0.332 OA
ATOM     28  C   UNL     1      -6.533   4.743  15.887  1.00  0.00     0.180 C 
ATOM     29  C   UNL     1      -4.009   4.552  15.814  1.00  0.00     0.179 C 
ATOM     30  C   UNL     1      -5.309   3.994  16.445  1.00  0.00     0.177 C 
BRANCH  26  31
ATOM     31  O   UNL     1      -7.360   6.951  15.377  1.00  0.00    -0.384 OA
ATOM     32  H   UNL     1      -6.991   7.291  14.521  1.00  0.00     0.211 HD
ENDBRANCH  26  31
BRANCH  28  33
ATOM     33  O   UNL     1      -6.732   4.386  14.540  1.00  0.00    -0.387 OA
ATOM     34  H   UNL     1      -6.026   3.729  14.307  1.00  0.00     0.211 HD
ENDBRANCH  28  33
BRANCH  29  35
ATOM     35  C   UNL     1      -2.761   3.878  16.409  1.00  0.00     0.191 C 
BRANCH  35  36
ATOM     36  O   UNL     1      -2.253   2.895  15.548  1.00  0.00    -0.394 OA
ATOM     37  H   UNL     1      -2.888   2.825  14.788  1.00  0.00     0.210 HD
ENDBRANCH  35  36
ENDBRANCH  29  35
BRANCH  30  38
ATOM     38  O   UNL     1      -5.429   2.621  16.174  1.00  0.00    -0.387 OA
ATOM     39  H   UNL     1      -4.853   2.148  16.831  1.00  0.00     0.211 HD
ENDBRANCH  30  38
ENDBRANCH   1  25
TORSDOF 11
ENDMDL
MODEL 8
REMARK VINA RESULT:    -5.123      2.085      6.632
REMARK INTER + INTRA:          -9.209
REMARK INTER:                  -8.676
REMARK INTRA:                  -0.533
REMARK UNBOUND:                -1.839
REMARK SMILES O=c1c(O[C@@H]2O[C@@H](CO)[C@H](O)[C@H](O)[C@@H]2O)c(-c2ccc(O)cc2)oc2cc(O)cc(O)c12
REMARK SMILES IDX 4 1 3 2 16 3 24 4 2 5 25 6 1 7 32 8 26 9 30 10 27 11 29 12
REMARK SMILES IDX 17 13 18 14 19 15 20 16 23 17 22 18 21 19 31 21 28 23 5 25
REMARK SMILES IDX 14 26 6 27 12 28 7 29 10 30 15 31 13 33 8 35 9 36 11 38
REMARK H PARENT 21 20 31 22 28 24 15 32 13 34 9 37 11 39
REMARK Flexibility Score: inf
ROOT
ATOM      1  O   UNL     1      -5.066   6.292  13.558  1.00  0.00    -0.454 OA
ENDROOT
BRANCH   1   2
ATOM      2  C   UNL     1      -5.814   7.250  12.861  1.00  0.00     0.214 A 
ATOM      3  C   UNL     1      -5.350   8.570  12.676  1.00  0.00     0.180 A 
ATOM      4  O   UNL     1      -6.134   9.467  12.086  1.00  0.00    -0.452 OA
ATOM      5  C   UNL     1      -7.062   6.893  12.339  1.00  0.00     0.239 A 
ATOM      6  C   UNL     1      -7.341   9.180  11.610  1.00  0.00     0.146 A 
ATOM      7  O   UNL     1      -7.463   5.704  12.466  1.00  0.00    -0.285 OA
ATOM      8  C   UNL     1      -7.857   7.866  11.702  1.00  0.00     0.111 A 
ATOM      9  C   UNL     1      -8.092  10.192  11.004  1.00  0.00     0.094 A 
ATOM     10  C   UNL     1      -9.139   7.590  11.170  1.00  0.00     0.134 A 
ATOM     11  C   UNL     1      -9.359   9.913  10.481  1.00  0.00     0.123 A 
ATOM     12  C   UNL     1      -9.877   8.618  10.564  1.00  0.00     0.093 A 
BRANCH   3  13
ATOM     13  C   UNL     1      -4.000   8.997  13.101  1.00  0.00     0.021 A 
ATOM     14  C   UNL     1      -2.849   8.512  12.453  1.00  0.00     0.016 A 
ATOM     15  C   UNL     1      -1.581   8.933  12.860  1.00  0.00     0.047 A 
ATOM     16  C   UNL     1      -1.446   9.853  13.905  1.00  0.00     0.115 A 
ATOM     17  C   UNL     1      -3.861   9.937  14.133  1.00  0.00     0.016 A 
ATOM     18  C   UNL     1      -2.590  10.358  14.538  1.00  0.00     0.047 A 
BRANCH  16  19
ATOM     19  O   UNL     1      -0.174  10.261  14.301  1.00  0.00    -0.508 OA
ATOM     20  H   UNL     1      -0.043  10.920  15.060  1.00  0.00     0.293 HD
ENDBRANCH  16  19
ENDBRANCH   3  13
BRANCH  10  21
ATOM     21  O   UNL     1      -9.685   6.307  11.239  1.00  0.00    -0.507 OA
ATOM     22  H   UNL     1      -9.319   5.605  11.871  1.00  0.00     0.293 HD
ENDBRANCH  10  21
BRANCH  11  23
ATOM     23  O   UNL     1     -10.112  10.916   9.875  1.00  0.00    -0.508 OA
ATOM     24  H   UNL     1      -9.686  11.778   9.552  1.00  0.00     0.293 HD
ENDBRANCH  11  23
ENDBRANCH   1   2
BRANCH   1  25
ATOM     25  C   UNL     1      -5.665   5.202  14.269  1.00  0.00     0.339 C 
ATOM     26  C   UNL     1      -4.674   4.030  14.422  1.00  0.00     0.214 C 
ATOM     27  O   UNL     1      -6.149   5.626  15.532  1.00  0.00    -0.332 OA
ATOM     28  C   UNL     1      -3.520   4.414  15.365  1.00  0.00     0.180 C 
ATOM     29  C   UNL     1      -5.107   6.118  16.360  1.00  0.00     0.179 C 
ATOM     30  C   UNL     1      -4.088   4.994  16.673  1.00  0.00     0.177 C 
BRANCH  26  31
ATOM     31  O   UNL     1      -4.165   3.643  13.172  1.00  0.00    -0.384 OA
ATOM     32  H   UNL     1      -3.184   3.545  13.279  1.00  0.00     0.211 HD
ENDBRANCH  26  31
BRANCH  28  33
ATOM     33  O   UNL     1      -2.674   5.358  14.756  1.00  0.00    -0.387 OA
ATOM     34  H   UNL     1      -1.804   5.318  15.231  1.00  0.00     0.211 HD
ENDBRANCH  28  33
BRANCH  29  35
ATOM     35  C   UNL     1      -5.751   6.667  17.643  1.00  0.00     0.191 C 
BRANCH  35  36
ATOM     36  O   UNL     1      -6.011   5.640  18.563  1.00  0.00    -0.394 OA
ATOM     37  H   UNL     1      -6.946   5.765  18.872  1.00  0.00     0.210 HD
ENDBRANCH  35  36
ENDBRANCH  29  35
BRANCH  30  38
ATOM     38  O   UNL     1      -3.040   5.495  17.463  1.00  0.00    -0.387 OA
ATOM     39  H   UNL     1      -3.451   6.104  18.132  1.00  0.00     0.211 HD
ENDBRANCH  30  38
ENDBRANCH   1  25
TORSDOF 11
ENDMDL
