MODEL 1
REMARK VINA RESULT:    25.366      0.000      0.000
REMARK INTER + INTRA:          36.708
REMARK INTER:                  37.230
REMARK INTRA:                  -0.522
REMARK UNBOUND:                -0.522
REMARK SMILES Cc1cc2c(C(C)C)c(O)c(O)c(C=O)c2c(O)c1-c1c(C)cc2c(C(C)C)c(O)c(O)c(C=O)c2c1O
REMARK SMILES IDX 1 1 2 2 3 3 4 4 16 5 13 6 11 7 9 8 5 9 17 10 19 11 20 12
REMARK SMILES IDX 37 13 21 14 36 15 23 16 22 17 24 18 33 19 25 20 31 21 29 22
REMARK SMILES IDX 38 23 34 25 35 26 26 27 27 28 28 29 32 30 30 32 18 34 6 36
REMARK SMILES IDX 7 37 8 38 14 39 15 40 10 41 12 43
REMARK H PARENT 38 24 32 31 30 33 18 35 10 42 12 44
REMARK Flexibility Score: inf
ROOT
ATOM      1  C   UNL     1       3.737 -35.159  21.717  1.00  0.00     0.045 C 
ATOM      2  C   UNL     1       4.061 -36.535  22.242  1.00  0.00    -0.039 A 
ATOM      3  C   UNL     1       4.390 -36.693  23.589  1.00  0.00     0.013 A 
ATOM      4  C   UNL     1       4.679 -37.959  24.146  1.00  0.00    -0.006 A 
ATOM      5  C   UNL     1       4.713 -39.095  23.283  1.00  0.00     0.039 A 
ATOM      6  C   UNL     1       5.027 -40.371  23.836  1.00  0.00     0.072 A 
ATOM      7  C   UNL     1       5.467 -40.470  25.168  1.00  0.00     0.169 A 
ATOM      8  C   UNL     1       5.522 -39.327  25.985  1.00  0.00     0.162 A 
ATOM      9  C   UNL     1       4.978 -38.104  25.536  1.00  0.00     0.008 A 
ATOM     10  C   UNL     1       4.479 -38.912  21.887  1.00  0.00     0.132 A 
ATOM     11  C   UNL     1       4.113 -37.645  21.384  1.00  0.00     0.031 A 
ENDROOT
BRANCH  11  12
ATOM     12  C   UNL     1       3.826 -37.470  19.936  1.00  0.00     0.031 A 
ATOM     13  C   UNL     1       2.573 -37.849  19.408  1.00  0.00     0.132 A 
ATOM     14  C   UNL     1       4.799 -36.901  19.099  1.00  0.00    -0.039 A 
ATOM     15  C   UNL     1       2.304 -37.717  18.010  1.00  0.00     0.039 A 
ATOM     16  C   UNL     1       4.539 -36.760  17.736  1.00  0.00     0.013 A 
ATOM     17  C   UNL     1       6.123 -36.435  19.655  1.00  0.00     0.045 C 
ATOM     18  C   UNL     1       3.332 -37.209  17.155  1.00  0.00    -0.006 A 
ATOM     19  C   UNL     1       1.033 -38.035  17.442  1.00  0.00     0.072 A 
ATOM     20  C   UNL     1       3.119 -37.124  15.745  1.00  0.00     0.008 A 
ATOM     21  C   UNL     1       0.792 -37.793  16.075  1.00  0.00     0.169 A 
ATOM     22  C   UNL     1       1.812 -37.312  15.248  1.00  0.00     0.162 A 
BRANCH  13  23
ATOM     23  O   UNL     1       1.592 -38.341  20.276  1.00  0.00    -0.507 OA
ATOM     24  H   UNL     1       1.592 -39.277  20.661  1.00  0.00     0.293 HD
ENDBRANCH  13  23
BRANCH  19  25
ATOM     25  C   UNL     1      -0.066 -38.599  18.252  1.00  0.00     0.264 C 
ATOM     26  O   UNL     1      -0.824 -37.842  18.916  1.00  0.00    -0.298 OA
ENDBRANCH  19  25
BRANCH  20  27
ATOM     27  C   UNL     1       4.269 -36.822  14.766  1.00  0.00     0.017 C 
ATOM     28  C   UNL     1       3.927 -35.623  13.875  1.00  0.00     0.012 C 
ATOM     29  C   UNL     1       4.706 -38.037  13.926  1.00  0.00     0.012 C 
ENDBRANCH  20  27
BRANCH  21  30
ATOM     30  O   UNL     1      -0.455 -38.054  15.492  1.00  0.00    -0.504 OA
ATOM     31  H   UNL     1      -0.578 -38.479  14.583  1.00  0.00     0.293 HD
ENDBRANCH  21  30
BRANCH  22  32
ATOM     32  O   UNL     1       1.525 -37.019  13.912  1.00  0.00    -0.504 OA
ATOM     33  H   UNL     1       1.092 -37.682  13.281  1.00  0.00     0.293 HD
ENDBRANCH  22  32
ENDBRANCH  11  12
BRANCH  10  34
ATOM     34  O   UNL     1       4.659 -39.974  20.993  1.00  0.00    -0.507 OA
ATOM     35  H   UNL     1       3.913 -40.391  20.452  1.00  0.00     0.293 HD
ENDBRANCH  10  34
BRANCH   9  36
ATOM     36  C   UNL     1       4.771 -36.952  26.537  1.00  0.00     0.017 C 
ATOM     37  C   UNL     1       3.282 -36.726  26.812  1.00  0.00     0.012 C 
ATOM     38  C   UNL     1       5.471 -35.640  26.131  1.00  0.00     0.012 C 
ENDBRANCH   9  36
BRANCH   6  39
ATOM     39  C   UNL     1       4.825 -41.630  23.079  1.00  0.00     0.264 C 
ATOM     40  O   UNL     1       5.719 -42.078  22.312  1.00  0.00    -0.298 OA
ENDBRANCH   6  39
BRANCH   8  41
ATOM     41  O   UNL     1       6.125 -39.384  27.245  1.00  0.00    -0.504 OA
ATOM     42  H   UNL     1       5.637 -39.624  28.097  1.00  0.00     0.293 HD
ENDBRANCH   8  41
BRANCH   7  43
ATOM     43  O   UNL     1       5.799 -41.733  25.676  1.00  0.00    -0.504 OA
ATOM     44  H   UNL     1       5.740 -42.590  25.146  1.00  0.00     0.293 HD
ENDBRANCH   7  43
TORSDOF 11
ENDMDL
MODEL 2
REMARK VINA RESULT:    25.406      1.856      9.128
REMARK INTER + INTRA:          36.766
REMARK INTER:                  36.559
REMARK INTRA:                   0.207
REMARK UNBOUND:                -0.522
REMARK SMILES Cc1cc2c(C(C)C)c(O)c(O)c(C=O)c2c(O)c1-c1c(C)cc2c(C(C)C)c(O)c(O)c(C=O)c2c1O
REMARK SMILES IDX 1 1 2 2 3 3 4 4 16 5 13 6 11 7 9 8 5 9 17 10 19 11 20 12
REMARK SMILES IDX 37 13 21 14 36 15 23 16 22 17 24 18 33 19 25 20 31 21 29 22
REMARK SMILES IDX 38 23 34 25 35 26 26 27 27 28 28 29 32 30 30 32 18 34 6 36
REMARK SMILES IDX 7 37 8 38 14 39 15 40 10 41 12 43
REMARK H PARENT 38 24 32 31 30 33 18 35 10 42 12 44
REMARK Flexibility Score: inf
ROOT
ATOM      1  C   UNL     1       6.124 -38.597  19.008  1.00  0.00     0.045 C 
ATOM      2  C   UNL     1       4.690 -38.291  18.651  1.00  0.00    -0.039 A 
ATOM      3  C   UNL     1       4.333 -38.159  17.309  1.00  0.00     0.013 A 
ATOM      4  C   UNL     1       3.002 -37.898  16.910  1.00  0.00    -0.006 A 
ATOM      5  C   UNL     1       2.015 -37.683  17.919  1.00  0.00     0.039 A 
ATOM      6  C   UNL     1       0.676 -37.396  17.522  1.00  0.00     0.072 A 
ATOM      7  C   UNL     1       0.382 -37.154  16.168  1.00  0.00     0.169 A 
ATOM      8  C   UNL     1       1.384 -37.275  15.190  1.00  0.00     0.162 A 
ATOM      9  C   UNL     1       2.650 -37.803  15.528  1.00  0.00     0.008 A 
ATOM     10  C   UNL     1       2.408 -37.715  19.291  1.00  0.00     0.132 A 
ATOM     11  C   UNL     1       3.729 -38.061  19.648  1.00  0.00     0.031 A 
ENDROOT
BRANCH  11  12
ATOM     12  C   UNL     1       4.120 -38.137  21.080  1.00  0.00     0.031 A 
ATOM     13  C   UNL     1       4.593 -36.988  21.750  1.00  0.00     0.132 A 
ATOM     14  C   UNL     1       3.991 -39.352  21.771  1.00  0.00    -0.039 A 
ATOM     15  C   UNL     1       5.004 -37.064  23.117  1.00  0.00     0.039 A 
ATOM     16  C   UNL     1       4.381 -39.429  23.108  1.00  0.00     0.013 A 
ATOM     17  C   UNL     1       3.431 -40.577  21.089  1.00  0.00     0.045 C 
ATOM     18  C   UNL     1       4.943 -38.326  23.788  1.00  0.00    -0.006 A 
ATOM     19  C   UNL     1       5.436 -35.917  23.850  1.00  0.00     0.072 A 
ATOM     20  C   UNL     1       5.405 -38.448  25.134  1.00  0.00     0.008 A 
ATOM     21  C   UNL     1       5.737 -36.029  25.222  1.00  0.00     0.169 A 
ATOM     22  C   UNL     1       5.688 -37.273  25.860  1.00  0.00     0.162 A 
BRANCH  13  23
ATOM     23  O   UNL     1       4.638 -35.772  21.061  1.00  0.00    -0.507 OA
ATOM     24  H   UNL     1       4.881 -35.683  20.083  1.00  0.00     0.293 HD
ENDBRANCH  13  23
BRANCH  19  25
ATOM     25  C   UNL     1       5.563 -34.587  23.219  1.00  0.00     0.264 C 
ATOM     26  O   UNL     1       6.034 -33.614  23.867  1.00  0.00    -0.298 OA
ENDBRANCH  19  25
BRANCH  20  27
ATOM     27  C   UNL     1       5.589 -39.821  25.808  1.00  0.00     0.017 C 
ATOM     28  C   UNL     1       5.578 -40.946  24.768  1.00  0.00     0.012 C 
ATOM     29  C   UNL     1       4.584 -40.097  26.942  1.00  0.00     0.012 C 
ENDBRANCH  20  27
BRANCH  21  30
ATOM     30  O   UNL     1       6.123 -34.918  25.983  1.00  0.00    -0.504 OA
ATOM     31  H   UNL     1       6.408 -34.033  25.588  1.00  0.00     0.293 HD
ENDBRANCH  21  30
BRANCH  22  32
ATOM     32  O   UNL     1       5.926 -37.343  27.235  1.00  0.00    -0.504 OA
ATOM     33  H   UNL     1       5.231 -37.655  27.903  1.00  0.00     0.293 HD
ENDBRANCH  22  32
ENDBRANCH  11  12
BRANCH  10  34
ATOM     34  O   UNL     1       1.502 -37.356  20.295  1.00  0.00    -0.507 OA
ATOM     35  H   UNL     1       1.765 -37.165  21.253  1.00  0.00     0.293 HD
ENDBRANCH  10  34
BRANCH   9  36
ATOM     36  C   UNL     1       3.627 -38.209  14.410  1.00  0.00     0.017 C 
ATOM     37  C   UNL     1       4.229 -39.590  14.683  1.00  0.00     0.012 C 
ATOM     38  C   UNL     1       4.727 -37.165  14.133  1.00  0.00     0.012 C 
ENDBRANCH   9  36
BRANCH   6  39
ATOM     39  C   UNL     1      -0.454 -37.424  18.481  1.00  0.00     0.264 C 
ATOM     40  O   UNL     1      -0.920 -38.515  18.907  1.00  0.00    -0.298 OA
ENDBRANCH   6  39
BRANCH   8  41
ATOM     41  O   UNL     1       1.146 -36.864  13.875  1.00  0.00    -0.504 OA
ATOM     42  H   UNL     1       1.229 -37.468  13.068  1.00  0.00     0.293 HD
ENDBRANCH   8  41
BRANCH   7  43
ATOM     43  O   UNL     1      -0.937 -36.844  15.811  1.00  0.00    -0.504 OA
ATOM     44  H   UNL     1      -1.617 -36.448  16.443  1.00  0.00     0.293 HD
ENDBRANCH   7  43
TORSDOF 11
ENDMDL
