MODEL 1
REMARK VINA RESULT:    -2.668      0.000      0.000
REMARK INTER + INTRA:          -2.902
REMARK INTER:                  -2.902
REMARK INTRA:                   0.000
REMARK UNBOUND:                 0.000
REMARK SMILES [NH3+]CC(=O)[O-]
REMARK SMILES IDX 2 1 1 2 3 6 4 7 5 8
REMARK H PARENT 1 3 1 4 1 5
REMARK Flexibility Score: inf
ROOT
ATOM      1  C   UNL     1      22.694  15.293  43.169  1.00  0.00     0.312 C 
ENDROOT
BRANCH   1   2
ATOM      2  N   UNL     1      23.572  14.875  44.261  1.00  0.00    -0.353 N 
ATOM      3  H   UNL     1      23.821  15.699  44.855  1.00  0.00     0.344 HD
ATOM      4  H   UNL     1      24.448  14.470  43.859  1.00  0.00     0.344 HD
ATOM      5  H   UNL     1      23.097  14.148  44.844  1.00  0.00     0.344 HD
ENDBRANCH   1   2
BRANCH   1   6
ATOM      6  C   UNL     1      22.654  16.786  43.065  1.00  0.00     0.096 C 
ATOM      7  O   UNL     1      22.997  17.355  41.995  1.00  0.00    -0.544 OA
ATOM      8  O   UNL     1      22.286  17.550  44.165  1.00  0.00    -0.544 OA
ENDBRANCH   1   6
TORSDOF 2
ENDMDL
MODEL 2
REMARK VINA RESULT:    -2.412      2.182      2.622
REMARK INTER + INTRA:          -2.623
REMARK INTER:                  -2.623
REMARK INTRA:                   0.000
REMARK UNBOUND:                 0.000
REMARK SMILES [NH3+]CC(=O)[O-]
REMARK SMILES IDX 2 1 1 2 3 6 4 7 5 8
REMARK H PARENT 1 3 1 4 1 5
REMARK Flexibility Score: inf
ROOT
ATOM      1  C   UNL     1      22.980  17.635  41.832  1.00  0.00     0.312 C 
ENDROOT
BRANCH   1   2
ATOM      2  N   UNL     1      23.063  16.729  40.687  1.00  0.00    -0.353 N 
ATOM      3  H   UNL     1      22.152  16.233  40.556  1.00  0.00     0.344 HD
ATOM      4  H   UNL     1      23.811  16.021  40.864  1.00  0.00     0.344 HD
ATOM      5  H   UNL     1      23.302  17.266  39.822  1.00  0.00     0.344 HD
ENDBRANCH   1   2
BRANCH   1   6
ATOM      6  C   UNL     1      22.599  16.886  43.071  1.00  0.00     0.096 C 
ATOM      7  O   UNL     1      22.305  17.513  44.123  1.00  0.00    -0.544 OA
ATOM      8  O   UNL     1      22.616  15.498  43.078  1.00  0.00    -0.544 OA
ENDBRANCH   1   6
TORSDOF 2
ENDMDL
MODEL 3
REMARK VINA RESULT:    -2.362      7.731      8.154
REMARK INTER + INTRA:          -2.569
REMARK INTER:                  -2.569
REMARK INTRA:                   0.000
REMARK UNBOUND:                 0.000
REMARK SMILES [NH3+]CC(=O)[O-]
REMARK SMILES IDX 2 1 1 2 3 6 4 7 5 8
REMARK H PARENT 1 3 1 4 1 5
REMARK Flexibility Score: inf
ROOT
ATOM      1  C   UNL     1      14.682  17.115  46.288  1.00  0.00     0.312 C 
ENDROOT
BRANCH   1   2
ATOM      2  N   UNL     1      15.234  15.969  45.567  1.00  0.00    -0.353 N 
ATOM      3  H   UNL     1      15.880  16.298  44.813  1.00  0.00     0.344 HD
ATOM      4  H   UNL     1      14.452  15.429  45.131  1.00  0.00     0.344 HD
ATOM      5  H   UNL     1      15.750  15.345  46.229  1.00  0.00     0.344 HD
ENDBRANCH   1   2
BRANCH   1   6
ATOM      6  C   UNL     1      15.760  18.097  46.623  1.00  0.00     0.096 C 
ATOM      7  O   UNL     1      15.720  18.733  47.710  1.00  0.00    -0.544 OA
ATOM      8  O   UNL     1      16.780  18.348  45.716  1.00  0.00    -0.544 OA
ENDBRANCH   1   6
TORSDOF 2
ENDMDL
MODEL 4
REMARK VINA RESULT:    -2.362      1.698      2.245
REMARK INTER + INTRA:          -2.569
REMARK INTER:                  -2.569
REMARK INTRA:                   0.000
REMARK UNBOUND:                 0.000
REMARK SMILES [NH3+]CC(=O)[O-]
REMARK SMILES IDX 2 1 1 2 3 6 4 7 5 8
REMARK H PARENT 1 3 1 4 1 5
REMARK Flexibility Score: inf
ROOT
ATOM      1  C   UNL     1      22.694  17.586  44.199  1.00  0.00     0.312 C 
ENDROOT
BRANCH   1   2
ATOM      2  N   UNL     1      23.842  17.336  45.070  1.00  0.00    -0.353 N 
ATOM      3  H   UNL     1      24.373  18.223  45.226  1.00  0.00     0.344 HD
ATOM      4  H   UNL     1      24.473  16.639  44.613  1.00  0.00     0.344 HD
ATOM      5  H   UNL     1      23.518  16.950  45.987  1.00  0.00     0.344 HD
ENDBRANCH   1   2
BRANCH   1   6
ATOM      6  C   UNL     1      22.683  16.623  43.052  1.00  0.00     0.096 C 
ATOM      7  O   UNL     1      22.522  15.392  43.262  1.00  0.00    -0.544 OA
ATOM      8  O   UNL     1      22.900  17.079  41.759  1.00  0.00    -0.544 OA
ENDBRANCH   1   6
TORSDOF 2
ENDMDL
MODEL 5
REMARK VINA RESULT:    -2.325     20.392     20.811
REMARK INTER + INTRA:          -2.529
REMARK INTER:                  -2.529
REMARK INTRA:                   0.000
REMARK UNBOUND:                 0.000
REMARK SMILES [NH3+]CC(=O)[O-]
REMARK SMILES IDX 2 1 1 2 3 6 4 7 5 8
REMARK H PARENT 1 3 1 4 1 5
REMARK Flexibility Score: inf
ROOT
ATOM      1  C   UNL     1      21.074  30.645  59.346  1.00  0.00     0.312 C 
ENDROOT
BRANCH   1   2
ATOM      2  N   UNL     1      21.381  32.068  59.487  1.00  0.00    -0.353 N 
ATOM      3  H   UNL     1      20.495  32.623  59.524  1.00  0.00     0.344 HD
ATOM      4  H   UNL     1      21.942  32.381  58.662  1.00  0.00     0.344 HD
ATOM      5  H   UNL     1      21.937  32.229  60.358  1.00  0.00     0.344 HD
ENDBRANCH   1   2
BRANCH   1   6
ATOM      6  C   UNL     1      21.505  30.144  58.003  1.00  0.00     0.096 C 
ATOM      7  O   UNL     1      20.728  29.428  57.316  1.00  0.00    -0.544 OA
ATOM      8  O   UNL     1      22.780  30.424  57.531  1.00  0.00    -0.544 OA
ENDBRANCH   1   6
TORSDOF 2
ENDMDL
MODEL 6
REMARK VINA RESULT:    -2.323     20.297     20.731
REMARK INTER + INTRA:          -2.527
REMARK INTER:                  -2.527
REMARK INTRA:                   0.000
REMARK UNBOUND:                 0.000
REMARK SMILES [NH3+]CC(=O)[O-]
REMARK SMILES IDX 2 1 1 2 3 6 4 7 5 8
REMARK H PARENT 1 3 1 4 1 5
REMARK Flexibility Score: inf
ROOT
ATOM      1  C   UNL     1      21.104  30.588  59.249  1.00  0.00     0.312 C 
ENDROOT
BRANCH   1   2
ATOM      2  N   UNL     1      21.407  31.998  59.490  1.00  0.00    -0.353 N 
ATOM      3  H   UNL     1      20.639  32.439  60.046  1.00  0.00     0.344 HD
ATOM      4  H   UNL     1      21.486  32.492  58.572  1.00  0.00     0.344 HD
ATOM      5  H   UNL     1      22.313  32.087  60.004  1.00  0.00     0.344 HD
ENDBRANCH   1   2
BRANCH   1   6
ATOM      6  C   UNL     1      21.598  30.165  57.900  1.00  0.00     0.096 C 
ATOM      7  O   UNL     1      22.784  30.410  57.556  1.00  0.00    -0.544 OA
ATOM      8  O   UNL     1      20.735  29.546  57.006  1.00  0.00    -0.544 OA
ENDBRANCH   1   6
TORSDOF 2
ENDMDL
MODEL 7
REMARK VINA RESULT:    -2.239     20.737     21.219
REMARK INTER + INTRA:          -2.436
REMARK INTER:                  -2.436
REMARK INTRA:                   0.000
REMARK UNBOUND:                 0.000
REMARK SMILES [NH3+]CC(=O)[O-]
REMARK SMILES IDX 2 1 1 2 3 6 4 7 5 8
REMARK H PARENT 1 3 1 4 1 5
REMARK Flexibility Score: inf
ROOT
ATOM      1  C   UNL     1      27.800  33.921  53.818  1.00  0.00     0.312 C 
ENDROOT
BRANCH   1   2
ATOM      2  N   UNL     1      28.407  35.125  54.383  1.00  0.00    -0.353 N 
ATOM      3  H   UNL     1      27.821  35.485  55.171  1.00  0.00     0.344 HD
ATOM      4  H   UNL     1      28.465  35.860  53.641  1.00  0.00     0.344 HD
ATOM      5  H   UNL     1      29.372  34.912  54.726  1.00  0.00     0.344 HD
ENDBRANCH   1   2
BRANCH   1   6
ATOM      6  C   UNL     1      26.315  34.080  53.708  1.00  0.00     0.096 C 
ATOM      7  O   UNL     1      25.757  35.124  54.140  1.00  0.00    -0.544 OA
ATOM      8  O   UNL     1      25.543  33.057  53.174  1.00  0.00    -0.544 OA
ENDBRANCH   1   6
TORSDOF 2
ENDMDL
MODEL 8
REMARK VINA RESULT:    -2.155      2.969      3.250
REMARK INTER + INTRA:          -2.344
REMARK INTER:                  -2.344
REMARK INTRA:                   0.000
REMARK UNBOUND:                 0.000
REMARK SMILES [NH3+]CC(=O)[O-]
REMARK SMILES IDX 2 1 1 2 3 6 4 7 5 8
REMARK H PARENT 1 3 1 4 1 5
REMARK Flexibility Score: inf
ROOT
ATOM      1  C   UNL     1      23.315  17.676  39.875  1.00  0.00     0.312 C 
ENDROOT
BRANCH   1   2
ATOM      2  N   UNL     1      22.986  16.254  39.963  1.00  0.00    -0.353 N 
ATOM      3  H   UNL     1      23.600  15.704  39.320  1.00  0.00     0.344 HD
ATOM      4  H   UNL     1      21.989  16.116  39.679  1.00  0.00     0.344 HD
ATOM      5  H   UNL     1      23.108  15.918  40.945  1.00  0.00     0.344 HD
ENDBRANCH   1   2
BRANCH   1   6
ATOM      6  C   UNL     1      23.163  18.336  41.210  1.00  0.00     0.096 C 
ATOM      7  O   UNL     1      23.531  19.531  41.370  1.00  0.00    -0.544 OA
ATOM      8  O   UNL     1      22.663  17.619  42.288  1.00  0.00    -0.544 OA
ENDBRANCH   1   6
TORSDOF 2
ENDMDL
MODEL 9
REMARK VINA RESULT:    -2.106      1.569      2.163
REMARK INTER + INTRA:          -2.291
REMARK INTER:                  -2.291
REMARK INTRA:                   0.000
REMARK UNBOUND:                 0.000
REMARK SMILES [NH3+]CC(=O)[O-]
REMARK SMILES IDX 2 1 1 2 3 6 4 7 5 8
REMARK H PARENT 1 3 1 4 1 5
REMARK Flexibility Score: inf
ROOT
ATOM      1  C   UNL     1      22.689  16.701  43.098  1.00  0.00     0.312 C 
ENDROOT
BRANCH   1   2
ATOM      2  N   UNL     1      23.081  15.516  42.337  1.00  0.00    -0.353 N 
ATOM      3  H   UNL     1      23.308  15.781  41.351  1.00  0.00     0.344 HD
ATOM      4  H   UNL     1      22.287  14.836  42.329  1.00  0.00     0.344 HD
ATOM      5  H   UNL     1      23.912  15.062  42.783  1.00  0.00     0.344 HD
ENDBRANCH   1   2
BRANCH   1   6
ATOM      6  C   UNL     1      22.622  17.902  42.207  1.00  0.00     0.096 C 
ATOM      7  O   UNL     1      21.951  18.910  42.554  1.00  0.00    -0.544 OA
ATOM      8  O   UNL     1      23.257  17.889  40.972  1.00  0.00    -0.544 OA
ENDBRANCH   1   6
TORSDOF 2
ENDMDL
