MODEL 1
REMARK VINA RESULT:    -6.274      0.000      0.000
REMARK INTER + INTRA:          -6.274
REMARK INTER:                  -6.274
REMARK INTRA:                   0.000
REMARK UNBOUND:                 0.000
REMARK SMILES CC1=CC(=O)[C@H]2C[C@@H]1C2(C)C
REMARK SMILES IDX 1 1 2 2 3 3 4 4 5 5 6 6 7 7 8 8 9 9 10 10 11 11
REMARK H PARENT
REMARK Flexibility Score: inf
ROOT
ATOM      1  C   UNL     1      -8.239  71.003  29.989  1.00  0.00     0.040 C 
ATOM      2  C   UNL     1      -9.291  72.043  29.765  1.00  0.00    -0.066 C 
ATOM      3  C   UNL     1      -9.313  72.794  28.628  1.00  0.00     0.047 C 
ATOM      4  C   UNL     1     -10.399  73.823  28.536  1.00  0.00     0.159 C 
ATOM      5  O   UNL     1     -10.502  74.605  27.555  1.00  0.00    -0.295 OA
ATOM      6  C   UNL     1     -11.370  73.858  29.717  1.00  0.00     0.067 C 
ATOM      7  C   UNL     1     -11.712  72.374  29.969  1.00  0.00     0.021 C 
ATOM      8  C   UNL     1     -10.409  72.304  30.796  1.00  0.00     0.022 C 
ATOM      9  C   UNL     1     -10.547  73.835  31.036  1.00  0.00    -0.019 C 
ATOM     10  C   UNL     1      -9.247  74.686  31.111  1.00  0.00     0.012 C 
ATOM     11  C   UNL     1     -11.413  74.163  32.278  1.00  0.00     0.012 C 
ENDROOT
TORSDOF 0
ENDMDL
MODEL 2
REMARK VINA RESULT:    -6.165      1.868      3.095
REMARK INTER + INTRA:          -6.165
REMARK INTER:                  -6.165
REMARK INTRA:                   0.000
REMARK UNBOUND:                 0.000
REMARK SMILES CC1=CC(=O)[C@H]2C[C@@H]1C2(C)C
REMARK SMILES IDX 1 1 2 2 3 3 4 4 5 5 6 6 7 7 8 8 9 9 10 10 11 11
REMARK H PARENT
REMARK Flexibility Score: inf
ROOT
ATOM      1  C   UNL     1      -8.231  71.179  30.014  1.00  0.00     0.040 C 
ATOM      2  C   UNL     1      -9.339  72.149  30.279  1.00  0.00    -0.066 C 
ATOM      3  C   UNL     1     -10.040  72.121  31.447  1.00  0.00     0.047 C 
ATOM      4  C   UNL     1     -11.146  73.125  31.579  1.00  0.00     0.159 C 
ATOM      5  O   UNL     1     -11.891  73.175  32.592  1.00  0.00    -0.295 OA
ATOM      6  C   UNL     1     -11.307  74.082  30.396  1.00  0.00     0.067 C 
ATOM      7  C   UNL     1      -9.866  74.536  30.079  1.00  0.00     0.021 C 
ATOM      8  C   UNL     1      -9.730  73.235  29.255  1.00  0.00     0.022 C 
ATOM      9  C   UNL     1     -11.276  73.253  29.081  1.00  0.00    -0.019 C 
ATOM     10  C   UNL     1     -12.026  71.890  29.049  1.00  0.00     0.012 C 
ATOM     11  C   UNL     1     -11.722  74.081  27.850  1.00  0.00     0.012 C 
ENDROOT
TORSDOF 0
ENDMDL
MODEL 3
REMARK VINA RESULT:    -6.149      1.769      2.965
REMARK INTER + INTRA:          -6.149
REMARK INTER:                  -6.149
REMARK INTRA:                   0.000
REMARK UNBOUND:                 0.000
REMARK SMILES CC1=CC(=O)[C@H]2C[C@@H]1C2(C)C
REMARK SMILES IDX 1 1 2 2 3 3 4 4 5 5 6 6 7 7 8 8 9 9 10 10 11 11
REMARK H PARENT
REMARK Flexibility Score: inf
ROOT
ATOM      1  C   UNL     1     -12.683  73.509  28.075  1.00  0.00     0.040 C 
ATOM      2  C   UNL     1     -11.507  73.401  28.993  1.00  0.00    -0.066 C 
ATOM      3  C   UNL     1     -10.658  72.337  28.936  1.00  0.00     0.047 C 
ATOM      4  C   UNL     1      -9.536  72.332  29.930  1.00  0.00     0.159 C 
ATOM      5  O   UNL     1      -8.710  71.385  30.004  1.00  0.00    -0.295 OA
ATOM      6  C   UNL     1      -9.467  73.553  30.848  1.00  0.00     0.067 C 
ATOM      7  C   UNL     1      -9.670  74.752  29.896  1.00  0.00     0.021 C 
ATOM      8  C   UNL     1     -11.187  74.495  30.035  1.00  0.00     0.022 C 
ATOM      9  C   UNL     1     -10.890  73.830  31.410  1.00  0.00    -0.019 C 
ATOM     10  C   UNL     1     -11.763  72.617  31.843  1.00  0.00     0.012 C 
ATOM     11  C   UNL     1     -10.877  74.856  32.571  1.00  0.00     0.012 C 
ENDROOT
TORSDOF 0
ENDMDL
MODEL 4
REMARK VINA RESULT:    -6.013      1.649      3.143
REMARK INTER + INTRA:          -6.013
REMARK INTER:                  -6.013
REMARK INTRA:                   0.000
REMARK UNBOUND:                 0.000
REMARK SMILES CC1=CC(=O)[C@H]2C[C@@H]1C2(C)C
REMARK SMILES IDX 1 1 2 2 3 3 4 4 5 5 6 6 7 7 8 8 9 9 10 10 11 11
REMARK H PARENT
REMARK Flexibility Score: inf
ROOT
ATOM      1  C   UNL     1     -10.306  75.348  31.843  1.00  0.00     0.040 C 
ATOM      2  C   UNL     1     -10.348  74.216  30.866  1.00  0.00    -0.066 C 
ATOM      3  C   UNL     1      -9.281  73.385  30.698  1.00  0.00     0.047 C 
ATOM      4  C   UNL     1      -9.438  72.307  29.668  1.00  0.00     0.159 C 
ATOM      5  O   UNL     1      -8.511  71.502  29.392  1.00  0.00    -0.295 OA
ATOM      6  C   UNL     1     -10.800  72.257  28.974  1.00  0.00     0.067 C 
ATOM      7  C   UNL     1     -11.816  72.396  30.128  1.00  0.00     0.021 C 
ATOM      8  C   UNL     1     -11.603  73.922  30.017  1.00  0.00     0.022 C 
ATOM      9  C   UNL     1     -11.185  73.698  28.534  1.00  0.00    -0.019 C 
ATOM     10  C   UNL     1     -10.075  74.610  27.938  1.00  0.00     0.012 C 
ATOM     11  C   UNL     1     -12.398  73.716  27.570  1.00  0.00     0.012 C 
ENDROOT
TORSDOF 0
ENDMDL
MODEL 5
REMARK VINA RESULT:    -5.408      1.939      3.406
REMARK INTER + INTRA:          -5.408
REMARK INTER:                  -5.408
REMARK INTRA:                   0.000
REMARK UNBOUND:                 0.000
REMARK SMILES CC1=CC(=O)[C@H]2C[C@@H]1C2(C)C
REMARK SMILES IDX 1 1 2 2 3 3 4 4 5 5 6 6 7 7 8 8 9 9 10 10 11 11
REMARK H PARENT
REMARK Flexibility Score: inf
ROOT
ATOM      1  C   UNL     1     -10.642  71.476  32.622  1.00  0.00     0.040 C 
ATOM      2  C   UNL     1     -10.460  72.825  32.002  1.00  0.00    -0.066 C 
ATOM      3  C   UNL     1     -11.033  73.936  32.543  1.00  0.00     0.047 C 
ATOM      4  C   UNL     1     -10.801  75.224  31.811  1.00  0.00     0.159 C 
ATOM      5  O   UNL     1     -11.309  76.311  32.188  1.00  0.00    -0.295 OA
ATOM      6  C   UNL     1      -9.908  75.122  30.574  1.00  0.00     0.067 C 
ATOM      7  C   UNL     1      -8.717  74.256  31.038  1.00  0.00     0.021 C 
ATOM      8  C   UNL     1      -9.604  73.027  30.733  1.00  0.00     0.022 C 
ATOM      9  C   UNL     1     -10.383  73.913  29.718  1.00  0.00    -0.019 C 
ATOM     10  C   UNL     1     -11.912  73.676  29.558  1.00  0.00     0.012 C 
ATOM     11  C   UNL     1      -9.740  73.899  28.308  1.00  0.00     0.012 C 
ENDROOT
TORSDOF 0
ENDMDL
MODEL 6
REMARK VINA RESULT:    -5.381      1.250      3.177
REMARK INTER + INTRA:          -5.381
REMARK INTER:                  -5.381
REMARK INTRA:                   0.000
REMARK UNBOUND:                 0.000
REMARK SMILES CC1=CC(=O)[C@H]2C[C@@H]1C2(C)C
REMARK SMILES IDX 1 1 2 2 3 3 4 4 5 5 6 6 7 7 8 8 9 9 10 10 11 11
REMARK H PARENT
REMARK Flexibility Score: inf
ROOT
ATOM      1  C   UNL     1     -10.501  75.536  31.919  1.00  0.00     0.040 C 
ATOM      2  C   UNL     1     -10.518  74.593  30.758  1.00  0.00    -0.066 C 
ATOM      3  C   UNL     1     -11.636  74.426  29.998  1.00  0.00     0.047 C 
ATOM      4  C   UNL     1     -11.535  73.430  28.882  1.00  0.00     0.159 C 
ATOM      5  O   UNL     1     -12.510  73.158  28.135  1.00  0.00    -0.295 OA
ATOM      6  C   UNL     1     -10.167  72.767  28.718  1.00  0.00     0.067 C 
ATOM      7  C   UNL     1      -9.165  73.938  28.820  1.00  0.00     0.021 C 
ATOM      8  C   UNL     1      -9.270  73.779  30.354  1.00  0.00     0.022 C 
ATOM      9  C   UNL     1      -9.674  72.295  30.115  1.00  0.00    -0.019 C 
ATOM     10  C   UNL     1     -10.706  71.650  31.083  1.00  0.00     0.012 C 
ATOM     11  C   UNL     1      -8.444  71.357  30.022  1.00  0.00     0.012 C 
ENDROOT
TORSDOF 0
ENDMDL
MODEL 7
REMARK VINA RESULT:    -5.210      1.654      2.918
REMARK INTER + INTRA:          -5.210
REMARK INTER:                  -5.210
REMARK INTRA:                   0.000
REMARK UNBOUND:                 0.000
REMARK SMILES CC1=CC(=O)[C@H]2C[C@@H]1C2(C)C
REMARK SMILES IDX 1 1 2 2 3 3 4 4 5 5 6 6 7 7 8 8 9 9 10 10 11 11
REMARK H PARENT
REMARK Flexibility Score: inf
ROOT
ATOM      1  C   UNL     1     -12.233  73.334  28.493  1.00  0.00     0.040 C 
ATOM      2  C   UNL     1     -11.361  73.631  29.672  1.00  0.00    -0.066 C 
ATOM      3  C   UNL     1     -10.257  74.421  29.554  1.00  0.00     0.047 C 
ATOM      4  C   UNL     1      -9.449  74.619  30.802  1.00  0.00     0.159 C 
ATOM      5  O   UNL     1      -8.387  75.293  30.814  1.00  0.00    -0.295 OA
ATOM      6  C   UNL     1     -10.004  73.941  32.055  1.00  0.00     0.067 C 
ATOM      7  C   UNL     1     -11.510  74.279  32.032  1.00  0.00     0.021 C 
ATOM      8  C   UNL     1     -11.677  73.076  31.077  1.00  0.00     0.022 C 
ATOM      9  C   UNL     1     -10.383  72.476  31.700  1.00  0.00    -0.019 C 
ATOM     10  C   UNL     1      -9.428  71.669  30.774  1.00  0.00     0.012 C 
ATOM     11  C   UNL     1     -10.676  71.620  32.958  1.00  0.00     0.012 C 
ENDROOT
TORSDOF 0
ENDMDL
MODEL 8
REMARK VINA RESULT:    -5.174      1.668      3.251
REMARK INTER + INTRA:          -5.174
REMARK INTER:                  -5.174
REMARK INTRA:                   0.000
REMARK UNBOUND:                 0.000
REMARK SMILES CC1=CC(=O)[C@H]2C[C@@H]1C2(C)C
REMARK SMILES IDX 1 1 2 2 3 3 4 4 5 5 6 6 7 7 8 8 9 9 10 10 11 11
REMARK H PARENT
REMARK Flexibility Score: inf
ROOT
ATOM      1  C   UNL     1     -12.738  73.502  28.073  1.00  0.00     0.040 C 
ATOM      2  C   UNL     1     -11.821  73.462  29.254  1.00  0.00    -0.066 C 
ATOM      3  C   UNL     1     -11.651  74.551  30.056  1.00  0.00     0.047 C 
ATOM      4  C   UNL     1     -10.682  74.393  31.189  1.00  0.00     0.159 C 
ATOM      5  O   UNL     1     -10.408  75.337  31.974  1.00  0.00    -0.295 OA
ATOM      6  C   UNL     1     -10.048  73.008  31.320  1.00  0.00     0.067 C 
ATOM      7  C   UNL     1     -11.234  72.033  31.158  1.00  0.00     0.021 C 
ATOM      8  C   UNL     1     -11.040  72.187  29.632  1.00  0.00     0.022 C 
ATOM      9  C   UNL     1      -9.554  72.554  29.917  1.00  0.00    -0.019 C 
ATOM     10  C   UNL     1      -8.869  73.606  28.999  1.00  0.00     0.012 C 
ATOM     11  C   UNL     1      -8.641  71.304  29.989  1.00  0.00     0.012 C 
ENDROOT
TORSDOF 0
ENDMDL
MODEL 9
REMARK VINA RESULT:    -5.116      1.562      2.142
REMARK INTER + INTRA:          -5.116
REMARK INTER:                  -5.116
REMARK INTRA:                   0.000
REMARK UNBOUND:                 0.000
REMARK SMILES CC1=CC(=O)[C@H]2C[C@@H]1C2(C)C
REMARK SMILES IDX 1 1 2 2 3 3 4 4 5 5 6 6 7 7 8 8 9 9 10 10 11 11
REMARK H PARENT
REMARK Flexibility Score: inf
ROOT
ATOM      1  C   UNL     1      -8.615  73.485  27.242  1.00  0.00     0.040 C 
ATOM      2  C   UNL     1      -9.907  73.256  27.960  1.00  0.00    -0.066 C 
ATOM      3  C   UNL     1     -11.086  73.728  27.466  1.00  0.00     0.047 C 
ATOM      4  C   UNL     1     -12.306  73.458  28.295  1.00  0.00     0.159 C 
ATOM      5  O   UNL     1     -13.447  73.877  27.966  1.00  0.00    -0.295 OA
ATOM      6  C   UNL     1     -12.068  72.644  29.567  1.00  0.00     0.067 C 
ATOM      7  C   UNL     1     -11.157  71.484  29.107  1.00  0.00     0.021 C 
ATOM      8  C   UNL     1      -9.972  72.461  29.282  1.00  0.00     0.022 C 
ATOM      9  C   UNL     1     -10.840  73.239  30.313  1.00  0.00    -0.019 C 
ATOM     10  C   UNL     1     -10.693  74.786  30.378  1.00  0.00     0.012 C 
ATOM     11  C   UNL     1     -10.694  72.677  31.750  1.00  0.00     0.012 C 
ENDROOT
TORSDOF 0
ENDMDL
