MODEL 1
REMARK VINA RESULT:    -2.913      0.000      0.000
REMARK INTER + INTRA:          -8.406
REMARK INTER:                  -6.660
REMARK INTRA:                  -1.746
REMARK UNBOUND:                -1.746
REMARK SMILES CCCCCCCCCCCCCCCCCCCCCCCC(=O)[O-]
REMARK SMILES IDX 13 1 14 2 15 3 16 4 17 5 18 6 19 7 20 8 21 9 22 10 23 11
REMARK SMILES IDX 24 12 25 13 26 14 12 15 11 16 10 17 9 18 8 19 7 20 6 21 5 22
REMARK SMILES IDX 4 23 3 24 2 25 1 26
REMARK H PARENT
REMARK Flexibility Score: inf
ROOT
ATOM      1  C   UNL     1      11.141  -7.091   4.555  1.00  0.00     0.000 C 
ENDROOT
BRANCH   1   2
ATOM      2  C   UNL     1      12.366  -7.988   4.304  1.00  0.00     0.000 C 
BRANCH   2   3
ATOM      3  C   UNL     1      13.581  -7.597   5.166  1.00  0.00     0.000 C 
BRANCH   3   4
ATOM      4  C   UNL     1      14.065  -8.744   6.066  1.00  0.00     0.000 C 
BRANCH   4   5
ATOM      5  C   UNL     1      14.574  -9.950   5.264  1.00  0.00     0.000 C 
BRANCH   5   6
ATOM      6  C   UNL     1      16.095 -10.110   5.422  1.00  0.00     0.000 C 
BRANCH   6   7
ATOM      7  C   UNL     1      16.893  -9.432   4.294  1.00  0.00     0.000 C 
BRANCH   7   8
ATOM      8  C   UNL     1      17.166  -7.930   4.501  1.00  0.00     0.000 C 
BRANCH   8   9
ATOM      9  C   UNL     1      18.585  -7.516   4.074  1.00  0.00     0.000 C 
BRANCH   9  10
ATOM     10  C   UNL     1      19.618  -7.678   5.204  1.00  0.00     0.006 C 
BRANCH  10  11
ATOM     11  C   UNL     1      19.438  -6.690   6.369  1.00  0.00     0.053 C 
BRANCH  11  12
ATOM     12  C   UNL     1      18.986  -7.371   7.625  1.00  0.00     0.041 C 
ATOM     13  O   UNL     1      18.319  -6.737   8.484  1.00  0.00    -0.550 OA
ATOM     14  O   UNL     1      19.343  -8.691   7.868  1.00  0.00    -0.550 OA
ENDBRANCH  11  12
ENDBRANCH  10  11
ENDBRANCH   9  10
ENDBRANCH   8   9
ENDBRANCH   7   8
ENDBRANCH   6   7
ENDBRANCH   5   6
ENDBRANCH   4   5
ENDBRANCH   3   4
ENDBRANCH   2   3
ENDBRANCH   1   2
BRANCH   1  15
ATOM     15  C   UNL     1       9.876  -7.840   5.010  1.00  0.00     0.000 C 
BRANCH  15  16
ATOM     16  C   UNL     1      10.112  -9.348   5.205  1.00  0.00     0.000 C 
BRANCH  16  17
ATOM     17  C   UNL     1       8.836 -10.093   5.629  1.00  0.00     0.000 C 
BRANCH  17  18
ATOM     18  C   UNL     1       8.390  -9.732   7.057  1.00  0.00    -0.000 C 
BRANCH  18  19
ATOM     19  C   UNL     1       7.112  -8.866   7.078  1.00  0.00    -0.000 C 
BRANCH  19  20
ATOM     20  C   UNL     1       6.281  -8.950   5.784  1.00  0.00    -0.000 C 
BRANCH  20  21
ATOM     21  C   UNL     1       5.168 -10.017   5.787  1.00  0.00    -0.000 C 
BRANCH  21  22
ATOM     22  C   UNL     1       3.828  -9.566   5.174  1.00  0.00    -0.000 C 
BRANCH  22  23
ATOM     23  C   UNL     1       3.994  -8.453   4.124  1.00  0.00    -0.000 C 
BRANCH  23  24
ATOM     24  C   UNL     1       3.000  -7.297   4.326  1.00  0.00    -0.000 C 
BRANCH  24  25
ATOM     25  C   UNL     1       3.667  -5.917   4.213  1.00  0.00    -0.003 C 
ATOM     26  C   UNL     1       4.899  -5.830   5.110  1.00  0.00     0.004 C 
ENDBRANCH  24  25
ENDBRANCH  23  24
ENDBRANCH  22  23
ENDBRANCH  21  22
ENDBRANCH  20  21
ENDBRANCH  19  20
ENDBRANCH  18  19
ENDBRANCH  17  18
ENDBRANCH  16  17
ENDBRANCH  15  16
ENDBRANCH   1  15
TORSDOF 22
ENDMDL
MODEL 2
REMARK VINA RESULT:    -2.697      3.741     11.484
REMARK INTER + INTRA:          -7.913
REMARK INTER:                  -5.888
REMARK INTRA:                  -2.025
REMARK UNBOUND:                -1.746
REMARK SMILES CCCCCCCCCCCCCCCCCCCCCCCC(=O)[O-]
REMARK SMILES IDX 13 1 14 2 15 3 16 4 17 5 18 6 19 7 20 8 21 9 22 10 23 11
REMARK SMILES IDX 24 12 25 13 26 14 12 15 11 16 10 17 9 18 8 19 7 20 6 21 5 22
REMARK SMILES IDX 4 23 3 24 2 25 1 26
REMARK H PARENT
REMARK Flexibility Score: inf
ROOT
ATOM      1  C   UNL     1      15.253  -8.095   6.087  1.00  0.00     0.000 C 
ENDROOT
BRANCH   1   2
ATOM      2  C   UNL     1      13.901  -8.780   6.358  1.00  0.00     0.000 C 
BRANCH   2   3
ATOM      3  C   UNL     1      12.998  -8.835   5.112  1.00  0.00     0.000 C 
BRANCH   3   4
ATOM      4  C   UNL     1      12.196  -7.541   4.902  1.00  0.00     0.000 C 
BRANCH   4   5
ATOM      5  C   UNL     1      10.686  -7.744   5.093  1.00  0.00     0.000 C 
BRANCH   5   6
ATOM      6  C   UNL     1      10.263  -9.155   4.654  1.00  0.00     0.000 C 
BRANCH   6   7
ATOM      7  C   UNL     1       9.085  -9.712   5.473  1.00  0.00     0.000 C 
BRANCH   7   8
ATOM      8  C   UNL     1       8.881  -9.055   6.851  1.00  0.00     0.000 C 
BRANCH   8   9
ATOM      9  C   UNL     1       7.397  -8.869   7.212  1.00  0.00     0.000 C 
BRANCH   9  10
ATOM     10  C   UNL     1       6.448  -9.422   6.133  1.00  0.00     0.006 C 
BRANCH  10  11
ATOM     11  C   UNL     1       5.383  -8.420   5.657  1.00  0.00     0.053 C 
BRANCH  11  12
ATOM     12  C   UNL     1       5.959  -7.060   5.403  1.00  0.00     0.041 C 
ATOM     13  O   UNL     1       5.405  -6.038   5.886  1.00  0.00    -0.550 OA
ATOM     14  O   UNL     1       7.080  -6.919   4.596  1.00  0.00    -0.550 OA
ENDBRANCH  11  12
ENDBRANCH  10  11
ENDBRANCH   9  10
ENDBRANCH   8   9
ENDBRANCH   7   8
ENDBRANCH   6   7
ENDBRANCH   5   6
ENDBRANCH   4   5
ENDBRANCH   3   4
ENDBRANCH   2   3
ENDBRANCH   1   2
BRANCH   1  15
ATOM     15  C   UNL     1      15.691  -8.097   4.611  1.00  0.00     0.000 C 
BRANCH  15  16
ATOM     16  C   UNL     1      17.173  -7.728   4.427  1.00  0.00     0.000 C 
BRANCH  16  17
ATOM     17  C   UNL     1      18.061  -8.960   4.185  1.00  0.00     0.000 C 
BRANCH  17  18
ATOM     18  C   UNL     1      18.090  -9.911   5.394  1.00  0.00    -0.000 C 
BRANCH  18  19
ATOM     19  C   UNL     1      19.447  -9.891   6.131  1.00  0.00    -0.000 C 
BRANCH  19  20
ATOM     20  C   UNL     1      19.411  -9.150   7.482  1.00  0.00    -0.000 C 
BRANCH  20  21
ATOM     21  C   UNL     1      18.593  -7.844   7.492  1.00  0.00    -0.000 C 
BRANCH  21  22
ATOM     22  C   UNL     1      19.341  -6.609   8.030  1.00  0.00    -0.000 C 
BRANCH  22  23
ATOM     23  C   UNL     1      19.784  -5.645   6.915  1.00  0.00    -0.000 C 
BRANCH  23  24
ATOM     24  C   UNL     1      20.422  -6.375   5.722  1.00  0.00    -0.000 C 
BRANCH  24  25
ATOM     25  C   UNL     1      20.222  -5.626   4.395  1.00  0.00    -0.003 C 
ATOM     26  C   UNL     1      21.536  -5.027   3.901  1.00  0.00     0.004 C 
ENDBRANCH  24  25
ENDBRANCH  23  24
ENDBRANCH  22  23
ENDBRANCH  21  22
ENDBRANCH  20  21
ENDBRANCH  19  20
ENDBRANCH  18  19
ENDBRANCH  17  18
ENDBRANCH  16  17
ENDBRANCH  15  16
ENDBRANCH   1  15
TORSDOF 22
ENDMDL
MODEL 3
REMARK VINA RESULT:    -2.613      2.402      5.059
REMARK INTER + INTRA:          -7.720
REMARK INTER:                  -5.937
REMARK INTRA:                  -1.783
REMARK UNBOUND:                -1.746
REMARK SMILES CCCCCCCCCCCCCCCCCCCCCCCC(=O)[O-]
REMARK SMILES IDX 13 1 14 2 15 3 16 4 17 5 18 6 19 7 20 8 21 9 22 10 23 11
REMARK SMILES IDX 24 12 25 13 26 14 12 15 11 16 10 17 9 18 8 19 7 20 6 21 5 22
REMARK SMILES IDX 4 23 3 24 2 25 1 26
REMARK H PARENT
REMARK Flexibility Score: inf
ROOT
ATOM      1  C   UNL     1      16.468  -6.878   8.405  1.00  0.00     0.000 C 
ENDROOT
BRANCH   1   2
ATOM      2  C   UNL     1      17.959  -6.503   8.358  1.00  0.00     0.000 C 
BRANCH   2   3
ATOM      3  C   UNL     1      18.814  -7.541   7.608  1.00  0.00     0.000 C 
BRANCH   3   4
ATOM      4  C   UNL     1      19.304  -8.677   8.519  1.00  0.00     0.000 C 
BRANCH   4   5
ATOM      5  C   UNL     1      19.857  -9.872   7.728  1.00  0.00     0.000 C 
BRANCH   5   6
ATOM      6  C   UNL     1      20.369  -9.426   6.349  1.00  0.00     0.000 C 
BRANCH   6   7
ATOM      7  C   UNL     1      19.624 -10.101   5.183  1.00  0.00     0.000 C 
BRANCH   7   8
ATOM      8  C   UNL     1      19.359  -9.192   3.968  1.00  0.00     0.000 C 
BRANCH   8   9
ATOM      9  C   UNL     1      18.587  -7.912   4.335  1.00  0.00     0.000 C 
BRANCH   9  10
ATOM     10  C   UNL     1      19.307  -6.631   3.875  1.00  0.00     0.006 C 
BRANCH  10  11
ATOM     11  C   UNL     1      20.121  -5.936   4.979  1.00  0.00     0.053 C 
BRANCH  11  12
ATOM     12  C   UNL     1      21.571  -5.813   4.620  1.00  0.00     0.041 C 
ATOM     13  O   UNL     1      21.970  -4.846   3.921  1.00  0.00    -0.550 OA
ATOM     14  O   UNL     1      22.472  -6.793   5.018  1.00  0.00    -0.550 OA
ENDBRANCH  11  12
ENDBRANCH  10  11
ENDBRANCH   9  10
ENDBRANCH   8   9
ENDBRANCH   7   8
ENDBRANCH   6   7
ENDBRANCH   5   6
ENDBRANCH   4   5
ENDBRANCH   3   4
ENDBRANCH   2   3
ENDBRANCH   1   2
BRANCH   1  15
ATOM     15  C   UNL     1      15.753  -6.848   7.043  1.00  0.00     0.000 C 
BRANCH  15  16
ATOM     16  C   UNL     1      15.651  -8.237   6.390  1.00  0.00     0.000 C 
BRANCH  16  17
ATOM     17  C   UNL     1      14.205  -8.757   6.334  1.00  0.00     0.000 C 
BRANCH  17  18
ATOM     18  C   UNL     1      13.463  -8.295   5.067  1.00  0.00    -0.000 C 
BRANCH  18  19
ATOM     19  C   UNL     1      12.039  -8.883   4.966  1.00  0.00    -0.000 C 
BRANCH  19  20
ATOM     20  C   UNL     1      11.157  -8.200   3.903  1.00  0.00    -0.000 C 
BRANCH  20  21
ATOM     21  C   UNL     1      10.858  -6.710   4.158  1.00  0.00    -0.000 C 
BRANCH  21  22
ATOM     22  C   UNL     1       9.373  -6.373   4.398  1.00  0.00    -0.000 C 
BRANCH  22  23
ATOM     23  C   UNL     1       8.431  -7.539   4.053  1.00  0.00    -0.000 C 
BRANCH  23  24
ATOM     24  C   UNL     1       7.001  -7.317   4.573  1.00  0.00    -0.000 C 
BRANCH  24  25
ATOM     25  C   UNL     1       6.715  -8.095   5.867  1.00  0.00    -0.003 C 
ATOM     26  C   UNL     1       7.993  -8.718   6.424  1.00  0.00     0.004 C 
ENDBRANCH  24  25
ENDBRANCH  23  24
ENDBRANCH  22  23
ENDBRANCH  21  22
ENDBRANCH  20  21
ENDBRANCH  19  20
ENDBRANCH  18  19
ENDBRANCH  17  18
ENDBRANCH  16  17
ENDBRANCH  15  16
ENDBRANCH   1  15
TORSDOF 22
ENDMDL
MODEL 4
REMARK VINA RESULT:    -2.535      1.455      2.753
REMARK INTER + INTRA:          -7.540
REMARK INTER:                  -6.231
REMARK INTRA:                  -1.309
REMARK UNBOUND:                -1.746
REMARK SMILES CCCCCCCCCCCCCCCCCCCCCCCC(=O)[O-]
REMARK SMILES IDX 13 1 14 2 15 3 16 4 17 5 18 6 19 7 20 8 21 9 22 10 23 11
REMARK SMILES IDX 24 12 25 13 26 14 12 15 11 16 10 17 9 18 8 19 7 20 6 21 5 22
REMARK SMILES IDX 4 23 3 24 2 25 1 26
REMARK H PARENT
REMARK Flexibility Score: inf
ROOT
ATOM      1  C   UNL     1      14.642  -7.897   6.696  1.00  0.00     0.000 C 
ENDROOT
BRANCH   1   2
ATOM      2  C   UNL     1      15.335  -7.247   5.486  1.00  0.00     0.000 C 
BRANCH   2   3
ATOM      3  C   UNL     1      16.689  -7.900   5.150  1.00  0.00     0.000 C 
BRANCH   3   4
ATOM      4  C   UNL     1      16.656  -9.431   5.267  1.00  0.00     0.000 C 
BRANCH   4   5
ATOM      5  C   UNL     1      17.481 -10.125   4.174  1.00  0.00     0.000 C 
BRANCH   5   6
ATOM      6  C   UNL     1      18.978 -10.104   4.520  1.00  0.00     0.000 C 
BRANCH   6   7
ATOM      7  C   UNL     1      19.729  -8.926   3.875  1.00  0.00     0.000 C 
BRANCH   7   8
ATOM      8  C   UNL     1      20.868  -8.334   4.727  1.00  0.00     0.000 C 
BRANCH   8   9
ATOM      9  C   UNL     1      20.620  -6.867   5.121  1.00  0.00     0.000 C 
BRANCH   9  10
ATOM     10  C   UNL     1      19.273  -6.662   5.837  1.00  0.00     0.006 C 
BRANCH  10  11
ATOM     11  C   UNL     1      19.145  -7.423   7.167  1.00  0.00     0.053 C 
BRANCH  11  12
ATOM     12  C   UNL     1      18.601  -6.559   8.264  1.00  0.00     0.041 C 
ATOM     13  O   UNL     1      19.366  -5.786   8.898  1.00  0.00    -0.550 OA
ATOM     14  O   UNL     1      17.260  -6.642   8.616  1.00  0.00    -0.550 OA
ENDBRANCH  11  12
ENDBRANCH  10  11
ENDBRANCH   9  10
ENDBRANCH   8   9
ENDBRANCH   7   8
ENDBRANCH   6   7
ENDBRANCH   5   6
ENDBRANCH   4   5
ENDBRANCH   3   4
ENDBRANCH   2   3
ENDBRANCH   1   2
BRANCH   1  15
ATOM     15  C   UNL     1      13.157  -8.241   6.480  1.00  0.00     0.000 C 
BRANCH  15  16
ATOM     16  C   UNL     1      12.857  -8.722   5.050  1.00  0.00     0.000 C 
BRANCH  16  17
ATOM     17  C   UNL     1      11.349  -8.835   4.772  1.00  0.00     0.000 C 
BRANCH  17  18
ATOM     18  C   UNL     1      10.558  -7.635   5.322  1.00  0.00    -0.000 C 
BRANCH  18  19
ATOM     19  C   UNL     1       9.318  -7.299   4.466  1.00  0.00    -0.000 C 
BRANCH  19  20
ATOM     20  C   UNL     1       8.093  -8.184   4.768  1.00  0.00    -0.000 C 
BRANCH  20  21
ATOM     21  C   UNL     1       7.415  -7.923   6.127  1.00  0.00    -0.000 C 
BRANCH  21  22
ATOM     22  C   UNL     1       5.945  -7.469   6.047  1.00  0.00    -0.000 C 
BRANCH  22  23
ATOM     23  C   UNL     1       5.071  -8.411   5.201  1.00  0.00    -0.000 C 
BRANCH  23  24
ATOM     24  C   UNL     1       4.360  -7.682   4.049  1.00  0.00    -0.000 C 
BRANCH  24  25
ATOM     25  C   UNL     1       4.624  -6.168   4.054  1.00  0.00    -0.003 C 
ATOM     26  C   UNL     1       3.314  -5.385   4.110  1.00  0.00     0.004 C 
ENDBRANCH  24  25
ENDBRANCH  23  24
ENDBRANCH  22  23
ENDBRANCH  21  22
ENDBRANCH  20  21
ENDBRANCH  19  20
ENDBRANCH  18  19
ENDBRANCH  17  18
ENDBRANCH  16  17
ENDBRANCH  15  16
ENDBRANCH   1  15
TORSDOF 22
ENDMDL
MODEL 5
REMARK VINA RESULT:    -2.425      1.452      3.838
REMARK INTER + INTRA:          -7.290
REMARK INTER:                  -5.924
REMARK INTRA:                  -1.366
REMARK UNBOUND:                -1.746
REMARK SMILES CCCCCCCCCCCCCCCCCCCCCCCC(=O)[O-]
REMARK SMILES IDX 13 1 14 2 15 3 16 4 17 5 18 6 19 7 20 8 21 9 22 10 23 11
REMARK SMILES IDX 24 12 25 13 26 14 12 15 11 16 10 17 9 18 8 19 7 20 6 21 5 22
REMARK SMILES IDX 4 23 3 24 2 25 1 26
REMARK H PARENT
REMARK Flexibility Score: inf
ROOT
ATOM      1  C   UNL     1      15.808  -8.024   5.760  1.00  0.00     0.000 C 
ENDROOT
BRANCH   1   2
ATOM      2  C   UNL     1      17.018  -8.974   5.716  1.00  0.00     0.000 C 
BRANCH   2   3
ATOM      3  C   UNL     1      16.991  -9.921   4.502  1.00  0.00     0.000 C 
BRANCH   3   4
ATOM      4  C   UNL     1      18.378 -10.124   3.875  1.00  0.00     0.000 C 
BRANCH   4   5
ATOM      5  C   UNL     1      19.509  -9.556   4.745  1.00  0.00     0.000 C 
BRANCH   5   6
ATOM      6  C   UNL     1      20.487  -8.725   3.899  1.00  0.00     0.000 C 
BRANCH   6   7
ATOM      7  C   UNL     1      21.104  -7.548   4.676  1.00  0.00     0.000 C 
BRANCH   7   8
ATOM      8  C   UNL     1      20.103  -6.467   5.126  1.00  0.00     0.000 C 
BRANCH   8   9
ATOM      9  C   UNL     1      19.973  -6.372   6.656  1.00  0.00     0.000 C 
BRANCH   9  10
ATOM     10  C   UNL     1      19.004  -7.419   7.238  1.00  0.00     0.006 C 
BRANCH  10  11
ATOM     11  C   UNL     1      19.188  -7.679   8.742  1.00  0.00     0.053 C 
BRANCH  11  12
ATOM     12  C   UNL     1      19.633  -9.083   9.023  1.00  0.00     0.041 C 
ATOM     13  O   UNL     1      19.942  -9.426  10.193  1.00  0.00    -0.550 OA
ATOM     14  O   UNL     1      19.750  -9.997   7.984  1.00  0.00    -0.550 OA
ENDBRANCH  11  12
ENDBRANCH  10  11
ENDBRANCH   9  10
ENDBRANCH   8   9
ENDBRANCH   7   8
ENDBRANCH   6   7
ENDBRANCH   5   6
ENDBRANCH   4   5
ENDBRANCH   3   4
ENDBRANCH   2   3
ENDBRANCH   1   2
BRANCH   1  15
ATOM     15  C   UNL     1      14.517  -8.597   5.149  1.00  0.00     0.000 C 
BRANCH  15  16
ATOM     16  C   UNL     1      13.400  -7.548   5.020  1.00  0.00     0.000 C 
BRANCH  16  17
ATOM     17  C   UNL     1      12.065  -8.162   4.567  1.00  0.00     0.000 C 
BRANCH  17  18
ATOM     18  C   UNL     1      11.041  -7.096   4.141  1.00  0.00    -0.000 C 
BRANCH  18  19
ATOM     19  C   UNL     1       9.589  -7.501   4.477  1.00  0.00    -0.000 C 
BRANCH  19  20
ATOM     20  C   UNL     1       9.327  -9.016   4.383  1.00  0.00    -0.000 C 
BRANCH  20  21
ATOM     21  C   UNL     1       8.335  -9.575   5.421  1.00  0.00    -0.000 C 
BRANCH  21  22
ATOM     22  C   UNL     1       8.057  -8.652   6.623  1.00  0.00    -0.000 C 
BRANCH  22  23
ATOM     23  C   UNL     1       6.586  -8.210   6.711  1.00  0.00    -0.000 C 
BRANCH  23  24
ATOM     24  C   UNL     1       6.284  -6.985   5.831  1.00  0.00    -0.000 C 
BRANCH  24  25
ATOM     25  C   UNL     1       5.519  -7.352   4.550  1.00  0.00    -0.003 C 
ATOM     26  C   UNL     1       4.296  -8.208   4.869  1.00  0.00     0.004 C 
ENDBRANCH  24  25
ENDBRANCH  23  24
ENDBRANCH  22  23
ENDBRANCH  21  22
ENDBRANCH  20  21
ENDBRANCH  19  20
ENDBRANCH  18  19
ENDBRANCH  17  18
ENDBRANCH  16  17
ENDBRANCH  15  16
ENDBRANCH   1  15
TORSDOF 22
ENDMDL
MODEL 6
REMARK VINA RESULT:    -2.419      1.415      2.623
REMARK INTER + INTRA:          -7.277
REMARK INTER:                  -6.263
REMARK INTRA:                  -1.014
REMARK UNBOUND:                -1.746
REMARK SMILES CCCCCCCCCCCCCCCCCCCCCCCC(=O)[O-]
REMARK SMILES IDX 13 1 14 2 15 3 16 4 17 5 18 6 19 7 20 8 21 9 22 10 23 11
REMARK SMILES IDX 24 12 25 13 26 14 12 15 11 16 10 17 9 18 8 19 7 20 6 21 5 22
REMARK SMILES IDX 4 23 3 24 2 25 1 26
REMARK H PARENT
REMARK Flexibility Score: inf
ROOT
ATOM      1  C   UNL     1      13.771  -8.072   5.283  1.00  0.00     0.000 C 
ENDROOT
BRANCH   1   2
ATOM      2  C   UNL     1      14.556  -9.161   6.035  1.00  0.00     0.000 C 
BRANCH   2   3
ATOM      3  C   UNL     1      15.833  -9.599   5.293  1.00  0.00     0.000 C 
BRANCH   3   4
ATOM      4  C   UNL     1      16.199  -8.658   4.136  1.00  0.00     0.000 C 
BRANCH   4   5
ATOM      5  C   UNL     1      17.717  -8.499   3.961  1.00  0.00     0.000 C 
BRANCH   5   6
ATOM      6  C   UNL     1      18.134  -7.027   4.103  1.00  0.00     0.000 C 
BRANCH   6   7
ATOM      7  C   UNL     1      18.951  -6.752   5.378  1.00  0.00     0.000 C 
BRANCH   7   8
ATOM      8  C   UNL     1      20.388  -7.306   5.363  1.00  0.00     0.000 C 
BRANCH   8   9
ATOM      9  C   UNL     1      20.441  -8.838   5.507  1.00  0.00     0.000 C 
BRANCH   9  10
ATOM     10  C   UNL     1      19.403  -9.377   6.509  1.00  0.00     0.006 C 
BRANCH  10  11
ATOM     11  C   UNL     1      20.014 -10.108   7.716  1.00  0.00     0.053 C 
BRANCH  11  12
ATOM     12  C   UNL     1      19.792  -9.365   8.998  1.00  0.00     0.041 C 
ATOM     13  O   UNL     1      19.880  -9.966  10.101  1.00  0.00    -0.550 OA
ATOM     14  O   UNL     1      19.441  -8.022   8.974  1.00  0.00    -0.550 OA
ENDBRANCH  11  12
ENDBRANCH  10  11
ENDBRANCH   9  10
ENDBRANCH   8   9
ENDBRANCH   7   8
ENDBRANCH   6   7
ENDBRANCH   5   6
ENDBRANCH   4   5
ENDBRANCH   3   4
ENDBRANCH   2   3
ENDBRANCH   1   2
BRANCH   1  15
ATOM     15  C   UNL     1      12.268  -8.357   5.119  1.00  0.00     0.000 C 
BRANCH  15  16
ATOM     16  C   UNL     1      11.443  -7.948   6.351  1.00  0.00     0.000 C 
BRANCH  16  17
ATOM     17  C   UNL     1       9.929  -8.009   6.092  1.00  0.00     0.000 C 
BRANCH  17  18
ATOM     18  C   UNL     1       9.150  -8.578   7.290  1.00  0.00    -0.000 C 
BRANCH  18  19
ATOM     19  C   UNL     1       8.423  -9.898   6.952  1.00  0.00    -0.000 C 
BRANCH  19  20
ATOM     20  C   UNL     1       7.035 -10.031   7.608  1.00  0.00    -0.000 C 
BRANCH  20  21
ATOM     21  C   UNL     1       5.848 -10.075   6.627  1.00  0.00    -0.000 C 
BRANCH  21  22
ATOM     22  C   UNL     1       6.230 -10.025   5.134  1.00  0.00    -0.000 C 
BRANCH  22  23
ATOM     23  C   UNL     1       5.634  -8.810   4.403  1.00  0.00    -0.000 C 
BRANCH  23  24
ATOM     24  C   UNL     1       4.215  -8.468   4.887  1.00  0.00    -0.000 C 
BRANCH  24  25
ATOM     25  C   UNL     1       3.741  -7.090   4.400  1.00  0.00    -0.003 C 
ATOM     26  C   UNL     1       4.724  -5.997   4.810  1.00  0.00     0.004 C 
ENDBRANCH  24  25
ENDBRANCH  23  24
ENDBRANCH  22  23
ENDBRANCH  21  22
ENDBRANCH  20  21
ENDBRANCH  19  20
ENDBRANCH  18  19
ENDBRANCH  17  18
ENDBRANCH  16  17
ENDBRANCH  15  16
ENDBRANCH   1  15
TORSDOF 22
ENDMDL
MODEL 7
REMARK VINA RESULT:    -2.209      3.796     11.280
REMARK INTER + INTRA:          -6.796
REMARK INTER:                  -4.797
REMARK INTRA:                  -2.000
REMARK UNBOUND:                -1.746
REMARK SMILES CCCCCCCCCCCCCCCCCCCCCCCC(=O)[O-]
REMARK SMILES IDX 13 1 14 2 15 3 16 4 17 5 18 6 19 7 20 8 21 9 22 10 23 11
REMARK SMILES IDX 24 12 25 13 26 14 12 15 11 16 10 17 9 18 8 19 7 20 6 21 5 22
REMARK SMILES IDX 4 23 3 24 2 25 1 26
REMARK H PARENT
REMARK Flexibility Score: inf
ROOT
ATOM      1  C   UNL     1      15.289  -8.117   6.291  1.00  0.00     0.000 C 
ENDROOT
BRANCH   1   2
ATOM      2  C   UNL     1      14.061  -8.982   5.959  1.00  0.00     0.000 C 
BRANCH   2   3
ATOM      3  C   UNL     1      13.620  -8.857   4.489  1.00  0.00     0.000 C 
BRANCH   3   4
ATOM      4  C   UNL     1      12.941  -7.513   4.184  1.00  0.00     0.000 C 
BRANCH   4   5
ATOM      5  C   UNL     1      11.411  -7.587   4.291  1.00  0.00     0.000 C 
BRANCH   5   6
ATOM      6  C   UNL     1      10.908  -9.006   3.983  1.00  0.00     0.000 C 
BRANCH   6   7
ATOM      7  C   UNL     1       9.830  -9.490   4.971  1.00  0.00     0.000 C 
BRANCH   7   8
ATOM      8  C   UNL     1       9.852  -8.800   6.348  1.00  0.00     0.000 C 
BRANCH   8   9
ATOM      9  C   UNL     1       8.464  -8.743   7.010  1.00  0.00     0.000 C 
BRANCH   9  10
ATOM     10  C   UNL     1       7.402  -9.547   6.237  1.00  0.00     0.006 C 
BRANCH  10  11
ATOM     11  C   UNL     1       6.115  -8.762   5.933  1.00  0.00     0.053 C 
BRANCH  11  12
ATOM     12  C   UNL     1       6.396  -7.337   5.565  1.00  0.00     0.041 C 
ATOM     13  O   UNL     1       5.845  -6.399   6.200  1.00  0.00    -0.550 OA
ATOM     14  O   UNL     1       7.228  -7.045   4.492  1.00  0.00    -0.550 OA
ENDBRANCH  11  12
ENDBRANCH  10  11
ENDBRANCH   9  10
ENDBRANCH   8   9
ENDBRANCH   7   8
ENDBRANCH   6   7
ENDBRANCH   5   6
ENDBRANCH   4   5
ENDBRANCH   3   4
ENDBRANCH   2   3
ENDBRANCH   1   2
BRANCH   1  15
ATOM     15  C   UNL     1      16.107  -7.664   5.068  1.00  0.00     0.000 C 
BRANCH  15  16
ATOM     16  C   UNL     1      17.375  -6.883   5.453  1.00  0.00     0.000 C 
BRANCH  16  17
ATOM     17  C   UNL     1      18.435  -6.895   4.338  1.00  0.00     0.000 C 
BRANCH  17  18
ATOM     18  C   UNL     1      18.827  -8.322   3.915  1.00  0.00    -0.000 C 
BRANCH  18  19
ATOM     19  C   UNL     1      20.250  -8.706   4.373  1.00  0.00    -0.000 C 
BRANCH  19  20
ATOM     20  C   UNL     1      20.292  -9.911   5.333  1.00  0.00    -0.000 C 
BRANCH  20  21
ATOM     21  C   UNL     1      19.156  -9.961   6.372  1.00  0.00    -0.000 C 
BRANCH  21  22
ATOM     22  C   UNL     1      19.615 -10.123   7.835  1.00  0.00    -0.000 C 
BRANCH  22  23
ATOM     23  C   UNL     1      19.382  -8.858   8.679  1.00  0.00    -0.000 C 
BRANCH  23  24
ATOM     24  C   UNL     1      19.732  -7.568   7.919  1.00  0.00    -0.000 C 
BRANCH  24  25
ATOM     25  C   UNL     1      18.843  -6.383   8.325  1.00  0.00    -0.003 C 
ATOM     26  C   UNL     1      19.637  -5.350   9.121  1.00  0.00     0.004 C 
ENDBRANCH  24  25
ENDBRANCH  23  24
ENDBRANCH  22  23
ENDBRANCH  21  22
ENDBRANCH  20  21
ENDBRANCH  19  20
ENDBRANCH  18  19
ENDBRANCH  17  18
ENDBRANCH  16  17
ENDBRANCH  15  16
ENDBRANCH   1  15
TORSDOF 22
ENDMDL
