MODEL 1
REMARK VINA RESULT:    -6.872      0.000      0.000
REMARK INTER + INTRA:          -8.654
REMARK INTER:                  -8.278
REMARK INTRA:                  -0.376
REMARK UNBOUND:                -0.376
REMARK SMILES Oc1cc(O)c2c(c1)O[C@H](c1ccc(O)c(O)c1)[C@@H](O)C2
REMARK SMILES IDX 21 1 19 2 10 3 9 4 7 5 8 6 2 7 3 8 4 9 6 10 20 11 11 13
REMARK SMILES IDX 18 14 12 15 16 16 13 17 14 18 17 19 15 21 5 23 1 25
REMARK H PARENT 20 12 17 20 15 22 5 24 1 26
REMARK Flexibility Score: inf
ROOT
ATOM      1  C   UNL     1     -26.377  82.112 -20.617  1.00  0.00     0.079 C 
ATOM      2  C   UNL     1     -25.569  81.130 -19.749  1.00  0.00     0.164 C 
ATOM      3  C   UNL     1     -24.971  81.870 -18.541  1.00  0.00     0.232 C 
ATOM      4  O   UNL     1     -24.171  82.962 -18.991  1.00  0.00    -0.482 OA
ATOM      5  C   UNL     1     -24.538  83.759 -20.079  1.00  0.00     0.131 A 
ATOM      6  C   UNL     1     -23.809  84.921 -20.346  1.00  0.00     0.093 A 
ATOM      7  C   UNL     1     -24.163  85.745 -21.419  1.00  0.00     0.122 A 
ATOM      8  C   UNL     1     -25.257  85.409 -22.220  1.00  0.00     0.092 A 
ATOM      9  C   UNL     1     -25.998  84.250 -21.968  1.00  0.00     0.126 A 
ATOM     10  C   UNL     1     -25.617  83.389 -20.910  1.00  0.00     0.039 A 
ENDROOT
BRANCH   2  11
ATOM     11  O   UNL     1     -26.404  80.092 -19.304  1.00  0.00    -0.389 OA
ATOM     12  H   UNL     1     -25.814  79.325 -19.084  1.00  0.00     0.211 HD
ENDBRANCH   2  11
BRANCH   3  13
ATOM     13  C   UNL     1     -24.134  80.942 -17.691  1.00  0.00    -0.001 A 
ATOM     14  C   UNL     1     -22.975  80.350 -18.217  1.00  0.00     0.057 A 
ATOM     15  C   UNL     1     -24.477  80.699 -16.351  1.00  0.00     0.012 A 
ATOM     16  C   UNL     1     -22.175  79.511 -17.432  1.00  0.00     0.157 A 
ATOM     17  C   UNL     1     -23.687  79.863 -15.562  1.00  0.00     0.050 A 
ATOM     18  C   UNL     1     -22.538  79.261 -16.087  1.00  0.00     0.157 A 
BRANCH  16  19
ATOM     19  O   UNL     1     -21.040  78.953 -18.023  1.00  0.00    -0.504 OA
ATOM     20  H   UNL     1     -20.282  78.534 -17.504  1.00  0.00     0.293 HD
ENDBRANCH  16  19
BRANCH  18  21
ATOM     21  O   UNL     1     -21.792  78.434 -15.245  1.00  0.00    -0.504 OA
ATOM     22  H   UNL     1     -21.601  77.460 -15.435  1.00  0.00     0.293 HD
ENDBRANCH  18  21
ENDBRANCH   3  13
BRANCH   9  23
ATOM     23  O   UNL     1     -27.108  83.990 -22.776  1.00  0.00    -0.507 OA
ATOM     24  H   UNL     1     -27.925  83.489 -22.454  1.00  0.00     0.293 HD
ENDBRANCH   9  23
BRANCH   7  25
ATOM     25  O   UNL     1     -23.441  86.904 -21.693  1.00  0.00    -0.508 OA
ATOM     26  H   UNL     1     -23.638  87.472 -22.508  1.00  0.00     0.293 HD
ENDBRANCH   7  25
TORSDOF 6
ENDMDL
MODEL 2
REMARK VINA RESULT:    -6.733     10.300     12.713
REMARK INTER + INTRA:          -8.487
REMARK INTER:                  -8.314
REMARK INTRA:                  -0.172
REMARK UNBOUND:                -0.376
REMARK SMILES Oc1cc(O)c2c(c1)O[C@H](c1ccc(O)c(O)c1)[C@@H](O)C2
REMARK SMILES IDX 21 1 19 2 10 3 9 4 7 5 8 6 2 7 3 8 4 9 6 10 20 11 11 13
REMARK SMILES IDX 18 14 12 15 16 16 13 17 14 18 17 19 15 21 5 23 1 25
REMARK H PARENT 20 12 17 20 15 22 5 24 1 26
REMARK Flexibility Score: inf
ROOT
ATOM      1  C   UNL     1     -26.868  90.388 -11.946  1.00  0.00     0.079 C 
ATOM      2  C   UNL     1     -26.187  91.591 -12.623  1.00  0.00     0.164 C 
ATOM      3  C   UNL     1     -25.121  91.098 -13.616  1.00  0.00     0.232 C 
ATOM      4  O   UNL     1     -24.178  90.266 -12.941  1.00  0.00    -0.482 OA
ATOM      5  C   UNL     1     -24.560  89.358 -11.948  1.00  0.00     0.131 A 
ATOM      6  C   UNL     1     -23.618  88.447 -11.465  1.00  0.00     0.093 A 
ATOM      7  C   UNL     1     -23.976  87.516 -10.483  1.00  0.00     0.122 A 
ATOM      8  C   UNL     1     -25.284  87.495  -9.992  1.00  0.00     0.092 A 
ATOM      9  C   UNL     1     -26.239  88.401 -10.464  1.00  0.00     0.126 A 
ATOM     10  C   UNL     1     -25.871  89.372 -11.426  1.00  0.00     0.039 A 
ENDROOT
BRANCH   2  11
ATOM     11  O   UNL     1     -27.146  92.361 -13.301  1.00  0.00    -0.389 OA
ATOM     12  H   UNL     1     -27.674  91.733 -13.859  1.00  0.00     0.211 HD
ENDBRANCH   2  11
BRANCH   3  13
ATOM     13  C   UNL     1     -24.401  92.257 -14.266  1.00  0.00    -0.001 A 
ATOM     14  C   UNL     1     -23.185  92.721 -13.742  1.00  0.00     0.057 A 
ATOM     15  C   UNL     1     -24.915  92.853 -15.429  1.00  0.00     0.012 A 
ATOM     16  C   UNL     1     -22.494  93.776 -14.351  1.00  0.00     0.157 A 
ATOM     17  C   UNL     1     -24.234  93.905 -16.041  1.00  0.00     0.050 A 
ATOM     18  C   UNL     1     -23.027  94.379 -15.515  1.00  0.00     0.157 A 
BRANCH  16  19
ATOM     19  O   UNL     1     -21.291  94.188 -13.772  1.00  0.00    -0.504 OA
ATOM     20  H   UNL     1     -20.985  95.149 -13.730  1.00  0.00     0.293 HD
ENDBRANCH  16  19
BRANCH  18  21
ATOM     21  O   UNL     1     -22.397  95.436 -16.174  1.00  0.00    -0.504 OA
ATOM     22  H   UNL     1     -22.290  95.493 -17.176  1.00  0.00     0.293 HD
ENDBRANCH  18  21
ENDBRANCH   3  13
BRANCH   9  23
ATOM     23  O   UNL     1     -27.541  88.301  -9.968  1.00  0.00    -0.507 OA
ATOM     24  H   UNL     1     -28.163  87.534 -10.187  1.00  0.00     0.293 HD
ENDBRANCH   9  23
BRANCH   7  25
ATOM     25  O   UNL     1     -23.043  86.605  -9.995  1.00  0.00    -0.508 OA
ATOM     26  H   UNL     1     -23.321  85.817  -9.421  1.00  0.00     0.293 HD
ENDBRANCH   7  25
TORSDOF 6
ENDMDL
MODEL 3
REMARK VINA RESULT:    -6.532      1.916      2.308
REMARK INTER + INTRA:          -8.244
REMARK INTER:                  -7.918
REMARK INTRA:                  -0.326
REMARK UNBOUND:                -0.376
REMARK SMILES Oc1cc(O)c2c(c1)O[C@H](c1ccc(O)c(O)c1)[C@@H](O)C2
REMARK SMILES IDX 21 1 19 2 10 3 9 4 7 5 8 6 2 7 3 8 4 9 6 10 20 11 11 13
REMARK SMILES IDX 18 14 12 15 16 16 13 17 14 18 17 19 15 21 5 23 1 25
REMARK H PARENT 20 12 17 20 15 22 5 24 1 26
REMARK Flexibility Score: inf
ROOT
ATOM      1  C   UNL     1     -26.528  83.496 -21.428  1.00  0.00     0.079 C 
ATOM      2  C   UNL     1     -25.590  82.493 -20.733  1.00  0.00     0.164 C 
ATOM      3  C   UNL     1     -25.626  82.712 -19.211  1.00  0.00     0.232 C 
ATOM      4  O   UNL     1     -25.277  84.062 -18.909  1.00  0.00    -0.482 OA
ATOM      5  C   UNL     1     -25.702  85.138 -19.695  1.00  0.00     0.131 A 
ATOM      6  C   UNL     1     -25.483  86.440 -19.237  1.00  0.00     0.093 A 
ATOM      7  C   UNL     1     -25.912  87.535 -19.995  1.00  0.00     0.122 A 
ATOM      8  C   UNL     1     -26.569  87.323 -21.210  1.00  0.00     0.092 A 
ATOM      9  C   UNL     1     -26.796  86.026 -21.683  1.00  0.00     0.126 A 
ATOM     10  C   UNL     1     -26.326  84.916 -20.941  1.00  0.00     0.039 A 
ENDROOT
BRANCH   2  11
ATOM     11  O   UNL     1     -25.991  81.181 -21.033  1.00  0.00    -0.389 OA
ATOM     12  H   UNL     1     -25.166  80.669 -21.233  1.00  0.00     0.211 HD
ENDBRANCH   2  11
BRANCH   3  13
ATOM     13  C   UNL     1     -24.681  81.771 -18.501  1.00  0.00    -0.001 A 
ATOM     14  C   UNL     1     -25.178  80.663 -17.798  1.00  0.00     0.057 A 
ATOM     15  C   UNL     1     -23.292  81.965 -18.576  1.00  0.00     0.012 A 
ATOM     16  C   UNL     1     -24.312  79.767 -17.159  1.00  0.00     0.157 A 
ATOM     17  C   UNL     1     -22.422  81.078 -17.941  1.00  0.00     0.050 A 
ATOM     18  C   UNL     1     -22.915  79.980 -17.229  1.00  0.00     0.157 A 
BRANCH  16  19
ATOM     19  O   UNL     1     -24.878  78.690 -16.474  1.00  0.00    -0.504 OA
ATOM     20  H   UNL     1     -24.612  77.727 -16.619  1.00  0.00     0.293 HD
ENDBRANCH  16  19
BRANCH  18  21
ATOM     21  O   UNL     1     -21.991  79.132 -16.614  1.00  0.00    -0.504 OA
ATOM     22  H   UNL     1     -22.222  78.484 -15.874  1.00  0.00     0.293 HD
ENDBRANCH  18  21
ENDBRANCH   3  13
BRANCH   9  23
ATOM     23  O   UNL     1     -27.498  85.878 -22.882  1.00  0.00    -0.507 OA
ATOM     24  H   UNL     1     -27.224  86.326 -23.745  1.00  0.00     0.293 HD
ENDBRANCH   9  23
BRANCH   7  25
ATOM     25  O   UNL     1     -25.696  88.836 -19.547  1.00  0.00    -0.508 OA
ATOM     26  H   UNL     1     -26.427  89.537 -19.583  1.00  0.00     0.293 HD
ENDBRANCH   7  25
TORSDOF 6
ENDMDL
MODEL 4
REMARK VINA RESULT:    -6.511     10.066     12.910
REMARK INTER + INTRA:          -8.220
REMARK INTER:                  -7.871
REMARK INTRA:                  -0.349
REMARK UNBOUND:                -0.376
REMARK SMILES Oc1cc(O)c2c(c1)O[C@H](c1ccc(O)c(O)c1)[C@@H](O)C2
REMARK SMILES IDX 21 1 19 2 10 3 9 4 7 5 8 6 2 7 3 8 4 9 6 10 20 11 11 13
REMARK SMILES IDX 18 14 12 15 16 16 13 17 14 18 17 19 15 21 5 23 1 25
REMARK H PARENT 20 12 17 20 15 22 5 24 1 26
REMARK Flexibility Score: inf
ROOT
ATOM      1  C   UNL     1     -26.651  91.506 -12.234  1.00  0.00     0.079 C 
ATOM      2  C   UNL     1     -25.990  92.571 -13.127  1.00  0.00     0.164 C 
ATOM      3  C   UNL     1     -25.249  91.891 -14.290  1.00  0.00     0.232 C 
ATOM      4  O   UNL     1     -24.294  90.962 -13.778  1.00  0.00    -0.482 OA
ATOM      5  C   UNL     1     -24.557  90.160 -12.664  1.00  0.00     0.131 A 
ATOM      6  C   UNL     1     -23.657  89.144 -12.333  1.00  0.00     0.093 A 
ATOM      7  C   UNL     1     -23.902  88.315 -11.233  1.00  0.00     0.122 A 
ATOM      8  C   UNL     1     -25.056  88.500 -10.468  1.00  0.00     0.092 A 
ATOM      9  C   UNL     1     -25.968  89.513 -10.785  1.00  0.00     0.126 A 
ATOM     10  C   UNL     1     -25.704  90.382 -11.871  1.00  0.00     0.039 A 
ENDROOT
BRANCH   2  11
ATOM     11  O   UNL     1     -26.970  93.441 -13.633  1.00  0.00    -0.389 OA
ATOM     12  H   UNL     1     -26.494  94.246 -13.966  1.00  0.00     0.211 HD
ENDBRANCH   2  11
BRANCH   3  13
ATOM     13  C   UNL     1     -24.551  92.908 -15.163  1.00  0.00    -0.001 A 
ATOM     14  C   UNL     1     -24.813  92.960 -16.541  1.00  0.00     0.057 A 
ATOM     15  C   UNL     1     -23.670  93.845 -14.600  1.00  0.00     0.012 A 
ATOM     16  C   UNL     1     -24.194  93.916 -17.356  1.00  0.00     0.157 A 
ATOM     17  C   UNL     1     -23.048  94.800 -15.405  1.00  0.00     0.050 A 
ATOM     18  C   UNL     1     -23.297  94.847 -16.781  1.00  0.00     0.157 A 
BRANCH  16  19
ATOM     19  O   UNL     1     -24.499  93.905 -18.719  1.00  0.00    -0.504 OA
ATOM     20  H   UNL     1     -25.438  93.864 -19.087  1.00  0.00     0.293 HD
ENDBRANCH  16  19
BRANCH  18  21
ATOM     21  O   UNL     1     -22.641  95.825 -17.530  1.00  0.00    -0.504 OA
ATOM     22  H   UNL     1     -21.732  96.200 -17.299  1.00  0.00     0.293 HD
ENDBRANCH  18  21
ENDBRANCH   3  13
BRANCH   9  23
ATOM     23  O   UNL     1     -27.126  89.620 -10.011  1.00  0.00    -0.507 OA
ATOM     24  H   UNL     1     -27.142  89.471  -9.011  1.00  0.00     0.293 HD
ENDBRANCH   9  23
BRANCH   7  25
ATOM     25  O   UNL     1     -23.008  87.301 -10.895  1.00  0.00    -0.508 OA
ATOM     26  H   UNL     1     -22.824  87.057  -9.929  1.00  0.00     0.293 HD
ENDBRANCH   7  25
TORSDOF 6
ENDMDL
MODEL 5
REMARK VINA RESULT:    -6.502      1.990      7.067
REMARK INTER + INTRA:          -8.208
REMARK INTER:                  -8.020
REMARK INTRA:                  -0.188
REMARK UNBOUND:                -0.376
REMARK SMILES Oc1cc(O)c2c(c1)O[C@H](c1ccc(O)c(O)c1)[C@@H](O)C2
REMARK SMILES IDX 21 1 19 2 10 3 9 4 7 5 8 6 2 7 3 8 4 9 6 10 20 11 11 13
REMARK SMILES IDX 18 14 12 15 16 16 13 17 14 18 17 19 15 21 5 23 1 25
REMARK H PARENT 20 12 17 20 15 22 5 24 1 26
REMARK Flexibility Score: inf
ROOT
ATOM      1  C   UNL     1     -26.574  83.805 -18.111  1.00  0.00     0.079 C 
ATOM      2  C   UNL     1     -26.142  84.604 -19.354  1.00  0.00     0.164 C 
ATOM      3  C   UNL     1     -26.019  83.662 -20.563  1.00  0.00     0.232 C 
ATOM      4  O   UNL     1     -25.104  82.609 -20.265  1.00  0.00    -0.482 OA
ATOM      5  C   UNL     1     -25.047  82.003 -19.006  1.00  0.00     0.131 A 
ATOM      6  C   UNL     1     -24.264  80.858 -18.840  1.00  0.00     0.093 A 
ATOM      7  C   UNL     1     -24.201  80.221 -17.596  1.00  0.00     0.122 A 
ATOM      8  C   UNL     1     -24.931  80.729 -16.519  1.00  0.00     0.092 A 
ATOM      9  C   UNL     1     -25.720  81.875 -16.667  1.00  0.00     0.126 A 
ATOM     10  C   UNL     1     -25.753  82.548 -17.913  1.00  0.00     0.039 A 
ENDROOT
BRANCH   2  11
ATOM     11  O   UNL     1     -27.087  85.606 -19.627  1.00  0.00    -0.389 OA
ATOM     12  H   UNL     1     -26.614  86.314 -20.136  1.00  0.00     0.211 HD
ENDBRANCH   2  11
BRANCH   3  13
ATOM     13  C   UNL     1     -25.553  84.408 -21.792  1.00  0.00    -0.001 A 
ATOM     14  C   UNL     1     -24.663  85.488 -21.671  1.00  0.00     0.057 A 
ATOM     15  C   UNL     1     -25.963  84.002 -23.071  1.00  0.00     0.012 A 
ATOM     16  C   UNL     1     -24.201  86.170 -22.803  1.00  0.00     0.157 A 
ATOM     17  C   UNL     1     -25.509  84.678 -24.204  1.00  0.00     0.050 A 
ATOM     18  C   UNL     1     -24.633  85.761 -24.087  1.00  0.00     0.157 A 
BRANCH  16  19
ATOM     19  O   UNL     1     -23.321  87.237 -22.607  1.00  0.00    -0.504 OA
ATOM     20  H   UNL     1     -23.266  87.774 -21.754  1.00  0.00     0.293 HD
ENDBRANCH  16  19
BRANCH  18  21
ATOM     21  O   UNL     1     -24.218  86.395 -25.260  1.00  0.00    -0.504 OA
ATOM     22  H   UNL     1     -23.619  87.209 -25.282  1.00  0.00     0.293 HD
ENDBRANCH  18  21
ENDBRANCH   3  13
BRANCH   9  23
ATOM     23  O   UNL     1     -26.463  82.309 -15.566  1.00  0.00    -0.507 OA
ATOM     24  H   UNL     1     -27.469  82.406 -15.578  1.00  0.00     0.293 HD
ENDBRANCH   9  23
BRANCH   7  25
ATOM     25  O   UNL     1     -23.422  79.080 -17.421  1.00  0.00    -0.508 OA
ATOM     26  H   UNL     1     -23.030  78.579 -18.210  1.00  0.00     0.293 HD
ENDBRANCH   7  25
TORSDOF 6
ENDMDL
MODEL 6
REMARK VINA RESULT:    -6.376      8.494     10.141
REMARK INTER + INTRA:          -8.057
REMARK INTER:                  -7.968
REMARK INTRA:                  -0.089
REMARK UNBOUND:                -0.376
REMARK SMILES Oc1cc(O)c2c(c1)O[C@H](c1ccc(O)c(O)c1)[C@@H](O)C2
REMARK SMILES IDX 21 1 19 2 10 3 9 4 7 5 8 6 2 7 3 8 4 9 6 10 20 11 11 13
REMARK SMILES IDX 18 14 12 15 16 16 13 17 14 18 17 19 15 21 5 23 1 25
REMARK H PARENT 20 12 17 20 15 22 5 24 1 26
REMARK Flexibility Score: inf
ROOT
ATOM      1  C   UNL     1     -26.986  84.839 -14.100  1.00  0.00     0.079 C 
ATOM      2  C   UNL     1     -26.171  85.912 -13.354  1.00  0.00     0.164 C 
ATOM      3  C   UNL     1     -26.248  85.666 -11.838  1.00  0.00     0.232 C 
ATOM      4  O   UNL     1     -27.612  85.650 -11.419  1.00  0.00    -0.482 OA
ATOM      5  C   UNL     1     -28.623  85.065 -12.189  1.00  0.00     0.131 A 
ATOM      6  C   UNL     1     -29.897  84.919 -11.635  1.00  0.00     0.093 A 
ATOM      7  C   UNL     1     -30.923  84.323 -12.375  1.00  0.00     0.122 A 
ATOM      8  C   UNL     1     -30.669  83.866 -13.671  1.00  0.00     0.092 A 
ATOM      9  C   UNL     1     -29.399  84.005 -14.241  1.00  0.00     0.126 A 
ATOM     10  C   UNL     1     -28.368  84.646 -13.512  1.00  0.00     0.039 A 
ENDROOT
BRANCH   2  11
ATOM     11  O   UNL     1     -24.832  85.868 -13.775  1.00  0.00    -0.389 OA
ATOM     12  H   UNL     1     -24.361  85.243 -13.166  1.00  0.00     0.211 HD
ENDBRANCH   2  11
BRANCH   3  13
ATOM     13  C   UNL     1     -25.494  86.729 -11.073  1.00  0.00    -0.001 A 
ATOM     14  C   UNL     1     -26.186  87.776 -10.444  1.00  0.00     0.057 A 
ATOM     15  C   UNL     1     -24.098  86.656 -10.941  1.00  0.00     0.012 A 
ATOM     16  C   UNL     1     -25.502  88.752  -9.709  1.00  0.00     0.157 A 
ATOM     17  C   UNL     1     -23.408  87.625 -10.211  1.00  0.00     0.050 A 
ATOM     18  C   UNL     1     -24.093  88.677  -9.594  1.00  0.00     0.157 A 
BRANCH  16  19
ATOM     19  O   UNL     1     -26.254  89.767  -9.115  1.00  0.00    -0.504 OA
ATOM     20  H   UNL     1     -26.012  90.746  -9.153  1.00  0.00     0.293 HD
ENDBRANCH  16  19
BRANCH  18  21
ATOM     21  O   UNL     1     -23.344  89.615  -8.880  1.00  0.00    -0.504 OA
ATOM     22  H   UNL     1     -23.173  90.559  -9.195  1.00  0.00     0.293 HD
ENDBRANCH  18  21
ENDBRANCH   3  13
BRANCH   9  23
ATOM     23  O   UNL     1     -29.194  83.488 -15.522  1.00  0.00    -0.507 OA
ATOM     24  H   UNL     1     -29.144  82.498 -15.721  1.00  0.00     0.293 HD
ENDBRANCH   9  23
BRANCH   7  25
ATOM     25  O   UNL     1     -32.197  84.174 -11.832  1.00  0.00    -0.508 OA
ATOM     26  H   UNL     1     -32.970  84.762 -12.122  1.00  0.00     0.293 HD
ENDBRANCH   7  25
TORSDOF 6
ENDMDL
MODEL 7
REMARK VINA RESULT:    -6.367      1.749      7.031
REMARK INTER + INTRA:          -8.046
REMARK INTER:                  -7.676
REMARK INTRA:                  -0.370
REMARK UNBOUND:                -0.376
REMARK SMILES Oc1cc(O)c2c(c1)O[C@H](c1ccc(O)c(O)c1)[C@@H](O)C2
REMARK SMILES IDX 21 1 19 2 10 3 9 4 7 5 8 6 2 7 3 8 4 9 6 10 20 11 11 13
REMARK SMILES IDX 18 14 12 15 16 16 13 17 14 18 17 19 15 21 5 23 1 25
REMARK H PARENT 20 12 17 20 15 22 5 24 1 26
REMARK Flexibility Score: inf
ROOT
ATOM      1  C   UNL     1     -26.081  80.312 -15.805  1.00  0.00     0.079 C 
ATOM      2  C   UNL     1     -26.100  81.396 -16.898  1.00  0.00     0.164 C 
ATOM      3  C   UNL     1     -25.441  80.858 -18.179  1.00  0.00     0.232 C 
ATOM      4  O   UNL     1     -24.114  80.418 -17.892  1.00  0.00    -0.482 OA
ATOM      5  C   UNL     1     -23.789  79.750 -16.707  1.00  0.00     0.131 A 
ATOM      6  C   UNL     1     -22.519  79.183 -16.576  1.00  0.00     0.093 A 
ATOM      7  C   UNL     1     -22.172  78.496 -15.408  1.00  0.00     0.122 A 
ATOM      8  C   UNL     1     -23.102  78.371 -14.373  1.00  0.00     0.092 A 
ATOM      9  C   UNL     1     -24.378  78.933 -14.488  1.00  0.00     0.126 A 
ATOM     10  C   UNL     1     -24.720  79.666 -15.650  1.00  0.00     0.039 A 
ENDROOT
BRANCH   2  11
ATOM     11  O   UNL     1     -27.425  81.775 -17.169  1.00  0.00    -0.389 OA
ATOM     12  H   UNL     1     -27.911  81.750 -16.305  1.00  0.00     0.211 HD
ENDBRANCH   2  11
BRANCH   3  13
ATOM     13  C   UNL     1     -25.403  81.915 -19.259  1.00  0.00    -0.001 A 
ATOM     14  C   UNL     1     -24.578  83.042 -19.120  1.00  0.00     0.057 A 
ATOM     15  C   UNL     1     -26.153  81.759 -20.435  1.00  0.00     0.012 A 
ATOM     16  C   UNL     1     -24.512  84.015 -20.126  1.00  0.00     0.157 A 
ATOM     17  C   UNL     1     -26.095  82.723 -21.441  1.00  0.00     0.050 A 
ATOM     18  C   UNL     1     -25.284  83.855 -21.301  1.00  0.00     0.157 A 
BRANCH  16  19
ATOM     19  O   UNL     1     -23.674  85.112 -19.918  1.00  0.00    -0.504 OA
ATOM     20  H   UNL     1     -23.551  85.862 -20.582  1.00  0.00     0.293 HD
ENDBRANCH  16  19
BRANCH  18  21
ATOM     21  O   UNL     1     -25.272  84.783 -22.344  1.00  0.00    -0.504 OA
ATOM     22  H   UNL     1     -25.072  84.550 -23.306  1.00  0.00     0.293 HD
ENDBRANCH  18  21
ENDBRANCH   3  13
BRANCH   9  23
ATOM     23  O   UNL     1     -25.280  78.736 -13.440  1.00  0.00    -0.507 OA
ATOM     24  H   UNL     1     -25.022  78.316 -12.557  1.00  0.00     0.293 HD
ENDBRANCH   9  23
BRANCH   7  25
ATOM     25  O   UNL     1     -20.907  77.928 -15.268  1.00  0.00    -0.508 OA
ATOM     26  H   UNL     1     -20.527  77.302 -15.967  1.00  0.00     0.293 HD
ENDBRANCH   7  25
TORSDOF 6
ENDMDL
MODEL 8
REMARK VINA RESULT:    -6.364     10.013     10.807
REMARK INTER + INTRA:          -8.043
REMARK INTER:                  -7.672
REMARK INTRA:                  -0.371
REMARK UNBOUND:                -0.376
REMARK SMILES Oc1cc(O)c2c(c1)O[C@H](c1ccc(O)c(O)c1)[C@@H](O)C2
REMARK SMILES IDX 21 1 19 2 10 3 9 4 7 5 8 6 2 7 3 8 4 9 6 10 20 11 11 13
REMARK SMILES IDX 18 14 12 15 16 16 13 17 14 18 17 19 15 21 5 23 1 25
REMARK H PARENT 20 12 17 20 15 22 5 24 1 26
REMARK Flexibility Score: inf
ROOT
ATOM      1  C   UNL     1     -26.748  91.236 -14.848  1.00  0.00     0.079 C 
ATOM      2  C   UNL     1     -26.325  90.222 -13.770  1.00  0.00     0.164 C 
ATOM      3  C   UNL     1     -25.733  90.964 -12.559  1.00  0.00     0.232 C 
ATOM      4  O   UNL     1     -24.640  91.779 -12.979  1.00  0.00    -0.482 OA
ATOM      5  C   UNL     1     -24.656  92.486 -14.185  1.00  0.00     0.131 A 
ATOM      6  C   UNL     1     -23.639  93.409 -14.443  1.00  0.00     0.093 A 
ATOM      7  C   UNL     1     -23.637  94.142 -15.634  1.00  0.00     0.122 A 
ATOM      8  C   UNL     1     -24.662  93.956 -16.565  1.00  0.00     0.092 A 
ATOM      9  C   UNL     1     -25.688  93.036 -16.323  1.00  0.00     0.126 A 
ATOM     10  C   UNL     1     -25.671  92.260 -15.139  1.00  0.00     0.039 A 
ENDROOT
BRANCH   2  11
ATOM     11  O   UNL     1     -27.438  89.466 -13.366  1.00  0.00    -0.389 OA
ATOM     12  H   UNL     1     -28.235  89.886 -13.781  1.00  0.00     0.211 HD
ENDBRANCH   2  11
BRANCH   3  13
ATOM     13  C   UNL     1     -25.266  89.994 -11.499  1.00  0.00    -0.001 A 
ATOM     14  C   UNL     1     -24.163  89.159 -11.738  1.00  0.00     0.057 A 
ATOM     15  C   UNL     1     -25.898  89.948 -10.246  1.00  0.00     0.012 A 
ATOM     16  C   UNL     1     -23.702  88.275 -10.754  1.00  0.00     0.157 A 
ATOM     17  C   UNL     1     -25.447  89.070  -9.261  1.00  0.00     0.050 A 
ATOM     18  C   UNL     1     -24.355  88.228  -9.499  1.00  0.00     0.157 A 
BRANCH  16  19
ATOM     19  O   UNL     1     -22.602  87.473 -11.062  1.00  0.00    -0.504 OA
ATOM     20  H   UNL     1     -22.180  87.421 -11.978  1.00  0.00     0.293 HD
ENDBRANCH  16  19
BRANCH  18  21
ATOM     21  O   UNL     1     -23.955  87.371  -8.472  1.00  0.00    -0.504 OA
ATOM     22  H   UNL     1     -23.619  86.430  -8.620  1.00  0.00     0.293 HD
ENDBRANCH  18  21
ENDBRANCH   3  13
BRANCH   9  23
ATOM     23  O   UNL     1     -26.710  92.927 -17.270  1.00  0.00    -0.507 OA
ATOM     24  H   UNL     1     -27.146  92.050 -17.518  1.00  0.00     0.293 HD
ENDBRANCH   9  23
BRANCH   7  25
ATOM     25  O   UNL     1     -22.626  95.063 -15.900  1.00  0.00    -0.508 OA
ATOM     26  H   UNL     1     -22.653  96.003 -15.523  1.00  0.00     0.293 HD
ENDBRANCH   7  25
TORSDOF 6
ENDMDL
MODEL 9
REMARK VINA RESULT:    -6.336      8.345      9.940
REMARK INTER + INTRA:          -8.008
REMARK INTER:                  -7.696
REMARK INTRA:                  -0.312
REMARK UNBOUND:                -0.376
REMARK SMILES Oc1cc(O)c2c(c1)O[C@H](c1ccc(O)c(O)c1)[C@@H](O)C2
REMARK SMILES IDX 21 1 19 2 10 3 9 4 7 5 8 6 2 7 3 8 4 9 6 10 20 11 11 13
REMARK SMILES IDX 18 14 12 15 16 16 13 17 14 18 17 19 15 21 5 23 1 25
REMARK H PARENT 20 12 17 20 15 22 5 24 1 26
REMARK Flexibility Score: inf
ROOT
ATOM      1  C   UNL     1     -28.975  85.450 -12.522  1.00  0.00     0.079 C 
ATOM      2  C   UNL     1     -28.209  86.321 -11.510  1.00  0.00     0.164 C 
ATOM      3  C   UNL     1     -26.941  86.891 -12.167  1.00  0.00     0.232 C 
ATOM      4  O   UNL     1     -26.134  85.826 -12.668  1.00  0.00    -0.482 OA
ATOM      5  C   UNL     1     -26.686  84.695 -13.277  1.00  0.00     0.131 A 
ATOM      6  C   UNL     1     -25.836  83.784 -13.911  1.00  0.00     0.093 A 
ATOM      7  C   UNL     1     -26.361  82.652 -14.543  1.00  0.00     0.122 A 
ATOM      8  C   UNL     1     -27.741  82.437 -14.546  1.00  0.00     0.092 A 
ATOM      9  C   UNL     1     -28.607  83.338 -13.916  1.00  0.00     0.126 A 
ATOM     10  C   UNL     1     -28.077  84.463 -13.238  1.00  0.00     0.039 A 
ENDROOT
BRANCH   2  11
ATOM     11  O   UNL     1     -29.030  87.372 -11.070  1.00  0.00    -0.389 OA
ATOM     12  H   UNL     1     -29.227  87.932 -11.865  1.00  0.00     0.211 HD
ENDBRANCH   2  11
BRANCH   3  13
ATOM     13  C   UNL     1     -26.141  87.716 -11.185  1.00  0.00    -0.001 A 
ATOM     14  C   UNL     1     -25.874  87.224  -9.897  1.00  0.00     0.057 A 
ATOM     15  C   UNL     1     -25.614  88.961 -11.563  1.00  0.00     0.012 A 
ATOM     16  C   UNL     1     -25.110  87.965  -8.987  1.00  0.00     0.157 A 
ATOM     17  C   UNL     1     -24.854  89.707 -10.662  1.00  0.00     0.050 A 
ATOM     18  C   UNL     1     -24.596  89.226  -9.374  1.00  0.00     0.157 A 
BRANCH  16  19
ATOM     19  O   UNL     1     -24.889  87.416  -7.723  1.00  0.00    -0.504 OA
ATOM     20  H   UNL     1     -24.235  87.791  -7.051  1.00  0.00     0.293 HD
ENDBRANCH  16  19
BRANCH  18  21
ATOM     21  O   UNL     1     -23.830  90.022  -8.520  1.00  0.00    -0.504 OA
ATOM     22  H   UNL     1     -23.192  89.657  -7.827  1.00  0.00     0.293 HD
ENDBRANCH  18  21
ENDBRANCH   3  13
BRANCH   9  23
ATOM     23  O   UNL     1     -29.980  83.093 -13.992  1.00  0.00    -0.507 OA
ATOM     24  H   UNL     1     -30.645  83.439 -13.314  1.00  0.00     0.293 HD
ENDBRANCH   9  23
BRANCH   7  25
ATOM     25  O   UNL     1     -25.521  81.738 -15.176  1.00  0.00    -0.508 OA
ATOM     26  H   UNL     1     -24.517  81.871 -15.202  1.00  0.00     0.293 HD
ENDBRANCH   7  25
TORSDOF 6
ENDMDL
