MODEL 1
REMARK VINA RESULT:    -2.074      0.000      0.000
REMARK INTER + INTRA:          -5.656
REMARK INTER:                  -3.771
REMARK INTRA:                  -1.885
REMARK UNBOUND:                -1.885
REMARK SMILES CCCCCCCCCCCCCCCC(=O)[O-]
REMARK SMILES IDX 9 1 10 2 11 3 12 4 13 5 14 6 15 7 16 8 17 9 18 10 8 11 7 12
REMARK SMILES IDX 6 13 5 14 4 15 3 16 2 17 1 18
REMARK H PARENT
REMARK Flexibility Score: inf
ROOT
ATOM      1  C   UNL     1      18.857 -15.740  16.048  1.00  0.00     0.000 C 
ENDROOT
BRANCH   1   2
ATOM      2  C   UNL     1      17.518 -16.171  16.669  1.00  0.00     0.000 C 
BRANCH   2   3
ATOM      3  C   UNL     1      16.689 -17.059  15.727  1.00  0.00     0.000 C 
BRANCH   3   4
ATOM      4  C   UNL     1      17.541 -18.110  14.993  1.00  0.00     0.000 C 
BRANCH   4   5
ATOM      5  C   UNL     1      17.416 -18.099  13.456  1.00  0.00     0.000 C 
BRANCH   5   6
ATOM      6  C   UNL     1      18.025 -16.867  12.757  1.00  0.00     0.006 C 
BRANCH   6   7
ATOM      7  C   UNL     1      19.022 -17.203  11.636  1.00  0.00     0.053 C 
BRANCH   7   8
ATOM      8  C   UNL     1      18.486 -16.843  10.284  1.00  0.00     0.041 C 
ATOM      9  O   UNL     1      17.789 -17.671   9.639  1.00  0.00    -0.550 OA
ATOM     10  O   UNL     1      18.728 -15.583   9.752  1.00  0.00    -0.550 OA
ENDBRANCH   7   8
ENDBRANCH   6   7
ENDBRANCH   5   6
ENDBRANCH   4   5
ENDBRANCH   3   4
ENDBRANCH   2   3
ENDBRANCH   1   2
BRANCH   1  11
ATOM     11  C   UNL     1      19.995 -15.679  17.083  1.00  0.00     0.000 C 
BRANCH  11  12
ATOM     12  C   UNL     1      21.139 -16.654  16.761  1.00  0.00    -0.000 C 
BRANCH  12  13
ATOM     13  C   UNL     1      20.639 -17.989  16.189  1.00  0.00    -0.000 C 
BRANCH  13  14
ATOM     14  C   UNL     1      21.021 -18.125  14.706  1.00  0.00    -0.000 C 
BRANCH  14  15
ATOM     15  C   UNL     1      22.515 -17.868  14.451  1.00  0.00    -0.000 C 
BRANCH  15  16
ATOM     16  C   UNL     1      22.756 -16.786  13.385  1.00  0.00    -0.000 C 
BRANCH  16  17
ATOM     17  C   UNL     1      21.821 -15.577  13.551  1.00  0.00    -0.003 C 
ATOM     18  C   UNL     1      22.507 -14.383  14.213  1.00  0.00     0.004 C 
ENDBRANCH  16  17
ENDBRANCH  15  16
ENDBRANCH  14  15
ENDBRANCH  13  14
ENDBRANCH  12  13
ENDBRANCH  11  12
ENDBRANCH   1  11
TORSDOF 14
ENDMDL
MODEL 2
REMARK VINA RESULT:    -2.062      2.415      4.857
REMARK INTER + INTRA:          -5.634
REMARK INTER:                  -3.988
REMARK INTRA:                  -1.645
REMARK UNBOUND:                -1.885
REMARK SMILES CCCCCCCCCCCCCCCC(=O)[O-]
REMARK SMILES IDX 9 1 10 2 11 3 12 4 13 5 14 6 15 7 16 8 17 9 18 10 8 11 7 12
REMARK SMILES IDX 6 13 5 14 4 15 3 16 2 17 1 18
REMARK H PARENT
REMARK Flexibility Score: inf
ROOT
ATOM      1  C   UNL     1      17.204 -17.481  14.802  1.00  0.00     0.000 C 
ENDROOT
BRANCH   1   2
ATOM      2  C   UNL     1      17.514 -17.626  16.302  1.00  0.00     0.000 C 
BRANCH   2   3
ATOM      3  C   UNL     1      18.261 -16.408  16.871  1.00  0.00     0.000 C 
BRANCH   3   4
ATOM      4  C   UNL     1      19.758 -16.680  17.101  1.00  0.00     0.000 C 
BRANCH   4   5
ATOM      5  C   UNL     1      20.696 -15.498  16.788  1.00  0.00     0.000 C 
BRANCH   5   6
ATOM      6  C   UNL     1      22.192 -15.857  16.679  1.00  0.00     0.006 C 
BRANCH   6   7
ATOM      7  C   UNL     1      22.491 -17.053  15.762  1.00  0.00     0.053 C 
BRANCH   7   8
ATOM      8  C   UNL     1      22.723 -16.627  14.344  1.00  0.00     0.041 C 
ATOM      9  O   UNL     1      22.726 -15.404  14.044  1.00  0.00    -0.550 OA
ATOM     10  O   UNL     1      22.966 -17.578  13.362  1.00  0.00    -0.550 OA
ENDBRANCH   7   8
ENDBRANCH   6   7
ENDBRANCH   5   6
ENDBRANCH   4   5
ENDBRANCH   3   4
ENDBRANCH   2   3
ENDBRANCH   1   2
BRANCH   1  11
ATOM     11  C   UNL     1      17.699 -16.143  14.225  1.00  0.00     0.000 C 
BRANCH  11  12
ATOM     12  C   UNL     1      19.064 -16.271  13.528  1.00  0.00    -0.000 C 
BRANCH  12  13
ATOM     13  C   UNL     1      19.454 -17.729  13.245  1.00  0.00    -0.000 C 
BRANCH  13  14
ATOM     14  C   UNL     1      19.363 -18.038  11.743  1.00  0.00    -0.000 C 
BRANCH  14  15
ATOM     15  C   UNL     1      17.912 -18.122  11.240  1.00  0.00    -0.000 C 
BRANCH  15  16
ATOM     16  C   UNL     1      17.665 -17.251   9.998  1.00  0.00    -0.000 C 
BRANCH  16  17
ATOM     17  C   UNL     1      18.832 -16.292   9.710  1.00  0.00    -0.003 C 
ATOM     18  C   UNL     1      18.422 -15.101   8.845  1.00  0.00     0.004 C 
ENDBRANCH  16  17
ENDBRANCH  15  16
ENDBRANCH  14  15
ENDBRANCH  13  14
ENDBRANCH  12  13
ENDBRANCH  11  12
ENDBRANCH   1  11
TORSDOF 14
ENDMDL
MODEL 3
REMARK VINA RESULT:    -2.048      2.923      4.813
REMARK INTER + INTRA:          -5.610
REMARK INTER:                  -4.206
REMARK INTRA:                  -1.404
REMARK UNBOUND:                -1.885
REMARK SMILES CCCCCCCCCCCCCCCC(=O)[O-]
REMARK SMILES IDX 9 1 10 2 11 3 12 4 13 5 14 6 15 7 16 8 17 9 18 10 8 11 7 12
REMARK SMILES IDX 6 13 5 14 4 15 3 16 2 17 1 18
REMARK H PARENT
REMARK Flexibility Score: inf
ROOT
ATOM      1  C   UNL     1      17.639 -17.165  12.143  1.00  0.00     0.000 C 
ENDROOT
BRANCH   1   2
ATOM      2  C   UNL     1      17.170 -16.974  13.595  1.00  0.00     0.000 C 
BRANCH   2   3
ATOM      3  C   UNL     1      18.064 -17.711  14.606  1.00  0.00     0.000 C 
BRANCH   3   4
ATOM      4  C   UNL     1      18.174 -16.976  15.953  1.00  0.00     0.000 C 
BRANCH   4   5
ATOM      5  C   UNL     1      17.161 -15.832  16.162  1.00  0.00     0.000 C 
BRANCH   5   6
ATOM      6  C   UNL     1      15.982 -16.163  17.099  1.00  0.00     0.006 C 
BRANCH   6   7
ATOM      7  C   UNL     1      15.490 -17.616  17.011  1.00  0.00     0.053 C 
BRANCH   7   8
ATOM      8  C   UNL     1      14.111 -17.706  16.433  1.00  0.00     0.041 C 
ATOM      9  O   UNL     1      13.112 -17.373  17.125  1.00  0.00    -0.550 OA
ATOM     10  O   UNL     1      13.931 -18.125  15.121  1.00  0.00    -0.550 OA
ENDBRANCH   7   8
ENDBRANCH   6   7
ENDBRANCH   5   6
ENDBRANCH   4   5
ENDBRANCH   3   4
ENDBRANCH   2   3
ENDBRANCH   1   2
BRANCH   1  11
ATOM     11  C   UNL     1      18.930 -16.387  11.832  1.00  0.00     0.000 C 
BRANCH  11  12
ATOM     12  C   UNL     1      20.134 -17.313  11.596  1.00  0.00    -0.000 C 
BRANCH  12  13
ATOM     13  C   UNL     1      21.007 -17.486  12.848  1.00  0.00    -0.000 C 
BRANCH  13  14
ATOM     14  C   UNL     1      21.161 -16.152  13.595  1.00  0.00    -0.000 C 
BRANCH  14  15
ATOM     15  C   UNL     1      22.495 -16.046  14.352  1.00  0.00    -0.000 C 
BRANCH  15  16
ATOM     16  C   UNL     1      22.453 -15.003  15.482  1.00  0.00    -0.000 C 
BRANCH  16  17
ATOM     17  C   UNL     1      21.900 -15.579  16.795  1.00  0.00    -0.003 C 
ATOM     18  C   UNL     1      21.928 -17.106  16.831  1.00  0.00     0.004 C 
ENDBRANCH  16  17
ENDBRANCH  15  16
ENDBRANCH  14  15
ENDBRANCH  13  14
ENDBRANCH  12  13
ENDBRANCH  11  12
ENDBRANCH   1  11
TORSDOF 14
ENDMDL
MODEL 4
REMARK VINA RESULT:    -2.036      1.292      2.146
REMARK INTER + INTRA:          -5.587
REMARK INTER:                  -4.396
REMARK INTRA:                  -1.191
REMARK UNBOUND:                -1.885
REMARK SMILES CCCCCCCCCCCCCCCC(=O)[O-]
REMARK SMILES IDX 9 1 10 2 11 3 12 4 13 5 14 6 15 7 16 8 17 9 18 10 8 11 7 12
REMARK SMILES IDX 6 13 5 14 4 15 3 16 2 17 1 18
REMARK H PARENT
REMARK Flexibility Score: inf
ROOT
ATOM      1  C   UNL     1      18.855 -16.247  14.628  1.00  0.00     0.000 C 
ENDROOT
BRANCH   1   2
ATOM      2  C   UNL     1      18.613 -17.751  14.418  1.00  0.00     0.000 C 
BRANCH   2   3
ATOM      3  C   UNL     1      17.123 -18.125  14.484  1.00  0.00     0.000 C 
BRANCH   3   4
ATOM      4  C   UNL     1      16.271 -17.368  13.450  1.00  0.00     0.000 C 
BRANCH   4   5
ATOM      5  C   UNL     1      16.011 -18.125  12.132  1.00  0.00     0.000 C 
BRANCH   5   6
ATOM      6  C   UNL     1      17.141 -18.028  11.086  1.00  0.00     0.006 C 
BRANCH   6   7
ATOM      7  C   UNL     1      18.140 -16.887  11.336  1.00  0.00     0.053 C 
BRANCH   7   8
ATOM      8  C   UNL     1      19.020 -16.644  10.148  1.00  0.00     0.041 C 
ATOM      9  O   UNL     1      18.668 -15.826   9.257  1.00  0.00    -0.550 OA
ATOM     10  O   UNL     1      20.242 -17.295  10.041  1.00  0.00    -0.550 OA
ENDBRANCH   7   8
ENDBRANCH   6   7
ENDBRANCH   5   6
ENDBRANCH   4   5
ENDBRANCH   3   4
ENDBRANCH   2   3
ENDBRANCH   1   2
BRANCH   1  11
ATOM     11  C   UNL     1      18.795 -15.842  16.111  1.00  0.00     0.000 C 
BRANCH  11  12
ATOM     12  C   UNL     1      19.628 -16.770  17.010  1.00  0.00    -0.000 C 
BRANCH  12  13
ATOM     13  C   UNL     1      21.102 -16.844  16.587  1.00  0.00    -0.000 C 
BRANCH  13  14
ATOM     14  C   UNL     1      21.886 -15.637  17.125  1.00  0.00    -0.000 C 
BRANCH  14  15
ATOM     15  C   UNL     1      22.835 -15.029  16.078  1.00  0.00    -0.000 C 
BRANCH  15  16
ATOM     16  C   UNL     1      22.210 -14.975  14.674  1.00  0.00    -0.000 C 
BRANCH  16  17
ATOM     17  C   UNL     1      22.960 -15.855  13.661  1.00  0.00    -0.003 C 
ATOM     18  C   UNL     1      22.090 -16.972  13.087  1.00  0.00     0.004 C 
ENDBRANCH  16  17
ENDBRANCH  15  16
ENDBRANCH  14  15
ENDBRANCH  13  14
ENDBRANCH  12  13
ENDBRANCH  11  12
ENDBRANCH   1  11
TORSDOF 14
ENDMDL
MODEL 5
REMARK VINA RESULT:    -1.944      2.764      5.885
REMARK INTER + INTRA:          -5.420
REMARK INTER:                  -4.140
REMARK INTRA:                  -1.280
REMARK UNBOUND:                -1.885
REMARK SMILES CCCCCCCCCCCCCCCC(=O)[O-]
REMARK SMILES IDX 9 1 10 2 11 3 12 4 13 5 14 6 15 7 16 8 17 9 18 10 8 11 7 12
REMARK SMILES IDX 6 13 5 14 4 15 3 16 2 17 1 18
REMARK H PARENT
REMARK Flexibility Score: inf
ROOT
ATOM      1  C   UNL     1      18.021 -16.383  12.661  1.00  0.00     0.000 C 
ENDROOT
BRANCH   1   2
ATOM      2  C   UNL     1      18.691 -16.736  11.323  1.00  0.00     0.000 C 
BRANCH   2   3
ATOM      3  C   UNL     1      19.552 -18.007  11.410  1.00  0.00     0.000 C 
BRANCH   3   4
ATOM      4  C   UNL     1      20.869 -17.892  10.623  1.00  0.00     0.000 C 
BRANCH   4   5
ATOM      5  C   UNL     1      22.152 -18.053  11.462  1.00  0.00     0.000 C 
BRANCH   5   6
ATOM      6  C   UNL     1      22.042 -17.582  12.926  1.00  0.00     0.006 C 
BRANCH   6   7
ATOM      7  C   UNL     1      22.994 -16.433  13.295  1.00  0.00     0.053 C 
BRANCH   7   8
ATOM      8  C   UNL     1      22.622 -15.796  14.600  1.00  0.00     0.041 C 
ATOM      9  O   UNL     1      22.290 -14.581  14.639  1.00  0.00    -0.550 OA
ATOM     10  O   UNL     1      22.612 -16.551  15.766  1.00  0.00    -0.550 OA
ENDBRANCH   7   8
ENDBRANCH   6   7
ENDBRANCH   5   6
ENDBRANCH   4   5
ENDBRANCH   3   4
ENDBRANCH   2   3
ENDBRANCH   1   2
BRANCH   1  11
ATOM     11  C   UNL     1      18.890 -16.763  13.874  1.00  0.00     0.000 C 
BRANCH  11  12
ATOM     12  C   UNL     1      18.875 -15.685  14.970  1.00  0.00    -0.000 C 
BRANCH  12  13
ATOM     13  C   UNL     1      17.832 -15.962  16.063  1.00  0.00    -0.000 C 
BRANCH  13  14
ATOM     14  C   UNL     1      18.170 -17.251  16.828  1.00  0.00    -0.000 C 
BRANCH  14  15
ATOM     15  C   UNL     1      16.929 -18.109  17.125  1.00  0.00    -0.000 C 
BRANCH  15  16
ATOM     16  C   UNL     1      15.751 -17.789  16.190  1.00  0.00    -0.000 C 
BRANCH  16  17
ATOM     17  C   UNL     1      14.444 -17.534  16.957  1.00  0.00    -0.003 C 
ATOM     18  C   UNL     1      13.201 -17.928  16.160  1.00  0.00     0.004 C 
ENDBRANCH  16  17
ENDBRANCH  15  16
ENDBRANCH  14  15
ENDBRANCH  13  14
ENDBRANCH  12  13
ENDBRANCH  11  12
ENDBRANCH   1  11
TORSDOF 14
ENDMDL
MODEL 6
REMARK VINA RESULT:    -1.717      2.108      3.884
REMARK INTER + INTRA:          -5.006
REMARK INTER:                  -4.300
REMARK INTRA:                  -0.706
REMARK UNBOUND:                -1.885
REMARK SMILES CCCCCCCCCCCCCCCC(=O)[O-]
REMARK SMILES IDX 9 1 10 2 11 3 12 4 13 5 14 6 15 7 16 8 17 9 18 10 8 11 7 12
REMARK SMILES IDX 6 13 5 14 4 15 3 16 2 17 1 18
REMARK H PARENT
REMARK Flexibility Score: inf
ROOT
ATOM      1  C   UNL     1      19.004 -16.462  13.328  1.00  0.00     0.000 C 
ENDROOT
BRANCH   1   2
ATOM      2  C   UNL     1      17.470 -16.366  13.391  1.00  0.00     0.000 C 
BRANCH   2   3
ATOM      3  C   UNL     1      16.775 -17.462  12.567  1.00  0.00     0.000 C 
BRANCH   3   4
ATOM      4  C   UNL     1      17.713 -18.123  11.541  1.00  0.00     0.000 C 
BRANCH   4   5
ATOM      5  C   UNL     1      18.134 -17.223  10.362  1.00  0.00     0.000 C 
BRANCH   5   6
ATOM      6  C   UNL     1      19.640 -17.238  10.030  1.00  0.00     0.006 C 
BRANCH   6   7
ATOM      7  C   UNL     1      20.509 -17.975  11.062  1.00  0.00     0.053 C 
BRANCH   7   8
ATOM      8  C   UNL     1      21.964 -17.923  10.706  1.00  0.00     0.041 C 
ATOM      9  O   UNL     1      22.318 -17.668   9.524  1.00  0.00    -0.550 OA
ATOM     10  O   UNL     1      22.928 -18.125  11.685  1.00  0.00    -0.550 OA
ENDBRANCH   7   8
ENDBRANCH   6   7
ENDBRANCH   5   6
ENDBRANCH   4   5
ENDBRANCH   3   4
ENDBRANCH   2   3
ENDBRANCH   1   2
BRANCH   1  11
ATOM     11  C   UNL     1      19.696 -15.189  13.845  1.00  0.00     0.000 C 
BRANCH  11  12
ATOM     12  C   UNL     1      21.220 -15.354  13.965  1.00  0.00    -0.000 C 
BRANCH  12  13
ATOM     13  C   UNL     1      21.746 -15.024  15.370  1.00  0.00    -0.000 C 
BRANCH  13  14
ATOM     14  C   UNL     1      21.530 -16.208  16.326  1.00  0.00    -0.000 C 
BRANCH  14  15
ATOM     15  C   UNL     1      20.068 -16.344  16.781  1.00  0.00    -0.000 C 
BRANCH  15  16
ATOM     16  C   UNL     1      19.620 -17.811  16.903  1.00  0.00    -0.000 C 
BRANCH  16  17
ATOM     17  C   UNL     1      18.097 -17.951  17.056  1.00  0.00    -0.003 C 
ATOM     18  C   UNL     1      17.351 -16.644  16.790  1.00  0.00     0.004 C 
ENDBRANCH  16  17
ENDBRANCH  15  16
ENDBRANCH  14  15
ENDBRANCH  13  14
ENDBRANCH  12  13
ENDBRANCH  11  12
ENDBRANCH   1  11
TORSDOF 14
ENDMDL
MODEL 7
REMARK VINA RESULT:    -1.625      2.860      6.210
REMARK INTER + INTRA:          -4.840
REMARK INTER:                  -3.315
REMARK INTRA:                  -1.525
REMARK UNBOUND:                -1.885
REMARK SMILES CCCCCCCCCCCCCCCC(=O)[O-]
REMARK SMILES IDX 9 1 10 2 11 3 12 4 13 5 14 6 15 7 16 8 17 9 18 10 8 11 7 12
REMARK SMILES IDX 6 13 5 14 4 15 3 16 2 17 1 18
REMARK H PARENT
REMARK Flexibility Score: inf
ROOT
ATOM      1  C   UNL     1      20.428 -17.245  11.213  1.00  0.00     0.000 C 
ENDROOT
BRANCH   1   2
ATOM      2  C   UNL     1      21.612 -17.900  10.481  1.00  0.00     0.000 C 
BRANCH   2   3
ATOM      3  C   UNL     1      22.824 -18.125  11.400  1.00  0.00     0.000 C 
BRANCH   3   4
ATOM      4  C   UNL     1      22.903 -17.100  12.545  1.00  0.00     0.000 C 
BRANCH   4   5
ATOM      5  C   UNL     1      22.858 -17.697  13.966  1.00  0.00     0.000 C 
BRANCH   5   6
ATOM      6  C   UNL     1      21.458 -17.752  14.611  1.00  0.00     0.006 C 
BRANCH   6   7
ATOM      7  C   UNL     1      21.448 -17.494  16.126  1.00  0.00     0.053 C 
BRANCH   7   8
ATOM      8  C   UNL     1      22.049 -16.165  16.471  1.00  0.00     0.041 C 
ATOM      9  O   UNL     1      23.125 -16.108  17.124  1.00  0.00    -0.550 OA
ATOM     10  O   UNL     1      21.439 -14.993  16.044  1.00  0.00    -0.550 OA
ENDBRANCH   7   8
ENDBRANCH   6   7
ENDBRANCH   5   6
ENDBRANCH   4   5
ENDBRANCH   3   4
ENDBRANCH   2   3
ENDBRANCH   1   2
BRANCH   1  11
ATOM     11  C   UNL     1      19.080 -17.532  10.528  1.00  0.00     0.000 C 
BRANCH  11  12
ATOM     12  C   UNL     1      17.889 -16.948  11.304  1.00  0.00    -0.000 C 
BRANCH  12  13
ATOM     13  C   UNL     1      18.163 -16.823  12.811  1.00  0.00    -0.000 C 
BRANCH  13  14
ATOM     14  C   UNL     1      17.678 -18.074  13.560  1.00  0.00    -0.000 C 
BRANCH  14  15
ATOM     15  C   UNL     1      16.573 -17.762  14.583  1.00  0.00    -0.000 C 
BRANCH  15  16
ATOM     16  C   UNL     1      17.018 -18.022  16.032  1.00  0.00    -0.000 C 
BRANCH  16  17
ATOM     17  C   UNL     1      17.072 -16.735  16.871  1.00  0.00    -0.003 C 
ATOM     18  C   UNL     1      18.051 -15.703  16.311  1.00  0.00     0.004 C 
ENDBRANCH  16  17
ENDBRANCH  15  16
ENDBRANCH  14  15
ENDBRANCH  13  14
ENDBRANCH  12  13
ENDBRANCH  11  12
ENDBRANCH   1  11
TORSDOF 14
ENDMDL
MODEL 8
REMARK VINA RESULT:    -1.571      2.848      5.621
REMARK INTER + INTRA:          -4.742
REMARK INTER:                  -3.583
REMARK INTRA:                  -1.159
REMARK UNBOUND:                -1.885
REMARK SMILES CCCCCCCCCCCCCCCC(=O)[O-]
REMARK SMILES IDX 9 1 10 2 11 3 12 4 13 5 14 6 15 7 16 8 17 9 18 10 8 11 7 12
REMARK SMILES IDX 6 13 5 14 4 15 3 16 2 17 1 18
REMARK H PARENT
REMARK Flexibility Score: inf
ROOT
ATOM      1  C   UNL     1      17.522 -17.101  10.451  1.00  0.00     0.000 C 
ENDROOT
BRANCH   1   2
ATOM      2  C   UNL     1      18.995 -16.817  10.110  1.00  0.00     0.000 C 
BRANCH   2   3
ATOM      3  C   UNL     1      19.962 -17.782  10.815  1.00  0.00     0.000 C 
BRANCH   3   4
ATOM      4  C   UNL     1      20.492 -17.228  12.148  1.00  0.00     0.000 C 
BRANCH   4   5
ATOM      5  C   UNL     1      21.518 -18.125  12.870  1.00  0.00     0.000 C 
BRANCH   5   6
ATOM      6  C   UNL     1      22.943 -17.544  12.970  1.00  0.00     0.006 C 
BRANCH   6   7
ATOM      7  C   UNL     1      23.001 -16.090  13.465  1.00  0.00     0.053 C 
BRANCH   7   8
ATOM      8  C   UNL     1      23.028 -16.010  14.962  1.00  0.00     0.041 C 
ATOM      9  O   UNL     1      22.991 -17.063  15.652  1.00  0.00    -0.550 OA
ATOM     10  O   UNL     1      23.125 -14.776  15.592  1.00  0.00    -0.550 OA
ENDBRANCH   7   8
ENDBRANCH   6   7
ENDBRANCH   5   6
ENDBRANCH   4   5
ENDBRANCH   3   4
ENDBRANCH   2   3
ENDBRANCH   1   2
BRANCH   1  11
ATOM     11  C   UNL     1      17.368 -18.108  11.604  1.00  0.00     0.000 C 
BRANCH  11  12
ATOM     12  C   UNL     1      16.673 -17.497  12.831  1.00  0.00    -0.000 C 
BRANCH  12  13
ATOM     13  C   UNL     1      17.385 -17.835  14.150  1.00  0.00    -0.000 C 
BRANCH  13  14
ATOM     14  C   UNL     1      16.527 -17.423  15.356  1.00  0.00    -0.000 C 
BRANCH  14  15
ATOM     15  C   UNL     1      17.281 -17.542  16.690  1.00  0.00    -0.000 C 
BRANCH  15  16
ATOM     16  C   UNL     1      17.928 -16.216  17.125  1.00  0.00    -0.000 C 
BRANCH  16  17
ATOM     17  C   UNL     1      19.416 -16.137  16.748  1.00  0.00    -0.003 C 
ATOM     18  C   UNL     1      19.648 -15.509  15.374  1.00  0.00     0.004 C 
ENDBRANCH  16  17
ENDBRANCH  15  16
ENDBRANCH  14  15
ENDBRANCH  13  14
ENDBRANCH  12  13
ENDBRANCH  11  12
ENDBRANCH   1  11
TORSDOF 14
ENDMDL
