MODEL 1
REMARK VINA RESULT:    -5.630      0.000      0.000
REMARK INTER + INTRA:          -7.318
REMARK INTER:                  -7.111
REMARK INTRA:                  -0.207
REMARK UNBOUND:                -0.207
REMARK SMILES COc1cc(O)c2c(=O)c(OC)c(-c3ccc(O)c(O)c3)oc2c1
REMARK SMILES IDX 3 1 4 2 5 3 7 4 23 5 24 6 22 7 13 8 10 9 8 10 9 11 2 12 1 13
REMARK SMILES IDX 6 14 14 16 21 17 15 18 19 19 16 20 17 21 20 22 18 24 11 26
REMARK SMILES IDX 12 27
REMARK H PARENT 6 15 20 23 18 25
REMARK Flexibility Score: inf
ROOT
ATOM      1  C   UNL     1      14.694  51.246  61.253  1.00  0.00     0.126 A 
ATOM      2  C   UNL     1      14.731  50.200  60.318  1.00  0.00     0.093 A 
ATOM      3  C   UNL     1      13.641  49.335  60.155  1.00  0.00     0.134 A 
ATOM      4  C   UNL     1      12.444  49.561  60.898  1.00  0.00     0.111 A 
ATOM      5  C   UNL     1      12.434  50.602  61.858  1.00  0.00     0.146 A 
ATOM      6  C   UNL     1      13.549  51.425  62.027  1.00  0.00     0.094 A 
ATOM      7  O   UNL     1      11.366  50.821  62.612  1.00  0.00    -0.452 OA
ATOM      8  C   UNL     1      10.246  50.116  62.518  1.00  0.00     0.180 A 
ATOM      9  C   UNL     1      10.123  49.110  61.540  1.00  0.00     0.210 A 
ATOM     10  C   UNL     1      11.237  48.842  60.711  1.00  0.00     0.239 A 
ATOM     11  O   UNL     1      11.134  48.001  59.782  1.00  0.00    -0.285 OA
ENDROOT
BRANCH   1  12
ATOM     12  O   UNL     1      15.774  52.119  61.449  1.00  0.00    -0.496 OA
ATOM     13  C   UNL     1      16.910  51.827  62.258  1.00  0.00     0.278 C 
ENDBRANCH   1  12
BRANCH   3  14
ATOM     14  O   UNL     1      13.821  48.264  59.276  1.00  0.00    -0.507 OA
ATOM     15  H   UNL     1      13.090  47.864  58.706  1.00  0.00     0.293 HD
ENDBRANCH   3  14
BRANCH   8  16
ATOM     16  C   UNL     1       9.142  50.445  63.449  1.00  0.00     0.025 A 
ATOM     17  C   UNL     1       8.552  49.461  64.260  1.00  0.00     0.062 A 
ATOM     18  C   UNL     1       8.714  51.775  63.570  1.00  0.00     0.016 A 
ATOM     19  C   UNL     1       7.525  49.786  65.155  1.00  0.00     0.158 A 
ATOM     20  C   UNL     1       7.690  52.108  64.456  1.00  0.00     0.051 A 
ATOM     21  C   UNL     1       7.083  51.128  65.250  1.00  0.00     0.157 A 
BRANCH  19  22
ATOM     22  O   UNL     1       6.982  48.758  65.927  1.00  0.00    -0.504 OA
ATOM     23  H   UNL     1       6.689  47.866  65.554  1.00  0.00     0.293 HD
ENDBRANCH  19  22
BRANCH  21  24
ATOM     24  O   UNL     1       6.059  51.527  66.111  1.00  0.00    -0.504 OA
ATOM     25  H   UNL     1       5.200  51.013  66.243  1.00  0.00     0.293 HD
ENDBRANCH  21  24
ENDBRANCH   8  16
BRANCH   9  26
ATOM     26  O   UNL     1       8.883  48.450  61.419  1.00  0.00    -0.490 OA
ATOM     27  C   UNL     1       7.819  48.797  60.537  1.00  0.00     0.278 C 
ENDBRANCH   9  26
TORSDOF 6
ENDMDL
MODEL 2
REMARK VINA RESULT:    -5.013      3.310      6.513
REMARK INTER + INTRA:          -6.540
REMARK INTER:                  -6.265
REMARK INTRA:                  -0.275
REMARK UNBOUND:                -0.207
REMARK SMILES COc1cc(O)c2c(=O)c(OC)c(-c3ccc(O)c(O)c3)oc2c1
REMARK SMILES IDX 3 1 4 2 5 3 7 4 23 5 24 6 22 7 13 8 10 9 8 10 9 11 2 12 1 13
REMARK SMILES IDX 6 14 14 16 21 17 15 18 19 19 16 20 17 21 20 22 18 24 11 26
REMARK SMILES IDX 12 27
REMARK H PARENT 6 15 20 23 18 25
REMARK Flexibility Score: inf
ROOT
ATOM      1  C   UNL     1      19.875  52.013  63.148  1.00  0.00     0.126 A 
ATOM      2  C   UNL     1      20.598  52.124  61.950  1.00  0.00     0.093 A 
ATOM      3  C   UNL     1      19.963  52.009  60.707  1.00  0.00     0.134 A 
ATOM      4  C   UNL     1      18.545  51.850  60.652  1.00  0.00     0.111 A 
ATOM      5  C   UNL     1      17.836  51.711  61.870  1.00  0.00     0.146 A 
ATOM      6  C   UNL     1      18.501  51.790  63.094  1.00  0.00     0.094 A 
ATOM      7  O   UNL     1      16.526  51.507  61.872  1.00  0.00    -0.452 OA
ATOM      8  C   UNL     1      15.792  51.439  60.769  1.00  0.00     0.180 A 
ATOM      9  C   UNL     1      16.387  51.644  59.510  1.00  0.00     0.210 A 
ATOM     10  C   UNL     1      17.783  51.867  59.457  1.00  0.00     0.239 A 
ATOM     11  O   UNL     1      18.332  52.125  58.356  1.00  0.00    -0.285 OA
ENDROOT
BRANCH   1  12
ATOM     12  O   UNL     1      20.486  52.109  64.408  1.00  0.00    -0.496 OA
ATOM     13  C   UNL     1      19.945  51.568  65.609  1.00  0.00     0.278 C 
ENDBRANCH   1  12
BRANCH   3  14
ATOM     14  O   UNL     1      20.788  52.027  59.580  1.00  0.00    -0.507 OA
ATOM     15  H   UNL     1      21.766  52.275  59.592  1.00  0.00     0.293 HD
ENDBRANCH   3  14
BRANCH   8  16
ATOM     16  C   UNL     1      14.343  51.171  60.918  1.00  0.00     0.025 A 
ATOM     17  C   UNL     1      13.765  49.987  60.433  1.00  0.00     0.062 A 
ATOM     18  C   UNL     1      13.539  52.089  61.609  1.00  0.00     0.016 A 
ATOM     19  C   UNL     1      12.398  49.731  60.600  1.00  0.00     0.158 A 
ATOM     20  C   UNL     1      12.176  51.844  61.778  1.00  0.00     0.051 A 
ATOM     21  C   UNL     1      11.590  50.676  61.277  1.00  0.00     0.157 A 
BRANCH  19  22
ATOM     22  O   UNL     1      11.891  48.535  60.089  1.00  0.00    -0.504 OA
ATOM     23  H   UNL     1      10.944  48.214  60.236  1.00  0.00     0.293 HD
ENDBRANCH  19  22
BRANCH  21  24
ATOM     24  O   UNL     1      10.220  50.496  61.473  1.00  0.00    -0.504 OA
ATOM     25  H   UNL     1       9.527  50.603  60.747  1.00  0.00     0.293 HD
ENDBRANCH  21  24
ENDBRANCH   8  16
BRANCH   9  26
ATOM     26  O   UNL     1      15.552  51.653  58.374  1.00  0.00    -0.490 OA
ATOM     27  C   UNL     1      15.601  50.746  57.276  1.00  0.00     0.278 C 
ENDBRANCH   9  26
TORSDOF 6
ENDMDL
MODEL 3
REMARK VINA RESULT:    -4.773      2.238      7.359
REMARK INTER + INTRA:          -6.236
REMARK INTER:                  -5.764
REMARK INTRA:                  -0.472
REMARK UNBOUND:                -0.207
REMARK SMILES COc1cc(O)c2c(=O)c(OC)c(-c3ccc(O)c(O)c3)oc2c1
REMARK SMILES IDX 3 1 4 2 5 3 7 4 23 5 24 6 22 7 13 8 10 9 8 10 9 11 2 12 1 13
REMARK SMILES IDX 6 14 14 16 21 17 15 18 19 19 16 20 17 21 20 22 18 24 11 26
REMARK SMILES IDX 12 27
REMARK H PARENT 6 15 20 23 18 25
REMARK Flexibility Score: inf
ROOT
ATOM      1  C   UNL     1       6.586  50.134  58.895  1.00  0.00     0.126 A 
ATOM      2  C   UNL     1       5.951  50.118  60.146  1.00  0.00     0.093 A 
ATOM      3  C   UNL     1       6.686  49.983  61.331  1.00  0.00     0.134 A 
ATOM      4  C   UNL     1       8.111  49.933  61.274  1.00  0.00     0.111 A 
ATOM      5  C   UNL     1       8.734  49.920  60.002  1.00  0.00     0.146 A 
ATOM      6  C   UNL     1       7.973  50.016  58.836  1.00  0.00     0.094 A 
ATOM      7  O   UNL     1      10.051  49.821  59.892  1.00  0.00    -0.452 OA
ATOM      8  C   UNL     1      10.870  49.747  60.933  1.00  0.00     0.180 A 
ATOM      9  C   UNL     1      10.360  49.833  62.243  1.00  0.00     0.210 A 
ATOM     10  C   UNL     1       8.959  49.941  62.409  1.00  0.00     0.239 A 
ATOM     11  O   UNL     1       8.479  50.092  63.562  1.00  0.00    -0.285 OA
ENDROOT
BRANCH   1  12
ATOM     12  O   UNL     1       5.875  50.253  57.691  1.00  0.00    -0.496 OA
ATOM     13  C   UNL     1       6.444  50.071  56.398  1.00  0.00     0.278 C 
ENDBRANCH   1  12
BRANCH   3  14
ATOM     14  O   UNL     1       5.950  49.871  62.513  1.00  0.00    -0.507 OA
ATOM     15  H   UNL     1       5.175  49.239  62.646  1.00  0.00     0.293 HD
ENDBRANCH   3  14
BRANCH   8  16
ATOM     16  C   UNL     1      12.320  49.603  60.664  1.00  0.00     0.025 A 
ATOM     17  C   UNL     1      13.182  50.712  60.692  1.00  0.00     0.062 A 
ATOM     18  C   UNL     1      12.856  48.329  60.434  1.00  0.00     0.016 A 
ATOM     19  C   UNL     1      14.555  50.563  60.461  1.00  0.00     0.158 A 
ATOM     20  C   UNL     1      14.222  48.170  60.200  1.00  0.00     0.051 A 
ATOM     21  C   UNL     1      15.082  49.274  60.204  1.00  0.00     0.157 A 
BRANCH  19  22
ATOM     22  O   UNL     1      15.352  51.709  60.501  1.00  0.00    -0.504 OA
ATOM     23  H   UNL     1      16.341  51.717  60.296  1.00  0.00     0.293 HD
ENDBRANCH  19  22
BRANCH  21  24
ATOM     24  O   UNL     1      16.437  49.049  59.955  1.00  0.00    -0.504 OA
ATOM     25  H   UNL     1      16.863  48.133  59.934  1.00  0.00     0.293 HD
ENDBRANCH  21  24
ENDBRANCH   8  16
BRANCH   9  26
ATOM     26  O   UNL     1      11.277  49.842  63.314  1.00  0.00    -0.490 OA
ATOM     27  C   UNL     1      11.661  48.727  64.113  1.00  0.00     0.278 C 
ENDBRANCH   9  26
TORSDOF 6
ENDMDL
MODEL 4
REMARK VINA RESULT:    -3.672      1.925      2.787
REMARK INTER + INTRA:          -4.845
REMARK INTER:                  -4.930
REMARK INTRA:                   0.086
REMARK UNBOUND:                -0.207
REMARK SMILES COc1cc(O)c2c(=O)c(OC)c(-c3ccc(O)c(O)c3)oc2c1
REMARK SMILES IDX 3 1 4 2 5 3 7 4 23 5 24 6 22 7 13 8 10 9 8 10 9 11 2 12 1 13
REMARK SMILES IDX 6 14 14 16 21 17 15 18 19 19 16 20 17 21 20 22 18 24 11 26
REMARK SMILES IDX 12 27
REMARK H PARENT 6 15 20 23 18 25
REMARK Flexibility Score: inf
ROOT
ATOM      1  C   UNL     1      16.712  51.925  61.967  1.00  0.00     0.126 A 
ATOM      2  C   UNL     1      16.718  52.123  60.578  1.00  0.00     0.093 A 
ATOM      3  C   UNL     1      15.568  51.901  59.810  1.00  0.00     0.134 A 
ATOM      4  C   UNL     1      14.348  51.537  60.455  1.00  0.00     0.111 A 
ATOM      5  C   UNL     1      14.367  51.313  61.853  1.00  0.00     0.146 A 
ATOM      6  C   UNL     1      15.538  51.504  62.588  1.00  0.00     0.094 A 
ATOM      7  O   UNL     1      13.274  50.922  62.493  1.00  0.00    -0.452 OA
ATOM      8  C   UNL     1      12.104  50.734  61.897  1.00  0.00     0.180 A 
ATOM      9  C   UNL     1      11.957  51.006  60.523  1.00  0.00     0.210 A 
ATOM     10  C   UNL     1      13.097  51.428  59.799  1.00  0.00     0.239 A 
ATOM     11  O   UNL     1      12.982  51.749  58.589  1.00  0.00    -0.285 OA
ENDROOT
BRANCH   1  12
ATOM     12  O   UNL     1      17.852  52.125  62.761  1.00  0.00    -0.496 OA
ATOM     13  C   UNL     1      19.163  51.692  62.412  1.00  0.00     0.278 C 
ENDBRANCH   1  12
BRANCH   3  14
ATOM     14  O   UNL     1      15.709  52.024  58.425  1.00  0.00    -0.507 OA
ATOM     15  H   UNL     1      14.972  51.852  57.758  1.00  0.00     0.293 HD
ENDBRANCH   3  14
BRANCH   8  16
ATOM     16  C   UNL     1      10.973  50.261  62.729  1.00  0.00     0.025 A 
ATOM     17  C   UNL     1      10.837  48.907  63.076  1.00  0.00     0.062 A 
ATOM     18  C   UNL     1      10.050  51.189  63.231  1.00  0.00     0.016 A 
ATOM     19  C   UNL     1       9.778  48.472  63.883  1.00  0.00     0.158 A 
ATOM     20  C   UNL     1       8.990  50.766  64.034  1.00  0.00     0.051 A 
ATOM     21  C   UNL     1       8.837  49.415  64.364  1.00  0.00     0.157 A 
BRANCH  19  22
ATOM     22  O   UNL     1       9.703  47.111  64.185  1.00  0.00    -0.504 OA
ATOM     23  H   UNL     1       9.334  46.413  63.555  1.00  0.00     0.293 HD
ENDBRANCH  19  22
BRANCH  21  24
ATOM     24  O   UNL     1       7.751  49.056  65.164  1.00  0.00    -0.504 OA
ATOM     25  H   UNL     1       7.835  48.722  66.113  1.00  0.00     0.293 HD
ENDBRANCH  21  24
ENDBRANCH   8  16
BRANCH   9  26
ATOM     26  O   UNL     1      10.673  50.879  59.955  1.00  0.00    -0.490 OA
ATOM     27  C   UNL     1       9.886  49.693  59.892  1.00  0.00     0.278 C 
ENDBRANCH   9  26
TORSDOF 6
ENDMDL
MODEL 5
REMARK VINA RESULT:    -3.665      3.209      8.745
REMARK INTER + INTRA:          -4.836
REMARK INTER:                  -5.759
REMARK INTRA:                   0.923
REMARK UNBOUND:                -0.207
REMARK SMILES COc1cc(O)c2c(=O)c(OC)c(-c3ccc(O)c(O)c3)oc2c1
REMARK SMILES IDX 3 1 4 2 5 3 7 4 23 5 24 6 22 7 13 8 10 9 8 10 9 11 2 12 1 13
REMARK SMILES IDX 6 14 14 16 21 17 15 18 19 19 16 20 17 21 20 22 18 24 11 26
REMARK SMILES IDX 12 27
REMARK H PARENT 6 15 20 23 18 25
REMARK Flexibility Score: inf
ROOT
ATOM      1  C   UNL     1      12.204  50.393  62.290  1.00  0.00     0.126 A 
ATOM      2  C   UNL     1      11.741  50.723  61.007  1.00  0.00     0.093 A 
ATOM      3  C   UNL     1      12.611  51.217  60.027  1.00  0.00     0.134 A 
ATOM      4  C   UNL     1      14.006  51.319  60.309  1.00  0.00     0.111 A 
ATOM      5  C   UNL     1      14.452  51.009  61.617  1.00  0.00     0.146 A 
ATOM      6  C   UNL     1      13.556  50.557  62.586  1.00  0.00     0.094 A 
ATOM      7  O   UNL     1      15.730  51.138  61.946  1.00  0.00    -0.452 OA
ATOM      8  C   UNL     1      16.669  51.537  61.098  1.00  0.00     0.180 A 
ATOM      9  C   UNL     1      16.344  51.793  59.752  1.00  0.00     0.210 A 
ATOM     10  C   UNL     1      14.993  51.666  59.353  1.00  0.00     0.239 A 
ATOM     11  O   UNL     1      14.683  51.817  58.144  1.00  0.00    -0.285 OA
ENDROOT
BRANCH   1  12
ATOM     12  O   UNL     1      11.355  49.910  63.297  1.00  0.00    -0.496 OA
ATOM     13  C   UNL     1      10.974  48.546  63.445  1.00  0.00     0.278 C 
ENDBRANCH   1  12
BRANCH   3  14
ATOM     14  O   UNL     1      12.029  51.615  58.820  1.00  0.00    -0.507 OA
ATOM     15  H   UNL     1      11.054  51.846  58.705  1.00  0.00     0.293 HD
ENDBRANCH   3  14
BRANCH   8  16
ATOM     16  C   UNL     1      18.052  51.671  61.611  1.00  0.00     0.025 A 
ATOM     17  C   UNL     1      19.146  51.801  60.739  1.00  0.00     0.062 A 
ATOM     18  C   UNL     1      18.273  51.729  62.994  1.00  0.00     0.016 A 
ATOM     19  C   UNL     1      20.448  51.952  61.233  1.00  0.00     0.158 A 
ATOM     20  C   UNL     1      19.566  51.877  63.497  1.00  0.00     0.051 A 
ATOM     21  C   UNL     1      20.662  51.984  62.632  1.00  0.00     0.157 A 
BRANCH  19  22
ATOM     22  O   UNL     1      21.487  52.073  60.309  1.00  0.00    -0.504 OA
ATOM     23  H   UNL     1      21.591  51.481  59.496  1.00  0.00     0.293 HD
ENDBRANCH  19  22
BRANCH  21  24
ATOM     24  O   UNL     1      21.930  52.122  63.199  1.00  0.00    -0.504 OA
ATOM     25  H   UNL     1      22.096  52.253  64.186  1.00  0.00     0.293 HD
ENDBRANCH  21  24
ENDBRANCH   8  16
BRANCH   9  26
ATOM     26  O   UNL     1      17.392  52.125  58.868  1.00  0.00    -0.490 OA
ATOM     27  C   UNL     1      17.382  51.987  57.450  1.00  0.00     0.278 C 
ENDBRANCH   9  26
TORSDOF 6
ENDMDL
MODEL 6
REMARK VINA RESULT:    -3.651      2.169      7.574
REMARK INTER + INTRA:          -4.819
REMARK INTER:                  -4.983
REMARK INTRA:                   0.163
REMARK UNBOUND:                -0.207
REMARK SMILES COc1cc(O)c2c(=O)c(OC)c(-c3ccc(O)c(O)c3)oc2c1
REMARK SMILES IDX 3 1 4 2 5 3 7 4 23 5 24 6 22 7 13 8 10 9 8 10 9 11 2 12 1 13
REMARK SMILES IDX 6 14 14 16 21 17 15 18 19 19 16 20 17 21 20 22 18 24 11 26
REMARK SMILES IDX 12 27
REMARK H PARENT 6 15 20 23 18 25
REMARK Flexibility Score: inf
ROOT
ATOM      1  C   UNL     1       7.525  49.419  60.590  1.00  0.00     0.126 A 
ATOM      2  C   UNL     1       7.494  49.234  61.981  1.00  0.00     0.093 A 
ATOM      3  C   UNL     1       8.664  49.298  62.747  1.00  0.00     0.134 A 
ATOM      4  C   UNL     1       9.901  49.631  62.118  1.00  0.00     0.111 A 
ATOM      5  C   UNL     1       9.920  49.786  60.710  1.00  0.00     0.146 A 
ATOM      6  C   UNL     1       8.745  49.676  59.966  1.00  0.00     0.094 A 
ATOM      7  O   UNL     1      11.053  50.042  60.071  1.00  0.00    -0.452 OA
ATOM      8  C   UNL     1      12.222  50.189  60.680  1.00  0.00     0.180 A 
ATOM      9  C   UNL     1      12.299  50.135  62.085  1.00  0.00     0.210 A 
ATOM     10  C   UNL     1      11.115  49.865  62.811  1.00  0.00     0.239 A 
ATOM     11  O   UNL     1      11.138  49.882  64.068  1.00  0.00    -0.285 OA
ENDROOT
BRANCH   1  12
ATOM     12  O   UNL     1       6.372  49.344  59.794  1.00  0.00    -0.496 OA
ATOM     13  C   UNL     1       6.379  49.172  58.380  1.00  0.00     0.278 C 
ENDBRANCH   1  12
BRANCH   3  14
ATOM     14  O   UNL     1       8.539  48.994  64.105  1.00  0.00    -0.507 OA
ATOM     15  H   UNL     1       7.754  48.508  64.511  1.00  0.00     0.293 HD
ENDBRANCH   3  14
BRANCH   8  16
ATOM     16  C   UNL     1      13.415  50.438  59.838  1.00  0.00     0.025 A 
ATOM     17  C   UNL     1      14.363  49.430  59.598  1.00  0.00     0.062 A 
ATOM     18  C   UNL     1      13.573  51.685  59.217  1.00  0.00     0.016 A 
ATOM     19  C   UNL     1      15.475  49.667  58.780  1.00  0.00     0.158 A 
ATOM     20  C   UNL     1      14.679  51.932  58.402  1.00  0.00     0.051 A 
ATOM     21  C   UNL     1      15.639  50.938  58.178  1.00  0.00     0.157 A 
BRANCH  19  22
ATOM     22  O   UNL     1      16.379  48.621  58.589  1.00  0.00    -0.504 OA
ATOM     23  H   UNL     1      16.532  48.161  57.702  1.00  0.00     0.293 HD
ENDBRANCH  19  22
BRANCH  21  24
ATOM     24  O   UNL     1      16.725  51.252  57.359  1.00  0.00    -0.504 OA
ATOM     25  H   UNL     1      17.630  51.536  57.706  1.00  0.00     0.293 HD
ENDBRANCH  21  24
ENDBRANCH   8  16
BRANCH   9  26
ATOM     26  O   UNL     1      13.547  50.388  62.692  1.00  0.00    -0.490 OA
ATOM     27  C   UNL     1      14.358  51.545  62.514  1.00  0.00     0.278 C 
ENDBRANCH   9  26
TORSDOF 6
ENDMDL
MODEL 7
REMARK VINA RESULT:    -3.487      1.540      6.927
REMARK INTER + INTRA:          -4.612
REMARK INTER:                  -4.776
REMARK INTRA:                   0.164
REMARK UNBOUND:                -0.207
REMARK SMILES COc1cc(O)c2c(=O)c(OC)c(-c3ccc(O)c(O)c3)oc2c1
REMARK SMILES IDX 3 1 4 2 5 3 7 4 23 5 24 6 22 7 13 8 10 9 8 10 9 11 2 12 1 13
REMARK SMILES IDX 6 14 14 16 21 17 15 18 19 19 16 20 17 21 20 22 18 24 11 26
REMARK SMILES IDX 12 27
REMARK H PARENT 6 15 20 23 18 25
REMARK Flexibility Score: inf
ROOT
ATOM      1  C   UNL     1       7.224  51.403  64.488  1.00  0.00     0.126 A 
ATOM      2  C   UNL     1       6.369  50.639  63.678  1.00  0.00     0.093 A 
ATOM      3  C   UNL     1       6.831  50.037  62.501  1.00  0.00     0.134 A 
ATOM      4  C   UNL     1       8.212  50.137  62.153  1.00  0.00     0.111 A 
ATOM      5  C   UNL     1       9.054  50.935  62.965  1.00  0.00     0.146 A 
ATOM      6  C   UNL     1       8.557  51.557  64.111  1.00  0.00     0.094 A 
ATOM      7  O   UNL     1      10.332  51.104  62.656  1.00  0.00    -0.452 OA
ATOM      8  C   UNL     1      10.913  50.542  61.605  1.00  0.00     0.180 A 
ATOM      9  C   UNL     1      10.184  49.665  60.778  1.00  0.00     0.210 A 
ATOM     10  C   UNL     1       8.816  49.452  61.070  1.00  0.00     0.239 A 
ATOM     11  O   UNL     1       8.158  48.621  60.395  1.00  0.00    -0.285 OA
ENDROOT
BRANCH   1  12
ATOM     12  O   UNL     1       6.786  52.030  65.664  1.00  0.00    -0.496 OA
ATOM     13  C   UNL     1       5.888  51.447  66.603  1.00  0.00     0.278 C 
ENDBRANCH   1  12
BRANCH   3  14
ATOM     14  O   UNL     1       5.875  49.390  61.714  1.00  0.00    -0.507 OA
ATOM     15  H   UNL     1       5.885  49.368  60.705  1.00  0.00     0.293 HD
ENDBRANCH   3  14
BRANCH   8  16
ATOM     16  C   UNL     1      12.342  50.846  61.359  1.00  0.00     0.025 A 
ATOM     17  C   UNL     1      12.845  50.988  60.055  1.00  0.00     0.062 A 
ATOM     18  C   UNL     1      13.200  51.057  62.448  1.00  0.00     0.016 A 
ATOM     19  C   UNL     1      14.192  51.300  59.833  1.00  0.00     0.158 A 
ATOM     20  C   UNL     1      14.544  51.366  62.236  1.00  0.00     0.051 A 
ATOM     21  C   UNL     1      15.056  51.486  60.939  1.00  0.00     0.157 A 
BRANCH  19  22
ATOM     22  O   UNL     1      14.624  51.423  58.511  1.00  0.00    -0.504 OA
ATOM     23  H   UNL     1      14.203  50.936  57.732  1.00  0.00     0.293 HD
ENDBRANCH  19  22
BRANCH  21  24
ATOM     24  O   UNL     1      16.411  51.789  60.797  1.00  0.00    -0.504 OA
ATOM     25  H   UNL     1      17.065  51.825  61.565  1.00  0.00     0.293 HD
ENDBRANCH  21  24
ENDBRANCH   8  16
BRANCH   9  26
ATOM     26  O   UNL     1      10.868  49.021  59.727  1.00  0.00    -0.490 OA
ATOM     27  C   UNL     1      11.067  47.618  59.578  1.00  0.00     0.278 C 
ENDBRANCH   9  26
TORSDOF 6
ENDMDL
MODEL 8
REMARK VINA RESULT:    -2.728      1.491      2.113
REMARK INTER + INTRA:          -3.653
REMARK INTER:                  -5.178
REMARK INTRA:                   1.525
REMARK UNBOUND:                -0.207
REMARK SMILES COc1cc(O)c2c(=O)c(OC)c(-c3ccc(O)c(O)c3)oc2c1
REMARK SMILES IDX 3 1 4 2 5 3 7 4 23 5 24 6 22 7 13 8 10 9 8 10 9 11 2 12 1 13
REMARK SMILES IDX 6 14 14 16 21 17 15 18 19 19 16 20 17 21 20 22 18 24 11 26
REMARK SMILES IDX 12 27
REMARK H PARENT 6 15 20 23 18 25
REMARK Flexibility Score: inf
ROOT
ATOM      1  C   UNL     1      15.936  51.175  60.802  1.00  0.00     0.126 A 
ATOM      2  C   UNL     1      16.142  50.110  59.911  1.00  0.00     0.093 A 
ATOM      3  C   UNL     1      15.134  49.172  59.656  1.00  0.00     0.134 A 
ATOM      4  C   UNL     1      13.848  49.340  60.252  1.00  0.00     0.111 A 
ATOM      5  C   UNL     1      13.666  50.402  61.171  1.00  0.00     0.146 A 
ATOM      6  C   UNL     1      14.702  51.299  61.437  1.00  0.00     0.094 A 
ATOM      7  O   UNL     1      12.507  50.570  61.793  1.00  0.00    -0.452 OA
ATOM      8  C   UNL     1      11.451  49.792  61.598  1.00  0.00     0.180 A 
ATOM      9  C   UNL     1      11.501  48.756  60.645  1.00  0.00     0.210 A 
ATOM     10  C   UNL     1      12.717  48.540  59.955  1.00  0.00     0.239 A 
ATOM     11  O   UNL     1      12.772  47.671  59.048  1.00  0.00    -0.285 OA
ENDROOT
BRANCH   1  12
ATOM     12  O   UNL     1      16.931  52.120  61.090  1.00  0.00    -0.496 OA
ATOM     13  C   UNL     1      18.326  51.908  60.890  1.00  0.00     0.278 C 
ENDBRANCH   1  12
BRANCH   3  14
ATOM     14  O   UNL     1      15.477  48.093  58.837  1.00  0.00    -0.507 OA
ATOM     15  H   UNL     1      15.377  48.083  57.833  1.00  0.00     0.293 HD
ENDBRANCH   3  14
BRANCH   8  16
ATOM     16  C   UNL     1      10.229  50.073  62.388  1.00  0.00     0.025 A 
ATOM     17  C   UNL     1       9.253  50.973  61.929  1.00  0.00     0.062 A 
ATOM     18  C   UNL     1      10.011  49.385  63.590  1.00  0.00     0.016 A 
ATOM     19  C   UNL     1       8.090  51.214  62.672  1.00  0.00     0.158 A 
ATOM     20  C   UNL     1       8.857  49.620  64.338  1.00  0.00     0.051 A 
ATOM     21  C   UNL     1       7.892  50.533  63.897  1.00  0.00     0.157 A 
BRANCH  19  22
ATOM     22  O   UNL     1       7.164  52.124  62.157  1.00  0.00    -0.504 OA
ATOM     23  H   UNL     1       6.166  52.052  62.294  1.00  0.00     0.293 HD
ENDBRANCH  19  22
BRANCH  21  24
ATOM     24  O   UNL     1       6.764  50.728  64.695  1.00  0.00    -0.504 OA
ATOM     25  H   UNL     1       5.839  50.400  64.456  1.00  0.00     0.293 HD
ENDBRANCH  21  24
ENDBRANCH   8  16
BRANCH   9  26
ATOM     26  O   UNL     1      10.325  48.015  60.407  1.00  0.00    -0.490 OA
ATOM     27  C   UNL     1       9.271  47.774  61.334  1.00  0.00     0.278 C 
ENDBRANCH   9  26
TORSDOF 6
ENDMDL
