MODEL 1
REMARK VINA RESULT:     0.000      0.000      0.000
REMARK INTER + INTRA:          -0.194
REMARK INTER:                   0.000
REMARK INTRA:                  -0.194
REMARK UNBOUND:                -0.194
REMARK SMILES O=C([O-])CCC(=O)[O-]
REMARK SMILES IDX 4 1 2 2 1 3 3 4 5 5 6 6 7 7 8 8
REMARK H PARENT
REMARK Flexibility Score: inf
ROOT
ATOM      1  C   UNL     1      -2.321  25.398  13.554  1.00  0.00     0.059 C 
ENDROOT
BRANCH   1   2
ATOM      2  C   UNL     1      -2.161  24.242  12.618  1.00  0.00     0.042 C 
ATOM      3  O   UNL     1      -2.858  23.203  12.770  1.00  0.00    -0.550 OA
ATOM      4  O   UNL     1      -1.279  24.329  11.549  1.00  0.00    -0.550 OA
ENDBRANCH   1   2
BRANCH   1   5
ATOM      5  C   UNL     1      -2.694  26.664  12.781  1.00  0.00     0.059 C 
BRANCH   5   6
ATOM      6  C   UNL     1      -4.044  26.515  12.154  1.00  0.00     0.042 C 
ATOM      7  O   UNL     1      -4.181  26.640  10.908  1.00  0.00    -0.550 OA
ATOM      8  O   UNL     1      -5.144  26.190  12.938  1.00  0.00    -0.550 OA
ENDBRANCH   5   6
ENDBRANCH   1   5
TORSDOF 3
ENDMDL
MODEL 2
REMARK VINA RESULT:     0.000     13.290     14.247
REMARK INTER + INTRA:          -0.194
REMARK INTER:                   0.000
REMARK INTRA:                  -0.194
REMARK UNBOUND:                -0.194
REMARK SMILES O=C([O-])CCC(=O)[O-]
REMARK SMILES IDX 4 1 2 2 1 3 3 4 5 5 6 6 7 7 8 8
REMARK H PARENT
REMARK Flexibility Score: inf
ROOT
ATOM      1  C   UNL     1      -3.914  36.774  22.092  1.00  0.00     0.059 C 
ENDROOT
BRANCH   1   2
ATOM      2  C   UNL     1      -2.952  35.808  22.709  1.00  0.00     0.042 C 
ATOM      3  O   UNL     1      -2.930  35.649  23.959  1.00  0.00    -0.550 OA
ATOM      4  O   UNL     1      -2.114  35.050  21.902  1.00  0.00    -0.550 OA
ENDBRANCH   1   2
BRANCH   1   5
ATOM      5  C   UNL     1      -4.810  36.060  21.078  1.00  0.00     0.059 C 
BRANCH   5   6
ATOM      6  C   UNL     1      -5.687  35.062  21.766  1.00  0.00     0.042 C 
ATOM      7  O   UNL     1      -5.650  33.848  21.431  1.00  0.00    -0.550 OA
ATOM      8  O   UNL     1      -6.510  35.462  22.811  1.00  0.00    -0.550 OA
ENDBRANCH   5   6
ENDBRANCH   1   5
TORSDOF 3
ENDMDL
MODEL 3
REMARK VINA RESULT:     0.000      9.567     10.457
REMARK INTER + INTRA:          -0.194
REMARK INTER:                   0.000
REMARK INTRA:                  -0.194
REMARK UNBOUND:                -0.194
REMARK SMILES O=C([O-])CCC(=O)[O-]
REMARK SMILES IDX 4 1 2 2 1 3 3 4 5 5 6 6 7 7 8 8
REMARK H PARENT
REMARK Flexibility Score: inf
ROOT
ATOM      1  C   UNL     1      -7.803  34.881  10.897  1.00  0.00     0.059 C 
ENDROOT
BRANCH   1   2
ATOM      2  C   UNL     1      -6.379  35.203  10.571  1.00  0.00     0.042 C 
ATOM      3  O   UNL     1      -5.445  34.531  11.083  1.00  0.00    -0.550 OA
ATOM      4  O   UNL     1      -6.085  36.213   9.664  1.00  0.00    -0.550 OA
ENDBRANCH   1   2
BRANCH   1   5
ATOM      5  C   UNL     1      -8.585  34.565   9.620  1.00  0.00     0.059 C 
BRANCH   5   6
ATOM      6  C   UNL     1      -8.065  33.315   8.984  1.00  0.00     0.042 C 
ATOM      7  O   UNL     1      -7.641  33.336   7.798  1.00  0.00    -0.550 OA
ATOM      8  O   UNL     1      -8.004  32.135   9.716  1.00  0.00    -0.550 OA
ENDBRANCH   5   6
ENDBRANCH   1   5
TORSDOF 3
ENDMDL
MODEL 4
REMARK VINA RESULT:     0.000      8.088      9.961
REMARK INTER + INTRA:          -0.194
REMARK INTER:                   0.000
REMARK INTRA:                  -0.194
REMARK UNBOUND:                -0.194
REMARK SMILES O=C([O-])CCC(=O)[O-]
REMARK SMILES IDX 4 1 2 2 1 3 3 4 5 5 6 6 7 7 8 8
REMARK H PARENT
REMARK Flexibility Score: inf
ROOT
ATOM      1  C   UNL     1     -10.275  32.413   9.267  1.00  0.00     0.059 C 
ENDROOT
BRANCH   1   2
ATOM      2  C   UNL     1      -9.993  33.147  10.540  1.00  0.00     0.042 C 
ATOM      3  O   UNL     1     -10.898  33.285  11.405  1.00  0.00    -0.550 OA
ATOM      4  O   UNL     1      -8.718  33.637  10.793  1.00  0.00    -0.550 OA
ENDBRANCH   1   2
BRANCH   1   5
ATOM      5  C   UNL     1      -9.313  31.235   9.105  1.00  0.00     0.059 C 
BRANCH   5   6
ATOM      6  C   UNL     1      -9.551  30.215  10.174  1.00  0.00     0.042 C 
ATOM      7  O   UNL     1      -8.616  29.876  10.947  1.00  0.00    -0.550 OA
ATOM      8  O   UNL     1     -10.819  29.673  10.349  1.00  0.00    -0.550 OA
ENDBRANCH   5   6
ENDBRANCH   1   5
TORSDOF 3
ENDMDL
MODEL 5
REMARK VINA RESULT:     0.000      8.726     10.204
REMARK INTER + INTRA:          -0.194
REMARK INTER:                   0.000
REMARK INTRA:                  -0.194
REMARK UNBOUND:                -0.194
REMARK SMILES O=C([O-])CCC(=O)[O-]
REMARK SMILES IDX 4 1 2 2 1 3 3 4 5 5 6 6 7 7 8 8
REMARK H PARENT
REMARK Flexibility Score: inf
ROOT
ATOM      1  C   UNL     1      -5.108  31.144  20.168  1.00  0.00     0.059 C 
ENDROOT
BRANCH   1   2
ATOM      2  C   UNL     1      -6.558  31.456  19.971  1.00  0.00     0.042 C 
ATOM      3  O   UNL     1      -7.058  31.438  18.815  1.00  0.00    -0.550 OA
ATOM      4  O   UNL     1      -7.367  31.720  21.069  1.00  0.00    -0.550 OA
ENDBRANCH   1   2
BRANCH   1   5
ATOM      5  C   UNL     1      -4.940  29.965  21.128  1.00  0.00     0.059 C 
BRANCH   5   6
ATOM      6  C   UNL     1      -5.504  28.717  20.527  1.00  0.00     0.042 C 
ATOM      7  O   UNL     1      -6.411  28.079  21.124  1.00  0.00    -0.550 OA
ATOM      8  O   UNL     1      -5.061  28.282  19.283  1.00  0.00    -0.550 OA
ENDBRANCH   5   6
ENDBRANCH   1   5
TORSDOF 3
ENDMDL
MODEL 6
REMARK VINA RESULT:     0.000     16.336     18.120
REMARK INTER + INTRA:          -0.194
REMARK INTER:                   0.000
REMARK INTRA:                  -0.194
REMARK UNBOUND:                -0.194
REMARK SMILES O=C([O-])CCC(=O)[O-]
REMARK SMILES IDX 4 1 2 2 1 3 3 4 5 5 6 6 7 7 8 8
REMARK H PARENT
REMARK Flexibility Score: inf
ROOT
ATOM      1  C   UNL     1     -11.590  40.498  18.038  1.00  0.00     0.059 C 
ENDROOT
BRANCH   1   2
ATOM      2  C   UNL     1     -12.837  41.095  17.464  1.00  0.00     0.042 C 
ATOM      3  O   UNL     1     -12.849  41.512  16.275  1.00  0.00    -0.550 OA
ATOM      4  O   UNL     1     -13.998  41.144  18.224  1.00  0.00    -0.550 OA
ENDBRANCH   1   2
BRANCH   1   5
ATOM      5  C   UNL     1     -11.856  39.074  18.528  1.00  0.00     0.059 C 
BRANCH   5   6
ATOM      6  C   UNL     1     -12.190  38.179  17.376  1.00  0.00     0.042 C 
ATOM      7  O   UNL     1     -13.281  37.551  17.357  1.00  0.00    -0.550 OA
ATOM      8  O   UNL     1     -11.316  38.075  16.300  1.00  0.00    -0.550 OA
ENDBRANCH   5   6
ENDBRANCH   1   5
TORSDOF 3
ENDMDL
MODEL 7
REMARK VINA RESULT:     0.000      3.065      3.729
REMARK INTER + INTRA:          -0.194
REMARK INTER:                   0.000
REMARK INTRA:                  -0.194
REMARK UNBOUND:                -0.194
REMARK SMILES O=C([O-])CCC(=O)[O-]
REMARK SMILES IDX 4 1 2 2 1 3 3 4 5 5 6 6 7 7 8 8
REMARK H PARENT
REMARK Flexibility Score: inf
ROOT
ATOM      1  C   UNL     1      -3.128  29.550  13.872  1.00  0.00     0.059 C 
ENDROOT
BRANCH   1   2
ATOM      2  C   UNL     1      -2.463  28.509  14.717  1.00  0.00     0.042 C 
ATOM      3  O   UNL     1      -2.899  28.258  15.871  1.00  0.00    -0.550 OA
ATOM      4  O   UNL     1      -1.394  27.782  14.210  1.00  0.00    -0.550 OA
ENDBRANCH   1   2
BRANCH   1   5
ATOM      5  C   UNL     1      -3.598  28.944  12.548  1.00  0.00     0.059 C 
BRANCH   5   6
ATOM      6  C   UNL     1      -4.672  27.931  12.789  1.00  0.00     0.042 C 
ATOM      7  O   UNL     1      -4.525  26.744  12.393  1.00  0.00    -0.550 OA
ATOM      8  O   UNL     1      -5.816  28.284  13.494  1.00  0.00    -0.550 OA
ENDBRANCH   5   6
ENDBRANCH   1   5
TORSDOF 3
ENDMDL
MODEL 8
REMARK VINA RESULT:     0.000      5.991      7.073
REMARK INTER + INTRA:          -0.194
REMARK INTER:                   0.000
REMARK INTRA:                  -0.194
REMARK UNBOUND:                -0.194
REMARK SMILES O=C([O-])CCC(=O)[O-]
REMARK SMILES IDX 4 1 2 2 1 3 3 4 5 5 6 6 7 7 8 8
REMARK H PARENT
REMARK Flexibility Score: inf
ROOT
ATOM      1  C   UNL     1     -10.362  24.719  14.740  1.00  0.00     0.059 C 
ENDROOT
BRANCH   1   2
ATOM      2  C   UNL     1      -9.476  24.272  15.861  1.00  0.00     0.042 C 
ATOM      3  O   UNL     1      -8.595  23.394  15.660  1.00  0.00    -0.550 OA
ATOM      4  O   UNL     1      -9.591  24.859  17.114  1.00  0.00    -0.550 OA
ENDBRANCH   1   2
BRANCH   1   5
ATOM      5  C   UNL     1     -10.236  26.229  14.529  1.00  0.00     0.059 C 
BRANCH   5   6
ATOM      6  C   UNL     1      -8.857  26.579  14.066  1.00  0.00     0.042 C 
ATOM      7  O   UNL     1      -8.154  27.390  14.724  1.00  0.00    -0.550 OA
ATOM      8  O   UNL     1      -8.329  25.973  12.932  1.00  0.00    -0.550 OA
ENDBRANCH   5   6
ENDBRANCH   1   5
TORSDOF 3
ENDMDL
MODEL 9
REMARK VINA RESULT:     0.000      8.978      9.928
REMARK INTER + INTRA:          -0.194
REMARK INTER:                   0.000
REMARK INTRA:                  -0.194
REMARK UNBOUND:                -0.194
REMARK SMILES O=C([O-])CCC(=O)[O-]
REMARK SMILES IDX 4 1 2 2 1 3 3 4 5 5 6 6 7 7 8 8
REMARK H PARENT
REMARK Flexibility Score: inf
ROOT
ATOM      1  C   UNL     1       0.953  32.367  13.440  1.00  0.00     0.059 C 
ENDROOT
BRANCH   1   2
ATOM      2  C   UNL     1       0.947  33.503  14.414  1.00  0.00     0.042 C 
ATOM      3  O   UNL     1       1.321  33.319  15.603  1.00  0.00    -0.550 OA
ATOM      4  O   UNL     1       0.575  34.774  13.997  1.00  0.00    -0.550 OA
ENDBRANCH   1   2
BRANCH   1   5
ATOM      5  C   UNL     1       1.827  32.704  12.231  1.00  0.00     0.059 C 
BRANCH   5   6
ATOM      6  C   UNL     1       3.259  32.839  12.642  1.00  0.00     0.042 C 
ATOM      7  O   UNL     1       3.884  33.909  12.422  1.00  0.00    -0.550 OA
ATOM      8  O   UNL     1       3.891  31.798  13.313  1.00  0.00    -0.550 OA
ENDBRANCH   5   6
ENDBRANCH   1   5
TORSDOF 3
ENDMDL
