MODEL 1
REMARK VINA RESULT:    -3.568      0.000      0.000
REMARK INTER + INTRA:          -8.228
REMARK INTER:                  -6.487
REMARK INTRA:                  -1.741
REMARK UNBOUND:                -1.741
REMARK SMILES CCCCCCCCCCCCCCCC(=O)[O-]
REMARK SMILES IDX 9 1 10 2 11 3 12 4 13 5 14 6 15 7 16 8 17 9 18 10 8 11 7 12
REMARK SMILES IDX 6 13 5 14 4 15 3 16 2 17 1 18
REMARK H PARENT
REMARK Flexibility Score: inf
ROOT
ATOM      1  C   UNL     1     -20.751  32.159  22.773  1.00  0.00     0.000 C 
ENDROOT
BRANCH   1   2
ATOM      2  C   UNL     1     -22.044  32.450  23.552  1.00  0.00     0.000 C 
BRANCH   2   3
ATOM      3  C   UNL     1     -23.296  32.405  22.664  1.00  0.00     0.000 C 
BRANCH   3   4
ATOM      4  C   UNL     1     -22.915  32.437  21.176  1.00  0.00     0.000 C 
BRANCH   4   5
ATOM      5  C   UNL     1     -23.548  33.618  20.419  1.00  0.00     0.000 C 
BRANCH   5   6
ATOM      6  C   UNL     1     -22.555  34.700  19.946  1.00  0.00     0.006 C 
BRANCH   6   7
ATOM      7  C   UNL     1     -21.676  35.290  21.060  1.00  0.00     0.053 C 
BRANCH   7   8
ATOM      8  C   UNL     1     -22.421  36.282  21.898  1.00  0.00     0.041 C 
ATOM      9  O   UNL     1     -22.665  37.434  21.451  1.00  0.00    -0.550 OA
ATOM     10  O   UNL     1     -22.880  35.924  23.160  1.00  0.00    -0.550 OA
ENDBRANCH   7   8
ENDBRANCH   6   7
ENDBRANCH   5   6
ENDBRANCH   4   5
ENDBRANCH   3   4
ENDBRANCH   2   3
ENDBRANCH   1   2
BRANCH   1  11
ATOM     11  C   UNL     1     -19.535  32.910  23.343  1.00  0.00     0.000 C 
BRANCH  11  12
ATOM     12  C   UNL     1     -18.475  31.958  23.924  1.00  0.00    -0.000 C 
BRANCH  12  13
ATOM     13  C   UNL     1     -18.932  30.488  23.914  1.00  0.00    -0.000 C 
BRANCH  13  14
ATOM     14  C   UNL     1     -17.800  29.522  23.528  1.00  0.00    -0.000 C 
BRANCH  14  15
ATOM     15  C   UNL     1     -17.783  29.196  22.028  1.00  0.00    -0.000 C 
BRANCH  15  16
ATOM     16  C   UNL     1     -19.184  28.799  21.537  1.00  0.00    -0.000 C 
BRANCH  16  17
ATOM     17  C   UNL     1     -19.656  29.649  20.347  1.00  0.00    -0.003 C 
ATOM     18  C   UNL     1     -20.407  28.830  19.297  1.00  0.00     0.004 C 
ENDBRANCH  16  17
ENDBRANCH  15  16
ENDBRANCH  14  15
ENDBRANCH  13  14
ENDBRANCH  12  13
ENDBRANCH  11  12
ENDBRANCH   1  11
TORSDOF 14
ENDMDL
MODEL 2
REMARK VINA RESULT:    -3.536      4.041      6.837
REMARK INTER + INTRA:          -8.171
REMARK INTER:                  -6.563
REMARK INTRA:                  -1.607
REMARK UNBOUND:                -1.741
REMARK SMILES CCCCCCCCCCCCCCCC(=O)[O-]
REMARK SMILES IDX 9 1 10 2 11 3 12 4 13 5 14 6 15 7 16 8 17 9 18 10 8 11 7 12
REMARK SMILES IDX 6 13 5 14 4 15 3 16 2 17 1 18
REMARK H PARENT
REMARK Flexibility Score: inf
ROOT
ATOM      1  C   UNL     1     -17.978  30.026  23.458  1.00  0.00     0.000 C 
ENDROOT
BRANCH   1   2
ATOM      2  C   UNL     1     -18.286  29.102  22.267  1.00  0.00     0.000 C 
BRANCH   2   3
ATOM      3  C   UNL     1     -19.692  29.326  21.691  1.00  0.00     0.000 C 
BRANCH   3   4
ATOM      4  C   UNL     1     -19.623  29.682  20.198  1.00  0.00     0.000 C 
BRANCH   4   5
ATOM      5  C   UNL     1     -20.394  28.691  19.307  1.00  0.00     0.000 C 
BRANCH   5   6
ATOM      6  C   UNL     1     -20.949  27.451  20.037  1.00  0.00     0.006 C 
BRANCH   6   7
ATOM      7  C   UNL     1     -20.147  26.161  19.803  1.00  0.00     0.053 C 
BRANCH   7   8
ATOM      8  C   UNL     1     -19.516  25.655  21.062  1.00  0.00     0.041 C 
ATOM      9  O   UNL     1     -20.229  25.153  21.972  1.00  0.00    -0.550 OA
ATOM     10  O   UNL     1     -18.136  25.703  21.219  1.00  0.00    -0.550 OA
ENDBRANCH   7   8
ENDBRANCH   6   7
ENDBRANCH   5   6
ENDBRANCH   4   5
ENDBRANCH   3   4
ENDBRANCH   2   3
ENDBRANCH   1   2
BRANCH   1  11
ATOM     11  C   UNL     1     -19.159  30.947  23.812  1.00  0.00     0.000 C 
BRANCH  11  12
ATOM     12  C   UNL     1     -18.824  32.435  23.619  1.00  0.00    -0.000 C 
BRANCH  12  13
ATOM     13  C   UNL     1     -20.061  33.278  23.261  1.00  0.00    -0.000 C 
BRANCH  13  14
ATOM     14  C   UNL     1     -21.307  32.416  23.002  1.00  0.00    -0.000 C 
BRANCH  14  15
ATOM     15  C   UNL     1     -21.742  32.426  21.529  1.00  0.00    -0.000 C 
BRANCH  15  16
ATOM     16  C   UNL     1     -23.050  33.213  21.350  1.00  0.00    -0.000 C 
BRANCH  16  17
ATOM     17  C   UNL     1     -22.955  34.273  20.241  1.00  0.00    -0.003 C 
ATOM     18  C   UNL     1     -21.721  35.164  20.381  1.00  0.00     0.004 C 
ENDBRANCH  16  17
ENDBRANCH  15  16
ENDBRANCH  14  15
ENDBRANCH  13  14
ENDBRANCH  12  13
ENDBRANCH  11  12
ENDBRANCH   1  11
TORSDOF 14
ENDMDL
MODEL 3
REMARK VINA RESULT:    -3.497      8.092     11.154
REMARK INTER + INTRA:          -8.100
REMARK INTER:                  -7.409
REMARK INTRA:                  -0.692
REMARK UNBOUND:                -1.741
REMARK SMILES CCCCCCCCCCCCCCCC(=O)[O-]
REMARK SMILES IDX 9 1 10 2 11 3 12 4 13 5 14 6 15 7 16 8 17 9 18 10 8 11 7 12
REMARK SMILES IDX 6 13 5 14 4 15 3 16 2 17 1 18
REMARK H PARENT
REMARK Flexibility Score: inf
ROOT
ATOM      1  C   UNL     1     -19.610  23.655  17.176  1.00  0.00     0.000 C 
ENDROOT
BRANCH   1   2
ATOM      2  C   UNL     1     -19.664  23.152  15.724  1.00  0.00     0.000 C 
BRANCH   2   3
ATOM      3  C   UNL     1     -19.450  24.275  14.698  1.00  0.00     0.000 C 
BRANCH   3   4
ATOM      4  C   UNL     1     -20.181  23.964  13.384  1.00  0.00     0.000 C 
BRANCH   4   5
ATOM      5  C   UNL     1     -21.643  23.532  13.597  1.00  0.00     0.000 C 
BRANCH   5   6
ATOM      6  C   UNL     1     -22.570  23.733  12.381  1.00  0.00     0.006 C 
BRANCH   6   7
ATOM      7  C   UNL     1     -21.837  23.994  11.056  1.00  0.00     0.053 C 
BRANCH   7   8
ATOM      8  C   UNL     1     -22.502  25.064  10.247  1.00  0.00     0.041 C 
ATOM      9  O   UNL     1     -22.738  26.191  10.757  1.00  0.00    -0.550 OA
ATOM     10  O   UNL     1     -22.830  24.830   8.917  1.00  0.00    -0.550 OA
ENDBRANCH   7   8
ENDBRANCH   6   7
ENDBRANCH   5   6
ENDBRANCH   4   5
ENDBRANCH   3   4
ENDBRANCH   2   3
ENDBRANCH   1   2
BRANCH   1  11
ATOM     11  C   UNL     1     -18.441  23.045  17.970  1.00  0.00     0.000 C 
BRANCH  11  12
ATOM     12  C   UNL     1     -18.369  23.574  19.412  1.00  0.00    -0.000 C 
BRANCH  12  13
ATOM     13  C   UNL     1     -19.582  24.448  19.782  1.00  0.00    -0.000 C 
BRANCH  13  14
ATOM     14  C   UNL     1     -19.213  25.596  20.735  1.00  0.00    -0.000 C 
BRANCH  14  15
ATOM     15  C   UNL     1     -20.069  26.852  20.514  1.00  0.00    -0.000 C 
BRANCH  15  16
ATOM     16  C   UNL     1     -19.396  28.089  21.129  1.00  0.00    -0.000 C 
BRANCH  16  17
ATOM     17  C   UNL     1     -19.803  29.394  20.427  1.00  0.00    -0.003 C 
ATOM     18  C   UNL     1     -20.282  29.168  18.993  1.00  0.00     0.004 C 
ENDBRANCH  16  17
ENDBRANCH  15  16
ENDBRANCH  14  15
ENDBRANCH  13  14
ENDBRANCH  12  13
ENDBRANCH  11  12
ENDBRANCH   1  11
TORSDOF 14
ENDMDL
MODEL 4
REMARK VINA RESULT:    -3.444      3.118      6.082
REMARK INTER + INTRA:          -8.003
REMARK INTER:                  -6.097
REMARK INTRA:                  -1.905
REMARK UNBOUND:                -1.741
REMARK SMILES CCCCCCCCCCCCCCCC(=O)[O-]
REMARK SMILES IDX 9 1 10 2 11 3 12 4 13 5 14 6 15 7 16 8 17 9 18 10 8 11 7 12
REMARK SMILES IDX 6 13 5 14 4 15 3 16 2 17 1 18
REMARK H PARENT
REMARK Flexibility Score: inf
ROOT
ATOM      1  C   UNL     1     -19.816  32.977  22.993  1.00  0.00     0.000 C 
ENDROOT
BRANCH   1   2
ATOM      2  C   UNL     1     -18.951  31.956  23.750  1.00  0.00     0.000 C 
BRANCH   2   3
ATOM      3  C   UNL     1     -19.440  30.511  23.565  1.00  0.00     0.000 C 
BRANCH   3   4
ATOM      4  C   UNL     1     -18.333  29.629  22.970  1.00  0.00     0.000 C 
BRANCH   4   5
ATOM      5  C   UNL     1     -18.720  29.011  21.614  1.00  0.00     0.000 C 
BRANCH   5   6
ATOM      6  C   UNL     1     -19.771  29.804  20.811  1.00  0.00     0.006 C 
BRANCH   6   7
ATOM      7  C   UNL     1     -20.161  29.167  19.468  1.00  0.00     0.053 C 
BRANCH   7   8
ATOM      8  C   UNL     1     -21.377  28.302  19.588  1.00  0.00     0.041 C 
ATOM      9  O   UNL     1     -22.502  28.737  19.226  1.00  0.00    -0.550 OA
ATOM     10  O   UNL     1     -21.264  27.002  20.067  1.00  0.00    -0.550 OA
ENDBRANCH   7   8
ENDBRANCH   6   7
ENDBRANCH   5   6
ENDBRANCH   4   5
ENDBRANCH   3   4
ENDBRANCH   2   3
ENDBRANCH   1   2
BRANCH   1  11
ATOM     11  C   UNL     1     -20.681  33.833  23.935  1.00  0.00     0.000 C 
BRANCH  11  12
ATOM     12  C   UNL     1     -21.891  34.457  23.219  1.00  0.00    -0.000 C 
BRANCH  12  13
ATOM     13  C   UNL     1     -21.510  35.120  21.883  1.00  0.00    -0.000 C 
BRANCH  13  14
ATOM     14  C   UNL     1     -22.085  34.372  20.668  1.00  0.00    -0.000 C 
BRANCH  14  15
ATOM     15  C   UNL     1     -23.614  34.240  20.721  1.00  0.00    -0.000 C 
BRANCH  15  16
ATOM     16  C   UNL     1     -24.035  32.762  20.724  1.00  0.00    -0.000 C 
BRANCH  16  17
ATOM     17  C   UNL     1     -22.855  31.811  20.978  1.00  0.00    -0.003 C 
ATOM     18  C   UNL     1     -23.028  30.980  22.250  1.00  0.00     0.004 C 
ENDBRANCH  16  17
ENDBRANCH  15  16
ENDBRANCH  14  15
ENDBRANCH  13  14
ENDBRANCH  12  13
ENDBRANCH  11  12
ENDBRANCH   1  11
TORSDOF 14
ENDMDL
MODEL 5
REMARK VINA RESULT:    -3.434      2.226      4.346
REMARK INTER + INTRA:          -7.986
REMARK INTER:                  -5.514
REMARK INTRA:                  -2.472
REMARK UNBOUND:                -1.741
REMARK SMILES CCCCCCCCCCCCCCCC(=O)[O-]
REMARK SMILES IDX 9 1 10 2 11 3 12 4 13 5 14 6 15 7 16 8 17 9 18 10 8 11 7 12
REMARK SMILES IDX 6 13 5 14 4 15 3 16 2 17 1 18
REMARK H PARENT
REMARK Flexibility Score: inf
ROOT
ATOM      1  C   UNL     1     -19.872  29.902  20.328  1.00  0.00     0.000 C 
ENDROOT
BRANCH   1   2
ATOM      2  C   UNL     1     -18.889  29.319  21.357  1.00  0.00     0.000 C 
BRANCH   2   3
ATOM      3  C   UNL     1     -19.037  29.956  22.747  1.00  0.00     0.000 C 
BRANCH   3   4
ATOM      4  C   UNL     1     -20.297  30.832  22.818  1.00  0.00     0.000 C 
BRANCH   4   5
ATOM      5  C   UNL     1     -19.984  32.313  23.099  1.00  0.00     0.000 C 
BRANCH   5   6
ATOM      6  C   UNL     1     -21.094  33.305  22.695  1.00  0.00     0.006 C 
BRANCH   6   7
ATOM      7  C   UNL     1     -21.938  32.862  21.490  1.00  0.00     0.053 C 
BRANCH   7   8
ATOM      8  C   UNL     1     -22.549  34.027  20.774  1.00  0.00     0.041 C 
ATOM      9  O   UNL     1     -23.801  34.139  20.699  1.00  0.00    -0.550 OA
ATOM     10  O   UNL     1     -21.737  35.009  20.220  1.00  0.00    -0.550 OA
ENDBRANCH   7   8
ENDBRANCH   6   7
ENDBRANCH   5   6
ENDBRANCH   4   5
ENDBRANCH   3   4
ENDBRANCH   2   3
ENDBRANCH   1   2
BRANCH   1  11
ATOM     11  C   UNL     1     -20.346  28.856  19.304  1.00  0.00     0.000 C 
BRANCH  11  12
ATOM     12  C   UNL     1     -21.879  28.753  19.234  1.00  0.00    -0.000 C 
BRANCH  12  13
ATOM     13  C   UNL     1     -22.548  28.957  20.606  1.00  0.00    -0.000 C 
BRANCH  13  14
ATOM     14  C   UNL     1     -22.783  27.632  21.350  1.00  0.00    -0.000 C 
BRANCH  14  15
ATOM     15  C   UNL     1     -22.070  27.578  22.709  1.00  0.00    -0.000 C 
BRANCH  15  16
ATOM     16  C   UNL     1     -20.886  26.599  22.667  1.00  0.00    -0.000 C 
BRANCH  16  17
ATOM     17  C   UNL     1     -20.822  25.805  21.353  1.00  0.00    -0.003 C 
ATOM     18  C   UNL     1     -19.392  25.621  20.843  1.00  0.00     0.004 C 
ENDBRANCH  16  17
ENDBRANCH  15  16
ENDBRANCH  14  15
ENDBRANCH  13  14
ENDBRANCH  12  13
ENDBRANCH  11  12
ENDBRANCH   1  11
TORSDOF 14
ENDMDL
MODEL 6
REMARK VINA RESULT:    -3.415      4.417      7.651
REMARK INTER + INTRA:          -7.951
REMARK INTER:                  -6.120
REMARK INTRA:                  -1.831
REMARK UNBOUND:                -1.741
REMARK SMILES CCCCCCCCCCCCCCCC(=O)[O-]
REMARK SMILES IDX 9 1 10 2 11 3 12 4 13 5 14 6 15 7 16 8 17 9 18 10 8 11 7 12
REMARK SMILES IDX 6 13 5 14 4 15 3 16 2 17 1 18
REMARK H PARENT
REMARK Flexibility Score: inf
ROOT
ATOM      1  C   UNL     1     -21.903  28.770  19.243  1.00  0.00     0.000 C 
ENDROOT
BRANCH   1   2
ATOM      2  C   UNL     1     -20.370  28.878  19.234  1.00  0.00     0.000 C 
BRANCH   2   3
ATOM      3  C   UNL     1     -19.833  29.808  20.333  1.00  0.00     0.000 C 
BRANCH   3   4
ATOM      4  C   UNL     1     -18.892  29.050  21.281  1.00  0.00     0.000 C 
BRANCH   4   5
ATOM      5  C   UNL     1     -19.619  28.456  22.501  1.00  0.00     0.000 C 
BRANCH   5   6
ATOM      6  C   UNL     1     -19.526  26.922  22.635  1.00  0.00     0.006 C 
BRANCH   6   7
ATOM      7  C   UNL     1     -18.988  26.204  21.387  1.00  0.00     0.053 C 
BRANCH   7   8
ATOM      8  C   UNL     1     -17.668  25.546  21.643  1.00  0.00     0.041 C 
ATOM      9  O   UNL     1     -17.008  25.829  22.677  1.00  0.00    -0.550 OA
ATOM     10  O   UNL     1     -17.181  24.592  20.756  1.00  0.00    -0.550 OA
ENDBRANCH   7   8
ENDBRANCH   6   7
ENDBRANCH   5   6
ENDBRANCH   4   5
ENDBRANCH   3   4
ENDBRANCH   2   3
ENDBRANCH   1   2
BRANCH   1  11
ATOM     11  C   UNL     1     -22.540  29.508  20.434  1.00  0.00     0.000 C 
BRANCH  11  12
ATOM     12  C   UNL     1     -23.747  30.366  20.018  1.00  0.00    -0.000 C 
BRANCH  12  13
ATOM     13  C   UNL     1     -23.722  31.768  20.652  1.00  0.00    -0.000 C 
BRANCH  13  14
ATOM     14  C   UNL     1     -22.508  31.977  21.573  1.00  0.00    -0.000 C 
BRANCH  14  15
ATOM     15  C   UNL     1     -22.217  33.460  21.846  1.00  0.00    -0.000 C 
BRANCH  15  16
ATOM     16  C   UNL     1     -20.864  33.630  22.556  1.00  0.00    -0.000 C 
BRANCH  16  17
ATOM     17  C   UNL     1     -20.269  32.292  23.023  1.00  0.00    -0.003 C 
ATOM     18  C   UNL     1     -18.917  32.457  23.717  1.00  0.00     0.004 C 
ENDBRANCH  16  17
ENDBRANCH  15  16
ENDBRANCH  14  15
ENDBRANCH  13  14
ENDBRANCH  12  13
ENDBRANCH  11  12
ENDBRANCH   1  11
TORSDOF 14
ENDMDL
MODEL 7
REMARK VINA RESULT:    -3.412      1.895      4.163
REMARK INTER + INTRA:          -7.946
REMARK INTER:                  -5.539
REMARK INTRA:                  -2.407
REMARK UNBOUND:                -1.741
REMARK SMILES CCCCCCCCCCCCCCCC(=O)[O-]
REMARK SMILES IDX 9 1 10 2 11 3 12 4 13 5 14 6 15 7 16 8 17 9 18 10 8 11 7 12
REMARK SMILES IDX 6 13 5 14 4 15 3 16 2 17 1 18
REMARK H PARENT
REMARK Flexibility Score: inf
ROOT
ATOM      1  C   UNL     1     -18.162  29.472  22.395  1.00  0.00     0.000 C 
ENDROOT
BRANCH   1   2
ATOM      2  C   UNL     1     -18.888  30.134  23.578  1.00  0.00     0.000 C 
BRANCH   2   3
ATOM      3  C   UNL     1     -18.510  31.612  23.755  1.00  0.00     0.000 C 
BRANCH   3   4
ATOM      4  C   UNL     1     -19.681  32.529  23.369  1.00  0.00     0.000 C 
BRANCH   4   5
ATOM      5  C   UNL     1     -21.056  31.906  23.670  1.00  0.00     0.000 C 
BRANCH   5   6
ATOM      6  C   UNL     1     -22.226  32.466  22.835  1.00  0.00     0.006 C 
BRANCH   6   7
ATOM      7  C   UNL     1     -21.874  32.777  21.372  1.00  0.00     0.053 C 
BRANCH   7   8
ATOM      8  C   UNL     1     -22.082  34.222  21.039  1.00  0.00     0.041 C 
ATOM      9  O   UNL     1     -22.712  34.549  19.999  1.00  0.00    -0.550 OA
ATOM     10  O   UNL     1     -21.611  35.210  21.897  1.00  0.00    -0.550 OA
ENDBRANCH   7   8
ENDBRANCH   6   7
ENDBRANCH   5   6
ENDBRANCH   4   5
ENDBRANCH   3   4
ENDBRANCH   2   3
ENDBRANCH   1   2
BRANCH   1  11
ATOM     11  C   UNL     1     -19.124  28.726  21.454  1.00  0.00     0.000 C 
BRANCH  11  12
ATOM     12  C   UNL     1     -19.773  29.657  20.416  1.00  0.00    -0.000 C 
BRANCH  12  13
ATOM     13  C   UNL     1     -20.376  28.887  19.227  1.00  0.00    -0.000 C 
BRANCH  13  14
ATOM     14  C   UNL     1     -21.800  28.383  19.511  1.00  0.00    -0.000 C 
BRANCH  14  15
ATOM     15  C   UNL     1     -22.769  29.516  19.882  1.00  0.00    -0.000 C 
BRANCH  15  16
ATOM     16  C   UNL     1     -23.405  29.264  21.258  1.00  0.00    -0.000 C 
BRANCH  16  17
ATOM     17  C   UNL     1     -22.785  28.061  21.984  1.00  0.00    -0.003 C 
ATOM     18  C   UNL     1     -22.280  28.412  23.384  1.00  0.00     0.004 C 
ENDBRANCH  16  17
ENDBRANCH  15  16
ENDBRANCH  14  15
ENDBRANCH  13  14
ENDBRANCH  12  13
ENDBRANCH  11  12
ENDBRANCH   1  11
TORSDOF 14
ENDMDL
MODEL 8
REMARK VINA RESULT:    -3.372      2.863      6.018
REMARK INTER + INTRA:          -7.872
REMARK INTER:                  -6.375
REMARK INTRA:                  -1.497
REMARK UNBOUND:                -1.741
REMARK SMILES CCCCCCCCCCCCCCCC(=O)[O-]
REMARK SMILES IDX 9 1 10 2 11 3 12 4 13 5 14 6 15 7 16 8 17 9 18 10 8 11 7 12
REMARK SMILES IDX 6 13 5 14 4 15 3 16 2 17 1 18
REMARK H PARENT
REMARK Flexibility Score: inf
ROOT
ATOM      1  C   UNL     1     -18.958  30.706  23.825  1.00  0.00     0.000 C 
ENDROOT
BRANCH   1   2
ATOM      2  C   UNL     1     -17.701  29.992  23.301  1.00  0.00     0.000 C 
BRANCH   2   3
ATOM      3  C   UNL     1     -18.025  28.908  22.261  1.00  0.00     0.000 C 
BRANCH   3   4
ATOM      4  C   UNL     1     -19.462  29.061  21.738  1.00  0.00     0.000 C 
BRANCH   4   5
ATOM      5  C   UNL     1     -19.524  29.655  20.319  1.00  0.00     0.000 C 
BRANCH   5   6
ATOM      6  C   UNL     1     -20.318  28.818  19.295  1.00  0.00     0.006 C 
BRANCH   6   7
ATOM      7  C   UNL     1     -21.376  27.890  19.911  1.00  0.00     0.053 C 
BRANCH   7   8
ATOM      8  C   UNL     1     -22.762  28.432  19.749  1.00  0.00     0.041 C 
ATOM      9  O   UNL     1     -22.958  29.676  19.722  1.00  0.00    -0.550 OA
ATOM     10  O   UNL     1     -23.837  27.564  19.591  1.00  0.00    -0.550 OA
ENDBRANCH   7   8
ENDBRANCH   6   7
ENDBRANCH   5   6
ENDBRANCH   4   5
ENDBRANCH   3   4
ENDBRANCH   2   3
ENDBRANCH   1   2
BRANCH   1  11
ATOM     11  C   UNL     1     -18.983  32.202  23.461  1.00  0.00     0.000 C 
BRANCH  11  12
ATOM     12  C   UNL     1     -20.413  32.756  23.344  1.00  0.00    -0.000 C 
BRANCH  12  13
ATOM     13  C   UNL     1     -21.240  32.032  22.267  1.00  0.00    -0.000 C 
BRANCH  13  14
ATOM     14  C   UNL     1     -22.720  31.885  22.660  1.00  0.00    -0.000 C 
BRANCH  14  15
ATOM     15  C   UNL     1     -23.594  33.028  22.124  1.00  0.00    -0.000 C 
BRANCH  15  16
ATOM     16  C   UNL     1     -23.279  33.311  20.646  1.00  0.00    -0.000 C 
BRANCH  16  17
ATOM     17  C   UNL     1     -23.100  34.810  20.357  1.00  0.00    -0.003 C 
ATOM     18  C   UNL     1     -21.640  35.256  20.435  1.00  0.00     0.004 C 
ENDBRANCH  16  17
ENDBRANCH  15  16
ENDBRANCH  14  15
ENDBRANCH  13  14
ENDBRANCH  12  13
ENDBRANCH  11  12
ENDBRANCH   1  11
TORSDOF 14
ENDMDL
MODEL 9
REMARK VINA RESULT:    -3.365      9.211     12.641
REMARK INTER + INTRA:          -7.859
REMARK INTER:                  -7.147
REMARK INTRA:                  -0.712
REMARK UNBOUND:                -1.741
REMARK SMILES CCCCCCCCCCCCCCCC(=O)[O-]
REMARK SMILES IDX 9 1 10 2 11 3 12 4 13 5 14 6 15 7 16 8 17 9 18 10 8 11 7 12
REMARK SMILES IDX 6 13 5 14 4 15 3 16 2 17 1 18
REMARK H PARENT
REMARK Flexibility Score: inf
ROOT
ATOM      1  C   UNL     1     -19.607  24.125  14.696  1.00  0.00     0.000 C 
ENDROOT
BRANCH   1   2
ATOM      2  C   UNL     1     -19.765  23.019  15.751  1.00  0.00     0.000 C 
BRANCH   2   3
ATOM      3  C   UNL     1     -20.610  23.463  16.955  1.00  0.00     0.000 C 
BRANCH   3   4
ATOM      4  C   UNL     1     -19.718  23.779  18.165  1.00  0.00     0.000 C 
BRANCH   4   5
ATOM      5  C   UNL     1     -18.296  23.207  18.028  1.00  0.00     0.000 C 
BRANCH   5   6
ATOM      6  C   UNL     1     -17.467  23.194  19.330  1.00  0.00     0.006 C 
BRANCH   6   7
ATOM      7  C   UNL     1     -18.175  23.818  20.543  1.00  0.00     0.053 C 
BRANCH   7   8
ATOM      8  C   UNL     1     -17.213  24.505  21.462  1.00  0.00     0.041 C 
ATOM      9  O   UNL     1     -16.220  23.883  21.921  1.00  0.00    -0.550 OA
ATOM     10  O   UNL     1     -17.393  25.846  21.784  1.00  0.00    -0.550 OA
ENDBRANCH   7   8
ENDBRANCH   6   7
ENDBRANCH   5   6
ENDBRANCH   4   5
ENDBRANCH   3   4
ENDBRANCH   2   3
ENDBRANCH   1   2
BRANCH   1  11
ATOM     11  C   UNL     1     -19.631  23.577  13.257  1.00  0.00     0.000 C 
BRANCH  11  12
ATOM     12  C   UNL     1     -20.996  22.982  12.876  1.00  0.00    -0.000 C 
BRANCH  12  13
ATOM     13  C   UNL     1     -21.643  23.704  11.680  1.00  0.00    -0.000 C 
BRANCH  13  14
ATOM     14  C   UNL     1     -22.879  24.523  12.083  1.00  0.00    -0.000 C 
BRANCH  14  15
ATOM     15  C   UNL     1     -22.980  25.858  11.332  1.00  0.00    -0.000 C 
BRANCH  15  16
ATOM     16  C   UNL     1     -22.614  25.681   9.849  1.00  0.00    -0.000 C 
BRANCH  16  17
ATOM     17  C   UNL     1     -23.806  25.934   8.913  1.00  0.00    -0.003 C 
ATOM     18  C   UNL     1     -23.387  26.546   7.576  1.00  0.00     0.004 C 
ENDBRANCH  16  17
ENDBRANCH  15  16
ENDBRANCH  14  15
ENDBRANCH  13  14
ENDBRANCH  12  13
ENDBRANCH  11  12
ENDBRANCH   1  11
TORSDOF 14
ENDMDL
