MODEL 1
REMARK VINA RESULT:    -3.587      0.000      0.000
REMARK INTER + INTRA:          -5.991
REMARK INTER:                  -5.475
REMARK INTRA:                  -0.516
REMARK UNBOUND:                -0.516
REMARK SMILES O=C([O-])CCCCCCCCC(=O)[O-]
REMARK SMILES IDX 7 1 6 2 5 3 4 4 2 5 1 6 3 7 8 8 9 9 10 10 11 11 12 12 13 13
REMARK SMILES IDX 14 14
REMARK H PARENT
REMARK Flexibility Score: inf
ROOT
ATOM      1  C   UNL     1      18.180 -12.698 186.779  1.00  0.00     0.000 C 
ENDROOT
BRANCH   1   2
ATOM      2  C   UNL     1      18.413 -14.215 186.859  1.00  0.00     0.000 C 
BRANCH   2   3
ATOM      3  C   UNL     1      17.141 -14.988 187.252  1.00  0.00     0.006 C 
BRANCH   3   4
ATOM      4  C   UNL     1      16.579 -15.808 186.084  1.00  0.00     0.053 C 
BRANCH   4   5
ATOM      5  C   UNL     1      15.558 -15.037 185.304  1.00  0.00     0.041 C 
ATOM      6  O   UNL     1      14.972 -14.053 185.827  1.00  0.00    -0.550 OA
ATOM      7  O   UNL     1      15.233 -15.425 184.011  1.00  0.00    -0.550 OA
ENDBRANCH   4   5
ENDBRANCH   3   4
ENDBRANCH   2   3
ENDBRANCH   1   2
BRANCH   1   8
ATOM      8  C   UNL     1      19.386 -11.886 187.284  1.00  0.00     0.000 C 
BRANCH   8   9
ATOM      9  C   UNL     1      18.969 -10.695 188.160  1.00  0.00     0.000 C 
BRANCH   9  10
ATOM     10  C   UNL     1      19.856  -9.458 187.936  1.00  0.00     0.006 C 
BRANCH  10  11
ATOM     11  C   UNL     1      19.866  -9.011 186.468  1.00  0.00     0.053 C 
BRANCH  11  12
ATOM     12  C   UNL     1      18.546  -8.439 186.053  1.00  0.00     0.041 C 
ATOM     13  O   UNL     1      17.911  -8.945 185.090  1.00  0.00    -0.550 OA
ATOM     14  O   UNL     1      18.033  -7.325 186.706  1.00  0.00    -0.550 OA
ENDBRANCH  11  12
ENDBRANCH  10  11
ENDBRANCH   9  10
ENDBRANCH   8   9
ENDBRANCH   1   8
TORSDOF 9
ENDMDL
MODEL 2
REMARK VINA RESULT:    -3.522      2.119      2.593
REMARK INTER + INTRA:          -5.891
REMARK INTER:                  -5.455
REMARK INTRA:                  -0.437
REMARK UNBOUND:                -0.516
REMARK SMILES O=C([O-])CCCCCCCCC(=O)[O-]
REMARK SMILES IDX 7 1 6 2 5 3 4 4 2 5 1 6 3 7 8 8 9 9 10 10 11 11 12 12 13 13
REMARK SMILES IDX 14 14
REMARK H PARENT
REMARK Flexibility Score: inf
ROOT
ATOM      1  C   UNL     1      17.640 -12.920 186.390  1.00  0.00     0.000 C 
ENDROOT
BRANCH   1   2
ATOM      2  C   UNL     1      18.631 -13.990 186.875  1.00  0.00     0.000 C 
BRANCH   2   3
ATOM      3  C   UNL     1      18.033 -15.408 186.841  1.00  0.00     0.006 C 
BRANCH   3   4
ATOM      4  C   UNL     1      17.005 -15.629 187.959  1.00  0.00     0.053 C 
BRANCH   4   5
ATOM      5  C   UNL     1      15.627 -15.844 187.412  1.00  0.00     0.041 C 
ATOM      6  O   UNL     1      14.634 -15.866 188.185  1.00  0.00    -0.550 OA
ATOM      7  O   UNL     1      15.444 -16.049 186.050  1.00  0.00    -0.550 OA
ENDBRANCH   4   5
ENDBRANCH   3   4
ENDBRANCH   2   3
ENDBRANCH   1   2
BRANCH   1   8
ATOM      8  C   UNL     1      18.146 -11.488 186.640  1.00  0.00     0.000 C 
BRANCH   8   9
ATOM      9  C   UNL     1      19.479 -11.459 187.402  1.00  0.00     0.000 C 
BRANCH   9  10
ATOM     10  C   UNL     1      19.841 -10.052 187.907  1.00  0.00     0.006 C 
BRANCH  10  11
ATOM     11  C   UNL     1      18.698  -9.411 188.706  1.00  0.00     0.053 C 
BRANCH  11  12
ATOM     12  C   UNL     1      19.205  -8.393 189.680  1.00  0.00     0.041 C 
ATOM     13  O   UNL     1      19.065  -7.164 189.444  1.00  0.00    -0.550 OA
ATOM     14  O   UNL     1      19.866  -8.801 190.833  1.00  0.00    -0.550 OA
ENDBRANCH  11  12
ENDBRANCH  10  11
ENDBRANCH   9  10
ENDBRANCH   8   9
ENDBRANCH   1   8
TORSDOF 9
ENDMDL
MODEL 3
REMARK VINA RESULT:    -3.504      0.872      6.196
REMARK INTER + INTRA:          -5.863
REMARK INTER:                  -5.287
REMARK INTRA:                  -0.576
REMARK UNBOUND:                -0.516
REMARK SMILES O=C([O-])CCCCCCCCC(=O)[O-]
REMARK SMILES IDX 7 1 6 2 5 3 4 4 2 5 1 6 3 7 8 8 9 9 10 10 11 11 12 12 13 13
REMARK SMILES IDX 14 14
REMARK H PARENT
REMARK Flexibility Score: inf
ROOT
ATOM      1  C   UNL     1      19.002 -10.704 188.268  1.00  0.00     0.000 C 
ENDROOT
BRANCH   1   2
ATOM      2  C   UNL     1      19.800  -9.407 188.056  1.00  0.00     0.000 C 
BRANCH   2   3
ATOM      3  C   UNL     1      19.833  -8.968 186.581  1.00  0.00     0.006 C 
BRANCH   3   4
ATOM      4  C   UNL     1      18.875  -7.802 186.303  1.00  0.00     0.053 C 
BRANCH   4   5
ATOM      5  C   UNL     1      17.615  -8.265 185.639  1.00  0.00     0.041 C 
ATOM      6  O   UNL     1      17.516  -9.449 185.220  1.00  0.00    -0.550 OA
ATOM      7  O   UNL     1      16.560  -7.380 185.456  1.00  0.00    -0.550 OA
ENDBRANCH   4   5
ENDBRANCH   3   4
ENDBRANCH   2   3
ENDBRANCH   1   2
BRANCH   1   8
ATOM      8  C   UNL     1      19.375 -11.800 187.254  1.00  0.00     0.000 C 
BRANCH   8   9
ATOM      9  C   UNL     1      18.157 -12.611 186.789  1.00  0.00     0.000 C 
BRANCH   9  10
ATOM     10  C   UNL     1      18.396 -14.130 186.859  1.00  0.00     0.006 C 
BRANCH  10  11
ATOM     11  C   UNL     1      17.167 -14.887 187.380  1.00  0.00     0.053 C 
BRANCH  11  12
ATOM     12  C   UNL     1      16.140 -15.081 186.309  1.00  0.00     0.041 C 
ATOM     13  O   UNL     1      15.089 -14.387 186.305  1.00  0.00    -0.550 OA
ATOM     14  O   UNL     1      16.325 -16.053 185.333  1.00  0.00    -0.550 OA
ENDBRANCH  11  12
ENDBRANCH  10  11
ENDBRANCH   9  10
ENDBRANCH   8   9
ENDBRANCH   1   8
TORSDOF 9
ENDMDL
MODEL 4
REMARK VINA RESULT:    -3.497      1.849      6.881
REMARK INTER + INTRA:          -5.852
REMARK INTER:                  -5.399
REMARK INTRA:                  -0.453
REMARK UNBOUND:                -0.516
REMARK SMILES O=C([O-])CCCCCCCCC(=O)[O-]
REMARK SMILES IDX 7 1 6 2 5 3 4 4 2 5 1 6 3 7 8 8 9 9 10 10 11 11 12 12 13 13
REMARK SMILES IDX 14 14
REMARK H PARENT
REMARK Flexibility Score: inf
ROOT
ATOM      1  C   UNL     1      18.166 -11.473 186.576  1.00  0.00     0.000 C 
ENDROOT
BRANCH   1   2
ATOM      2  C   UNL     1      19.448 -11.418 187.423  1.00  0.00     0.000 C 
BRANCH   2   3
ATOM      3  C   UNL     1      20.068 -10.010 187.465  1.00  0.00     0.006 C 
BRANCH   3   4
ATOM      4  C   UNL     1      19.012  -8.920 187.685  1.00  0.00     0.053 C 
BRANCH   4   5
ATOM      5  C   UNL     1      19.058  -8.374 189.079  1.00  0.00     0.041 C 
ATOM      6  O   UNL     1      19.696  -8.983 189.978  1.00  0.00    -0.550 OA
ATOM      7  O   UNL     1      18.371  -7.208 189.393  1.00  0.00    -0.550 OA
ENDBRANCH   4   5
ENDBRANCH   3   4
ENDBRANCH   2   3
ENDBRANCH   1   2
BRANCH   1   8
ATOM      8  C   UNL     1      17.661 -12.912 186.359  1.00  0.00     0.000 C 
BRANCH   8   9
ATOM      9  C   UNL     1      18.624 -13.965 186.926  1.00  0.00     0.000 C 
BRANCH   9  10
ATOM     10  C   UNL     1      18.053 -15.392 186.846  1.00  0.00     0.006 C 
BRANCH  10  11
ATOM     11  C   UNL     1      16.608 -15.467 187.361  1.00  0.00     0.053 C 
BRANCH  11  12
ATOM     12  C   UNL     1      15.664 -15.930 186.296  1.00  0.00     0.041 C 
ATOM     13  O   UNL     1      16.078 -16.125 185.122  1.00  0.00    -0.550 OA
ATOM     14  O   UNL     1      14.318 -16.113 186.589  1.00  0.00    -0.550 OA
ENDBRANCH  11  12
ENDBRANCH  10  11
ENDBRANCH   9  10
ENDBRANCH   8   9
ENDBRANCH   1   8
TORSDOF 9
ENDMDL
MODEL 5
REMARK VINA RESULT:    -3.461      2.118      6.645
REMARK INTER + INTRA:          -5.798
REMARK INTER:                  -5.252
REMARK INTRA:                  -0.545
REMARK UNBOUND:                -0.516
REMARK SMILES O=C([O-])CCCCCCCCC(=O)[O-]
REMARK SMILES IDX 7 1 6 2 5 3 4 4 2 5 1 6 3 7 8 8 9 9 10 10 11 11 12 12 13 13
REMARK SMILES IDX 14 14
REMARK H PARENT
REMARK Flexibility Score: inf
ROOT
ATOM      1  C   UNL     1      17.679 -13.011 186.476  1.00  0.00     0.000 C 
ENDROOT
BRANCH   1   2
ATOM      2  C   UNL     1      18.231 -11.583 186.620  1.00  0.00     0.000 C 
BRANCH   2   3
ATOM      3  C   UNL     1      19.380 -11.494 187.640  1.00  0.00     0.006 C 
BRANCH   3   4
ATOM      4  C   UNL     1      20.117 -10.151 187.564  1.00  0.00     0.053 C 
BRANCH   4   5
ATOM      5  C   UNL     1      19.451  -9.103 188.402  1.00  0.00     0.041 C 
ATOM      6  O   UNL     1      18.635  -8.298 187.881  1.00  0.00    -0.550 OA
ATOM      7  O   UNL     1      19.753  -8.998 189.754  1.00  0.00    -0.550 OA
ENDBRANCH   4   5
ENDBRANCH   3   4
ENDBRANCH   2   3
ENDBRANCH   1   2
BRANCH   1   8
ATOM      8  C   UNL     1      18.703 -14.085 186.885  1.00  0.00     0.000 C 
BRANCH   8   9
ATOM      9  C   UNL     1      18.105 -15.500 186.881  1.00  0.00     0.000 C 
BRANCH   9  10
ATOM     10  C   UNL     1      16.584 -15.499 187.116  1.00  0.00     0.006 C 
BRANCH  10  11
ATOM     11  C   UNL     1      16.216 -15.951 188.536  1.00  0.00     0.053 C 
BRANCH  11  12
ATOM     12  C   UNL     1      15.263 -15.001 189.191  1.00  0.00     0.041 C 
ATOM     13  O   UNL     1      14.810 -15.248 190.340  1.00  0.00    -0.550 OA
ATOM     14  O   UNL     1      14.846 -13.858 188.519  1.00  0.00    -0.550 OA
ENDBRANCH  11  12
ENDBRANCH  10  11
ENDBRANCH   9  10
ENDBRANCH   8   9
ENDBRANCH   1   8
TORSDOF 9
ENDMDL
MODEL 6
REMARK VINA RESULT:    -3.442      1.642      6.110
REMARK INTER + INTRA:          -5.769
REMARK INTER:                  -5.255
REMARK INTRA:                  -0.515
REMARK UNBOUND:                -0.516
REMARK SMILES O=C([O-])CCCCCCCCC(=O)[O-]
REMARK SMILES IDX 7 1 6 2 5 3 4 4 2 5 1 6 3 7 8 8 9 9 10 10 11 11 12 12 13 13
REMARK SMILES IDX 14 14
REMARK H PARENT
REMARK Flexibility Score: inf
ROOT
ATOM      1  C   UNL     1      18.416 -13.994 186.844  1.00  0.00     0.000 C 
ENDROOT
BRANCH   1   2
ATOM      2  C   UNL     1      18.259 -12.466 186.885  1.00  0.00     0.000 C 
BRANCH   2   3
ATOM      3  C   UNL     1      19.455 -11.766 187.555  1.00  0.00     0.006 C 
BRANCH   3   4
ATOM      4  C   UNL     1      19.652 -10.336 187.038  1.00  0.00     0.053 C 
BRANCH   4   5
ATOM      5  C   UNL     1      19.440  -9.320 188.120  1.00  0.00     0.041 C 
ATOM      6  O   UNL     1      19.367  -9.682 189.324  1.00  0.00    -0.550 OA
ATOM      7  O   UNL     1      19.295  -7.978 187.794  1.00  0.00    -0.550 OA
ENDBRANCH   4   5
ENDBRANCH   3   4
ENDBRANCH   2   3
ENDBRANCH   1   2
BRANCH   1   8
ATOM      8  C   UNL     1      17.138 -14.733 187.282  1.00  0.00     0.000 C 
BRANCH   8   9
ATOM      9  C   UNL     1      16.633 -15.716 186.216  1.00  0.00     0.000 C 
BRANCH   9  10
ATOM     10  C   UNL     1      15.201 -15.399 185.750  1.00  0.00     0.006 C 
BRANCH  10  11
ATOM     11  C   UNL     1      15.182 -14.584 184.449  1.00  0.00     0.053 C 
BRANCH  11  12
ATOM     12  C   UNL     1      14.913 -13.134 184.706  1.00  0.00     0.041 C 
ATOM     13  O   UNL     1      15.737 -12.260 184.329  1.00  0.00    -0.550 OA
ATOM     14  O   UNL     1      13.769 -12.749 185.395  1.00  0.00    -0.550 OA
ENDBRANCH  11  12
ENDBRANCH  10  11
ENDBRANCH   9  10
ENDBRANCH   8   9
ENDBRANCH   1   8
TORSDOF 9
ENDMDL
MODEL 7
REMARK VINA RESULT:    -3.441      1.453      2.047
REMARK INTER + INTRA:          -5.767
REMARK INTER:                  -5.207
REMARK INTRA:                  -0.560
REMARK UNBOUND:                -0.516
REMARK SMILES O=C([O-])CCCCCCCCC(=O)[O-]
REMARK SMILES IDX 7 1 6 2 5 3 4 4 2 5 1 6 3 7 8 8 9 9 10 10 11 11 12 12 13 13
REMARK SMILES IDX 14 14
REMARK H PARENT
REMARK Flexibility Score: inf
ROOT
ATOM      1  C   UNL     1      18.177 -11.680 187.267  1.00  0.00     0.000 C 
ENDROOT
BRANCH   1   2
ATOM      2  C   UNL     1      17.865 -12.905 186.393  1.00  0.00     0.000 C 
BRANCH   2   3
ATOM      3  C   UNL     1      18.572 -14.180 186.888  1.00  0.00     0.006 C 
BRANCH   3   4
ATOM      4  C   UNL     1      17.696 -15.428 186.720  1.00  0.00     0.053 C 
BRANCH   4   5
ATOM      5  C   UNL     1      16.545 -15.433 187.679  1.00  0.00     0.041 C 
ATOM      6  O   UNL     1      16.724 -15.754 188.884  1.00  0.00    -0.550 OA
ATOM      7  O   UNL     1      15.269 -15.111 187.235  1.00  0.00    -0.550 OA
ENDBRANCH   4   5
ENDBRANCH   3   4
ENDBRANCH   2   3
ENDBRANCH   1   2
BRANCH   1   8
ATOM      8  C   UNL     1      19.681 -11.531 187.562  1.00  0.00     0.000 C 
BRANCH   8   9
ATOM      9  C   UNL     1      20.125 -10.062 187.627  1.00  0.00     0.000 C 
BRANCH   9  10
ATOM     10  C   UNL     1      19.913  -9.322 186.294  1.00  0.00     0.006 C 
BRANCH  10  11
ATOM     11  C   UNL     1      19.144  -8.006 186.478  1.00  0.00     0.053 C 
BRANCH  11  12
ATOM     12  C   UNL     1      17.708  -8.141 186.078  1.00  0.00     0.041 C 
ATOM     13  O   UNL     1      16.803  -8.140 186.953  1.00  0.00    -0.550 OA
ATOM     14  O   UNL     1      17.371  -8.304 184.739  1.00  0.00    -0.550 OA
ENDBRANCH  11  12
ENDBRANCH  10  11
ENDBRANCH   9  10
ENDBRANCH   8   9
ENDBRANCH   1   8
TORSDOF 9
ENDMDL
MODEL 8
REMARK VINA RESULT:    -3.424      1.320      5.640
REMARK INTER + INTRA:          -5.742
REMARK INTER:                  -5.162
REMARK INTRA:                  -0.580
REMARK UNBOUND:                -0.516
REMARK SMILES O=C([O-])CCCCCCCCC(=O)[O-]
REMARK SMILES IDX 7 1 6 2 5 3 4 4 2 5 1 6 3 7 8 8 9 9 10 10 11 11 12 12 13 13
REMARK SMILES IDX 14 14
REMARK H PARENT
REMARK Flexibility Score: inf
ROOT
ATOM      1  C   UNL     1      18.180 -12.973 186.910  1.00  0.00     0.000 C 
ENDROOT
BRANCH   1   2
ATOM      2  C   UNL     1      19.281 -12.000 187.358  1.00  0.00     0.000 C 
BRANCH   2   3
ATOM      3  C   UNL     1      19.024 -10.558 186.885  1.00  0.00     0.006 C 
BRANCH   3   4
ATOM      4  C   UNL     1      17.601 -10.373 186.344  1.00  0.00     0.053 C 
BRANCH   4   5
ATOM      5  C   UNL     1      17.529  -9.266 185.336  1.00  0.00     0.041 C 
ATOM      6  O   UNL     1      18.063  -8.152 185.579  1.00  0.00    -0.550 OA
ATOM      7  O   UNL     1      16.847  -9.457 184.141  1.00  0.00    -0.550 OA
ENDBRANCH   4   5
ENDBRANCH   3   4
ENDBRANCH   2   3
ENDBRANCH   1   2
BRANCH   1   8
ATOM      8  C   UNL     1      18.645 -14.441 186.924  1.00  0.00     0.000 C 
BRANCH   8   9
ATOM      9  C   UNL     1      17.474 -15.431 186.844  1.00  0.00     0.000 C 
BRANCH   9  10
ATOM     10  C   UNL     1      16.129 -14.734 186.574  1.00  0.00     0.006 C 
BRANCH  10  11
ATOM     11  C   UNL     1      15.530 -15.133 185.218  1.00  0.00     0.053 C 
BRANCH  11  12
ATOM     12  C   UNL     1      14.947 -13.956 184.501  1.00  0.00     0.041 C 
ATOM     13  O   UNL     1      13.810 -14.038 183.966  1.00  0.00    -0.550 OA
ATOM     14  O   UNL     1      15.674 -12.776 184.392  1.00  0.00    -0.550 OA
ENDBRANCH  11  12
ENDBRANCH  10  11
ENDBRANCH   9  10
ENDBRANCH   8   9
ENDBRANCH   1   8
TORSDOF 9
ENDMDL
MODEL 9
REMARK VINA RESULT:    -3.409      2.505      4.013
REMARK INTER + INTRA:          -5.718
REMARK INTER:                  -4.862
REMARK INTRA:                  -0.856
REMARK UNBOUND:                -0.516
REMARK SMILES O=C([O-])CCCCCCCCC(=O)[O-]
REMARK SMILES IDX 7 1 6 2 5 3 4 4 2 5 1 6 3 7 8 8 9 9 10 10 11 11 12 12 13 13
REMARK SMILES IDX 14 14
REMARK H PARENT
REMARK Flexibility Score: inf
ROOT
ATOM      1  C   UNL     1      16.067 -13.222 186.597  1.00  0.00     0.000 C 
ENDROOT
BRANCH   1   2
ATOM      2  C   UNL     1      15.319 -13.172 185.255  1.00  0.00     0.000 C 
BRANCH   2   3
ATOM      3  C   UNL     1      15.036 -11.732 184.789  1.00  0.00     0.006 C 
BRANCH   3   4
ATOM      4  C   UNL     1      16.293 -11.042 184.246  1.00  0.00     0.053 C 
BRANCH   4   5
ATOM      5  C   UNL     1      16.557  -9.740 184.939  1.00  0.00     0.041 C 
ATOM      6  O   UNL     1      16.079  -9.523 186.084  1.00  0.00    -0.550 OA
ATOM      7  O   UNL     1      17.305  -8.755 184.308  1.00  0.00    -0.550 OA
ENDBRANCH   4   5
ENDBRANCH   3   4
ENDBRANCH   2   3
ENDBRANCH   1   2
BRANCH   1   8
ATOM      8  C   UNL     1      17.265 -14.189 186.571  1.00  0.00     0.000 C 
BRANCH   8   9
ATOM      9  C   UNL     1      18.590 -13.492 186.912  1.00  0.00     0.000 C 
BRANCH   9  10
ATOM     10  C   UNL     1      18.413 -11.990 187.192  1.00  0.00     0.006 C 
BRANCH  10  11
ATOM     11  C   UNL     1      19.755 -11.278 187.408  1.00  0.00     0.053 C 
BRANCH  11  12
ATOM     12  C   UNL     1      19.566  -9.853 187.827  1.00  0.00     0.041 C 
ATOM     13  O   UNL     1      19.603  -8.930 186.972  1.00  0.00    -0.550 OA
ATOM     14  O   UNL     1      19.385  -9.540 189.169  1.00  0.00    -0.550 OA
ENDBRANCH  11  12
ENDBRANCH  10  11
ENDBRANCH   9  10
ENDBRANCH   8   9
ENDBRANCH   1   8
TORSDOF 9
ENDMDL
