MODEL 1
REMARK VINA RESULT:    -3.265      0.000      0.000
REMARK INTER + INTRA:          -4.189
REMARK INTER:                  -4.028
REMARK INTRA:                  -0.161
REMARK UNBOUND:                -0.161
REMARK SMILES CCCCCC(=O)[O-]
REMARK SMILES IDX 4 1 5 2 6 3 7 4 8 5 3 6 2 7 1 8
REMARK H PARENT
REMARK Flexibility Score: inf
ROOT
ATOM      1  C   UNL     1      24.889   3.020  41.918  1.00  0.00     0.006 C 
ENDROOT
BRANCH   1   2
ATOM      2  C   UNL     1      26.142   2.623  42.709  1.00  0.00     0.053 C 
BRANCH   2   3
ATOM      3  C   UNL     1      25.916   1.333  43.431  1.00  0.00     0.041 C 
ATOM      4  O   UNL     1      25.231   1.309  44.488  1.00  0.00    -0.550 OA
ATOM      5  O   UNL     1      26.420   0.147  42.912  1.00  0.00    -0.550 OA
ENDBRANCH   2   3
ENDBRANCH   1   2
BRANCH   1   6
ATOM      6  C   UNL     1      24.978   2.628  40.434  1.00  0.00     0.000 C 
BRANCH   6   7
ATOM      7  C   UNL     1      26.419   2.641  39.905  1.00  0.00    -0.003 C 
ATOM      8  C   UNL     1      26.464   2.262  38.427  1.00  0.00     0.004 C 
ENDBRANCH   6   7
ENDBRANCH   1   6
TORSDOF 4
ENDMDL
MODEL 2
REMARK VINA RESULT:    -3.260      2.977      4.435
REMARK INTER + INTRA:          -4.183
REMARK INTER:                  -4.063
REMARK INTRA:                  -0.121
REMARK UNBOUND:                -0.161
REMARK SMILES CCCCCC(=O)[O-]
REMARK SMILES IDX 4 1 5 2 6 3 7 4 8 5 3 6 2 7 1 8
REMARK H PARENT
REMARK Flexibility Score: inf
ROOT
ATOM      1  C   UNL     1      26.127   2.729  40.621  1.00  0.00     0.006 C 
ENDROOT
BRANCH   1   2
ATOM      2  C   UNL     1      26.286   1.349  39.969  1.00  0.00     0.053 C 
BRANCH   2   3
ATOM      3  C   UNL     1      25.588   1.313  38.648  1.00  0.00     0.041 C 
ATOM      4  O   UNL     1      25.802   0.368  37.843  1.00  0.00    -0.550 OA
ATOM      5  O   UNL     1      24.662   2.296  38.322  1.00  0.00    -0.550 OA
ENDBRANCH   2   3
ENDBRANCH   1   2
BRANCH   1   6
ATOM      6  C   UNL     1      25.477   2.655  42.012  1.00  0.00     0.000 C 
BRANCH   6   7
ATOM      7  C   UNL     1      26.002   1.479  42.848  1.00  0.00    -0.003 C 
ATOM      8  C   UNL     1      25.147   1.267  44.093  1.00  0.00     0.004 C 
ENDBRANCH   6   7
ENDBRANCH   1   6
TORSDOF 4
ENDMDL
MODEL 3
REMARK VINA RESULT:    -3.225      7.235      8.703
REMARK INTER + INTRA:          -4.140
REMARK INTER:                  -3.997
REMARK INTRA:                  -0.143
REMARK UNBOUND:                -0.161
REMARK SMILES CCCCCC(=O)[O-]
REMARK SMILES IDX 4 1 5 2 6 3 7 4 8 5 3 6 2 7 1 8
REMARK H PARENT
REMARK Flexibility Score: inf
ROOT
ATOM      1  C   UNL     1      24.528  -3.789  34.841  1.00  0.00     0.006 C 
ENDROOT
BRANCH   1   2
ATOM      2  C   UNL     1      24.262  -2.550  35.706  1.00  0.00     0.053 C 
BRANCH   2   3
ATOM      3  C   UNL     1      25.469  -2.214  36.522  1.00  0.00     0.041 C 
ATOM      4  O   UNL     1      26.423  -3.032  36.608  1.00  0.00    -0.550 OA
ATOM      5  O   UNL     1      25.564  -0.979  37.149  1.00  0.00    -0.550 OA
ENDBRANCH   2   3
ENDBRANCH   1   2
BRANCH   1   6
ATOM      6  C   UNL     1      23.374  -4.803  34.888  1.00  0.00     0.000 C 
BRANCH   6   7
ATOM      7  C   UNL     1      22.153  -4.273  35.654  1.00  0.00    -0.003 C 
ATOM      8  C   UNL     1      21.817  -5.173  36.839  1.00  0.00     0.004 C 
ENDBRANCH   6   7
ENDBRANCH   1   6
TORSDOF 4
ENDMDL
MODEL 4
REMARK VINA RESULT:    -3.212      8.293      9.384
REMARK INTER + INTRA:          -4.124
REMARK INTER:                  -3.989
REMARK INTRA:                  -0.135
REMARK UNBOUND:                -0.161
REMARK SMILES CCCCCC(=O)[O-]
REMARK SMILES IDX 4 1 5 2 6 3 7 4 8 5 3 6 2 7 1 8
REMARK H PARENT
REMARK Flexibility Score: inf
ROOT
ATOM      1  C   UNL     1      22.254  -4.148  35.509  1.00  0.00     0.006 C 
ENDROOT
BRANCH   1   2
ATOM      2  C   UNL     1      22.638  -3.316  36.740  1.00  0.00     0.053 C 
BRANCH   2   3
ATOM      3  C   UNL     1      23.915  -2.577  36.492  1.00  0.00     0.041 C 
ATOM      4  O   UNL     1      23.906  -1.325  36.359  1.00  0.00    -0.550 OA
ATOM      5  O   UNL     1      25.121  -3.265  36.458  1.00  0.00    -0.550 OA
ENDBRANCH   2   3
ENDBRANCH   1   2
BRANCH   1   6
ATOM      6  C   UNL     1      22.566  -5.643  35.685  1.00  0.00     0.000 C 
BRANCH   6   7
ATOM      7  C   UNL     1      23.776  -6.096  34.856  1.00  0.00    -0.003 C 
ATOM      8  C   UNL     1      23.368  -7.125  33.806  1.00  0.00     0.004 C 
ENDBRANCH   6   7
ENDBRANCH   1   6
TORSDOF 4
ENDMDL
MODEL 5
REMARK VINA RESULT:    -3.202      7.574      8.791
REMARK INTER + INTRA:          -4.112
REMARK INTER:                  -3.890
REMARK INTRA:                  -0.222
REMARK UNBOUND:                -0.161
REMARK SMILES CCCCCC(=O)[O-]
REMARK SMILES IDX 4 1 5 2 6 3 7 4 8 5 3 6 2 7 1 8
REMARK H PARENT
REMARK Flexibility Score: inf
ROOT
ATOM      1  C   UNL     1      23.005  -3.018  36.704  1.00  0.00     0.006 C 
ENDROOT
BRANCH   1   2
ATOM      2  C   UNL     1      24.121  -2.691  35.703  1.00  0.00     0.053 C 
BRANCH   2   3
ATOM      3  C   UNL     1      25.456  -3.044  36.277  1.00  0.00     0.041 C 
ATOM      4  O   UNL     1      26.208  -2.142  36.732  1.00  0.00    -0.550 OA
ATOM      5  O   UNL     1      25.851  -4.373  36.355  1.00  0.00    -0.550 OA
ENDBRANCH   2   3
ENDBRANCH   1   2
BRANCH   1   6
ATOM      6  C   UNL     1      22.223  -4.286  36.326  1.00  0.00     0.000 C 
BRANCH   6   7
ATOM      7  C   UNL     1      22.527  -4.764  34.898  1.00  0.00    -0.003 C 
ATOM      8  C   UNL     1      23.097  -6.179  34.904  1.00  0.00     0.004 C 
ENDBRANCH   6   7
ENDBRANCH   1   6
TORSDOF 4
ENDMDL
MODEL 6
REMARK VINA RESULT:    -3.193      8.691      9.945
REMARK INTER + INTRA:          -4.101
REMARK INTER:                  -3.855
REMARK INTRA:                  -0.246
REMARK UNBOUND:                -0.161
REMARK SMILES CCCCCC(=O)[O-]
REMARK SMILES IDX 4 1 5 2 6 3 7 4 8 5 3 6 2 7 1 8
REMARK H PARENT
REMARK Flexibility Score: inf
ROOT
ATOM      1  C   UNL     1      22.651  -4.884  34.936  1.00  0.00     0.006 C 
ENDROOT
BRANCH   1   2
ATOM      2  C   UNL     1      23.211  -6.310  34.850  1.00  0.00     0.053 C 
BRANCH   2   3
ATOM      3  C   UNL     1      24.501  -6.410  35.600  1.00  0.00     0.041 C 
ATOM      4  O   UNL     1      25.526  -5.809  35.181  1.00  0.00    -0.550 OA
ATOM      5  O   UNL     1      24.562  -7.125  36.789  1.00  0.00    -0.550 OA
ENDBRANCH   2   3
ENDBRANCH   1   2
BRANCH   1   6
ATOM      6  C   UNL     1      22.126  -4.538  36.338  1.00  0.00     0.000 C 
BRANCH   6   7
ATOM      7  C   UNL     1      22.513  -3.119  36.780  1.00  0.00    -0.003 C 
ATOM      8  C   UNL     1      23.973  -2.822  36.453  1.00  0.00     0.004 C 
ENDBRANCH   6   7
ENDBRANCH   1   6
TORSDOF 4
ENDMDL
MODEL 7
REMARK VINA RESULT:    -3.095      7.608      8.674
REMARK INTER + INTRA:          -3.980
REMARK INTER:                  -3.787
REMARK INTRA:                  -0.193
REMARK UNBOUND:                -0.161
REMARK SMILES CCCCCC(=O)[O-]
REMARK SMILES IDX 4 1 5 2 6 3 7 4 8 5 3 6 2 7 1 8
REMARK H PARENT
REMARK Flexibility Score: inf
ROOT
ATOM      1  C   UNL     1      23.977  -2.198  36.286  1.00  0.00     0.006 C 
ENDROOT
BRANCH   1   2
ATOM      2  C   UNL     1      24.761  -3.035  35.267  1.00  0.00     0.053 C 
BRANCH   2   3
ATOM      3  C   UNL     1      25.952  -3.666  35.915  1.00  0.00     0.041 C 
ATOM      4  O   UNL     1      25.887  -4.846  36.349  1.00  0.00    -0.550 OA
ATOM      5  O   UNL     1      27.150  -2.968  35.997  1.00  0.00    -0.550 OA
ENDBRANCH   2   3
ENDBRANCH   1   2
BRANCH   1   6
ATOM      6  C   UNL     1      22.707  -2.907  36.782  1.00  0.00     0.000 C 
BRANCH   6   7
ATOM      7  C   UNL     1      22.284  -4.068  35.870  1.00  0.00    -0.003 C 
ATOM      8  C   UNL     1      21.855  -5.281  36.691  1.00  0.00     0.004 C 
ENDBRANCH   6   7
ENDBRANCH   1   6
TORSDOF 4
ENDMDL
MODEL 8
REMARK VINA RESULT:    -3.058      8.677      9.947
REMARK INTER + INTRA:          -3.935
REMARK INTER:                  -3.674
REMARK INTRA:                  -0.261
REMARK UNBOUND:                -0.161
REMARK SMILES CCCCCC(=O)[O-]
REMARK SMILES IDX 4 1 5 2 6 3 7 4 8 5 3 6 2 7 1 8
REMARK H PARENT
REMARK Flexibility Score: inf
ROOT
ATOM      1  C   UNL     1      22.528  -5.591  35.914  1.00  0.00     0.006 C 
ENDROOT
BRANCH   1   2
ATOM      2  C   UNL     1      23.392  -6.251  34.831  1.00  0.00     0.053 C 
BRANCH   2   3
ATOM      3  C   UNL     1      24.803  -5.763  34.922  1.00  0.00     0.041 C 
ATOM      4  O   UNL     1      25.392  -5.728  36.034  1.00  0.00    -0.550 OA
ATOM      5  O   UNL     1      25.486  -5.392  33.771  1.00  0.00    -0.550 OA
ENDBRANCH   2   3
ENDBRANCH   1   2
BRANCH   1   6
ATOM      6  C   UNL     1      22.210  -4.120  35.603  1.00  0.00     0.000 C 
BRANCH   6   7
ATOM      7  C   UNL     1      22.644  -3.171  36.731  1.00  0.00    -0.003 C 
ATOM      8  C   UNL     1      23.916  -2.418  36.355  1.00  0.00     0.004 C 
ENDBRANCH   6   7
ENDBRANCH   1   6
TORSDOF 4
ENDMDL
MODEL 9
REMARK VINA RESULT:    -3.045      7.904      9.136
REMARK INTER + INTRA:          -3.919
REMARK INTER:                  -3.663
REMARK INTRA:                  -0.255
REMARK UNBOUND:                -0.161
REMARK SMILES CCCCCC(=O)[O-]
REMARK SMILES IDX 4 1 5 2 6 3 7 4 8 5 3 6 2 7 1 8
REMARK H PARENT
REMARK Flexibility Score: inf
ROOT
ATOM      1  C   UNL     1      24.090  -3.723  34.740  1.00  0.00     0.006 C 
ENDROOT
BRANCH   1   2
ATOM      2  C   UNL     1      22.755  -4.458  34.916  1.00  0.00     0.053 C 
BRANCH   2   3
ATOM      3  C   UNL     1      22.791  -5.319  36.138  1.00  0.00     0.041 C 
ATOM      4  O   UNL     1      23.750  -6.113  36.325  1.00  0.00    -0.550 OA
ATOM      5  O   UNL     1      21.790  -5.211  37.095  1.00  0.00    -0.550 OA
ENDBRANCH   2   3
ENDBRANCH   1   2
BRANCH   1   6
ATOM      6  C   UNL     1      24.274  -2.580  35.752  1.00  0.00     0.000 C 
BRANCH   6   7
ATOM      7  C   UNL     1      25.671  -2.576  36.390  1.00  0.00    -0.003 C 
ATOM      8  C   UNL     1      26.449  -3.833  36.015  1.00  0.00     0.004 C 
ENDBRANCH   6   7
ENDBRANCH   1   6
TORSDOF 4
ENDMDL
