MODEL 1
REMARK VINA RESULT:    -3.418      0.000      0.000
REMARK INTER + INTRA:          -4.325
REMARK INTER:                  -4.018
REMARK INTRA:                  -0.307
REMARK UNBOUND:                -0.307
REMARK SMILES Oc1ccc(-c2[o+]c3cc(O)cc(O)c3cc2O)cc1.[Cl-]
REMARK SMILES IDX 6 1 7 2 8 3 9 4 10 5 12 6 13 7 15 8 16 9 17 10 5 11 4 12
REMARK SMILES IDX 3 13 2 14 19 15 20 16 1 17 18 19 11 21 14 23
REMARK H PARENT 1 18 18 20 11 22 14 24
REMARK Flexibility Score: inf
ROOT
ATOM      1  C   UNL     1     -44.076 -23.943  44.366  1.00  0.00     0.401 A 
ATOM      2  O   UNL     1     -44.803 -23.707  45.455  1.00  0.00    -0.202 OA
ATOM      3  C   UNL     1     -44.288 -23.644  46.679  1.00  0.00     0.368 A 
ATOM      4  C   UNL     1     -45.135 -23.395  47.762  1.00  0.00     0.162 A 
ATOM      5  C   UNL     1     -44.621 -23.325  49.057  1.00  0.00     0.128 A 
ATOM      6  C   UNL     1     -43.251 -23.507  49.273  1.00  0.00     0.093 A 
ATOM      7  C   UNL     1     -42.381 -23.758  48.205  1.00  0.00     0.136 A 
ATOM      8  C   UNL     1     -42.900 -23.827  46.886  1.00  0.00     0.125 A 
ATOM      9  C   UNL     1     -42.102 -24.060  45.754  1.00  0.00     0.078 A 
ATOM     10  C   UNL     1     -42.684 -24.110  44.483  1.00  0.00     0.223 A 
ENDROOT
BRANCH   1  11
ATOM     11  C   UNL     1     -44.770 -24.000  43.060  1.00  0.00     0.084 A 
ATOM     12  C   UNL     1     -45.319 -25.217  42.621  1.00  0.00     0.022 A 
ATOM     13  C   UNL     1     -45.960 -25.299  41.381  1.00  0.00     0.047 A 
ATOM     14  C   UNL     1     -46.046 -24.172  40.558  1.00  0.00     0.115 A 
ATOM     15  C   UNL     1     -44.844 -22.875  42.218  1.00  0.00     0.022 A 
ATOM     16  C   UNL     1     -45.484 -22.960  40.978  1.00  0.00     0.047 A 
BRANCH  14  17
ATOM     17  O   UNL     1     -46.688 -24.269  39.325  1.00  0.00    -0.508 OA
ATOM     18  H   UNL     1     -47.372 -23.582  39.030  1.00  0.00     0.293 HD
ENDBRANCH  14  17
ENDBRANCH   1  11
BRANCH  10  19
ATOM     19  O   UNL     1     -41.886 -24.293  43.355  1.00  0.00    -0.500 OA
ATOM     20  H   UNL     1     -41.495 -25.198  43.119  1.00  0.00     0.294 HD
ENDBRANCH  10  19
BRANCH   5  21
ATOM     21  O   UNL     1     -45.482 -23.075  50.124  1.00  0.00    -0.507 OA
ATOM     22  H   UNL     1     -46.486 -23.170  50.027  1.00  0.00     0.293 HD
ENDBRANCH   5  21
BRANCH   7  23
ATOM     23  O   UNL     1     -41.027 -23.931  48.505  1.00  0.00    -0.507 OA
ATOM     24  H   UNL     1     -40.392 -24.500  47.964  1.00  0.00     0.293 HD
ENDBRANCH   7  23
TORSDOF 5
ENDMDL
MODEL 2
REMARK VINA RESULT:    -3.337      1.906      6.774
REMARK INTER + INTRA:          -4.229
REMARK INTER:                  -3.907
REMARK INTRA:                  -0.322
REMARK UNBOUND:                -0.307
REMARK SMILES Oc1ccc(-c2[o+]c3cc(O)cc(O)c3cc2O)cc1.[Cl-]
REMARK SMILES IDX 6 1 7 2 8 3 9 4 10 5 12 6 13 7 15 8 16 9 17 10 5 11 4 12
REMARK SMILES IDX 3 13 2 14 19 15 20 16 1 17 18 19 11 21 14 23
REMARK H PARENT 1 18 18 20 11 22 14 24
REMARK Flexibility Score: inf
ROOT
ATOM      1  C   UNL     1     -43.789 -23.870  43.736  1.00  0.00     0.401 A 
ATOM      2  O   UNL     1     -44.788 -24.093  42.885  1.00  0.00    -0.202 OA
ATOM      3  C   UNL     1     -44.659 -23.999  41.566  1.00  0.00     0.368 A 
ATOM      4  C   UNL     1     -45.768 -24.249  40.754  1.00  0.00     0.162 A 
ATOM      5  C   UNL     1     -45.662 -24.156  39.366  1.00  0.00     0.128 A 
ATOM      6  C   UNL     1     -44.438 -23.809  38.783  1.00  0.00     0.093 A 
ATOM      7  C   UNL     1     -43.311 -23.554  39.575  1.00  0.00     0.136 A 
ATOM      8  C   UNL     1     -43.415 -23.650  40.986  1.00  0.00     0.125 A 
ATOM      9  C   UNL     1     -42.336 -23.425  41.857  1.00  0.00     0.078 A 
ATOM     10  C   UNL     1     -42.514 -23.544  43.239  1.00  0.00     0.223 A 
ENDROOT
BRANCH   1  11
ATOM     11  C   UNL     1     -44.062 -23.996  45.185  1.00  0.00     0.084 A 
ATOM     12  C   UNL     1     -44.044 -25.266  45.784  1.00  0.00     0.022 A 
ATOM     13  C   UNL     1     -44.320 -25.411  47.147  1.00  0.00     0.047 A 
ATOM     14  C   UNL     1     -44.633 -24.291  47.925  1.00  0.00     0.115 A 
ATOM     15  C   UNL     1     -44.396 -22.876  45.968  1.00  0.00     0.022 A 
ATOM     16  C   UNL     1     -44.673 -23.023  47.331  1.00  0.00     0.047 A 
BRANCH  14  17
ATOM     17  O   UNL     1     -44.905 -24.450  49.282  1.00  0.00    -0.508 OA
ATOM     18  H   UNL     1     -44.195 -24.773  49.929  1.00  0.00     0.293 HD
ENDBRANCH  14  17
ENDBRANCH   1  11
BRANCH  10  19
ATOM     19  O   UNL     1     -41.431 -23.369  44.100  1.00  0.00    -0.500 OA
ATOM     20  H   UNL     1     -40.486 -23.255  43.753  1.00  0.00     0.294 HD
ENDBRANCH  10  19
BRANCH   5  21
ATOM     21  O   UNL     1     -46.780 -24.409  38.574  1.00  0.00    -0.507 OA
ATOM     22  H   UNL     1     -46.739 -25.049  37.789  1.00  0.00     0.293 HD
ENDBRANCH   5  21
BRANCH   7  23
ATOM     23  O   UNL     1     -42.127 -23.211  38.916  1.00  0.00    -0.507 OA
ATOM     24  H   UNL     1     -41.361 -22.710  39.343  1.00  0.00     0.293 HD
ENDBRANCH   7  23
TORSDOF 5
ENDMDL
MODEL 3
REMARK VINA RESULT:    -3.285     15.757     16.528
REMARK INTER + INTRA:          -4.167
REMARK INTER:                  -3.850
REMARK INTRA:                  -0.317
REMARK UNBOUND:                -0.307
REMARK SMILES Oc1ccc(-c2[o+]c3cc(O)cc(O)c3cc2O)cc1.[Cl-]
REMARK SMILES IDX 6 1 7 2 8 3 9 4 10 5 12 6 13 7 15 8 16 9 17 10 5 11 4 12
REMARK SMILES IDX 3 13 2 14 19 15 20 16 1 17 18 19 11 21 14 23
REMARK H PARENT 1 18 18 20 11 22 14 24
REMARK Flexibility Score: inf
ROOT
ATOM      1  C   UNL     1     -28.015 -26.151  43.980  1.00  0.00     0.401 A 
ATOM      2  O   UNL     1     -27.905 -25.482  45.125  1.00  0.00    -0.202 OA
ATOM      3  C   UNL     1     -27.873 -26.072  46.315  1.00  0.00     0.368 A 
ATOM      4  C   UNL     1     -27.759 -25.284  47.463  1.00  0.00     0.162 A 
ATOM      5  C   UNL     1     -27.725 -25.876  48.725  1.00  0.00     0.128 A 
ATOM      6  C   UNL     1     -27.807 -27.267  48.844  1.00  0.00     0.093 A 
ATOM      7  C   UNL     1     -27.922 -28.081  47.709  1.00  0.00     0.136 A 
ATOM      8  C   UNL     1     -27.954 -27.482  46.423  1.00  0.00     0.125 A 
ATOM      9  C   UNL     1     -28.054 -28.217  45.231  1.00  0.00     0.078 A 
ATOM     10  C   UNL     1     -28.074 -27.556  43.999  1.00  0.00     0.223 A 
ENDROOT
BRANCH   1  11
ATOM     11  C   UNL     1     -28.050 -25.377  42.718  1.00  0.00     0.084 A 
ATOM     12  C   UNL     1     -29.287 -24.967  42.193  1.00  0.00     0.022 A 
ATOM     13  C   UNL     1     -29.346 -24.255  40.992  1.00  0.00     0.047 A 
ATOM     14  C   UNL     1     -28.172 -23.956  40.292  1.00  0.00     0.115 A 
ATOM     15  C   UNL     1     -26.875 -25.091  42.000  1.00  0.00     0.022 A 
ATOM     16  C   UNL     1     -26.936 -24.379  40.798  1.00  0.00     0.047 A 
BRANCH  14  17
ATOM     17  O   UNL     1     -28.245 -23.244  39.097  1.00  0.00    -0.508 OA
ATOM     18  H   UNL     1     -29.056 -23.309  38.492  1.00  0.00     0.293 HD
ENDBRANCH  14  17
ENDBRANCH   1  11
BRANCH  10  19
ATOM     19  O   UNL     1     -28.124 -28.289  42.814  1.00  0.00    -0.500 OA
ATOM     20  H   UNL     1     -27.293 -28.708  42.411  1.00  0.00     0.294 HD
ENDBRANCH  10  19
BRANCH   5  21
ATOM     21  O   UNL     1     -27.611 -25.072  49.858  1.00  0.00    -0.507 OA
ATOM     22  H   UNL     1     -28.427 -24.770  50.377  1.00  0.00     0.293 HD
ENDBRANCH   5  21
BRANCH   7  23
ATOM     23  O   UNL     1     -28.002 -29.462  47.913  1.00  0.00    -0.507 OA
ATOM     24  H   UNL     1     -28.452 -29.896  48.705  1.00  0.00     0.293 HD
ENDBRANCH   7  23
TORSDOF 5
ENDMDL
MODEL 4
REMARK VINA RESULT:    -3.217     15.984     16.634
REMARK INTER + INTRA:          -4.088
REMARK INTER:                  -3.881
REMARK INTRA:                  -0.207
REMARK UNBOUND:                -0.307
REMARK SMILES Oc1ccc(-c2[o+]c3cc(O)cc(O)c3cc2O)cc1.[Cl-]
REMARK SMILES IDX 6 1 7 2 8 3 9 4 10 5 12 6 13 7 15 8 16 9 17 10 5 11 4 12
REMARK SMILES IDX 3 13 2 14 19 15 20 16 1 17 18 19 11 21 14 23
REMARK H PARENT 1 18 18 20 11 22 14 24
REMARK Flexibility Score: inf
ROOT
ATOM      1  C   UNL     1     -28.012 -26.162  44.671  1.00  0.00     0.401 A 
ATOM      2  O   UNL     1     -27.653 -25.443  45.732  1.00  0.00    -0.202 OA
ATOM      3  C   UNL     1     -27.667 -25.916  46.974  1.00  0.00     0.368 A 
ATOM      4  C   UNL     1     -27.275 -25.083  48.024  1.00  0.00     0.162 A 
ATOM      5  C   UNL     1     -27.283 -25.552  49.338  1.00  0.00     0.128 A 
ATOM      6  C   UNL     1     -27.686 -26.864  49.606  1.00  0.00     0.093 A 
ATOM      7  C   UNL     1     -28.083 -27.721  48.571  1.00  0.00     0.136 A 
ATOM      8  C   UNL     1     -28.074 -27.247  47.233  1.00  0.00     0.125 A 
ATOM      9  C   UNL     1     -28.443 -28.037  46.132  1.00  0.00     0.078 A 
ATOM     10  C   UNL     1     -28.404 -27.502  44.841  1.00  0.00     0.223 A 
ENDROOT
BRANCH   1  11
ATOM     11  C   UNL     1     -27.963 -25.517  43.340  1.00  0.00     0.084 A 
ATOM     12  C   UNL     1     -26.966 -25.896  42.424  1.00  0.00     0.022 A 
ATOM     13  C   UNL     1     -26.888 -25.285  41.169  1.00  0.00     0.047 A 
ATOM     14  C   UNL     1     -27.793 -24.278  40.819  1.00  0.00     0.115 A 
ATOM     15  C   UNL     1     -28.858 -24.491  42.988  1.00  0.00     0.022 A 
ATOM     16  C   UNL     1     -28.777 -23.880  41.733  1.00  0.00     0.047 A 
BRANCH  14  17
ATOM     17  O   UNL     1     -27.704 -23.679  39.564  1.00  0.00    -0.508 OA
ATOM     18  H   UNL     1     -28.492 -23.664  38.928  1.00  0.00     0.293 HD
ENDBRANCH  14  17
ENDBRANCH   1  11
BRANCH  10  19
ATOM     19  O   UNL     1     -28.722 -28.301  43.743  1.00  0.00    -0.500 OA
ATOM     20  H   UNL     1     -29.683 -28.505  43.493  1.00  0.00     0.294 HD
ENDBRANCH  10  19
BRANCH   5  21
ATOM     21  O   UNL     1     -26.889 -24.705  50.371  1.00  0.00    -0.507 OA
ATOM     22  H   UNL     1     -26.440 -25.062  51.207  1.00  0.00     0.293 HD
ENDBRANCH   5  21
BRANCH   7  23
ATOM     23  O   UNL     1     -28.474 -29.016  48.922  1.00  0.00    -0.507 OA
ATOM     24  H   UNL     1     -28.212 -29.478  49.781  1.00  0.00     0.293 HD
ENDBRANCH   7  23
TORSDOF 5
ENDMDL
MODEL 5
REMARK VINA RESULT:    -3.172     13.922     17.056
REMARK INTER + INTRA:          -4.036
REMARK INTER:                  -3.719
REMARK INTRA:                  -0.316
REMARK UNBOUND:                -0.307
REMARK SMILES Oc1ccc(-c2[o+]c3cc(O)cc(O)c3cc2O)cc1.[Cl-]
REMARK SMILES IDX 6 1 7 2 8 3 9 4 10 5 12 6 13 7 15 8 16 9 17 10 5 11 4 12
REMARK SMILES IDX 3 13 2 14 19 15 20 16 1 17 18 19 11 21 14 23
REMARK H PARENT 1 18 18 20 11 22 14 24
REMARK Flexibility Score: inf
ROOT
ATOM      1  C   UNL     1     -28.796 -25.543  45.700  1.00  0.00     0.401 A 
ATOM      2  O   UNL     1     -27.991 -25.381  44.653  1.00  0.00    -0.202 OA
ATOM      3  C   UNL     1     -28.360 -24.764  43.536  1.00  0.00     0.368 A 
ATOM      4  C   UNL     1     -27.443 -24.646  42.488  1.00  0.00     0.162 A 
ATOM      5  C   UNL     1     -27.805 -24.005  41.303  1.00  0.00     0.128 A 
ATOM      6  C   UNL     1     -29.092 -23.477  41.162  1.00  0.00     0.093 A 
ATOM      7  C   UNL     1     -30.030 -23.582  42.197  1.00  0.00     0.136 A 
ATOM      8  C   UNL     1     -29.665 -24.231  43.405  1.00  0.00     0.125 A 
ATOM      9  C   UNL     1     -30.534 -24.370  44.499  1.00  0.00     0.078 A 
ATOM     10  C   UNL     1     -30.101 -25.019  45.660  1.00  0.00     0.223 A 
ENDROOT
BRANCH   1  11
ATOM     11  C   UNL     1     -28.270 -26.259  46.884  1.00  0.00     0.084 A 
ATOM     12  C   UNL     1     -28.430 -27.651  46.978  1.00  0.00     0.022 A 
ATOM     13  C   UNL     1     -27.961 -28.345  48.097  1.00  0.00     0.047 A 
ATOM     14  C   UNL     1     -27.339 -27.655  49.143  1.00  0.00     0.115 A 
ATOM     15  C   UNL     1     -27.662 -25.568  47.948  1.00  0.00     0.022 A 
ATOM     16  C   UNL     1     -27.194 -26.264  49.067  1.00  0.00     0.047 A 
BRANCH  14  17
ATOM     17  O   UNL     1     -26.875 -28.360  50.252  1.00  0.00    -0.508 OA
ATOM     18  H   UNL     1     -26.637 -29.343  50.192  1.00  0.00     0.293 HD
ENDBRANCH  14  17
ENDBRANCH   1  11
BRANCH  10  19
ATOM     19  O   UNL     1     -30.947 -25.114  46.764  1.00  0.00    -0.500 OA
ATOM     20  H   UNL     1     -31.852 -25.567  46.706  1.00  0.00     0.294 HD
ENDBRANCH  10  19
BRANCH   5  21
ATOM     21  O   UNL     1     -26.876 -23.899  40.270  1.00  0.00    -0.507 OA
ATOM     22  H   UNL     1     -26.333 -23.054  40.131  1.00  0.00     0.293 HD
ENDBRANCH   5  21
BRANCH   7  23
ATOM     23  O   UNL     1     -31.296 -23.031  41.976  1.00  0.00    -0.507 OA
ATOM     24  H   UNL     1     -31.759 -23.008  41.079  1.00  0.00     0.293 HD
ENDBRANCH   7  23
TORSDOF 5
ENDMDL
MODEL 6
REMARK VINA RESULT:    -3.157     22.103     23.584
REMARK INTER + INTRA:          -4.017
REMARK INTER:                  -3.701
REMARK INTRA:                  -0.317
REMARK UNBOUND:                -0.307
REMARK SMILES Oc1ccc(-c2[o+]c3cc(O)cc(O)c3cc2O)cc1.[Cl-]
REMARK SMILES IDX 6 1 7 2 8 3 9 4 10 5 12 6 13 7 15 8 16 9 17 10 5 11 4 12
REMARK SMILES IDX 3 13 2 14 19 15 20 16 1 17 18 19 11 21 14 23
REMARK H PARENT 1 18 18 20 11 22 14 24
REMARK Flexibility Score: inf
ROOT
ATOM      1  C   UNL     1     -29.820 -42.089  45.136  1.00  0.00     0.401 A 
ATOM      2  O   UNL     1     -29.159 -42.358  46.259  1.00  0.00    -0.202 OA
ATOM      3  C   UNL     1     -29.746 -42.451  47.448  1.00  0.00     0.368 A 
ATOM      4  C   UNL     1     -28.965 -42.734  48.571  1.00  0.00     0.162 A 
ATOM      5  C   UNL     1     -29.555 -42.835  49.832  1.00  0.00     0.128 A 
ATOM      6  C   UNL     1     -30.934 -42.649  49.973  1.00  0.00     0.093 A 
ATOM      7  C   UNL     1     -31.738 -42.364  48.862  1.00  0.00     0.136 A 
ATOM      8  C   UNL     1     -31.143 -42.263  47.578  1.00  0.00     0.125 A 
ATOM      9  C   UNL     1     -31.871 -41.995  46.408  1.00  0.00     0.078 A 
ATOM     10  C   UNL     1     -31.215 -41.916  45.176  1.00  0.00     0.223 A 
ENDROOT
BRANCH   1  11
ATOM     11  C   UNL     1     -29.050 -42.002  43.874  1.00  0.00     0.084 A 
ATOM     12  C   UNL     1     -28.535 -40.762  43.463  1.00  0.00     0.022 A 
ATOM     13  C   UNL     1     -27.824 -40.652  42.264  1.00  0.00     0.047 A 
ATOM     14  C   UNL     1     -27.632 -41.776  41.454  1.00  0.00     0.115 A 
ATOM     15  C   UNL     1     -28.870 -43.125  43.046  1.00  0.00     0.022 A 
ATOM     16  C   UNL     1     -28.160 -43.013  41.847  1.00  0.00     0.047 A 
BRANCH  14  17
ATOM     17  O   UNL     1     -26.920 -41.653  40.263  1.00  0.00    -0.508 OA
ATOM     18  H   UNL     1     -26.475 -40.781  40.001  1.00  0.00     0.293 HD
ENDBRANCH  14  17
ENDBRANCH   1  11
BRANCH  10  19
ATOM     19  O   UNL     1     -31.945 -41.698  44.008  1.00  0.00    -0.500 OA
ATOM     20  H   UNL     1     -32.788 -42.222  43.799  1.00  0.00     0.294 HD
ENDBRANCH  10  19
BRANCH   5  21
ATOM     21  O   UNL     1     -28.759 -43.118  50.940  1.00  0.00    -0.507 OA
ATOM     22  H   UNL     1     -28.225 -42.395  51.407  1.00  0.00     0.293 HD
ENDBRANCH   5  21
BRANCH   7  23
ATOM     23  O   UNL     1     -33.107 -42.189  49.087  1.00  0.00    -0.507 OA
ATOM     24  H   UNL     1     -33.754 -42.941  49.273  1.00  0.00     0.293 HD
ENDBRANCH   7  23
TORSDOF 5
ENDMDL
MODEL 7
REMARK VINA RESULT:    -3.156     15.667     17.722
REMARK INTER + INTRA:          -4.016
REMARK INTER:                  -3.702
REMARK INTRA:                  -0.314
REMARK UNBOUND:                -0.307
REMARK SMILES Oc1ccc(-c2[o+]c3cc(O)cc(O)c3cc2O)cc1.[Cl-]
REMARK SMILES IDX 6 1 7 2 8 3 9 4 10 5 12 6 13 7 15 8 16 9 17 10 5 11 4 12
REMARK SMILES IDX 3 13 2 14 19 15 20 16 1 17 18 19 11 21 14 23
REMARK H PARENT 1 18 18 20 11 22 14 24
REMARK Flexibility Score: inf
ROOT
ATOM      1  C   UNL     1     -27.794 -26.027  45.519  1.00  0.00     0.401 A 
ATOM      2  O   UNL     1     -28.160 -25.047  44.697  1.00  0.00    -0.202 OA
ATOM      3  C   UNL     1     -28.044 -25.120  43.375  1.00  0.00     0.368 A 
ATOM      4  C   UNL     1     -28.454 -24.036  42.595  1.00  0.00     0.162 A 
ATOM      5  C   UNL     1     -28.340 -24.085  41.205  1.00  0.00     0.128 A 
ATOM      6  C   UNL     1     -27.813 -25.224  40.589  1.00  0.00     0.093 A 
ATOM      7  C   UNL     1     -27.395 -26.324  41.349  1.00  0.00     0.136 A 
ATOM      8  C   UNL     1     -27.510 -26.280  42.762  1.00  0.00     0.125 A 
ATOM      9  C   UNL     1     -27.130 -27.339  43.602  1.00  0.00     0.078 A 
ATOM     10  C   UNL     1     -27.279 -27.224  44.988  1.00  0.00     0.223 A 
ENDROOT
BRANCH   1  11
ATOM     11  C   UNL     1     -27.964 -25.820  46.975  1.00  0.00     0.084 A 
ATOM     12  C   UNL     1     -26.877 -25.370  47.742  1.00  0.00     0.022 A 
ATOM     13  C   UNL     1     -27.009 -25.188  49.121  1.00  0.00     0.047 A 
ATOM     14  C   UNL     1     -28.224 -25.469  49.755  1.00  0.00     0.115 A 
ATOM     15  C   UNL     1     -29.177 -26.120  47.621  1.00  0.00     0.022 A 
ATOM     16  C   UNL     1     -29.307 -25.939  49.002  1.00  0.00     0.047 A 
BRANCH  14  17
ATOM     17  O   UNL     1     -28.341 -25.283  51.131  1.00  0.00    -0.508 OA
ATOM     18  H   UNL     1     -27.528 -25.121  51.714  1.00  0.00     0.293 HD
ENDBRANCH  14  17
ENDBRANCH   1  11
BRANCH  10  19
ATOM     19  O   UNL     1     -26.947 -28.294  45.818  1.00  0.00    -0.500 OA
ATOM     20  H   UNL     1     -25.996 -28.634  45.895  1.00  0.00     0.294 HD
ENDBRANCH  10  19
BRANCH   5  21
ATOM     21  O   UNL     1     -28.755 -22.993  40.445  1.00  0.00    -0.507 OA
ATOM     22  H   UNL     1     -28.088 -22.383  39.987  1.00  0.00     0.293 HD
ENDBRANCH   5  21
BRANCH   7  23
ATOM     23  O   UNL     1     -26.876 -27.424  40.657  1.00  0.00    -0.507 OA
ATOM     24  H   UNL     1     -25.965 -27.824  40.826  1.00  0.00     0.293 HD
ENDBRANCH   7  23
TORSDOF 5
ENDMDL
MODEL 8
REMARK VINA RESULT:    -3.155      1.931      2.178
REMARK INTER + INTRA:          -4.016
REMARK INTER:                  -3.727
REMARK INTRA:                  -0.289
REMARK UNBOUND:                -0.307
REMARK SMILES Oc1ccc(-c2[o+]c3cc(O)cc(O)c3cc2O)cc1.[Cl-]
REMARK SMILES IDX 6 1 7 2 8 3 9 4 10 5 12 6 13 7 15 8 16 9 17 10 5 11 4 12
REMARK SMILES IDX 3 13 2 14 19 15 20 16 1 17 18 19 11 21 14 23
REMARK H PARENT 1 18 18 20 11 22 14 24
REMARK Flexibility Score: inf
ROOT
ATOM      1  C   UNL     1     -44.762 -25.005  44.569  1.00  0.00     0.401 A 
ATOM      2  O   UNL     1     -44.883 -24.157  45.587  1.00  0.00    -0.202 OA
ATOM      3  C   UNL     1     -44.631 -24.488  46.849  1.00  0.00     0.368 A 
ATOM      4  C   UNL     1     -44.791 -23.527  47.850  1.00  0.00     0.162 A 
ATOM      5  C   UNL     1     -44.537 -23.848  49.183  1.00  0.00     0.128 A 
ATOM      6  C   UNL     1     -44.120 -25.140  49.521  1.00  0.00     0.093 A 
ATOM      7  C   UNL     1     -43.952 -26.122  48.536  1.00  0.00     0.136 A 
ATOM      8  C   UNL     1     -44.208 -25.798  47.178  1.00  0.00     0.125 A 
ATOM      9  C   UNL     1     -44.053 -26.713  46.124  1.00  0.00     0.078 A 
ATOM     10  C   UNL     1     -44.320 -26.319  44.809  1.00  0.00     0.223 A 
ENDROOT
BRANCH   1  11
ATOM     11  C   UNL     1     -45.082 -24.517  43.208  1.00  0.00     0.084 A 
ATOM     12  C   UNL     1     -44.190 -23.649  42.557  1.00  0.00     0.022 A 
ATOM     13  C   UNL     1     -44.482 -23.160  41.281  1.00  0.00     0.047 A 
ATOM     14  C   UNL     1     -45.676 -23.518  40.646  1.00  0.00     0.115 A 
ATOM     15  C   UNL     1     -46.290 -24.858  42.572  1.00  0.00     0.022 A 
ATOM     16  C   UNL     1     -46.581 -24.366  41.296  1.00  0.00     0.047 A 
BRANCH  14  17
ATOM     17  O   UNL     1     -45.954 -23.022  39.373  1.00  0.00    -0.508 OA
ATOM     18  H   UNL     1     -46.704 -23.404  38.810  1.00  0.00     0.293 HD
ENDBRANCH  14  17
ENDBRANCH   1  11
BRANCH  10  19
ATOM     19  O   UNL     1     -44.119 -27.212  43.758  1.00  0.00    -0.500 OA
ATOM     20  H   UNL     1     -44.435 -27.008  42.816  1.00  0.00     0.294 HD
ENDBRANCH  10  19
BRANCH   5  21
ATOM     21  O   UNL     1     -44.702 -22.875  50.167  1.00  0.00    -0.507 OA
ATOM     22  H   UNL     1     -44.487 -23.063  51.139  1.00  0.00     0.293 HD
ENDBRANCH   5  21
BRANCH   7  23
ATOM     23  O   UNL     1     -43.535 -27.389  48.955  1.00  0.00    -0.507 OA
ATOM     24  H   UNL     1     -42.885 -27.972  48.448  1.00  0.00     0.293 HD
ENDBRANCH   7  23
TORSDOF 5
ENDMDL
MODEL 9
REMARK VINA RESULT:    -2.530     15.852     16.715
REMARK INTER + INTRA:          -3.280
REMARK INTER:                  -2.966
REMARK INTRA:                  -0.314
REMARK UNBOUND:                -0.307
REMARK SMILES Oc1ccc(-c2[o+]c3cc(O)cc(O)c3cc2O)cc1.[Cl-]
REMARK SMILES IDX 6 1 7 2 8 3 9 4 10 5 12 6 13 7 15 8 16 9 17 10 5 11 4 12
REMARK SMILES IDX 3 13 2 14 19 15 20 16 1 17 18 19 11 21 14 23
REMARK H PARENT 1 18 18 20 11 22 14 24
REMARK Flexibility Score: inf
ROOT
ATOM      1  C   UNL     1     -46.044 -40.218  44.171  1.00  0.00     0.401 A 
ATOM      2  O   UNL     1     -46.205 -40.885  45.311  1.00  0.00    -0.202 OA
ATOM      3  C   UNL     1     -46.278 -40.294  46.499  1.00  0.00     0.368 A 
ATOM      4  C   UNL     1     -46.445 -41.081  47.641  1.00  0.00     0.162 A 
ATOM      5  C   UNL     1     -46.523 -40.487  48.902  1.00  0.00     0.128 A 
ATOM      6  C   UNL     1     -46.432 -39.097  49.023  1.00  0.00     0.093 A 
ATOM      7  C   UNL     1     -46.264 -38.286  47.894  1.00  0.00     0.136 A 
ATOM      8  C   UNL     1     -46.187 -38.885  46.610  1.00  0.00     0.125 A 
ATOM      9  C   UNL     1     -46.034 -38.151  45.423  1.00  0.00     0.078 A 
ATOM     10  C   UNL     1     -45.971 -38.813  44.193  1.00  0.00     0.223 A 
ENDROOT
BRANCH   1  11
ATOM     11  C   UNL     1     -45.966 -40.992  42.912  1.00  0.00     0.084 A 
ATOM     12  C   UNL     1     -44.709 -41.324  42.380  1.00  0.00     0.022 A 
ATOM     13  C   UNL     1     -44.612 -42.035  41.181  1.00  0.00     0.047 A 
ATOM     14  C   UNL     1     -45.768 -42.411  40.490  1.00  0.00     0.115 A 
ATOM     15  C   UNL     1     -47.125 -41.356  42.202  1.00  0.00     0.022 A 
ATOM     16  C   UNL     1     -47.025 -42.067  41.002  1.00  0.00     0.047 A 
BRANCH  14  17
ATOM     17  O   UNL     1     -45.656 -43.121  39.296  1.00  0.00    -0.508 OA
ATOM     18  H   UNL     1     -44.752 -43.372  38.913  1.00  0.00     0.293 HD
ENDBRANCH  14  17
ENDBRANCH   1  11
BRANCH  10  19
ATOM     19  O   UNL     1     -45.868 -38.081  43.010  1.00  0.00    -0.500 OA
ATOM     20  H   UNL     1     -45.123 -38.247  42.343  1.00  0.00     0.294 HD
ENDBRANCH  10  19
BRANCH   5  21
ATOM     21  O   UNL     1     -46.689 -41.290  50.028  1.00  0.00    -0.507 OA
ATOM     22  H   UNL     1     -46.908 -42.276  49.948  1.00  0.00     0.293 HD
ENDBRANCH   5  21
BRANCH   7  23
ATOM     23  O   UNL     1     -46.179 -36.905  48.100  1.00  0.00    -0.507 OA
ATOM     24  H   UNL     1     -46.497 -36.210  47.441  1.00  0.00     0.293 HD
ENDBRANCH   7  23
TORSDOF 5
ENDMDL
