MODEL 1
REMARK VINA RESULT:    12.926      0.000      0.000
REMARK INTER + INTRA:          14.857
REMARK INTER:                  14.815
REMARK INTRA:                   0.043
REMARK UNBOUND:                 0.043
REMARK SMILES C=C(C)[C@H]1CC[C@@]2(C(=O)[O-])CC[C@]3(C)[C@@H](CC[C@@H]4[C@@]5(C)CC[C@@H](O)C(C)(C)[C@H]5CC[C@@]43C)[C@H]12
REMARK SMILES IDX 7 1 6 2 33 3 11 4 5 5 15 6 4 7 12 8 16 9 13 10 17 11 31 12
REMARK SMILES IDX 14 13 18 14 30 15 32 16 19 17 29 18 21 19 20 20 28 21 22 22
REMARK SMILES IDX 25 23 23 24 26 25 27 26 8 27 9 28 10 29 2 30 3 31 1 32 24 33
REMARK H PARENT 24 34
REMARK Flexibility Score: inf
ROOT
ATOM      1  C   UNL     1      99.868 112.979 116.960  1.00  0.00     0.014 C 
ATOM      2  C   UNL     1      99.627 114.131 117.953  1.00  0.00     0.014 C 
ATOM      3  C   UNL     1      99.334 113.607 115.664  1.00  0.00     0.012 C 
ATOM      4  C   UNL     1      99.068 111.678 117.285  1.00  0.00     0.014 C 
ATOM      5  C   UNL     1      99.917 115.422 117.159  1.00  0.00     0.009 C 
ATOM      6  C   UNL     1      99.543 112.638 114.471  1.00  0.00     0.000 C 
ATOM      7  C   UNL     1      99.922 115.028 115.663  1.00  0.00     0.018 C 
ATOM      8  C   UNL     1      98.128 111.192 116.146  1.00  0.00     0.008 C 
ATOM      9  C   UNL     1      99.350 113.344 113.127  1.00  0.00     0.005 C 
ATOM     10  C   UNL     1      98.679 111.300 114.650  1.00  0.00    -0.024 C 
ATOM     11  C   UNL     1      99.264 112.348 111.993  1.00  0.00     0.005 C 
ATOM     12  C   UNL     1      97.477 111.193 113.555  1.00  0.00    -0.024 C 
ATOM     13  C   UNL     1      99.643 110.085 114.465  1.00  0.00     0.012 C 
ATOM     14  C   UNL     1      98.044 111.346 112.064  1.00  0.00     0.002 C 
ATOM     15  C   UNL     1      96.398 112.293 113.809  1.00  0.00     0.008 C 
ATOM     16  C   UNL     1      96.765 109.801 113.716  1.00  0.00     0.012 C 
ATOM     17  C   UNL     1      96.976 111.565 110.875  1.00  0.00    -0.026 C 
ATOM     18  C   UNL     1      95.396 112.518 112.674  1.00  0.00     0.005 C 
ATOM     19  C   UNL     1      96.134 110.280 110.579  1.00  0.00     0.010 C 
ATOM     20  C   UNL     1      97.792 111.845 109.559  1.00  0.00     0.012 C 
ATOM     21  C   UNL     1      95.990 112.737 111.248  1.00  0.00     0.003 C 
ATOM     22  C   UNL     1      95.033 110.469 109.512  1.00  0.00     0.033 C 
ATOM     23  C   UNL     1      94.818 112.972 110.181  1.00  0.00    -0.006 C 
ATOM     24  C   UNL     1      94.077 111.635 109.823  1.00  0.00     0.120 C 
ATOM     25  C   UNL     1      95.362 113.623 108.876  1.00  0.00     0.014 C 
ATOM     26  C   UNL     1      93.771 113.998 110.714  1.00  0.00     0.014 C 
ENDROOT
BRANCH   1  27
ATOM     27  C   UNL     1     101.384 112.689 116.911  1.00  0.00     0.048 C 
ATOM     28  O   UNL     1     101.978 112.162 117.886  1.00  0.00    -0.550 OA
ATOM     29  O   UNL     1     102.131 112.976 115.772  1.00  0.00    -0.550 OA
ENDBRANCH   1  27
BRANCH   7  30
ATOM     30  C   UNL     1      99.147 116.032 114.811  1.00  0.00    -0.077 C 
ATOM     31  C   UNL     1      99.804 117.269 114.248  1.00  0.00     0.039 C 
ATOM     32  C   UNL     1      97.854 115.810 114.527  1.00  0.00     0.008 C 
ENDBRANCH   7  30
BRANCH  24  33
ATOM     33  O   UNL     1      93.201 111.250 110.855  1.00  0.00    -0.393 OA
ATOM     34  H   UNL     1      93.701 111.326 111.710  1.00  0.00     0.210 HD
ENDBRANCH  24  33
TORSDOF 3
ENDMDL
MODEL 2
REMARK VINA RESULT:    13.221      4.308      9.337
REMARK INTER + INTRA:          15.196
REMARK INTER:                  15.319
REMARK INTRA:                  -0.123
REMARK UNBOUND:                 0.043
REMARK SMILES C=C(C)[C@H]1CC[C@@]2(C(=O)[O-])CC[C@]3(C)[C@@H](CC[C@@H]4[C@@]5(C)CC[C@@H](O)C(C)(C)[C@H]5CC[C@@]43C)[C@H]12
REMARK SMILES IDX 7 1 6 2 33 3 11 4 5 5 15 6 4 7 12 8 16 9 13 10 17 11 31 12
REMARK SMILES IDX 14 13 18 14 30 15 32 16 19 17 29 18 21 19 20 20 28 21 22 22
REMARK SMILES IDX 25 23 23 24 26 25 27 26 8 27 9 28 10 29 2 30 3 31 1 32 24 33
REMARK H PARENT 24 34
REMARK Flexibility Score: inf
ROOT
ATOM      1  C   UNL     1     100.352 111.838 116.281  1.00  0.00     0.014 C 
ATOM      2  C   UNL     1     101.237 112.189 115.070  1.00  0.00     0.014 C 
ATOM      3  C   UNL     1     100.139 113.233 116.889  1.00  0.00     0.012 C 
ATOM      4  C   UNL     1     101.041 110.905 117.326  1.00  0.00     0.014 C 
ATOM      5  C   UNL     1     100.704 113.541 114.553  1.00  0.00     0.009 C 
ATOM      6  C   UNL     1      99.190 113.145 118.112  1.00  0.00     0.000 C 
ATOM      7  C   UNL     1      99.819 114.127 115.680  1.00  0.00     0.018 C 
ATOM      8  C   UNL     1     101.122 111.490 118.764  1.00  0.00     0.008 C 
ATOM      9  C   UNL     1      98.679 114.526 118.532  1.00  0.00     0.005 C 
ATOM     10  C   UNL     1      99.846 112.290 119.298  1.00  0.00    -0.024 C 
ATOM     11  C   UNL     1      98.002 114.471 119.883  1.00  0.00     0.005 C 
ATOM     12  C   UNL     1     100.209 113.212 120.592  1.00  0.00    -0.024 C 
ATOM     13  C   UNL     1      98.811 111.201 119.726  1.00  0.00     0.012 C 
ATOM     14  C   UNL     1      98.928 114.038 121.087  1.00  0.00     0.002 C 
ATOM     15  C   UNL     1     101.364 114.208 120.256  1.00  0.00     0.008 C 
ATOM     16  C   UNL     1     100.724 112.281 121.751  1.00  0.00     0.012 C 
ATOM     17  C   UNL     1      99.167 115.219 122.159  1.00  0.00    -0.026 C 
ATOM     18  C   UNL     1     101.579 115.342 121.260  1.00  0.00     0.005 C 
ATOM     19  C   UNL     1      99.546 114.677 123.577  1.00  0.00     0.010 C 
ATOM     20  C   UNL     1      97.794 115.964 122.347  1.00  0.00     0.012 C 
ATOM     21  C   UNL     1     100.320 116.173 121.661  1.00  0.00     0.003 C 
ATOM     22  C   UNL     1      99.876 115.775 124.613  1.00  0.00     0.033 C 
ATOM     23  C   UNL     1     100.713 117.325 122.701  1.00  0.00    -0.006 C 
ATOM     24  C   UNL     1     100.969 116.751 124.140  1.00  0.00     0.120 C 
ATOM     25  C   UNL     1      99.612 118.423 122.774  1.00  0.00     0.014 C 
ATOM     26  C   UNL     1     101.989 118.091 122.234  1.00  0.00     0.014 C 
ENDROOT
BRANCH   1  27
ATOM     27  C   UNL     1      99.046 111.201 115.759  1.00  0.00     0.048 C 
ATOM     28  O   UNL     1      97.947 111.806 115.844  1.00  0.00    -0.550 OA
ATOM     29  O   UNL     1      99.054 109.949 115.151  1.00  0.00    -0.550 OA
ENDBRANCH   1  27
BRANCH   7  30
ATOM     30  C   UNL     1     100.094 115.612 115.902  1.00  0.00    -0.077 C 
ATOM     31  C   UNL     1     101.207 116.087 116.806  1.00  0.00     0.039 C 
ATOM     32  C   UNL     1      99.352 116.533 115.266  1.00  0.00     0.008 C 
ENDBRANCH   7  30
BRANCH  24  33
ATOM     33  O   UNL     1     102.221 116.112 124.215  1.00  0.00    -0.393 OA
ATOM     34  H   UNL     1     102.519 115.938 123.284  1.00  0.00     0.210 HD
ENDBRANCH  24  33
TORSDOF 3
ENDMDL
MODEL 3
REMARK VINA RESULT:    14.368      4.567      9.585
REMARK INTER + INTRA:          16.510
REMARK INTER:                  16.769
REMARK INTRA:                  -0.259
REMARK UNBOUND:                 0.043
REMARK SMILES C=C(C)[C@H]1CC[C@@]2(C(=O)[O-])CC[C@]3(C)[C@@H](CC[C@@H]4[C@@]5(C)CC[C@@H](O)C(C)(C)[C@H]5CC[C@@]43C)[C@H]12
REMARK SMILES IDX 7 1 6 2 33 3 11 4 5 5 15 6 4 7 12 8 16 9 13 10 17 11 31 12
REMARK SMILES IDX 14 13 18 14 30 15 32 16 19 17 29 18 21 19 20 20 28 21 22 22
REMARK SMILES IDX 25 23 23 24 26 25 27 26 8 27 9 28 10 29 2 30 3 31 1 32 24 33
REMARK H PARENT 24 34
REMARK Flexibility Score: inf
ROOT
ATOM      1  C   UNL     1     100.368 111.635 116.876  1.00  0.00     0.014 C 
ATOM      2  C   UNL     1     101.279 111.856 115.654  1.00  0.00     0.014 C 
ATOM      3  C   UNL     1     100.182 113.083 117.356  1.00  0.00     0.012 C 
ATOM      4  C   UNL     1     101.016 110.782 118.011  1.00  0.00     0.014 C 
ATOM      5  C   UNL     1     100.789 113.170 115.011  1.00  0.00     0.009 C 
ATOM      6  C   UNL     1      99.213 113.128 118.565  1.00  0.00     0.000 C 
ATOM      7  C   UNL     1      99.903 113.874 116.066  1.00  0.00     0.018 C 
ATOM      8  C   UNL     1     101.091 111.490 119.393  1.00  0.00     0.008 C 
ATOM      9  C   UNL     1      98.731 114.552 118.853  1.00  0.00     0.005 C 
ATOM     10  C   UNL     1      99.828 112.365 119.832  1.00  0.00    -0.024 C 
ATOM     11  C   UNL     1      98.033 114.634 120.191  1.00  0.00     0.005 C 
ATOM     12  C   UNL     1     100.196 113.388 121.047  1.00  0.00    -0.024 C 
ATOM     13  C   UNL     1      98.759 111.344 120.337  1.00  0.00     0.012 C 
ATOM     14  C   UNL     1      98.930 114.286 121.445  1.00  0.00     0.002 C 
ATOM     15  C   UNL     1     101.381 114.322 120.644  1.00  0.00     0.008 C 
ATOM     16  C   UNL     1     100.669 112.551 122.291  1.00  0.00     0.012 C 
ATOM     17  C   UNL     1      99.183 115.551 122.412  1.00  0.00    -0.026 C 
ATOM     18  C   UNL     1     101.610 115.535 121.548  1.00  0.00     0.005 C 
ATOM     19  C   UNL     1      99.526 115.128 123.878  1.00  0.00     0.010 C 
ATOM     20  C   UNL     1      97.827 116.344 122.510  1.00  0.00     0.012 C 
ATOM     21  C   UNL     1     100.368 116.428 121.852  1.00  0.00     0.003 C 
ATOM     22  C   UNL     1      99.869 116.304 124.820  1.00  0.00     0.033 C 
ATOM     23  C   UNL     1     100.775 117.658 122.794  1.00  0.00    -0.006 C 
ATOM     24  C   UNL     1     100.994 117.207 124.281  1.00  0.00     0.120 C 
ATOM     25  C   UNL     1      99.702 118.785 122.751  1.00  0.00     0.014 C 
ATOM     26  C   UNL     1     102.077 118.348 122.283  1.00  0.00     0.014 C 
ENDROOT
BRANCH   1  27
ATOM     27  C   UNL     1      99.054 110.986 116.390  1.00  0.00     0.048 C 
ATOM     28  O   UNL     1      98.711 111.036 115.181  1.00  0.00    -0.550 OA
ATOM     29  O   UNL     1      98.225 110.301 117.272  1.00  0.00    -0.550 OA
ENDBRANCH   1  27
BRANCH   7  30
ATOM     30  C   UNL     1     100.214 115.366 116.162  1.00  0.00    -0.077 C 
ATOM     31  C   UNL     1     101.376 115.885 116.974  1.00  0.00     0.039 C 
ATOM     32  C   UNL     1      99.458 116.251 115.493  1.00  0.00     0.008 C 
ENDBRANCH   7  30
BRANCH  24  33
ATOM     33  O   UNL     1     102.228 116.547 124.434  1.00  0.00    -0.393 OA
ATOM     34  H   UNL     1     102.840 117.172 124.903  1.00  0.00     0.210 HD
ENDBRANCH  24  33
TORSDOF 3
ENDMDL
