MODEL 1
REMARK VINA RESULT:    -6.239      0.000      0.000
REMARK INTER + INTRA:          -9.054
REMARK INTER:                  -7.698
REMARK INTRA:                  -1.356
REMARK UNBOUND:                -1.356
REMARK SMILES CC(C)=CCC[C@H](C)c1ccc(C)cc1
REMARK SMILES IDX 6 1 7 2 8 3 9 4 13 5 12 6 11 7 14 8 10 9 15 10 5 11 4 12
REMARK SMILES IDX 2 13 1 14 3 15
REMARK H PARENT
REMARK Flexibility Score: inf
ROOT
ATOM      1  C   UNL     1      -1.987   4.154  -7.835  1.00  0.00     0.012 C 
ENDROOT
BRANCH   1   2
ATOM      2  C   UNL     1      -2.578   4.399  -9.240  1.00  0.00     0.016 C 
ATOM      3  C   UNL     1      -4.112   4.387  -9.196  1.00  0.00     0.013 C 
BRANCH   2   4
ATOM      4  C   UNL     1      -2.065   3.394 -10.256  1.00  0.00    -0.045 A 
ATOM      5  C   UNL     1      -0.527   0.561 -13.133  1.00  0.00     0.044 C 
ATOM      6  C   UNL     1      -1.086   1.547 -12.150  1.00  0.00    -0.051 A 
ATOM      7  C   UNL     1      -0.823   2.916 -12.296  1.00  0.00     0.004 A 
ATOM      8  C   UNL     1      -1.820   1.101 -11.041  1.00  0.00     0.004 A 
ATOM      9  C   UNL     1      -1.312   3.832 -11.360  1.00  0.00     0.004 A 
ATOM     10  C   UNL     1      -2.310   2.016 -10.105  1.00  0.00     0.004 A 
ENDBRANCH   2   4
ENDBRANCH   1   2
BRANCH   1  11
ATOM     11  C   UNL     1      -0.454   4.252  -7.827  1.00  0.00     0.028 C 
BRANCH  11  12
ATOM     12  C   UNL     1       0.168   2.878  -7.883  1.00  0.00    -0.028 C 
ATOM     13  C   UNL     1       1.206   2.541  -8.680  1.00  0.00    -0.080 C 
ATOM     14  C   UNL     1       1.748   1.138  -8.598  1.00  0.00     0.039 C 
ATOM     15  C   UNL     1       1.819   3.521  -9.653  1.00  0.00     0.039 C 
ENDBRANCH  11  12
ENDBRANCH   1  11
TORSDOF 4
ENDMDL
MODEL 2
REMARK VINA RESULT:    -6.018      1.037      3.643
REMARK INTER + INTRA:          -8.780
REMARK INTER:                  -7.304
REMARK INTRA:                  -1.477
REMARK UNBOUND:                -1.356
REMARK SMILES CC(C)=CCC[C@H](C)c1ccc(C)cc1
REMARK SMILES IDX 6 1 7 2 8 3 9 4 13 5 12 6 11 7 14 8 10 9 15 10 5 11 4 12
REMARK SMILES IDX 2 13 1 14 3 15
REMARK H PARENT
REMARK Flexibility Score: inf
ROOT
ATOM      1  C   UNL     1      -0.094   2.909  -7.455  1.00  0.00     0.012 C 
ENDROOT
BRANCH   1   2
ATOM      2  C   UNL     1       0.823   2.202  -8.476  1.00  0.00     0.016 C 
ATOM      3  C   UNL     1       2.119   2.996  -8.685  1.00  0.00     0.013 C 
BRANCH   2   4
ATOM      4  C   UNL     1       0.122   1.963  -9.801  1.00  0.00    -0.045 A 
ATOM      5  C   UNL     1      -1.942   1.321 -13.542  1.00  0.00     0.044 C 
ATOM      6  C   UNL     1      -1.210   1.519 -12.247  1.00  0.00    -0.051 A 
ATOM      7  C   UNL     1      -1.738   1.013 -11.052  1.00  0.00     0.004 A 
ATOM      8  C   UNL     1      -0.026   2.270 -12.213  1.00  0.00     0.004 A 
ATOM      9  C   UNL     1      -1.076   1.228  -9.840  1.00  0.00     0.004 A 
ATOM     10  C   UNL     1       0.638   2.486 -11.003  1.00  0.00     0.004 A 
ENDBRANCH   2   4
ENDBRANCH   1   2
BRANCH   1  11
ATOM     11  C   UNL     1      -0.620   4.252  -7.983  1.00  0.00     0.028 C 
BRANCH  11  12
ATOM     12  C   UNL     1      -2.129   4.279  -7.960  1.00  0.00    -0.028 C 
ATOM     13  C   UNL     1      -2.907   4.403  -9.058  1.00  0.00    -0.080 C 
ATOM     14  C   UNL     1      -4.404   4.374  -8.883  1.00  0.00     0.039 C 
ATOM     15  C   UNL     1      -2.322   4.584 -10.438  1.00  0.00     0.039 C 
ENDBRANCH  11  12
ENDBRANCH   1  11
TORSDOF 4
ENDMDL
MODEL 3
REMARK VINA RESULT:    -5.961      2.977      6.153
REMARK INTER + INTRA:          -8.710
REMARK INTER:                  -7.141
REMARK INTRA:                  -1.569
REMARK UNBOUND:                -1.356
REMARK SMILES CC(C)=CCC[C@H](C)c1ccc(C)cc1
REMARK SMILES IDX 6 1 7 2 8 3 9 4 13 5 12 6 11 7 14 8 10 9 15 10 5 11 4 12
REMARK SMILES IDX 2 13 1 14 3 15
REMARK H PARENT
REMARK Flexibility Score: inf
ROOT
ATOM      1  C   UNL     1      -2.085   3.887 -16.040  1.00  0.00     0.012 C 
ENDROOT
BRANCH   1   2
ATOM      2  C   UNL     1      -0.633   3.475 -15.713  1.00  0.00     0.016 C 
ATOM      3  C   UNL     1      -0.131   2.416 -16.702  1.00  0.00     0.013 C 
BRANCH   2   4
ATOM      4  C   UNL     1      -0.491   2.982 -14.283  1.00  0.00    -0.045 A 
ATOM      5  C   UNL     1      -0.167   1.594 -10.206  1.00  0.00     0.044 C 
ATOM      6  C   UNL     1      -0.251   2.087 -11.620  1.00  0.00    -0.051 A 
ATOM      7  C   UNL     1      -0.757   3.364 -11.894  1.00  0.00     0.004 A 
ATOM      8  C   UNL     1       0.112   1.247 -12.683  1.00  0.00     0.004 A 
ATOM      9  C   UNL     1      -0.871   3.811 -13.214  1.00  0.00     0.004 A 
ATOM     10  C   UNL     1      -0.001   1.693 -14.003  1.00  0.00     0.004 A 
ENDBRANCH   2   4
ENDBRANCH   1   2
BRANCH   1  11
ATOM     11  C   UNL     1      -3.069   2.719 -15.878  1.00  0.00     0.028 C 
BRANCH  11  12
ATOM     12  C   UNL     1      -4.104   3.036 -14.827  1.00  0.00    -0.028 C 
ATOM     13  C   UNL     1      -4.326   2.290 -13.722  1.00  0.00    -0.080 C 
ATOM     14  C   UNL     1      -5.369   2.756 -12.739  1.00  0.00     0.039 C 
ATOM     15  C   UNL     1      -3.573   1.007 -13.459  1.00  0.00     0.039 C 
ENDBRANCH  11  12
ENDBRANCH   1  11
TORSDOF 4
ENDMDL
MODEL 4
REMARK VINA RESULT:    -5.897      1.442      3.498
REMARK INTER + INTRA:          -8.632
REMARK INTER:                  -7.609
REMARK INTRA:                  -1.023
REMARK UNBOUND:                -1.356
REMARK SMILES CC(C)=CCC[C@H](C)c1ccc(C)cc1
REMARK SMILES IDX 6 1 7 2 8 3 9 4 13 5 12 6 11 7 14 8 10 9 15 10 5 11 4 12
REMARK SMILES IDX 2 13 1 14 3 15
REMARK H PARENT
REMARK Flexibility Score: inf
ROOT
ATOM      1  C   UNL     1       1.526   2.688  -9.437  1.00  0.00     0.012 C 
ENDROOT
BRANCH   1   2
ATOM      2  C   UNL     1       0.620   1.439  -9.472  1.00  0.00     0.016 C 
ATOM      3  C   UNL     1       1.440   0.163  -9.240  1.00  0.00     0.013 C 
BRANCH   2   4
ATOM      4  C   UNL     1      -0.165   1.341 -10.769  1.00  0.00    -0.045 A 
ATOM      5  C   UNL     1      -2.434   1.134 -14.439  1.00  0.00     0.044 C 
ATOM      6  C   UNL     1      -1.646   1.176 -13.163  1.00  0.00    -0.051 A 
ATOM      7  C   UNL     1      -2.304   1.256 -11.929  1.00  0.00     0.004 A 
ATOM      8  C   UNL     1      -0.244   1.204 -13.200  1.00  0.00     0.004 A 
ATOM      9  C   UNL     1      -1.570   1.332 -10.741  1.00  0.00     0.004 A 
ATOM     10  C   UNL     1       0.491   1.279 -12.014  1.00  0.00     0.004 A 
ENDBRANCH   2   4
ENDBRANCH   1   2
BRANCH   1  11
ATOM     11  C   UNL     1       0.825   3.894  -8.793  1.00  0.00     0.028 C 
BRANCH  11  12
ATOM     12  C   UNL     1       0.274   3.528  -7.437  1.00  0.00    -0.028 C 
ATOM     13  C   UNL     1      -1.035   3.591  -7.101  1.00  0.00    -0.080 C 
ATOM     14  C   UNL     1      -1.442   3.154  -5.718  1.00  0.00     0.039 C 
ATOM     15  C   UNL     1      -2.083   4.099  -8.062  1.00  0.00     0.039 C 
ENDBRANCH  11  12
ENDBRANCH   1  11
TORSDOF 4
ENDMDL
MODEL 5
REMARK VINA RESULT:    -5.894      1.839      3.429
REMARK INTER + INTRA:          -8.628
REMARK INTER:                  -7.831
REMARK INTRA:                  -0.797
REMARK UNBOUND:                -1.356
REMARK SMILES CC(C)=CCC[C@H](C)c1ccc(C)cc1
REMARK SMILES IDX 6 1 7 2 8 3 9 4 13 5 12 6 11 7 14 8 10 9 15 10 5 11 4 12
REMARK SMILES IDX 2 13 1 14 3 15
REMARK H PARENT
REMARK Flexibility Score: inf
ROOT
ATOM      1  C   UNL     1       0.586   2.431 -10.075  1.00  0.00     0.012 C 
ENDROOT
BRANCH   1   2
ATOM      2  C   UNL     1      -0.773   2.457 -10.808  1.00  0.00     0.016 C 
ATOM      3  C   UNL     1      -1.601   1.211 -10.465  1.00  0.00     0.013 C 
BRANCH   2   4
ATOM      4  C   UNL     1      -0.606   2.590 -12.312  1.00  0.00    -0.045 A 
ATOM      5  C   UNL     1      -0.181   2.903 -16.599  1.00  0.00     0.044 C 
ATOM      6  C   UNL     1      -0.300   2.804 -15.107  1.00  0.00    -0.051 A 
ATOM      7  C   UNL     1       0.015   1.607 -14.451  1.00  0.00     0.004 A 
ATOM      8  C   UNL     1      -0.793   3.888 -14.365  1.00  0.00     0.004 A 
ATOM      9  C   UNL     1      -0.132   1.501 -13.065  1.00  0.00     0.004 A 
ATOM     10  C   UNL     1      -0.938   3.784 -12.979  1.00  0.00     0.004 A 
ENDBRANCH   2   4
ENDBRANCH   1   2
BRANCH   1  11
ATOM     11  C   UNL     1       0.751   3.622  -9.119  1.00  0.00     0.028 C 
BRANCH  11  12
ATOM     12  C   UNL     1       0.336   3.242  -7.719  1.00  0.00    -0.028 C 
ATOM     13  C   UNL     1      -0.881   3.496  -7.187  1.00  0.00    -0.080 C 
ATOM     14  C   UNL     1      -1.164   3.020  -5.786  1.00  0.00     0.039 C 
ATOM     15  C   UNL     1      -1.946   4.249  -7.948  1.00  0.00     0.039 C 
ENDBRANCH  11  12
ENDBRANCH   1  11
TORSDOF 4
ENDMDL
MODEL 6
REMARK VINA RESULT:    -5.789      2.195      5.538
REMARK INTER + INTRA:          -8.499
REMARK INTER:                  -7.745
REMARK INTRA:                  -0.754
REMARK UNBOUND:                -1.356
REMARK SMILES CC(C)=CCC[C@H](C)c1ccc(C)cc1
REMARK SMILES IDX 6 1 7 2 8 3 9 4 13 5 12 6 11 7 14 8 10 9 15 10 5 11 4 12
REMARK SMILES IDX 2 13 1 14 3 15
REMARK H PARENT
REMARK Flexibility Score: inf
ROOT
ATOM      1  C   UNL     1      -1.067   3.416 -12.023  1.00  0.00     0.012 C 
ENDROOT
BRANCH   1   2
ATOM      2  C   UNL     1       0.095   2.999 -11.095  1.00  0.00     0.016 C 
ATOM      3  C   UNL     1       0.619   1.606 -11.469  1.00  0.00     0.013 C 
BRANCH   2   4
ATOM      4  C   UNL     1      -0.303   3.045  -9.630  1.00  0.00    -0.045 A 
ATOM      5  C   UNL     1      -1.514   3.154  -5.485  1.00  0.00     0.044 C 
ATOM      6  C   UNL     1      -1.074   3.139  -6.919  1.00  0.00    -0.051 A 
ATOM      7  C   UNL     1      -1.735   3.928  -7.869  1.00  0.00     0.004 A 
ATOM      8  C   UNL     1      -0.042   2.282  -7.332  1.00  0.00     0.004 A 
ATOM      9  C   UNL     1      -1.350   3.886  -9.213  1.00  0.00     0.004 A 
ATOM     10  C   UNL     1       0.344   2.240  -8.674  1.00  0.00     0.004 A 
ENDBRANCH   2   4
ENDBRANCH   1   2
BRANCH   1  11
ATOM     11  C   UNL     1      -1.882   2.208 -12.508  1.00  0.00     0.028 C 
BRANCH  11  12
ATOM     12  C   UNL     1      -3.330   2.346 -12.107  1.00  0.00    -0.028 C 
ATOM     13  C   UNL     1      -4.350   2.524 -12.976  1.00  0.00    -0.080 C 
ATOM     14  C   UNL     1      -5.752   2.605 -12.428  1.00  0.00     0.039 C 
ATOM     15  C   UNL     1      -4.121   2.658 -14.462  1.00  0.00     0.039 C 
ENDBRANCH  11  12
ENDBRANCH   1  11
TORSDOF 4
ENDMDL
MODEL 7
REMARK VINA RESULT:    -5.789      1.815      3.511
REMARK INTER + INTRA:          -8.498
REMARK INTER:                  -7.453
REMARK INTRA:                  -1.045
REMARK UNBOUND:                -1.356
REMARK SMILES CC(C)=CCC[C@H](C)c1ccc(C)cc1
REMARK SMILES IDX 6 1 7 2 8 3 9 4 13 5 12 6 11 7 14 8 10 9 15 10 5 11 4 12
REMARK SMILES IDX 2 13 1 14 3 15
REMARK H PARENT
REMARK Flexibility Score: inf
ROOT
ATOM      1  C   UNL     1       0.748   3.124 -10.521  1.00  0.00     0.012 C 
ENDROOT
BRANCH   1   2
ATOM      2  C   UNL     1      -0.033   1.834 -10.848  1.00  0.00     0.016 C 
ATOM      3  C   UNL     1       0.669   1.037 -11.956  1.00  0.00     0.013 C 
BRANCH   2   4
ATOM      4  C   UNL     1      -1.475   2.123 -11.229  1.00  0.00    -0.045 A 
ATOM      5  C   UNL     1      -5.589   2.863 -12.320  1.00  0.00     0.044 C 
ATOM      6  C   UNL     1      -4.152   2.632 -11.955  1.00  0.00    -0.051 A 
ATOM      7  C   UNL     1      -3.322   1.878 -12.796  1.00  0.00     0.004 A 
ATOM      8  C   UNL     1      -3.646   3.110 -10.737  1.00  0.00     0.004 A 
ATOM      9  C   UNL     1      -1.993   1.630 -12.439  1.00  0.00     0.004 A 
ATOM     10  C   UNL     1      -2.318   2.863 -10.380  1.00  0.00     0.004 A 
ENDBRANCH   2   4
ENDBRANCH   1   2
BRANCH   1  11
ATOM     11  C   UNL     1       1.390   3.076  -9.126  1.00  0.00     0.028 C 
BRANCH  11  12
ATOM     12  C   UNL     1       0.402   3.506  -8.070  1.00  0.00    -0.028 C 
ATOM     13  C   UNL     1      -0.225   2.662  -7.220  1.00  0.00    -0.080 C 
ATOM     14  C   UNL     1      -1.157   3.243  -6.189  1.00  0.00     0.039 C 
ATOM     15  C   UNL     1      -0.029   1.166  -7.289  1.00  0.00     0.039 C 
ENDBRANCH  11  12
ENDBRANCH   1  11
TORSDOF 4
ENDMDL
MODEL 8
REMARK VINA RESULT:    -5.731      2.595      5.327
REMARK INTER + INTRA:          -8.427
REMARK INTER:                  -6.920
REMARK INTRA:                  -1.507
REMARK UNBOUND:                -1.356
REMARK SMILES CC(C)=CCC[C@H](C)c1ccc(C)cc1
REMARK SMILES IDX 6 1 7 2 8 3 9 4 13 5 12 6 11 7 14 8 10 9 15 10 5 11 4 12
REMARK SMILES IDX 2 13 1 14 3 15
REMARK H PARENT
REMARK Flexibility Score: inf
ROOT
ATOM      1  C   UNL     1      -3.339   1.046 -14.493  1.00  0.00     0.012 C 
ENDROOT
BRANCH   1   2
ATOM      2  C   UNL     1      -3.602   1.295 -12.992  1.00  0.00     0.016 C 
ATOM      3  C   UNL     1      -4.728   2.319 -12.799  1.00  0.00     0.013 C 
BRANCH   2   4
ATOM      4  C   UNL     1      -2.346   1.736 -12.261  1.00  0.00    -0.045 A 
ATOM      5  C   UNL     1       1.185   2.983 -10.107  1.00  0.00     0.044 C 
ATOM      6  C   UNL     1      -0.034   2.569 -10.878  1.00  0.00    -0.051 A 
ATOM      7  C   UNL     1      -1.244   3.253 -10.707  1.00  0.00     0.004 A 
ATOM      8  C   UNL     1       0.012   1.451 -11.724  1.00  0.00     0.004 A 
ATOM      9  C   UNL     1      -2.390   2.844 -11.396  1.00  0.00     0.004 A 
ATOM     10  C   UNL     1      -1.132   1.041 -12.414  1.00  0.00     0.004 A 
ENDBRANCH   2   4
ENDBRANCH   1   2
BRANCH   1  11
ATOM     11  C   UNL     1      -3.136   2.355 -15.271  1.00  0.00     0.028 C 
BRANCH  11  12
ATOM     12  C   UNL     1      -1.793   2.363 -15.958  1.00  0.00    -0.028 C 
ATOM     13  C   UNL     1      -0.744   3.126 -15.577  1.00  0.00    -0.080 C 
ATOM     14  C   UNL     1       0.550   2.997 -16.338  1.00  0.00     0.039 C 
ATOM     15  C   UNL     1      -0.840   4.105 -14.432  1.00  0.00     0.039 C 
ENDBRANCH  11  12
ENDBRANCH   1  11
TORSDOF 4
ENDMDL
MODEL 9
REMARK VINA RESULT:    -5.689      2.396      5.746
REMARK INTER + INTRA:          -8.375
REMARK INTER:                  -7.400
REMARK INTRA:                  -0.975
REMARK UNBOUND:                -1.356
REMARK SMILES CC(C)=CCC[C@H](C)c1ccc(C)cc1
REMARK SMILES IDX 6 1 7 2 8 3 9 4 13 5 12 6 11 7 14 8 10 9 15 10 5 11 4 12
REMARK SMILES IDX 2 13 1 14 3 15
REMARK H PARENT
REMARK Flexibility Score: inf
ROOT
ATOM      1  C   UNL     1      -3.786   1.125 -13.401  1.00  0.00     0.012 C 
ENDROOT
BRANCH   1   2
ATOM      2  C   UNL     1      -2.264   1.267 -13.617  1.00  0.00     0.016 C 
ATOM      3  C   UNL     1      -1.658  -0.053 -14.112  1.00  0.00     0.013 C 
BRANCH   2   4
ATOM      4  C   UNL     1      -1.554   1.744 -12.363  1.00  0.00    -0.045 A 
ATOM      5  C   UNL     1       0.490   3.022  -8.778  1.00  0.00     0.044 C 
ATOM      6  C   UNL     1      -0.240   2.601 -10.018  1.00  0.00    -0.051 A 
ATOM      7  C   UNL     1      -1.247   1.628  -9.950  1.00  0.00     0.004 A 
ATOM      8  C   UNL     1       0.126   3.126 -11.266  1.00  0.00     0.004 A 
ATOM      9  C   UNL     1      -1.902   1.207 -11.111  1.00  0.00     0.004 A 
ATOM     10  C   UNL     1      -0.528   2.706 -12.428  1.00  0.00     0.004 A 
ENDBRANCH   2   4
ENDBRANCH   1   2
BRANCH   1  11
ATOM     11  C   UNL     1      -4.498   2.486 -13.382  1.00  0.00     0.028 C 
BRANCH  11  12
ATOM     12  C   UNL     1      -5.801   2.395 -12.627  1.00  0.00    -0.028 C 
ATOM     13  C   UNL     1      -5.965   2.770 -11.338  1.00  0.00    -0.080 C 
ATOM     14  C   UNL     1      -7.339   2.659 -10.728  1.00  0.00     0.039 C 
ATOM     15  C   UNL     1      -4.816   3.276 -10.499  1.00  0.00     0.039 C 
ENDBRANCH  11  12
ENDBRANCH   1  11
TORSDOF 4
ENDMDL
