MODEL 1
REMARK VINA RESULT:    -4.466      0.000      0.000
REMARK INTER + INTRA:          -9.153
REMARK INTER:                  -6.947
REMARK INTRA:                  -2.206
REMARK UNBOUND:                -2.206
REMARK SMILES COc1cc(CNC(=O)CCCCC=CC(C)C)ccc1O
REMARK SMILES IDX 11 1 12 2 13 3 14 4 15 5 16 6 17 7 18 8 10 9 8 10 9 11 7 12
REMARK SMILES IDX 6 14 5 15 4 16 19 17 3 18 20 19 21 20 2 21 1 22 22 23
REMARK H PARENT 7 13 22 24
REMARK Flexibility Score: inf
ROOT
ATOM      1  C   UNL     1     -41.599 -18.437   7.485  1.00  0.00     0.010 C 
ENDROOT
BRANCH   1   2
ATOM      2  C   UNL     1     -41.526 -18.667   5.960  1.00  0.00     0.005 C 
BRANCH   2   3
ATOM      3  C   UNL     1     -42.031 -17.456   5.159  1.00  0.00     0.027 C 
BRANCH   3   4
ATOM      4  C   UNL     1     -42.461 -16.347   6.077  1.00  0.00    -0.031 C 
ATOM      5  C   UNL     1     -42.886 -15.163   5.595  1.00  0.00    -0.028 C 
BRANCH   5   6
ATOM      6  C   UNL     1     -43.311 -14.043   6.517  1.00  0.00     0.005 C 
ATOM      7  C   UNL     1     -44.113 -14.596   7.700  1.00  0.00     0.012 C 
ATOM      8  C   UNL     1     -44.139 -13.004   5.751  1.00  0.00     0.012 C 
ENDBRANCH   5   6
ENDBRANCH   3   4
ENDBRANCH   2   3
ENDBRANCH   1   2
BRANCH   1   9
ATOM      9  C   UNL     1     -42.413 -19.510   8.227  1.00  0.00     0.100 C 
BRANCH   9  10
ATOM     10  C   UNL     1     -43.853 -19.519   7.804  1.00  0.00     0.220 C 
ATOM     11  O   UNL     1     -44.298 -20.501   7.149  1.00  0.00    -0.275 OA
ATOM     12  N   UNL     1     -44.726 -18.444   8.191  1.00  0.00    -0.352 N 
ATOM     13  H   UNL     1     -44.344 -17.658   8.768  1.00  0.00     0.163 HD
BRANCH  12  14
ATOM     14  C   UNL     1     -46.148 -18.431   7.855  1.00  0.00     0.151 C 
BRANCH  14  15
ATOM     15  C   UNL     1     -46.427 -17.387   6.805  1.00  0.00    -0.025 A 
ATOM     16  C   UNL     1     -47.216 -16.270   7.121  1.00  0.00     0.056 A 
ATOM     17  C   UNL     1     -45.885 -17.508   5.513  1.00  0.00     0.009 A 
ATOM     18  C   UNL     1     -47.480 -15.280   6.152  1.00  0.00     0.160 A 
ATOM     19  C   UNL     1     -46.141 -16.530   4.548  1.00  0.00     0.050 A 
ATOM     20  C   UNL     1     -46.936 -15.421   4.857  1.00  0.00     0.157 A 
BRANCH  18  21
ATOM     21  O   UNL     1     -48.270 -14.155   6.439  1.00  0.00    -0.493 OA
ATOM     22  C   UNL     1     -47.762 -12.829   6.592  1.00  0.00     0.278 C 
ENDBRANCH  18  21
BRANCH  20  23
ATOM     23  O   UNL     1     -47.180 -14.469   3.865  1.00  0.00    -0.504 OA
ATOM     24  H   UNL     1     -48.075 -14.397   3.393  1.00  0.00     0.293 HD
ENDBRANCH  20  23
ENDBRANCH  14  15
ENDBRANCH  12  14
ENDBRANCH   9  10
ENDBRANCH   1   9
TORSDOF 10
ENDMDL
MODEL 2
REMARK VINA RESULT:    -4.383      1.536      2.105
REMARK INTER + INTRA:          -9.023
REMARK INTER:                  -6.757
REMARK INTRA:                  -2.265
REMARK UNBOUND:                -2.206
REMARK SMILES COc1cc(CNC(=O)CCCCC=CC(C)C)ccc1O
REMARK SMILES IDX 11 1 12 2 13 3 14 4 15 5 16 6 17 7 18 8 10 9 8 10 9 11 7 12
REMARK SMILES IDX 6 14 5 15 4 16 19 17 3 18 20 19 21 20 2 21 1 22 22 23
REMARK H PARENT 7 13 22 24
REMARK Flexibility Score: inf
ROOT
ATOM      1  C   UNL     1     -42.986 -18.892   7.359  1.00  0.00     0.010 C 
ENDROOT
BRANCH   1   2
ATOM      2  C   UNL     1     -42.398 -18.904   5.931  1.00  0.00     0.005 C 
BRANCH   2   3
ATOM      3  C   UNL     1     -42.236 -17.490   5.350  1.00  0.00     0.027 C 
BRANCH   3   4
ATOM      4  C   UNL     1     -42.672 -16.450   6.343  1.00  0.00    -0.031 C 
ATOM      5  C   UNL     1     -42.927 -15.183   5.963  1.00  0.00    -0.028 C 
BRANCH   5   6
ATOM      6  C   UNL     1     -43.357 -14.132   6.961  1.00  0.00     0.005 C 
ATOM      7  C   UNL     1     -42.182 -13.734   7.861  1.00  0.00     0.012 C 
ATOM      8  C   UNL     1     -44.527 -14.648   7.810  1.00  0.00     0.012 C 
ENDBRANCH   5   6
ENDBRANCH   3   4
ENDBRANCH   2   3
ENDBRANCH   1   2
BRANCH   1   9
ATOM      9  C   UNL     1     -44.286 -19.701   7.493  1.00  0.00     0.100 C 
BRANCH   9  10
ATOM     10  C   UNL     1     -45.342 -19.234   6.535  1.00  0.00     0.220 C 
ATOM     11  O   UNL     1     -45.792 -20.038   5.671  1.00  0.00    -0.275 OA
ATOM     12  N   UNL     1     -45.874 -17.903   6.639  1.00  0.00    -0.352 N 
ATOM     13  H   UNL     1     -45.515 -17.266   7.388  1.00  0.00     0.163 HD
BRANCH  12  14
ATOM     14  C   UNL     1     -46.944 -17.416   5.769  1.00  0.00     0.151 C 
BRANCH  14  15
ATOM     15  C   UNL     1     -46.391 -16.453   4.751  1.00  0.00    -0.025 A 
ATOM     16  C   UNL     1     -46.704 -15.087   4.840  1.00  0.00     0.056 A 
ATOM     17  C   UNL     1     -45.544 -16.903   3.724  1.00  0.00     0.009 A 
ATOM     18  C   UNL     1     -46.189 -14.171   3.900  1.00  0.00     0.160 A 
ATOM     19  C   UNL     1     -45.028 -16.001   2.790  1.00  0.00     0.050 A 
ATOM     20  C   UNL     1     -45.348 -14.641   2.869  1.00  0.00     0.157 A 
BRANCH  18  21
ATOM     21  O   UNL     1     -46.490 -12.800   3.960  1.00  0.00    -0.493 OA
ATOM     22  C   UNL     1     -47.377 -12.209   4.910  1.00  0.00     0.278 C 
ENDBRANCH  18  21
BRANCH  20  23
ATOM     23  O   UNL     1     -44.823 -13.769   1.912  1.00  0.00    -0.504 OA
ATOM     24  H   UNL     1     -43.904 -13.352   2.008  1.00  0.00     0.293 HD
ENDBRANCH  20  23
ENDBRANCH  14  15
ENDBRANCH  12  14
ENDBRANCH   9  10
ENDBRANCH   1   9
TORSDOF 10
ENDMDL
MODEL 3
REMARK VINA RESULT:    -4.325      2.318      3.485
REMARK INTER + INTRA:          -8.934
REMARK INTER:                  -6.699
REMARK INTRA:                  -2.234
REMARK UNBOUND:                -2.206
REMARK SMILES COc1cc(CNC(=O)CCCCC=CC(C)C)ccc1O
REMARK SMILES IDX 11 1 12 2 13 3 14 4 15 5 16 6 17 7 18 8 10 9 8 10 9 11 7 12
REMARK SMILES IDX 6 14 5 15 4 16 19 17 3 18 20 19 21 20 2 21 1 22 22 23
REMARK H PARENT 7 13 22 24
REMARK Flexibility Score: inf
ROOT
ATOM      1  C   UNL     1     -41.923 -21.873   6.752  1.00  0.00     0.010 C 
ENDROOT
BRANCH   1   2
ATOM      2  C   UNL     1     -41.296 -20.477   6.952  1.00  0.00     0.005 C 
BRANCH   2   3
ATOM      3  C   UNL     1     -42.169 -19.561   7.825  1.00  0.00     0.027 C 
BRANCH   3   4
ATOM      4  C   UNL     1     -42.308 -18.200   7.202  1.00  0.00    -0.031 C 
ATOM      5  C   UNL     1     -43.066 -18.007   6.105  1.00  0.00    -0.028 C 
BRANCH   5   6
ATOM      6  C   UNL     1     -43.200 -16.640   5.471  1.00  0.00     0.005 C 
ATOM      7  C   UNL     1     -42.027 -16.371   4.522  1.00  0.00     0.012 C 
ATOM      8  C   UNL     1     -43.270 -15.554   6.552  1.00  0.00     0.012 C 
ENDBRANCH   5   6
ENDBRANCH   3   4
ENDBRANCH   2   3
ENDBRANCH   1   2
BRANCH   1   9
ATOM      9  C   UNL     1     -42.465 -22.103   5.332  1.00  0.00     0.100 C 
BRANCH   9  10
ATOM     10  C   UNL     1     -43.879 -21.622   5.184  1.00  0.00     0.220 C 
ATOM     11  O   UNL     1     -44.303 -21.289   4.042  1.00  0.00    -0.275 OA
ATOM     12  N   UNL     1     -44.756 -21.594   6.323  1.00  0.00    -0.352 N 
ATOM     13  H   UNL     1     -44.395 -21.912   7.254  1.00  0.00     0.163 HD
BRANCH  12  14
ATOM     14  C   UNL     1     -46.157 -21.190   6.224  1.00  0.00     0.151 C 
BRANCH  14  15
ATOM     15  C   UNL     1     -46.314 -19.748   6.629  1.00  0.00    -0.025 A 
ATOM     16  C   UNL     1     -46.016 -19.354   7.944  1.00  0.00     0.056 A 
ATOM     17  C   UNL     1     -46.733 -18.782   5.697  1.00  0.00     0.009 A 
ATOM     18  C   UNL     1     -46.150 -18.007   8.338  1.00  0.00     0.160 A 
ATOM     19  C   UNL     1     -46.866 -17.445   6.079  1.00  0.00     0.050 A 
ATOM     20  C   UNL     1     -46.582 -17.052   7.392  1.00  0.00     0.157 A 
BRANCH  18  21
ATOM     21  O   UNL     1     -45.865 -17.586   9.647  1.00  0.00    -0.493 OA
ATOM     22  C   UNL     1     -46.801 -17.613  10.726  1.00  0.00     0.278 C 
ENDBRANCH  18  21
BRANCH  20  23
ATOM     23  O   UNL     1     -46.736 -15.709   7.742  1.00  0.00    -0.504 OA
ATOM     24  H   UNL     1     -46.240 -15.294   8.523  1.00  0.00     0.293 HD
ENDBRANCH  20  23
ENDBRANCH  14  15
ENDBRANCH  12  14
ENDBRANCH   9  10
ENDBRANCH   1   9
TORSDOF 10
ENDMDL
MODEL 4
REMARK VINA RESULT:    -4.309      3.282      5.979
REMARK INTER + INTRA:          -8.908
REMARK INTER:                  -6.714
REMARK INTRA:                  -2.194
REMARK UNBOUND:                -2.206
REMARK SMILES COc1cc(CNC(=O)CCCCC=CC(C)C)ccc1O
REMARK SMILES IDX 11 1 12 2 13 3 14 4 15 5 16 6 17 7 18 8 10 9 8 10 9 11 7 12
REMARK SMILES IDX 6 14 5 15 4 16 19 17 3 18 20 19 21 20 2 21 1 22 22 23
REMARK H PARENT 7 13 22 24
REMARK Flexibility Score: inf
ROOT
ATOM      1  C   UNL     1     -45.675 -12.690   1.061  1.00  0.00     0.010 C 
ENDROOT
BRANCH   1   2
ATOM      2  C   UNL     1     -44.828 -11.499   1.558  1.00  0.00     0.005 C 
BRANCH   2   3
ATOM      3  C   UNL     1     -45.293 -10.980   2.928  1.00  0.00     0.027 C 
BRANCH   3   4
ATOM      4  C   UNL     1     -46.461 -11.776   3.435  1.00  0.00    -0.031 C 
ATOM      5  C   UNL     1     -46.835 -11.726   4.729  1.00  0.00    -0.028 C 
BRANCH   5   6
ATOM      6  C   UNL     1     -48.005 -12.534   5.243  1.00  0.00     0.005 C 
ATOM      7  C   UNL     1     -47.817 -12.867   6.727  1.00  0.00     0.012 C 
ATOM      8  C   UNL     1     -48.166 -13.822   4.424  1.00  0.00     0.012 C 
ENDBRANCH   5   6
ENDBRANCH   3   4
ENDBRANCH   2   3
ENDBRANCH   1   2
BRANCH   1   9
ATOM      9  C   UNL     1     -44.847 -13.780   0.361  1.00  0.00     0.100 C 
BRANCH   9  10
ATOM     10  C   UNL     1     -44.612 -14.967   1.250  1.00  0.00     0.220 C 
ATOM     11  O   UNL     1     -43.655 -15.749   0.996  1.00  0.00    -0.275 OA
ATOM     12  N   UNL     1     -45.437 -15.176   2.408  1.00  0.00    -0.352 N 
ATOM     13  H   UNL     1     -46.201 -14.492   2.622  1.00  0.00     0.163 HD
BRANCH  12  14
ATOM     14  C   UNL     1     -45.216 -16.282   3.338  1.00  0.00     0.151 C 
BRANCH  14  15
ATOM     15  C   UNL     1     -45.089 -15.761   4.746  1.00  0.00    -0.025 A 
ATOM     16  C   UNL     1     -45.623 -16.500   5.815  1.00  0.00     0.056 A 
ATOM     17  C   UNL     1     -44.421 -14.552   5.007  1.00  0.00     0.009 A 
ATOM     18  C   UNL     1     -45.507 -16.031   7.140  1.00  0.00     0.160 A 
ATOM     19  C   UNL     1     -44.300 -14.082   6.317  1.00  0.00     0.050 A 
ATOM     20  C   UNL     1     -44.841 -14.810   7.383  1.00  0.00     0.157 A 
BRANCH  18  21
ATOM     21  O   UNL     1     -46.035 -16.746   8.228  1.00  0.00    -0.493 OA
ATOM     22  C   UNL     1     -46.901 -17.876   8.108  1.00  0.00     0.278 C 
ENDBRANCH  18  21
BRANCH  20  23
ATOM     23  O   UNL     1     -44.711 -14.305   8.679  1.00  0.00    -0.504 OA
ATOM     24  H   UNL     1     -44.324 -14.856   9.437  1.00  0.00     0.293 HD
ENDBRANCH  20  23
ENDBRANCH  14  15
ENDBRANCH  12  14
ENDBRANCH   9  10
ENDBRANCH   1   9
TORSDOF 10
ENDMDL
MODEL 5
REMARK VINA RESULT:    -4.307      1.005      1.987
REMARK INTER + INTRA:          -8.905
REMARK INTER:                  -7.056
REMARK INTRA:                  -1.849
REMARK UNBOUND:                -2.206
REMARK SMILES COc1cc(CNC(=O)CCCCC=CC(C)C)ccc1O
REMARK SMILES IDX 11 1 12 2 13 3 14 4 15 5 16 6 17 7 18 8 10 9 8 10 9 11 7 12
REMARK SMILES IDX 6 14 5 15 4 16 19 17 3 18 20 19 21 20 2 21 1 22 22 23
REMARK H PARENT 7 13 22 24
REMARK Flexibility Score: inf
ROOT
ATOM      1  C   UNL     1     -41.526 -18.519   7.482  1.00  0.00     0.010 C 
ENDROOT
BRANCH   1   2
ATOM      2  C   UNL     1     -41.536 -18.620   5.942  1.00  0.00     0.005 C 
BRANCH   2   3
ATOM      3  C   UNL     1     -42.252 -17.432   5.280  1.00  0.00     0.027 C 
BRANCH   3   4
ATOM      4  C   UNL     1     -42.657 -16.411   6.306  1.00  0.00    -0.031 C 
ATOM      5  C   UNL     1     -42.896 -15.130   5.963  1.00  0.00    -0.028 C 
BRANCH   5   6
ATOM      6  C   UNL     1     -43.294 -14.099   6.995  1.00  0.00     0.005 C 
ATOM      7  C   UNL     1     -42.106 -13.759   7.901  1.00  0.00     0.012 C 
ATOM      8  C   UNL     1     -44.474 -14.610   7.834  1.00  0.00     0.012 C 
ENDBRANCH   5   6
ENDBRANCH   3   4
ENDBRANCH   2   3
ENDBRANCH   1   2
BRANCH   1   9
ATOM      9  C   UNL     1     -42.242 -19.688   8.177  1.00  0.00     0.100 C 
BRANCH   9  10
ATOM     10  C   UNL     1     -43.607 -19.935   7.604  1.00  0.00     0.220 C 
ATOM     11  O   UNL     1     -43.814 -20.982   6.931  1.00  0.00    -0.275 OA
ATOM     12  N   UNL     1     -44.678 -19.013   7.867  1.00  0.00    -0.352 N 
ATOM     13  H   UNL     1     -44.493 -18.170   8.461  1.00  0.00     0.163 HD
BRANCH  12  14
ATOM     14  C   UNL     1     -46.039 -19.234   7.382  1.00  0.00     0.151 C 
BRANCH  14  15
ATOM     15  C   UNL     1     -46.608 -17.956   6.824  1.00  0.00    -0.025 A 
ATOM     16  C   UNL     1     -45.994 -17.342   5.720  1.00  0.00     0.056 A 
ATOM     17  C   UNL     1     -47.763 -17.381   7.382  1.00  0.00     0.009 A 
ATOM     18  C   UNL     1     -46.518 -16.149   5.180  1.00  0.00     0.160 A 
ATOM     19  C   UNL     1     -48.289 -16.201   6.851  1.00  0.00     0.050 A 
ATOM     20  C   UNL     1     -47.673 -15.580   5.758  1.00  0.00     0.157 A 
BRANCH  18  21
ATOM     21  O   UNL     1     -45.922 -15.510   4.080  1.00  0.00    -0.493 OA
ATOM     22  C   UNL     1     -45.190 -16.182   3.054  1.00  0.00     0.278 C 
ENDBRANCH  18  21
BRANCH  20  23
ATOM     23  O   UNL     1     -48.220 -14.395   5.260  1.00  0.00    -0.504 OA
ATOM     24  H   UNL     1     -49.000 -14.391   4.612  1.00  0.00     0.293 HD
ENDBRANCH  20  23
ENDBRANCH  14  15
ENDBRANCH  12  14
ENDBRANCH   9  10
ENDBRANCH   1   9
TORSDOF 10
ENDMDL
MODEL 6
REMARK VINA RESULT:    -4.294      2.613      4.986
REMARK INTER + INTRA:          -8.885
REMARK INTER:                  -7.372
REMARK INTRA:                  -1.513
REMARK UNBOUND:                -2.206
REMARK SMILES COc1cc(CNC(=O)CCCCC=CC(C)C)ccc1O
REMARK SMILES IDX 11 1 12 2 13 3 14 4 15 5 16 6 17 7 18 8 10 9 8 10 9 11 7 12
REMARK SMILES IDX 6 14 5 15 4 16 19 17 3 18 20 19 21 20 2 21 1 22 22 23
REMARK H PARENT 7 13 22 24
REMARK Flexibility Score: inf
ROOT
ATOM      1  C   UNL     1     -45.967 -21.084   4.723  1.00  0.00     0.010 C 
ENDROOT
BRANCH   1   2
ATOM      2  C   UNL     1     -46.618 -20.895   6.111  1.00  0.00     0.005 C 
BRANCH   2   3
ATOM      3  C   UNL     1     -47.774 -19.882   6.084  1.00  0.00     0.027 C 
BRANCH   3   4
ATOM      4  C   UNL     1     -47.794 -19.058   7.340  1.00  0.00    -0.031 C 
ATOM      5  C   UNL     1     -46.988 -19.347   8.380  1.00  0.00    -0.028 C 
BRANCH   5   6
ATOM      6  C   UNL     1     -47.013 -18.524   9.649  1.00  0.00     0.005 C 
ATOM      7  C   UNL     1     -46.618 -19.384  10.854  1.00  0.00     0.012 C 
ATOM      8  C   UNL     1     -48.404 -17.913   9.862  1.00  0.00     0.012 C 
ENDBRANCH   5   6
ENDBRANCH   3   4
ENDBRANCH   2   3
ENDBRANCH   1   2
BRANCH   1   9
ATOM      9  C   UNL     1     -44.543 -21.658   4.788  1.00  0.00     0.100 C 
BRANCH   9  10
ATOM     10  C   UNL     1     -43.605 -20.757   5.536  1.00  0.00     0.220 C 
ATOM     11  O   UNL     1     -42.890 -21.237   6.459  1.00  0.00    -0.275 OA
ATOM     12  N   UNL     1     -43.483 -19.373   5.166  1.00  0.00    -0.352 N 
ATOM     13  H   UNL     1     -44.057 -19.004   4.371  1.00  0.00     0.163 HD
BRANCH  12  14
ATOM     14  C   UNL     1     -42.544 -18.465   5.822  1.00  0.00     0.151 C 
BRANCH  14  15
ATOM     15  C   UNL     1     -43.270 -17.255   6.349  1.00  0.00    -0.025 A 
ATOM     16  C   UNL     1     -42.644 -15.999   6.325  1.00  0.00     0.056 A 
ATOM     17  C   UNL     1     -44.582 -17.364   6.844  1.00  0.00     0.009 A 
ATOM     18  C   UNL     1     -43.311 -14.854   6.807  1.00  0.00     0.160 A 
ATOM     19  C   UNL     1     -45.251 -16.234   7.321  1.00  0.00     0.050 A 
ATOM     20  C   UNL     1     -44.624 -14.983   7.310  1.00  0.00     0.157 A 
BRANCH  18  21
ATOM     21  O   UNL     1     -42.707 -13.586   6.801  1.00  0.00    -0.493 OA
ATOM     22  C   UNL     1     -41.759 -13.138   7.771  1.00  0.00     0.278 C 
ENDBRANCH  18  21
BRANCH  20  23
ATOM     23  O   UNL     1     -45.319 -13.877   7.805  1.00  0.00    -0.504 OA
ATOM     24  H   UNL     1     -46.052 -13.418   7.275  1.00  0.00     0.293 HD
ENDBRANCH  20  23
ENDBRANCH  14  15
ENDBRANCH  12  14
ENDBRANCH   9  10
ENDBRANCH   1   9
TORSDOF 10
ENDMDL
MODEL 7
REMARK VINA RESULT:    -4.195      7.219      9.578
REMARK INTER + INTRA:          -8.731
REMARK INTER:                  -7.170
REMARK INTRA:                  -1.561
REMARK UNBOUND:                -2.206
REMARK SMILES COc1cc(CNC(=O)CCCCC=CC(C)C)ccc1O
REMARK SMILES IDX 11 1 12 2 13 3 14 4 15 5 16 6 17 7 18 8 10 9 8 10 9 11 7 12
REMARK SMILES IDX 6 14 5 15 4 16 19 17 3 18 20 19 21 20 2 21 1 22 22 23
REMARK H PARENT 7 13 22 24
REMARK Flexibility Score: inf
ROOT
ATOM      1  C   UNL     1     -44.498 -14.026  -3.866  1.00  0.00     0.010 C 
ENDROOT
BRANCH   1   2
ATOM      2  C   UNL     1     -45.633 -14.670  -3.042  1.00  0.00     0.005 C 
BRANCH   2   3
ATOM      3  C   UNL     1     -45.969 -13.866  -1.775  1.00  0.00     0.027 C 
BRANCH   3   4
ATOM      4  C   UNL     1     -45.039 -14.224  -0.651  1.00  0.00    -0.031 C 
ATOM      5  C   UNL     1     -45.475 -14.303   0.621  1.00  0.00    -0.028 C 
BRANCH   5   6
ATOM      6  C   UNL     1     -44.539 -14.654   1.755  1.00  0.00     0.005 C 
ATOM      7  C   UNL     1     -43.208 -15.182   1.209  1.00  0.00     0.012 C 
ATOM      8  C   UNL     1     -45.185 -15.694   2.680  1.00  0.00     0.012 C 
ENDBRANCH   5   6
ENDBRANCH   3   4
ENDBRANCH   2   3
ENDBRANCH   1   2
BRANCH   1   9
ATOM      9  C   UNL     1     -43.206 -14.859  -3.884  1.00  0.00     0.100 C 
BRANCH   9  10
ATOM     10  C   UNL     1     -42.221 -14.397  -2.850  1.00  0.00     0.220 C 
ATOM     11  O   UNL     1     -41.795 -15.219  -1.992  1.00  0.00    -0.275 OA
ATOM     12  N   UNL     1     -41.730 -13.046  -2.873  1.00  0.00    -0.352 N 
ATOM     13  H   UNL     1     -42.068 -12.392  -3.618  1.00  0.00     0.163 HD
BRANCH  12  14
ATOM     14  C   UNL     1     -40.729 -12.560  -1.926  1.00  0.00     0.151 C 
BRANCH  14  15
ATOM     15  C   UNL     1     -41.320 -11.492  -1.044  1.00  0.00    -0.025 A 
ATOM     16  C   UNL     1     -42.577 -11.692  -0.450  1.00  0.00     0.056 A 
ATOM     17  C   UNL     1     -40.617 -10.302  -0.788  1.00  0.00     0.009 A 
ATOM     18  C   UNL     1     -43.142 -10.706   0.384  1.00  0.00     0.160 A 
ATOM     19  C   UNL     1     -41.169  -9.321   0.039  1.00  0.00     0.050 A 
ATOM     20  C   UNL     1     -42.427  -9.513   0.623  1.00  0.00     0.157 A 
BRANCH  18  21
ATOM     21  O   UNL     1     -44.399 -10.877   0.987  1.00  0.00    -0.493 OA
ATOM     22  C   UNL     1     -45.646 -10.591   0.350  1.00  0.00     0.278 C 
ENDBRANCH  18  21
BRANCH  20  23
ATOM     23  O   UNL     1     -42.953  -8.506   1.436  1.00  0.00    -0.504 OA
ATOM     24  H   UNL     1     -42.642  -7.543   1.372  1.00  0.00     0.293 HD
ENDBRANCH  20  23
ENDBRANCH  14  15
ENDBRANCH  12  14
ENDBRANCH   9  10
ENDBRANCH   1   9
TORSDOF 10
ENDMDL
MODEL 8
REMARK VINA RESULT:    -4.161      6.041      8.961
REMARK INTER + INTRA:          -8.678
REMARK INTER:                  -7.011
REMARK INTRA:                  -1.667
REMARK UNBOUND:                -2.206
REMARK SMILES COc1cc(CNC(=O)CCCCC=CC(C)C)ccc1O
REMARK SMILES IDX 11 1 12 2 13 3 14 4 15 5 16 6 17 7 18 8 10 9 8 10 9 11 7 12
REMARK SMILES IDX 6 14 5 15 4 16 19 17 3 18 20 19 21 20 2 21 1 22 22 23
REMARK H PARENT 7 13 22 24
REMARK Flexibility Score: inf
ROOT
ATOM      1  C   UNL     1     -46.989  -9.801   3.020  1.00  0.00     0.010 C 
ENDROOT
BRANCH   1   2
ATOM      2  C   UNL     1     -47.426 -10.806   4.107  1.00  0.00     0.005 C 
BRANCH   2   3
ATOM      3  C   UNL     1     -46.245 -11.302   4.957  1.00  0.00     0.027 C 
BRANCH   3   4
ATOM      4  C   UNL     1     -45.593 -12.498   4.323  1.00  0.00    -0.031 C 
ATOM      5  C   UNL     1     -46.319 -13.435   3.683  1.00  0.00    -0.028 C 
BRANCH   5   6
ATOM      6  C   UNL     1     -45.666 -14.644   3.052  1.00  0.00     0.005 C 
ATOM      7  C   UNL     1     -44.396 -15.029   3.819  1.00  0.00     0.012 C 
ATOM      8  C   UNL     1     -45.335 -14.365   1.580  1.00  0.00     0.012 C 
ENDBRANCH   5   6
ENDBRANCH   3   4
ENDBRANCH   2   3
ENDBRANCH   1   2
BRANCH   1   9
ATOM      9  C   UNL     1     -46.969 -10.401   1.604  1.00  0.00     0.100 C 
BRANCH   9  10
ATOM     10  C   UNL     1     -45.578 -10.482   1.045  1.00  0.00     0.220 C 
ATOM     11  O   UNL     1     -44.593 -10.457   1.833  1.00  0.00    -0.275 OA
ATOM     12  N   UNL     1     -45.377 -10.643  -0.369  1.00  0.00    -0.352 N 
ATOM     13  H   UNL     1     -46.210 -10.701  -1.001  1.00  0.00     0.163 HD
BRANCH  12  14
ATOM     14  C   UNL     1     -44.047 -10.785  -0.960  1.00  0.00     0.151 C 
BRANCH  14  15
ATOM     15  C   UNL     1     -43.690 -12.242  -1.095  1.00  0.00    -0.025 A 
ATOM     16  C   UNL     1     -44.494 -13.090  -1.872  1.00  0.00     0.056 A 
ATOM     17  C   UNL     1     -42.543 -12.760  -0.468  1.00  0.00     0.009 A 
ATOM     18  C   UNL     1     -44.170 -14.455  -2.015  1.00  0.00     0.160 A 
ATOM     19  C   UNL     1     -42.214 -14.111  -0.607  1.00  0.00     0.050 A 
ATOM     20  C   UNL     1     -43.020 -14.961  -1.371  1.00  0.00     0.157 A 
BRANCH  18  21
ATOM     21  O   UNL     1     -44.959 -15.328  -2.782  1.00  0.00    -0.493 OA
ATOM     22  C   UNL     1     -46.076 -14.921  -3.575  1.00  0.00     0.278 C 
ENDBRANCH  18  21
BRANCH  20  23
ATOM     23  O   UNL     1     -42.667 -16.308  -1.479  1.00  0.00    -0.504 OA
ATOM     24  H   UNL     1     -42.900 -16.864  -2.295  1.00  0.00     0.293 HD
ENDBRANCH  20  23
ENDBRANCH  14  15
ENDBRANCH  12  14
ENDBRANCH   9  10
ENDBRANCH   1   9
TORSDOF 10
ENDMDL
MODEL 9
REMARK VINA RESULT:    -4.099      2.059      5.648
REMARK INTER + INTRA:          -8.582
REMARK INTER:                  -6.643
REMARK INTRA:                  -1.939
REMARK UNBOUND:                -2.206
REMARK SMILES COc1cc(CNC(=O)CCCCC=CC(C)C)ccc1O
REMARK SMILES IDX 11 1 12 2 13 3 14 4 15 5 16 6 17 7 18 8 10 9 8 10 9 11 7 12
REMARK SMILES IDX 6 14 5 15 4 16 19 17 3 18 20 19 21 20 2 21 1 22 22 23
REMARK H PARENT 7 13 22 24
REMARK Flexibility Score: inf
ROOT
ATOM      1  C   UNL     1     -47.330 -13.201   3.407  1.00  0.00     0.010 C 
ENDROOT
BRANCH   1   2
ATOM      2  C   UNL     1     -45.819 -12.886   3.433  1.00  0.00     0.005 C 
BRANCH   2   3
ATOM      3  C   UNL     1     -45.331 -12.460   4.827  1.00  0.00     0.027 C 
BRANCH   3   4
ATOM      4  C   UNL     1     -44.409 -13.493   5.411  1.00  0.00    -0.031 C 
ATOM      5  C   UNL     1     -44.222 -14.684   4.811  1.00  0.00    -0.028 C 
BRANCH   5   6
ATOM      6  C   UNL     1     -43.302 -15.728   5.402  1.00  0.00     0.005 C 
ATOM      7  C   UNL     1     -42.761 -15.261   6.758  1.00  0.00     0.012 C 
ATOM      8  C   UNL     1     -42.144 -16.027   4.441  1.00  0.00     0.012 C 
ENDBRANCH   5   6
ENDBRANCH   3   4
ENDBRANCH   2   3
ENDBRANCH   1   2
BRANCH   1   9
ATOM      9  C   UNL     1     -47.993 -13.132   4.793  1.00  0.00     0.100 C 
BRANCH   9  10
ATOM     10  C   UNL     1     -48.262 -14.497   5.357  1.00  0.00     0.220 C 
ATOM     11  O   UNL     1     -49.069 -14.619   6.320  1.00  0.00    -0.275 OA
ATOM     12  N   UNL     1     -47.648 -15.656   4.768  1.00  0.00    -0.352 N 
ATOM     13  H   UNL     1     -47.012 -15.535   3.945  1.00  0.00     0.163 HD
BRANCH  12  14
ATOM     14  C   UNL     1     -47.920 -17.012   5.241  1.00  0.00     0.151 C 
BRANCH  14  15
ATOM     15  C   UNL     1     -46.744 -17.537   6.023  1.00  0.00    -0.025 A 
ATOM     16  C   UNL     1     -45.826 -18.404   5.408  1.00  0.00     0.056 A 
ATOM     17  C   UNL     1     -46.541 -17.150   7.360  1.00  0.00     0.009 A 
ATOM     18  C   UNL     1     -44.717 -18.899   6.123  1.00  0.00     0.160 A 
ATOM     19  C   UNL     1     -45.443 -17.635   8.074  1.00  0.00     0.050 A 
ATOM     20  C   UNL     1     -44.533 -18.508   7.467  1.00  0.00     0.157 A 
BRANCH  18  21
ATOM     21  O   UNL     1     -43.786 -19.772   5.536  1.00  0.00    -0.493 OA
ATOM     22  C   UNL     1     -44.070 -21.119   5.157  1.00  0.00     0.278 C 
ENDBRANCH  18  21
BRANCH  20  23
ATOM     23  O   UNL     1     -43.452 -18.981   8.215  1.00  0.00    -0.504 OA
ATOM     24  H   UNL     1     -43.053 -18.452   8.982  1.00  0.00     0.293 HD
ENDBRANCH  20  23
ENDBRANCH  14  15
ENDBRANCH  12  14
ENDBRANCH   9  10
ENDBRANCH   1   9
TORSDOF 10
ENDMDL
