MODEL 1
REMARK VINA RESULT:    -4.199      0.000      0.000
REMARK INTER + INTRA:          -4.597
REMARK INTER:                  -4.567
REMARK INTRA:                  -0.030
REMARK UNBOUND:                -0.030
REMARK SMILES O=C([O-])c1ccc(O)cc1
REMARK SMILES IDX 4 1 5 2 10 3 6 4 9 5 7 6 2 7 1 8 3 9 8 10
REMARK H PARENT 8 11
REMARK Flexibility Score: inf
ROOT
ATOM      1  C   UNL     1      19.448  -0.854 -18.005  1.00  0.00    -0.003 A 
ATOM      2  C   UNL     1      20.633  -0.101 -17.910  1.00  0.00     0.014 A 
ATOM      3  C   UNL     1      18.914  -1.128 -19.277  1.00  0.00     0.014 A 
ATOM      4  C   UNL     1      21.269   0.366 -19.065  1.00  0.00     0.047 A 
ATOM      5  C   UNL     1      19.552  -0.657 -20.429  1.00  0.00     0.047 A 
ATOM      6  C   UNL     1      20.730   0.091 -20.327  1.00  0.00     0.115 A 
ENDROOT
BRANCH   1   7
ATOM      7  C   UNL     1      18.778  -1.348 -16.783  1.00  0.00     0.071 C 
ATOM      8  O   UNL     1      18.497  -0.558 -15.841  1.00  0.00    -0.545 OA
ATOM      9  O   UNL     1      18.448  -2.692 -16.654  1.00  0.00    -0.545 OA
ENDBRANCH   1   7
BRANCH   6  10
ATOM     10  O   UNL     1      21.354   0.552 -21.483  1.00  0.00    -0.508 OA
ATOM     11  H   UNL     1      22.277   0.231 -21.750  1.00  0.00     0.293 HD
ENDBRANCH   6  10
TORSDOF 2
ENDMDL
MODEL 2
REMARK VINA RESULT:    -4.166     14.614     16.119
REMARK INTER + INTRA:          -4.562
REMARK INTER:                  -4.531
REMARK INTRA:                  -0.031
REMARK UNBOUND:                -0.030
REMARK SMILES O=C([O-])c1ccc(O)cc1
REMARK SMILES IDX 4 1 5 2 10 3 6 4 9 5 7 6 2 7 1 8 3 9 8 10
REMARK H PARENT 8 11
REMARK Flexibility Score: inf
ROOT
ATOM      1  C   UNL     1       9.695  -6.244  -8.330  1.00  0.00    -0.003 A 
ATOM      2  C   UNL     1       9.056  -6.038  -7.094  1.00  0.00     0.014 A 
ATOM      3  C   UNL     1       9.056  -5.817  -9.508  1.00  0.00     0.014 A 
ATOM      4  C   UNL     1       7.804  -5.418  -7.039  1.00  0.00     0.047 A 
ATOM      5  C   UNL     1       7.803  -5.198  -9.449  1.00  0.00     0.047 A 
ATOM      6  C   UNL     1       7.174  -4.996  -8.217  1.00  0.00     0.115 A 
ENDROOT
BRANCH   1   7
ATOM      7  C   UNL     1      11.020  -6.900  -8.386  1.00  0.00     0.071 C 
ATOM      8  O   UNL     1      11.247  -7.944  -7.718  1.00  0.00    -0.545 OA
ATOM      9  O   UNL     1      12.035  -6.373  -9.176  1.00  0.00    -0.545 OA
ENDBRANCH   1   7
BRANCH   6  10
ATOM     10  O   UNL     1       5.927  -4.378  -8.173  1.00  0.00    -0.508 OA
ATOM     11  H   UNL     1       5.182  -4.644  -8.807  1.00  0.00     0.293 HD
ENDBRANCH   6  10
TORSDOF 2
ENDMDL
MODEL 3
REMARK VINA RESULT:    -4.145      0.851      4.327
REMARK INTER + INTRA:          -4.539
REMARK INTER:                  -4.505
REMARK INTRA:                  -0.034
REMARK UNBOUND:                -0.030
REMARK SMILES O=C([O-])c1ccc(O)cc1
REMARK SMILES IDX 4 1 5 2 10 3 6 4 9 5 7 6 2 7 1 8 3 9 8 10
REMARK H PARENT 8 11
REMARK Flexibility Score: inf
ROOT
ATOM      1  C   UNL     1      20.712  -0.105 -20.283  1.00  0.00    -0.003 A 
ATOM      2  C   UNL     1      21.239   0.241 -19.025  1.00  0.00     0.014 A 
ATOM      3  C   UNL     1      19.532  -0.869 -20.341  1.00  0.00     0.014 A 
ATOM      4  C   UNL     1      20.597  -0.168 -17.852  1.00  0.00     0.047 A 
ATOM      5  C   UNL     1      18.893  -1.277 -19.165  1.00  0.00     0.047 A 
ATOM      6  C   UNL     1      19.423  -0.928 -17.919  1.00  0.00     0.115 A 
ENDROOT
BRANCH   1   7
ATOM      7  C   UNL     1      21.392   0.329 -21.522  1.00  0.00     0.071 C 
ATOM      8  O   UNL     1      22.097   1.373 -21.534  1.00  0.00    -0.545 OA
ATOM      9  O   UNL     1      21.263  -0.409 -22.693  1.00  0.00    -0.545 OA
ENDBRANCH   1   7
BRANCH   6  10
ATOM     10  O   UNL     1      18.777  -1.342 -16.756  1.00  0.00    -0.508 OA
ATOM     11  H   UNL     1      18.840  -0.809 -15.897  1.00  0.00     0.293 HD
ENDBRANCH   6  10
TORSDOF 2
ENDMDL
MODEL 4
REMARK VINA RESULT:    -4.131      1.749      2.451
REMARK INTER + INTRA:          -4.523
REMARK INTER:                  -4.487
REMARK INTRA:                  -0.036
REMARK UNBOUND:                -0.030
REMARK SMILES O=C([O-])c1ccc(O)cc1
REMARK SMILES IDX 4 1 5 2 10 3 6 4 9 5 7 6 2 7 1 8 3 9 8 10
REMARK H PARENT 8 11
REMARK Flexibility Score: inf
ROOT
ATOM      1  C   UNL     1      20.470  -0.531 -19.937  1.00  0.00    -0.003 A 
ATOM      2  C   UNL     1      21.174   0.665 -19.706  1.00  0.00     0.014 A 
ATOM      3  C   UNL     1      20.476  -1.088 -21.229  1.00  0.00     0.014 A 
ATOM      4  C   UNL     1      21.869   1.289 -20.747  1.00  0.00     0.047 A 
ATOM      5  C   UNL     1      21.171  -0.460 -22.267  1.00  0.00     0.047 A 
ATOM      6  C   UNL     1      21.869   0.729 -22.030  1.00  0.00     0.115 A 
ENDROOT
BRANCH   1   7
ATOM      7  C   UNL     1      19.736  -1.190 -18.835  1.00  0.00     0.071 C 
ATOM      8  O   UNL     1      19.224  -2.330 -18.997  1.00  0.00    -0.545 OA
ATOM      9  O   UNL     1      19.600  -0.560 -17.603  1.00  0.00    -0.545 OA
ENDBRANCH   1   7
BRANCH   6  10
ATOM     10  O   UNL     1      22.558   1.343 -23.074  1.00  0.00    -0.508 OA
ATOM     11  H   UNL     1      23.276   2.035 -22.899  1.00  0.00     0.293 HD
ENDBRANCH   6  10
TORSDOF 2
ENDMDL
MODEL 5
REMARK VINA RESULT:    -4.057     15.397     16.264
REMARK INTER + INTRA:          -4.443
REMARK INTER:                  -4.416
REMARK INTRA:                  -0.027
REMARK UNBOUND:                -0.030
REMARK SMILES O=C([O-])c1ccc(O)cc1
REMARK SMILES IDX 4 1 5 2 10 3 6 4 9 5 7 6 2 7 1 8 3 9 8 10
REMARK H PARENT 8 11
REMARK Flexibility Score: inf
ROOT
ATOM      1  C   UNL     1       8.471  -7.333  -9.526  1.00  0.00    -0.003 A 
ATOM      2  C   UNL     1       7.781  -6.425  -8.702  1.00  0.00     0.014 A 
ATOM      3  C   UNL     1       9.840  -7.559  -9.295  1.00  0.00     0.014 A 
ATOM      4  C   UNL     1       8.447  -5.759  -7.669  1.00  0.00     0.047 A 
ATOM      5  C   UNL     1      10.503  -6.889  -8.261  1.00  0.00     0.047 A 
ATOM      6  C   UNL     1       9.810  -5.989  -7.446  1.00  0.00     0.115 A 
ENDROOT
BRANCH   1   7
ATOM      7  C   UNL     1       7.765  -8.037 -10.618  1.00  0.00     0.071 C 
ATOM      8  O   UNL     1       7.034  -9.034 -10.371  1.00  0.00    -0.545 OA
ATOM      9  O   UNL     1       7.895  -7.608 -11.934  1.00  0.00    -0.545 OA
ENDBRANCH   1   7
BRANCH   6  10
ATOM     10  O   UNL     1      10.483  -5.330  -6.420  1.00  0.00    -0.508 OA
ATOM     11  H   UNL     1      10.008  -5.046  -5.572  1.00  0.00     0.293 HD
ENDBRANCH   6  10
TORSDOF 2
ENDMDL
MODEL 6
REMARK VINA RESULT:    -4.022      7.395      9.160
REMARK INTER + INTRA:          -4.404
REMARK INTER:                  -4.376
REMARK INTRA:                  -0.029
REMARK UNBOUND:                -0.030
REMARK SMILES O=C([O-])c1ccc(O)cc1
REMARK SMILES IDX 4 1 5 2 10 3 6 4 9 5 7 6 2 7 1 8 3 9 8 10
REMARK H PARENT 8 11
REMARK Flexibility Score: inf
ROOT
ATOM      1  C   UNL     1      23.579   6.079 -20.880  1.00  0.00    -0.003 A 
ATOM      2  C   UNL     1      22.562   6.972 -20.497  1.00  0.00     0.014 A 
ATOM      3  C   UNL     1      24.864   6.231 -20.329  1.00  0.00     0.014 A 
ATOM      4  C   UNL     1      22.826   7.995 -19.581  1.00  0.00     0.047 A 
ATOM      5  C   UNL     1      25.125   7.256 -19.413  1.00  0.00     0.047 A 
ATOM      6  C   UNL     1      24.108   8.140 -19.037  1.00  0.00     0.115 A 
ENDROOT
BRANCH   1   7
ATOM      7  C   UNL     1      23.297   4.997 -21.849  1.00  0.00     0.071 C 
ATOM      8  O   UNL     1      22.460   4.095 -21.577  1.00  0.00    -0.545 OA
ATOM      9  O   UNL     1      23.952   4.961 -23.075  1.00  0.00    -0.545 OA
ENDBRANCH   1   7
BRANCH   6  10
ATOM     10  O   UNL     1      24.382   9.155 -18.124  1.00  0.00    -0.508 OA
ATOM     11  H   UNL     1      23.697   9.868 -17.904  1.00  0.00     0.293 HD
ENDBRANCH   6  10
TORSDOF 2
ENDMDL
MODEL 7
REMARK VINA RESULT:    -4.011     14.187     16.159
REMARK INTER + INTRA:          -4.393
REMARK INTER:                  -4.366
REMARK INTRA:                  -0.027
REMARK UNBOUND:                -0.030
REMARK SMILES O=C([O-])c1ccc(O)cc1
REMARK SMILES IDX 4 1 5 2 10 3 6 4 9 5 7 6 2 7 1 8 3 9 8 10
REMARK H PARENT 8 11
REMARK Flexibility Score: inf
ROOT
ATOM      1  C   UNL     1       8.725  -5.898  -7.158  1.00  0.00    -0.003 A 
ATOM      2  C   UNL     1      10.060  -6.249  -7.435  1.00  0.00     0.014 A 
ATOM      3  C   UNL     1       7.891  -5.501  -8.219  1.00  0.00     0.014 A 
ATOM      4  C   UNL     1      10.547  -6.203  -8.745  1.00  0.00     0.047 A 
ATOM      5  C   UNL     1       8.382  -5.456  -9.528  1.00  0.00     0.047 A 
ATOM      6  C   UNL     1       9.710  -5.806  -9.794  1.00  0.00     0.115 A 
ENDROOT
BRANCH   1   7
ATOM      7  C   UNL     1       8.212  -5.948  -5.772  1.00  0.00     0.071 C 
ATOM      8  O   UNL     1       8.210  -4.914  -5.052  1.00  0.00    -0.545 OA
ATOM      9  O   UNL     1       7.723  -7.138  -5.244  1.00  0.00    -0.545 OA
ENDBRANCH   1   7
BRANCH   6  10
ATOM     10  O   UNL     1      10.185  -5.756 -11.103  1.00  0.00    -0.508 OA
ATOM     11  H   UNL     1      10.651  -6.549 -11.527  1.00  0.00     0.293 HD
ENDBRANCH   6  10
TORSDOF 2
ENDMDL
MODEL 8
REMARK VINA RESULT:    -3.972      8.293      8.708
REMARK INTER + INTRA:          -4.350
REMARK INTER:                  -4.323
REMARK INTRA:                  -0.027
REMARK UNBOUND:                -0.030
REMARK SMILES O=C([O-])c1ccc(O)cc1
REMARK SMILES IDX 4 1 5 2 10 3 6 4 9 5 7 6 2 7 1 8 3 9 8 10
REMARK H PARENT 8 11
REMARK Flexibility Score: inf
ROOT
ATOM      1  C   UNL     1      24.289   6.594 -19.246  1.00  0.00    -0.003 A 
ATOM      2  C   UNL     1      22.989   6.985 -19.612  1.00  0.00     0.014 A 
ATOM      3  C   UNL     1      25.098   5.941 -20.193  1.00  0.00     0.014 A 
ATOM      4  C   UNL     1      22.509   6.727 -20.900  1.00  0.00     0.047 A 
ATOM      5  C   UNL     1      24.614   5.684 -21.480  1.00  0.00     0.047 A 
ATOM      6  C   UNL     1      23.320   6.076 -21.837  1.00  0.00     0.115 A 
ENDROOT
BRANCH   1   7
ATOM      7  C   UNL     1      24.795   6.869 -17.883  1.00  0.00     0.071 C 
ATOM      8  O   UNL     1      25.125   8.037 -17.545  1.00  0.00    -0.545 OA
ATOM      9  O   UNL     1      24.913   5.841 -16.955  1.00  0.00    -0.545 OA
ENDBRANCH   1   7
BRANCH   6  10
ATOM     10  O   UNL     1      22.852   5.814 -23.123  1.00  0.00    -0.508 OA
ATOM     11  H   UNL     1      22.152   5.102 -23.296  1.00  0.00     0.293 HD
ENDBRANCH   6  10
TORSDOF 2
ENDMDL
MODEL 9
REMARK VINA RESULT:    -3.938     13.902     16.203
REMARK INTER + INTRA:          -4.313
REMARK INTER:                  -4.286
REMARK INTRA:                  -0.027
REMARK UNBOUND:                -0.030
REMARK SMILES O=C([O-])c1ccc(O)cc1
REMARK SMILES IDX 4 1 5 2 10 3 6 4 9 5 7 6 2 7 1 8 3 9 8 10
REMARK H PARENT 8 11
REMARK Flexibility Score: inf
ROOT
ATOM      1  C   UNL     1       9.383  -6.082  -8.976  1.00  0.00    -0.003 A 
ATOM      2  C   UNL     1      10.111  -6.135  -7.773  1.00  0.00     0.014 A 
ATOM      3  C   UNL     1       8.033  -5.691  -8.939  1.00  0.00     0.014 A 
ATOM      4  C   UNL     1       9.500  -5.802  -6.560  1.00  0.00     0.047 A 
ATOM      5  C   UNL     1       7.424  -5.360  -7.723  1.00  0.00     0.047 A 
ATOM      6  C   UNL     1       8.155  -5.415  -6.532  1.00  0.00     0.115 A 
ENDROOT
BRANCH   1   7
ATOM      7  C   UNL     1      10.032  -6.433 -10.258  1.00  0.00     0.071 C 
ATOM      8  O   UNL     1      10.159  -7.639 -10.603  1.00  0.00    -0.545 OA
ATOM      9  O   UNL     1      10.512  -5.438 -11.101  1.00  0.00    -0.545 OA
ENDBRANCH   1   7
BRANCH   6  10
ATOM     10  O   UNL     1       7.536  -5.082  -5.329  1.00  0.00    -0.508 OA
ATOM     11  H   UNL     1       7.844  -4.292  -4.776  1.00  0.00     0.293 HD
ENDBRANCH   6  10
TORSDOF 2
ENDMDL
