MODEL 1
REMARK VINA RESULT:    -4.102      0.000      0.000
REMARK INTER + INTRA:          -8.957
REMARK INTER:                  -7.220
REMARK INTRA:                  -1.737
REMARK UNBOUND:                -1.737
REMARK SMILES CCCCCCCCCCCCCCC(=O)[O-]
REMARK SMILES IDX 9 1 10 2 11 3 12 4 13 5 14 6 15 7 16 8 17 9 8 10 7 11 6 12
REMARK SMILES IDX 5 13 4 14 3 15 2 16 1 17
REMARK H PARENT
REMARK Flexibility Score: inf
ROOT
ATOM      1  C   UNL     1      33.566  32.713  22.718  1.00  0.00     0.000 C 
ENDROOT
BRANCH   1   2
ATOM      2  C   UNL     1      34.755  32.165  21.920  1.00  0.00     0.000 C 
BRANCH   2   3
ATOM      3  C   UNL     1      34.956  30.667  22.191  1.00  0.00     0.000 C 
BRANCH   3   4
ATOM      4  C   UNL     1      33.709  30.001  22.795  1.00  0.00     0.000 C 
BRANCH   4   5
ATOM      5  C   UNL     1      33.049  28.999  21.832  1.00  0.00     0.006 C 
BRANCH   5   6
ATOM      6  C   UNL     1      32.279  29.701  20.704  1.00  0.00     0.053 C 
BRANCH   6   7
ATOM      7  C   UNL     1      32.926  29.484  19.370  1.00  0.00     0.041 C 
ATOM      8  O   UNL     1      33.716  28.518  19.198  1.00  0.00    -0.550 OA
ATOM      9  O   UNL     1      32.633  30.331  18.310  1.00  0.00    -0.550 OA
ENDBRANCH   6   7
ENDBRANCH   5   6
ENDBRANCH   4   5
ENDBRANCH   3   4
ENDBRANCH   2   3
ENDBRANCH   1   2
BRANCH   1  10
ATOM     10  C   UNL     1      34.043  33.522  23.933  1.00  0.00     0.000 C 
BRANCH  10  11
ATOM     11  C   UNL     1      33.705  32.846  25.274  1.00  0.00    -0.000 C 
BRANCH  11  12
ATOM     12  C   UNL     1      34.877  32.105  25.944  1.00  0.00    -0.000 C 
BRANCH  12  13
ATOM     13  C   UNL     1      36.233  32.415  25.292  1.00  0.00    -0.000 C 
BRANCH  13  14
ATOM     14  C   UNL     1      37.261  32.855  26.344  1.00  0.00    -0.000 C 
BRANCH  14  15
ATOM     15  C   UNL     1      36.639  33.687  27.480  1.00  0.00    -0.000 C 
BRANCH  15  16
ATOM     16  C   UNL     1      36.588  35.203  27.218  1.00  0.00    -0.003 C 
ATOM     17  C   UNL     1      35.162  35.745  27.120  1.00  0.00     0.004 C 
ENDBRANCH  15  16
ENDBRANCH  14  15
ENDBRANCH  13  14
ENDBRANCH  12  13
ENDBRANCH  11  12
ENDBRANCH  10  11
ENDBRANCH   1  10
TORSDOF 13
ENDMDL
MODEL 2
REMARK VINA RESULT:    -4.070      4.967      8.784
REMARK INTER + INTRA:          -8.901
REMARK INTER:                  -8.031
REMARK INTRA:                  -0.870
REMARK UNBOUND:                -1.737
REMARK SMILES CCCCCCCCCCCCCCC(=O)[O-]
REMARK SMILES IDX 9 1 10 2 11 3 12 4 13 5 14 6 15 7 16 8 17 9 8 10 7 11 6 12
REMARK SMILES IDX 5 13 4 14 3 15 2 16 1 17
REMARK H PARENT
REMARK Flexibility Score: inf
ROOT
ATOM      1  C   UNL     1      36.043  33.815  26.268  1.00  0.00     0.000 C 
ENDROOT
BRANCH   1   2
ATOM      2  C   UNL     1      35.015  34.953  26.295  1.00  0.00     0.000 C 
BRANCH   2   3
ATOM      3  C   UNL     1      35.175  35.808  27.561  1.00  0.00     0.000 C 
BRANCH   3   4
ATOM      4  C   UNL     1      36.161  35.196  28.570  1.00  0.00     0.000 C 
BRANCH   4   5
ATOM      5  C   UNL     1      36.352  36.076  29.817  1.00  0.00     0.006 C 
BRANCH   5   6
ATOM      6  C   UNL     1      37.047  37.404  29.488  1.00  0.00     0.053 C 
BRANCH   6   7
ATOM      7  C   UNL     1      38.398  37.188  28.875  1.00  0.00     0.041 C 
ATOM      8  O   UNL     1      39.328  36.677  29.552  1.00  0.00    -0.550 OA
ATOM      9  O   UNL     1      38.618  37.525  27.546  1.00  0.00    -0.550 OA
ENDBRANCH   6   7
ENDBRANCH   5   6
ENDBRANCH   4   5
ENDBRANCH   3   4
ENDBRANCH   2   3
ENDBRANCH   1   2
BRANCH   1  10
ATOM     10  C   UNL     1      35.366  32.469  25.971  1.00  0.00     0.000 C 
BRANCH  10  11
ATOM     11  C   UNL     1      33.985  32.625  25.310  1.00  0.00    -0.000 C 
BRANCH  11  12
ATOM     12  C   UNL     1      33.888  32.089  23.869  1.00  0.00    -0.000 C 
BRANCH  12  13
ATOM     13  C   UNL     1      34.645  30.768  23.669  1.00  0.00    -0.000 C 
BRANCH  13  14
ATOM     14  C   UNL     1      34.095  29.997  22.460  1.00  0.00    -0.000 C 
BRANCH  14  15
ATOM     15  C   UNL     1      32.828  30.638  21.865  1.00  0.00    -0.000 C 
BRANCH  15  16
ATOM     16  C   UNL     1      32.127  29.798  20.783  1.00  0.00    -0.003 C 
ATOM     17  C   UNL     1      33.031  28.723  20.181  1.00  0.00     0.004 C 
ENDBRANCH  15  16
ENDBRANCH  14  15
ENDBRANCH  13  14
ENDBRANCH  12  13
ENDBRANCH  11  12
ENDBRANCH  10  11
ENDBRANCH   1  10
TORSDOF 13
ENDMDL
MODEL 3
REMARK VINA RESULT:    -4.053      4.321      7.892
REMARK INTER + INTRA:          -8.871
REMARK INTER:                  -7.574
REMARK INTRA:                  -1.297
REMARK UNBOUND:                -1.737
REMARK SMILES CCCCCCCCCCCCCCC(=O)[O-]
REMARK SMILES IDX 9 1 10 2 11 3 12 4 13 5 14 6 15 7 16 8 17 9 8 10 7 11 6 12
REMARK SMILES IDX 5 13 4 14 3 15 2 16 1 17
REMARK H PARENT
REMARK Flexibility Score: inf
ROOT
ATOM      1  C   UNL     1      33.293  32.294  22.832  1.00  0.00     0.000 C 
ENDROOT
BRANCH   1   2
ATOM      2  C   UNL     1      33.604  33.253  23.988  1.00  0.00     0.000 C 
BRANCH   2   3
ATOM      3  C   UNL     1      33.999  32.477  25.253  1.00  0.00     0.000 C 
BRANCH   3   4
ATOM      4  C   UNL     1      35.075  33.201  26.080  1.00  0.00     0.000 C 
BRANCH   4   5
ATOM      5  C   UNL     1      34.907  34.730  26.059  1.00  0.00     0.006 C 
BRANCH   5   6
ATOM      6  C   UNL     1      36.114  35.453  26.674  1.00  0.00     0.053 C 
BRANCH   6   7
ATOM      7  C   UNL     1      36.065  35.443  28.171  1.00  0.00     0.041 C 
ATOM      8  O   UNL     1      36.834  34.690  28.826  1.00  0.00    -0.550 OA
ATOM      9  O   UNL     1      35.190  36.285  28.843  1.00  0.00    -0.550 OA
ENDBRANCH   6   7
ENDBRANCH   5   6
ENDBRANCH   4   5
ENDBRANCH   3   4
ENDBRANCH   2   3
ENDBRANCH   1   2
BRANCH   1  10
ATOM     10  C   UNL     1      34.452  31.312  22.604  1.00  0.00     0.000 C 
BRANCH  10  11
ATOM     11  C   UNL     1      33.975  29.876  22.324  1.00  0.00    -0.000 C 
BRANCH  11  12
ATOM     12  C   UNL     1      32.549  29.763  21.753  1.00  0.00    -0.000 C 
BRANCH  12  13
ATOM     13  C   UNL     1      32.406  28.640  20.715  1.00  0.00    -0.000 C 
BRANCH  13  14
ATOM     14  C   UNL     1      33.292  28.908  19.490  1.00  0.00    -0.000 C 
BRANCH  14  15
ATOM     15  C   UNL     1      32.886  30.178  18.720  1.00  0.00    -0.000 C 
BRANCH  15  16
ATOM     16  C   UNL     1      34.049  31.126  18.379  1.00  0.00    -0.003 C 
ATOM     17  C   UNL     1      33.978  32.454  19.132  1.00  0.00     0.004 C 
ENDBRANCH  15  16
ENDBRANCH  14  15
ENDBRANCH  13  14
ENDBRANCH  12  13
ENDBRANCH  11  12
ENDBRANCH  10  11
ENDBRANCH   1  10
TORSDOF 13
ENDMDL
MODEL 4
REMARK VINA RESULT:    -4.044      2.684      4.857
REMARK INTER + INTRA:          -8.856
REMARK INTER:                  -7.845
REMARK INTRA:                  -1.011
REMARK UNBOUND:                -1.737
REMARK SMILES CCCCCCCCCCCCCCC(=O)[O-]
REMARK SMILES IDX 9 1 10 2 11 3 12 4 13 5 14 6 15 7 16 8 17 9 8 10 7 11 6 12
REMARK SMILES IDX 5 13 4 14 3 15 2 16 1 17
REMARK H PARENT
REMARK Flexibility Score: inf
ROOT
ATOM      1  C   UNL     1      36.686  34.350  27.564  1.00  0.00     0.000 C 
ENDROOT
BRANCH   1   2
ATOM      2  C   UNL     1      36.140  33.240  26.658  1.00  0.00     0.000 C 
BRANCH   2   3
ATOM      3  C   UNL     1      34.798  33.651  26.034  1.00  0.00     0.000 C 
BRANCH   3   4
ATOM      4  C   UNL     1      34.029  32.457  25.445  1.00  0.00     0.000 C 
BRANCH   4   5
ATOM      5  C   UNL     1      34.159  32.367  23.914  1.00  0.00     0.006 C 
BRANCH   5   6
ATOM      6  C   UNL     1      34.423  30.932  23.439  1.00  0.00     0.053 C 
BRANCH   6   7
ATOM      7  C   UNL     1      33.603  30.585  22.234  1.00  0.00     0.041 C 
ATOM      8  O   UNL     1      33.974  29.666  21.457  1.00  0.00    -0.550 OA
ATOM      9  O   UNL     1      32.414  31.258  21.986  1.00  0.00    -0.550 OA
ENDBRANCH   6   7
ENDBRANCH   5   6
ENDBRANCH   4   5
ENDBRANCH   3   4
ENDBRANCH   2   3
ENDBRANCH   1   2
BRANCH   1  10
ATOM     10  C   UNL     1      35.930  35.668  27.338  1.00  0.00     0.000 C 
BRANCH  10  11
ATOM     11  C   UNL     1      35.314  36.237  28.629  1.00  0.00    -0.000 C 
BRANCH  11  12
ATOM     12  C   UNL     1      36.325  36.847  29.618  1.00  0.00    -0.000 C 
BRANCH  12  13
ATOM     13  C   UNL     1      37.129  38.007  29.014  1.00  0.00    -0.000 C 
BRANCH  13  14
ATOM     14  C   UNL     1      38.573  38.005  29.537  1.00  0.00    -0.000 C 
BRANCH  14  15
ATOM     15  C   UNL     1      39.209  36.603  29.542  1.00  0.00    -0.000 C 
BRANCH  15  16
ATOM     16  C   UNL     1      39.955  36.228  28.250  1.00  0.00    -0.003 C 
ATOM     17  C   UNL     1      41.428  35.892  28.485  1.00  0.00     0.004 C 
ENDBRANCH  15  16
ENDBRANCH  14  15
ENDBRANCH  13  14
ENDBRANCH  12  13
ENDBRANCH  11  12
ENDBRANCH  10  11
ENDBRANCH   1  10
TORSDOF 13
ENDMDL
MODEL 5
REMARK VINA RESULT:    -3.979      4.913      7.767
REMARK INTER + INTRA:          -8.740
REMARK INTER:                  -7.100
REMARK INTRA:                  -1.640
REMARK UNBOUND:                -1.737
REMARK SMILES CCCCCCCCCCCCCCC(=O)[O-]
REMARK SMILES IDX 9 1 10 2 11 3 12 4 13 5 14 6 15 7 16 8 17 9 8 10 7 11 6 12
REMARK SMILES IDX 5 13 4 14 3 15 2 16 1 17
REMARK H PARENT
REMARK Flexibility Score: inf
ROOT
ATOM      1  C   UNL     1      33.737  33.085  25.159  1.00  0.00     0.000 C 
ENDROOT
BRANCH   1   2
ATOM      2  C   UNL     1      34.852  32.303  25.865  1.00  0.00     0.000 C 
BRANCH   2   3
ATOM      3  C   UNL     1      36.173  33.085  25.838  1.00  0.00     0.000 C 
BRANCH   3   4
ATOM      4  C   UNL     1      36.548  33.662  27.213  1.00  0.00     0.000 C 
BRANCH   4   5
ATOM      5  C   UNL     1      35.894  35.029  27.478  1.00  0.00     0.006 C 
BRANCH   5   6
ATOM      6  C   UNL     1      36.926  36.102  27.854  1.00  0.00     0.053 C 
BRANCH   6   7
ATOM      7  C   UNL     1      36.736  36.589  29.259  1.00  0.00     0.041 C 
ATOM      8  O   UNL     1      37.336  37.621  29.659  1.00  0.00    -0.550 OA
ATOM      9  O   UNL     1      35.873  35.918  30.115  1.00  0.00    -0.550 OA
ENDBRANCH   6   7
ENDBRANCH   5   6
ENDBRANCH   4   5
ENDBRANCH   3   4
ENDBRANCH   2   3
ENDBRANCH   1   2
BRANCH   1  10
ATOM     10  C   UNL     1      34.308  33.969  24.040  1.00  0.00     0.000 C 
BRANCH  10  11
ATOM     11  C   UNL     1      33.999  33.428  22.632  1.00  0.00    -0.000 C 
BRANCH  11  12
ATOM     12  C   UNL     1      32.883  32.369  22.572  1.00  0.00    -0.000 C 
BRANCH  12  13
ATOM     13  C   UNL     1      33.315  31.083  21.853  1.00  0.00    -0.000 C 
BRANCH  13  14
ATOM     14  C   UNL     1      34.190  30.211  22.765  1.00  0.00    -0.000 C 
BRANCH  14  15
ATOM     15  C   UNL     1      35.630  30.051  22.243  1.00  0.00    -0.000 C 
BRANCH  15  16
ATOM     16  C   UNL     1      36.674  30.934  22.949  1.00  0.00    -0.003 C 
ATOM     17  C   UNL     1      37.766  30.126  23.650  1.00  0.00     0.004 C 
ENDBRANCH  15  16
ENDBRANCH  14  15
ENDBRANCH  13  14
ENDBRANCH  12  13
ENDBRANCH  11  12
ENDBRANCH  10  11
ENDBRANCH   1  10
TORSDOF 13
ENDMDL
MODEL 6
REMARK VINA RESULT:    -3.958      4.984      7.471
REMARK INTER + INTRA:          -8.703
REMARK INTER:                  -6.618
REMARK INTRA:                  -2.085
REMARK UNBOUND:                -1.737
REMARK SMILES CCCCCCCCCCCCCCC(=O)[O-]
REMARK SMILES IDX 9 1 10 2 11 3 12 4 13 5 14 6 15 7 16 8 17 9 8 10 7 11 6 12
REMARK SMILES IDX 5 13 4 14 3 15 2 16 1 17
REMARK H PARENT
REMARK Flexibility Score: inf
ROOT
ATOM      1  C   UNL     1      35.597  35.336  22.864  1.00  0.00     0.000 C 
ENDROOT
BRANCH   1   2
ATOM      2  C   UNL     1      36.147  35.537  24.282  1.00  0.00     0.000 C 
BRANCH   2   3
ATOM      3  C   UNL     1      35.044  36.021  25.235  1.00  0.00     0.000 C 
BRANCH   3   4
ATOM      4  C   UNL     1      35.514  36.092  26.697  1.00  0.00     0.000 C 
BRANCH   4   5
ATOM      5  C   UNL     1      36.627  35.076  27.011  1.00  0.00     0.006 C 
BRANCH   5   6
ATOM      6  C   UNL     1      36.678  34.716  28.502  1.00  0.00     0.053 C 
BRANCH   6   7
ATOM      7  C   UNL     1      37.128  35.874  29.339  1.00  0.00     0.041 C 
ATOM      8  O   UNL     1      38.336  36.230  29.332  1.00  0.00    -0.550 OA
ATOM      9  O   UNL     1      36.207  36.577  30.105  1.00  0.00    -0.550 OA
ENDBRANCH   6   7
ENDBRANCH   5   6
ENDBRANCH   4   5
ENDBRANCH   3   4
ENDBRANCH   2   3
ENDBRANCH   1   2
BRANCH   1  10
ATOM     10  C   UNL     1      34.086  35.059  22.894  1.00  0.00     0.000 C 
BRANCH  10  11
ATOM     11  C   UNL     1      33.622  34.139  21.750  1.00  0.00    -0.000 C 
BRANCH  11  12
ATOM     12  C   UNL     1      33.114  32.755  22.193  1.00  0.00    -0.000 C 
BRANCH  12  13
ATOM     13  C   UNL     1      34.187  31.661  22.090  1.00  0.00    -0.000 C 
BRANCH  13  14
ATOM     14  C   UNL     1      34.472  31.039  23.465  1.00  0.00    -0.000 C 
BRANCH  14  15
ATOM     15  C   UNL     1      35.515  31.828  24.277  1.00  0.00    -0.000 C 
BRANCH  15  16
ATOM     16  C   UNL     1      35.080  32.190  25.708  1.00  0.00    -0.003 C 
ATOM     17  C   UNL     1      33.650  32.725  25.781  1.00  0.00     0.004 C 
ENDBRANCH  15  16
ENDBRANCH  14  15
ENDBRANCH  13  14
ENDBRANCH  12  13
ENDBRANCH  11  12
ENDBRANCH  10  11
ENDBRANCH   1  10
TORSDOF 13
ENDMDL
MODEL 7
REMARK VINA RESULT:    -3.953      1.119      2.259
REMARK INTER + INTRA:          -8.694
REMARK INTER:                  -7.432
REMARK INTRA:                  -1.262
REMARK UNBOUND:                -1.737
REMARK SMILES CCCCCCCCCCCCCCC(=O)[O-]
REMARK SMILES IDX 9 1 10 2 11 3 12 4 13 5 14 6 15 7 16 8 17 9 8 10 7 11 6 12
REMARK SMILES IDX 5 13 4 14 3 15 2 16 1 17
REMARK H PARENT
REMARK Flexibility Score: inf
ROOT
ATOM      1  C   UNL     1      33.764  32.366  23.821  1.00  0.00     0.000 C 
ENDROOT
BRANCH   1   2
ATOM      2  C   UNL     1      34.607  31.093  23.685  1.00  0.00     0.000 C 
BRANCH   2   3
ATOM      3  C   UNL     1      34.016  30.153  22.624  1.00  0.00     0.000 C 
BRANCH   3   4
ATOM      4  C   UNL     1      32.932  30.830  21.769  1.00  0.00     0.000 C 
BRANCH   4   5
ATOM      5  C   UNL     1      32.133  29.824  20.922  1.00  0.00     0.006 C 
BRANCH   5   6
ATOM      6  C   UNL     1      33.011  28.677  20.405  1.00  0.00     0.053 C 
BRANCH   6   7
ATOM      7  C   UNL     1      33.324  28.829  18.947  1.00  0.00     0.041 C 
ATOM      8  O   UNL     1      33.783  27.857  18.292  1.00  0.00    -0.550 OA
ATOM      9  O   UNL     1      33.081  30.037  18.308  1.00  0.00    -0.550 OA
ENDBRANCH   6   7
ENDBRANCH   5   6
ENDBRANCH   4   5
ENDBRANCH   3   4
ENDBRANCH   2   3
ENDBRANCH   1   2
BRANCH   1  10
ATOM     10  C   UNL     1      33.924  32.986  25.217  1.00  0.00     0.000 C 
BRANCH  10  11
ATOM     11  C   UNL     1      34.792  34.257  25.214  1.00  0.00    -0.000 C 
BRANCH  11  12
ATOM     12  C   UNL     1      34.894  34.980  26.570  1.00  0.00    -0.000 C 
BRANCH  12  13
ATOM     13  C   UNL     1      36.316  34.970  27.149  1.00  0.00    -0.000 C 
BRANCH  13  14
ATOM     14  C   UNL     1      36.796  33.533  27.401  1.00  0.00    -0.000 C 
BRANCH  14  15
ATOM     15  C   UNL     1      38.004  33.142  26.531  1.00  0.00    -0.000 C 
BRANCH  15  16
ATOM     16  C   UNL     1      37.729  32.025  25.509  1.00  0.00    -0.003 C 
ATOM     17  C   UNL     1      37.984  32.458  24.066  1.00  0.00     0.004 C 
ENDBRANCH  15  16
ENDBRANCH  14  15
ENDBRANCH  13  14
ENDBRANCH  12  13
ENDBRANCH  11  12
ENDBRANCH  10  11
ENDBRANCH   1  10
TORSDOF 13
ENDMDL
MODEL 8
REMARK VINA RESULT:    -3.930      4.110      7.173
REMARK INTER + INTRA:          -8.654
REMARK INTER:                  -6.617
REMARK INTRA:                  -2.037
REMARK UNBOUND:                -1.737
REMARK SMILES CCCCCCCCCCCCCCC(=O)[O-]
REMARK SMILES IDX 9 1 10 2 11 3 12 4 13 5 14 6 15 7 16 8 17 9 8 10 7 11 6 12
REMARK SMILES IDX 5 13 4 14 3 15 2 16 1 17
REMARK H PARENT
REMARK Flexibility Score: inf
ROOT
ATOM      1  C   UNL     1      37.238  31.258  24.495  1.00  0.00     0.000 C 
ENDROOT
BRANCH   1   2
ATOM      2  C   UNL     1      36.494  32.361  25.259  1.00  0.00     0.000 C 
BRANCH   2   3
ATOM      3  C   UNL     1      34.999  32.031  25.382  1.00  0.00     0.000 C 
BRANCH   3   4
ATOM      4  C   UNL     1      34.136  33.277  25.640  1.00  0.00     0.000 C 
BRANCH   4   5
ATOM      5  C   UNL     1      34.946  34.583  25.563  1.00  0.00     0.006 C 
BRANCH   5   6
ATOM      6  C   UNL     1      34.916  35.361  26.886  1.00  0.00     0.053 C 
BRANCH   6   7
ATOM      7  C   UNL     1      36.244  35.330  27.580  1.00  0.00     0.041 C 
ATOM      8  O   UNL     1      37.006  36.331  27.535  1.00  0.00    -0.550 OA
ATOM      9  O   UNL     1      36.625  34.206  28.299  1.00  0.00    -0.550 OA
ENDBRANCH   6   7
ENDBRANCH   5   6
ENDBRANCH   4   5
ENDBRANCH   3   4
ENDBRANCH   2   3
ENDBRANCH   1   2
BRANCH   1  10
ATOM     10  C   UNL     1      36.367  30.686  23.367  1.00  0.00     0.000 C 
BRANCH  10  11
ATOM     11  C   UNL     1      36.922  30.996  21.964  1.00  0.00    -0.000 C 
BRANCH  11  12
ATOM     12  C   UNL     1      35.988  31.824  21.063  1.00  0.00    -0.000 C 
BRANCH  12  13
ATOM     13  C   UNL     1      35.186  32.879  21.839  1.00  0.00    -0.000 C 
BRANCH  13  14
ATOM     14  C   UNL     1      33.698  32.823  21.464  1.00  0.00    -0.000 C 
BRANCH  14  15
ATOM     15  C   UNL     1      32.904  31.804  22.302  1.00  0.00    -0.000 C 
BRANCH  15  16
ATOM     16  C   UNL     1      32.487  30.531  21.544  1.00  0.00    -0.003 C 
ATOM     17  C   UNL     1      33.216  29.279  22.030  1.00  0.00     0.004 C 
ENDBRANCH  15  16
ENDBRANCH  14  15
ENDBRANCH  13  14
ENDBRANCH  12  13
ENDBRANCH  11  12
ENDBRANCH  10  11
ENDBRANCH   1  10
TORSDOF 13
ENDMDL
MODEL 9
REMARK VINA RESULT:    -3.891      1.429      2.032
REMARK INTER + INTRA:          -8.585
REMARK INTER:                  -7.728
REMARK INTRA:                  -0.857
REMARK UNBOUND:                -1.737
REMARK SMILES CCCCCCCCCCCCCCC(=O)[O-]
REMARK SMILES IDX 9 1 10 2 11 3 12 4 13 5 14 6 15 7 16 8 17 9 8 10 7 11 6 12
REMARK SMILES IDX 5 13 4 14 3 15 2 16 1 17
REMARK H PARENT
REMARK Flexibility Score: inf
ROOT
ATOM      1  C   UNL     1      34.741  31.030  23.524  1.00  0.00     0.000 C 
ENDROOT
BRANCH   1   2
ATOM      2  C   UNL     1      34.081  30.108  22.492  1.00  0.00     0.000 C 
BRANCH   2   3
ATOM      3  C   UNL     1      32.852  30.780  21.860  1.00  0.00     0.000 C 
BRANCH   3   4
ATOM      4  C   UNL     1      32.108  29.856  20.882  1.00  0.00     0.000 C 
BRANCH   4   5
ATOM      5  C   UNL     1      32.960  28.653  20.441  1.00  0.00     0.006 C 
BRANCH   5   6
ATOM      6  C   UNL     1      33.198  28.638  18.924  1.00  0.00     0.053 C 
BRANCH   6   7
ATOM      7  C   UNL     1      34.073  29.774  18.487  1.00  0.00     0.041 C 
ATOM      8  O   UNL     1      33.691  30.553  17.574  1.00  0.00    -0.550 OA
ATOM      9  O   UNL     1      35.296  29.987  19.108  1.00  0.00    -0.550 OA
ENDBRANCH   6   7
ENDBRANCH   5   6
ENDBRANCH   4   5
ENDBRANCH   3   4
ENDBRANCH   2   3
ENDBRANCH   1   2
BRANCH   1  10
ATOM     10  C   UNL     1      34.151  32.446  23.454  1.00  0.00     0.000 C 
BRANCH  10  11
ATOM     11  C   UNL     1      34.009  33.106  24.838  1.00  0.00    -0.000 C 
BRANCH  11  12
ATOM     12  C   UNL     1      34.794  32.419  25.970  1.00  0.00    -0.000 C 
BRANCH  12  13
ATOM     13  C   UNL     1      36.075  33.174  26.355  1.00  0.00    -0.000 C 
BRANCH  13  14
ATOM     14  C   UNL     1      35.743  34.527  26.999  1.00  0.00    -0.000 C 
BRANCH  14  15
ATOM     15  C   UNL     1      36.561  34.803  28.274  1.00  0.00    -0.000 C 
BRANCH  15  16
ATOM     16  C   UNL     1      35.882  35.742  29.286  1.00  0.00    -0.003 C 
ATOM     17  C   UNL     1      36.632  37.059  29.478  1.00  0.00     0.004 C 
ENDBRANCH  15  16
ENDBRANCH  14  15
ENDBRANCH  13  14
ENDBRANCH  12  13
ENDBRANCH  11  12
ENDBRANCH  10  11
ENDBRANCH   1  10
TORSDOF 13
ENDMDL
