MODEL 1
REMARK VINA RESULT:    -3.400      0.000      0.000
REMARK INTER + INTRA:          -4.787
REMARK INTER:                  -4.195
REMARK INTRA:                  -0.592
REMARK UNBOUND:                -0.592
REMARK SMILES CCCCC=CC(C)=O
REMARK SMILES IDX 4 1 3 2 2 3 1 4 5 5 6 6 7 7 9 8 8 9
REMARK H PARENT
REMARK Flexibility Score: inf
ROOT
ATOM      1  C   UNL     1      13.952  41.015  27.611  1.00  0.00     0.027 C 
ENDROOT
BRANCH   1   2
ATOM      2  C   UNL     1      12.854  39.947  27.743  1.00  0.00     0.004 C 
BRANCH   2   3
ATOM      3  C   UNL     1      13.336  38.552  27.315  1.00  0.00    -0.003 C 
ATOM      4  C   UNL     1      14.588  38.603  26.439  1.00  0.00     0.004 C 
ENDBRANCH   2   3
ENDBRANCH   1   2
BRANCH   1   5
ATOM      5  C   UNL     1      14.381  41.526  28.961  1.00  0.00    -0.023 C 
ATOM      6  C   UNL     1      15.495  41.170  29.621  1.00  0.00     0.042 C 
BRANCH   6   7
ATOM      7  C   UNL     1      16.541  40.234  29.146  1.00  0.00     0.152 C 
ATOM      8  O   UNL     1      17.463  40.606  28.372  1.00  0.00    -0.295 OA
ATOM      9  C   UNL     1      16.538  38.825  29.644  1.00  0.00     0.093 C 
ENDBRANCH   6   7
ENDBRANCH   1   5
TORSDOF 4
ENDMDL
MODEL 2
REMARK VINA RESULT:    -3.374      1.383      3.243
REMARK INTER + INTRA:          -4.755
REMARK INTER:                  -4.208
REMARK INTRA:                  -0.547
REMARK UNBOUND:                -0.592
REMARK SMILES CCCCC=CC(C)=O
REMARK SMILES IDX 4 1 3 2 2 3 1 4 5 5 6 6 7 7 9 8 8 9
REMARK H PARENT
REMARK Flexibility Score: inf
ROOT
ATOM      1  C   UNL     1      15.330  41.370  29.264  1.00  0.00     0.027 C 
ENDROOT
BRANCH   1   2
ATOM      2  C   UNL     1      15.565  40.266  30.308  1.00  0.00     0.004 C 
BRANCH   2   3
ATOM      3  C   UNL     1      16.768  39.376  29.961  1.00  0.00    -0.003 C 
ATOM      4  C   UNL     1      17.582  39.914  28.784  1.00  0.00     0.004 C 
ENDBRANCH   2   3
ENDBRANCH   1   2
BRANCH   1   5
ATOM      5  C   UNL     1      13.929  41.314  28.716  1.00  0.00    -0.023 C 
ATOM      6  C   UNL     1      13.472  40.433  27.811  1.00  0.00     0.042 C 
BRANCH   6   7
ATOM      7  C   UNL     1      14.237  39.324  27.195  1.00  0.00     0.152 C 
ATOM      8  O   UNL     1      15.120  39.531  26.321  1.00  0.00    -0.295 OA
ATOM      9  C   UNL     1      13.998  37.925  27.664  1.00  0.00     0.093 C 
ENDBRANCH   6   7
ENDBRANCH   1   5
TORSDOF 4
ENDMDL
MODEL 3
REMARK VINA RESULT:    -3.363     11.040     12.268
REMARK INTER + INTRA:          -4.742
REMARK INTER:                  -4.371
REMARK INTRA:                  -0.370
REMARK UNBOUND:                -0.592
REMARK SMILES CCCCC=CC(C)=O
REMARK SMILES IDX 4 1 3 2 2 3 1 4 5 5 6 6 7 7 9 8 8 9
REMARK H PARENT
REMARK Flexibility Score: inf
ROOT
ATOM      1  C   UNL     1      11.133  45.355  19.089  1.00  0.00     0.027 C 
ENDROOT
BRANCH   1   2
ATOM      2  C   UNL     1       9.884  46.206  19.376  1.00  0.00     0.004 C 
BRANCH   2   3
ATOM      3  C   UNL     1      10.190  47.711  19.390  1.00  0.00    -0.003 C 
ATOM      4  C   UNL     1       9.410  48.483  18.325  1.00  0.00     0.004 C 
ENDBRANCH   2   3
ENDBRANCH   1   2
BRANCH   1   5
ATOM      5  C   UNL     1      12.335  45.886  19.822  1.00  0.00    -0.023 C 
ATOM      6  C   UNL     1      13.550  46.103  19.290  1.00  0.00     0.042 C 
BRANCH   6   7
ATOM      7  C   UNL     1      13.944  45.896  17.877  1.00  0.00     0.152 C 
ATOM      8  O   UNL     1      14.455  44.815  17.482  1.00  0.00    -0.295 OA
ATOM      9  C   UNL     1      13.675  46.976  16.880  1.00  0.00     0.093 C 
ENDBRANCH   6   7
ENDBRANCH   1   5
TORSDOF 4
ENDMDL
MODEL 4
REMARK VINA RESULT:    -3.332      1.746      3.427
REMARK INTER + INTRA:          -4.703
REMARK INTER:                  -4.177
REMARK INTRA:                  -0.526
REMARK UNBOUND:                -0.592
REMARK SMILES CCCCC=CC(C)=O
REMARK SMILES IDX 4 1 3 2 2 3 1 4 5 5 6 6 7 7 9 8 8 9
REMARK H PARENT
REMARK Flexibility Score: inf
ROOT
ATOM      1  C   UNL     1      13.766  41.089  27.510  1.00  0.00     0.027 C 
ENDROOT
BRANCH   1   2
ATOM      2  C   UNL     1      14.097  41.738  28.865  1.00  0.00     0.004 C 
BRANCH   2   3
ATOM      3  C   UNL     1      15.512  41.389  29.352  1.00  0.00    -0.003 C 
ATOM      4  C   UNL     1      15.521  40.253  30.376  1.00  0.00     0.004 C 
ENDBRANCH   2   3
ENDBRANCH   1   2
BRANCH   1   5
ATOM      5  C   UNL     1      12.929  39.850  27.689  1.00  0.00    -0.023 C 
ATOM      6  C   UNL     1      13.288  38.602  27.345  1.00  0.00     0.042 C 
BRANCH   6   7
ATOM      7  C   UNL     1      14.582  38.186  26.755  1.00  0.00     0.152 C 
ATOM      8  O   UNL     1      14.798  38.252  25.516  1.00  0.00    -0.295 OA
ATOM      9  C   UNL     1      15.683  37.733  27.659  1.00  0.00     0.093 C 
ENDBRANCH   6   7
ENDBRANCH   1   5
TORSDOF 4
ENDMDL
MODEL 5
REMARK VINA RESULT:    -3.299     10.871     11.914
REMARK INTER + INTRA:          -4.663
REMARK INTER:                  -4.276
REMARK INTRA:                  -0.387
REMARK UNBOUND:                -0.592
REMARK SMILES CCCCC=CC(C)=O
REMARK SMILES IDX 4 1 3 2 2 3 1 4 5 5 6 6 7 7 9 8 8 9
REMARK H PARENT
REMARK Flexibility Score: inf
ROOT
ATOM      1  C   UNL     1      12.716  46.156  17.123  1.00  0.00     0.027 C 
ENDROOT
BRANCH   1   2
ATOM      2  C   UNL     1      11.819  46.667  18.263  1.00  0.00     0.004 C 
BRANCH   2   3
ATOM      3  C   UNL     1      11.428  45.553  19.247  1.00  0.00    -0.003 C 
ATOM      4  C   UNL     1       9.936  45.554  19.578  1.00  0.00     0.004 C 
ENDBRANCH   2   3
ENDBRANCH   1   2
BRANCH   1   5
ATOM      5  C   UNL     1      13.929  47.031  16.949  1.00  0.00    -0.023 C 
ATOM      6  C   UNL     1      15.111  46.871  17.566  1.00  0.00     0.042 C 
BRANCH   6   7
ATOM      7  C   UNL     1      15.474  45.789  18.510  1.00  0.00     0.152 C 
ATOM      8  O   UNL     1      15.977  44.703  18.115  1.00  0.00    -0.295 OA
ATOM      9  C   UNL     1      15.296  46.012  19.977  1.00  0.00     0.093 C 
ENDBRANCH   6   7
ENDBRANCH   1   5
TORSDOF 4
ENDMDL
MODEL 6
REMARK VINA RESULT:    -3.274     10.017     11.017
REMARK INTER + INTRA:          -4.631
REMARK INTER:                  -4.096
REMARK INTRA:                  -0.535
REMARK UNBOUND:                -0.592
REMARK SMILES CCCCC=CC(C)=O
REMARK SMILES IDX 4 1 3 2 2 3 1 4 5 5 6 6 7 7 9 8 8 9
REMARK H PARENT
REMARK Flexibility Score: inf
ROOT
ATOM      1  C   UNL     1      11.512  46.562  19.295  1.00  0.00     0.027 C 
ENDROOT
BRANCH   1   2
ATOM      2  C   UNL     1      10.098  46.005  19.529  1.00  0.00     0.004 C 
BRANCH   2   3
ATOM      3  C   UNL     1      10.110  44.679  20.305  1.00  0.00    -0.003 C 
ATOM      4  C   UNL     1       9.344  43.567  19.587  1.00  0.00     0.004 C 
ENDBRANCH   2   3
ENDBRANCH   1   2
BRANCH   1   5
ATOM      5  C   UNL     1      12.077  46.083  17.984  1.00  0.00    -0.023 C 
ATOM      6  C   UNL     1      12.983  45.103  17.828  1.00  0.00     0.042 C 
BRANCH   6   7
ATOM      7  C   UNL     1      13.583  44.277  18.901  1.00  0.00     0.152 C 
ATOM      8  O   UNL     1      14.437  44.746  19.700  1.00  0.00    -0.295 OA
ATOM      9  C   UNL     1      13.122  42.867  19.081  1.00  0.00     0.093 C 
ENDBRANCH   6   7
ENDBRANCH   1   5
TORSDOF 4
ENDMDL
MODEL 7
REMARK VINA RESULT:    -3.242     10.658     11.840
REMARK INTER + INTRA:          -4.591
REMARK INTER:                  -3.971
REMARK INTRA:                  -0.621
REMARK UNBOUND:                -0.592
REMARK SMILES CCCCC=CC(C)=O
REMARK SMILES IDX 4 1 3 2 2 3 1 4 5 5 6 6 7 7 9 8 8 9
REMARK H PARENT
REMARK Flexibility Score: inf
ROOT
ATOM      1  C   UNL     1      14.980  45.686  18.237  1.00  0.00     0.027 C 
ENDROOT
BRANCH   1   2
ATOM      2  C   UNL     1      14.823  46.975  17.414  1.00  0.00     0.004 C 
BRANCH   2   3
ATOM      3  C   UNL     1      13.591  46.940  16.496  1.00  0.00    -0.003 C 
ATOM      4  C   UNL     1      13.073  45.522  16.257  1.00  0.00     0.004 C 
ENDBRANCH   2   3
ENDBRANCH   1   2
BRANCH   1   5
ATOM      5  C   UNL     1      14.804  45.952  19.708  1.00  0.00    -0.023 C 
ATOM      6  C   UNL     1      13.657  45.834  20.398  1.00  0.00     0.042 C 
BRANCH   6   7
ATOM      7  C   UNL     1      12.349  45.389  19.865  1.00  0.00     0.152 C 
ATOM      8  O   UNL     1      12.060  44.168  19.747  1.00  0.00    -0.295 OA
ATOM      9  C   UNL     1      11.318  46.413  19.515  1.00  0.00     0.093 C 
ENDBRANCH   6   7
ENDBRANCH   1   5
TORSDOF 4
ENDMDL
MODEL 8
REMARK VINA RESULT:    -3.224      1.758      3.177
REMARK INTER + INTRA:          -4.570
REMARK INTER:                  -3.990
REMARK INTRA:                  -0.580
REMARK UNBOUND:                -0.592
REMARK SMILES CCCCC=CC(C)=O
REMARK SMILES IDX 4 1 3 2 2 3 1 4 5 5 6 6 7 7 9 8 8 9
REMARK H PARENT
REMARK Flexibility Score: inf
ROOT
ATOM      1  C   UNL     1      15.261  40.253  30.026  1.00  0.00     0.027 C 
ENDROOT
BRANCH   1   2
ATOM      2  C   UNL     1      15.284  41.569  29.230  1.00  0.00     0.004 C 
BRANCH   2   3
ATOM      3  C   UNL     1      13.959  41.837  28.500  1.00  0.00    -0.003 C 
ATOM      4  C   UNL     1      13.169  40.558  28.219  1.00  0.00     0.004 C 
ENDBRANCH   2   3
ENDBRANCH   1   2
BRANCH   1   5
ATOM      5  C   UNL     1      16.562  39.509  29.888  1.00  0.00    -0.023 C 
ATOM      6  C   UNL     1      16.886  38.668  28.891  1.00  0.00     0.042 C 
BRANCH   6   7
ATOM      7  C   UNL     1      16.051  38.329  27.716  1.00  0.00     0.152 C 
ATOM      8  O   UNL     1      15.191  37.409  27.756  1.00  0.00    -0.295 OA
ATOM      9  C   UNL     1      16.188  39.137  26.466  1.00  0.00     0.093 C 
ENDBRANCH   6   7
ENDBRANCH   1   5
TORSDOF 4
ENDMDL
MODEL 9
REMARK VINA RESULT:    -3.130     10.093     11.044
REMARK INTER + INTRA:          -4.453
REMARK INTER:                  -3.860
REMARK INTRA:                  -0.593
REMARK UNBOUND:                -0.592
REMARK SMILES CCCCC=CC(C)=O
REMARK SMILES IDX 4 1 3 2 2 3 1 4 5 5 6 6 7 7 9 8 8 9
REMARK H PARENT
REMARK Flexibility Score: inf
ROOT
ATOM      1  C   UNL     1      12.870  46.256  19.583  1.00  0.00     0.027 C 
ENDROOT
BRANCH   1   2
ATOM      2  C   UNL     1      12.092  45.571  18.447  1.00  0.00     0.004 C 
BRANCH   2   3
ATOM      3  C   UNL     1      12.860  45.587  17.117  1.00  0.00    -0.003 C 
ATOM      4  C   UNL     1      13.541  46.928  16.843  1.00  0.00     0.004 C 
ENDBRANCH   2   3
ENDBRANCH   1   2
BRANCH   1   5
ATOM      5  C   UNL     1      13.491  45.243  20.507  1.00  0.00    -0.023 C 
ATOM      6  C   UNL     1      14.761  44.807  20.458  1.00  0.00     0.042 C 
BRANCH   6   7
ATOM      7  C   UNL     1      15.812  45.254  19.514  1.00  0.00     0.152 C 
ATOM      8  O   UNL     1      16.439  46.334  19.682  1.00  0.00    -0.295 OA
ATOM      9  C   UNL     1      16.182  44.374  18.365  1.00  0.00     0.093 C 
ENDBRANCH   6   7
ENDBRANCH   1   5
TORSDOF 4
ENDMDL
