MODEL 1
REMARK VINA RESULT:    -2.954      0.000      0.000
REMARK INTER + INTRA:          -3.933
REMARK INTER:                  -3.559
REMARK INTRA:                  -0.374
REMARK UNBOUND:                -0.374
REMARK SMILES NC(=O)C[C@@H]([NH3+])C(=O)[O-]
REMARK SMILES IDX 4 1 5 2 6 3 7 7 8 8 9 9 2 10 3 11 1 12
REMARK H PARENT 6 4 6 5 6 6 1 13 1 14
REMARK Flexibility Score: inf
ROOT
ATOM      1  C   UNL     1     206.673 187.271  -3.115  1.00  0.00     0.171 C 
ENDROOT
BRANCH   1   2
ATOM      2  C   UNL     1     207.702 186.906  -4.203  1.00  0.00     0.237 C 
BRANCH   2   3
ATOM      3  N   UNL     1     207.222 187.275  -5.542  1.00  0.00    -0.350 N 
ATOM      4  H   UNL     1     207.407 186.498  -6.216  1.00  0.00     0.345 HD
ATOM      5  H   UNL     1     207.735 188.121  -5.882  1.00  0.00     0.345 HD
ATOM      6  H   UNL     1     206.196 187.481  -5.525  1.00  0.00     0.345 HD
ENDBRANCH   2   3
BRANCH   2   7
ATOM      7  C   UNL     1     209.009 187.595  -3.915  1.00  0.00     0.100 C 
ATOM      8  O   UNL     1     209.178 188.797  -4.249  1.00  0.00    -0.544 OA
ATOM      9  O   UNL     1     210.044 186.904  -3.295  1.00  0.00    -0.544 OA
ENDBRANCH   2   7
ENDBRANCH   1   2
BRANCH   1  10
ATOM     10  C   UNL     1     206.077 188.629  -3.347  1.00  0.00     0.223 C 
ATOM     11  O   UNL     1     205.160 188.772  -4.199  1.00  0.00    -0.275 OA
ATOM     12  N   UNL     1     206.564 189.767  -2.634  1.00  0.00    -0.369 N 
ATOM     13  H   UNL     1     207.339 189.671  -1.942  1.00  0.00     0.159 HD
ATOM     14  H   UNL     1     206.154 190.711  -2.808  1.00  0.00     0.159 HD
ENDBRANCH   1  10
TORSDOF 4
ENDMDL
MODEL 2
REMARK VINA RESULT:    -2.831      1.877      3.942
REMARK INTER + INTRA:          -3.784
REMARK INTER:                  -3.498
REMARK INTRA:                  -0.286
REMARK UNBOUND:                -0.374
REMARK SMILES NC(=O)C[C@@H]([NH3+])C(=O)[O-]
REMARK SMILES IDX 4 1 5 2 6 3 7 7 8 8 9 9 2 10 3 11 1 12
REMARK H PARENT 6 4 6 5 6 6 1 13 1 14
REMARK Flexibility Score: inf
ROOT
ATOM      1  C   UNL     1     206.109 188.285  -3.664  1.00  0.00     0.171 C 
ENDROOT
BRANCH   1   2
ATOM      2  C   UNL     1     206.701 189.313  -2.679  1.00  0.00     0.237 C 
BRANCH   2   3
ATOM      3  N   UNL     1     208.020 189.785  -3.124  1.00  0.00    -0.350 N 
ATOM      4  H   UNL     1     208.743 189.050  -2.949  1.00  0.00     0.345 HD
ATOM      5  H   UNL     1     208.293 190.637  -2.580  1.00  0.00     0.345 HD
ATOM      6  H   UNL     1     208.006 190.019  -4.144  1.00  0.00     0.345 HD
ENDBRANCH   2   3
BRANCH   2   7
ATOM      7  C   UNL     1     205.758 190.477  -2.534  1.00  0.00     0.100 C 
ATOM      8  O   UNL     1     204.946 190.752  -3.457  1.00  0.00    -0.544 OA
ATOM      9  O   UNL     1     205.788 191.266  -1.390  1.00  0.00    -0.544 OA
ENDBRANCH   2   7
ENDBRANCH   1   2
BRANCH   1  10
ATOM     10  C   UNL     1     207.165 187.370  -4.213  1.00  0.00     0.223 C 
ATOM     11  O   UNL     1     208.028 186.876  -3.439  1.00  0.00    -0.275 OA
ATOM     12  N   UNL     1     207.220 187.081  -5.610  1.00  0.00    -0.369 N 
ATOM     13  H   UNL     1     206.527 187.500  -6.269  1.00  0.00     0.159 HD
ATOM     14  H   UNL     1     207.962 186.453  -5.989  1.00  0.00     0.159 HD
ENDBRANCH   1  10
TORSDOF 4
ENDMDL
MODEL 3
REMARK VINA RESULT:    -2.688     20.092     21.159
REMARK INTER + INTRA:          -3.612
REMARK INTER:                  -3.260
REMARK INTRA:                  -0.352
REMARK UNBOUND:                -0.374
REMARK SMILES NC(=O)C[C@@H]([NH3+])C(=O)[O-]
REMARK SMILES IDX 4 1 5 2 6 3 7 7 8 8 9 9 2 10 3 11 1 12
REMARK H PARENT 6 4 6 5 6 6 1 13 1 14
REMARK Flexibility Score: inf
ROOT
ATOM      1  C   UNL     1     220.906 203.846  -5.492  1.00  0.00     0.171 C 
ENDROOT
BRANCH   1   2
ATOM      2  C   UNL     1     220.956 205.259  -6.106  1.00  0.00     0.237 C 
BRANCH   2   3
ATOM      3  N   UNL     1     221.851 205.308  -7.270  1.00  0.00    -0.350 N 
ATOM      4  H   UNL     1     221.354 204.961  -8.121  1.00  0.00     0.345 HD
ATOM      5  H   UNL     1     222.678 204.687  -7.109  1.00  0.00     0.345 HD
ATOM      6  H   UNL     1     222.185 206.286  -7.440  1.00  0.00     0.345 HD
ENDBRANCH   2   3
BRANCH   2   7
ATOM      7  C   UNL     1     219.569 205.687  -6.503  1.00  0.00     0.100 C 
ATOM      8  O   UNL     1     218.651 205.737  -5.642  1.00  0.00    -0.544 OA
ATOM      9  O   UNL     1     219.287 206.014  -7.825  1.00  0.00    -0.544 OA
ENDBRANCH   2   7
ENDBRANCH   1   2
BRANCH   1  10
ATOM     10  C   UNL     1     220.367 202.837  -6.463  1.00  0.00     0.223 C 
ATOM     11  O   UNL     1     220.927 202.685  -7.582  1.00  0.00    -0.275 OA
ATOM     12  N   UNL     1     219.205 202.071  -6.144  1.00  0.00    -0.369 N 
ATOM     13  H   UNL     1     218.715 202.201  -5.232  1.00  0.00     0.159 HD
ATOM     14  H   UNL     1     218.827 201.378  -6.828  1.00  0.00     0.159 HD
ENDBRANCH   1  10
TORSDOF 4
ENDMDL
MODEL 4
REMARK VINA RESULT:    -2.683     20.391     21.288
REMARK INTER + INTRA:          -3.606
REMARK INTER:                  -3.209
REMARK INTRA:                  -0.397
REMARK UNBOUND:                -0.374
REMARK SMILES NC(=O)C[C@@H]([NH3+])C(=O)[O-]
REMARK SMILES IDX 4 1 5 2 6 3 7 7 8 8 9 9 2 10 3 11 1 12
REMARK H PARENT 6 4 6 5 6 6 1 13 1 14
REMARK Flexibility Score: inf
ROOT
ATOM      1  C   UNL     1     219.560 205.649  -7.040  1.00  0.00     0.171 C 
ENDROOT
BRANCH   1   2
ATOM      2  C   UNL     1     220.927 204.945  -7.153  1.00  0.00     0.237 C 
BRANCH   2   3
ATOM      3  N   UNL     1     221.915 205.542  -6.244  1.00  0.00    -0.350 N 
ATOM      4  H   UNL     1     222.769 204.940  -6.197  1.00  0.00     0.345 HD
ATOM      5  H   UNL     1     221.517 205.606  -5.279  1.00  0.00     0.345 HD
ATOM      6  H   UNL     1     222.186 206.500  -6.567  1.00  0.00     0.345 HD
ENDBRANCH   2   3
BRANCH   2   7
ATOM      7  C   UNL     1     220.767 203.479  -6.852  1.00  0.00     0.100 C 
ATOM      8  O   UNL     1     220.565 202.659  -7.786  1.00  0.00    -0.544 OA
ATOM      9  O   UNL     1     220.824 203.022  -5.540  1.00  0.00    -0.544 OA
ENDBRANCH   2   7
ENDBRANCH   1   2
BRANCH   1  10
ATOM     10  C   UNL     1     219.170 205.879  -5.609  1.00  0.00     0.223 C 
ATOM     11  O   UNL     1     219.663 206.849  -4.975  1.00  0.00    -0.275 OA
ATOM     12  N   UNL     1     218.270 204.987  -4.950  1.00  0.00    -0.369 N 
ATOM     13  H   UNL     1     217.870 204.165  -5.453  1.00  0.00     0.159 HD
ATOM     14  H   UNL     1     218.011 205.145  -3.951  1.00  0.00     0.159 HD
ENDBRANCH   1  10
TORSDOF 4
ENDMDL
MODEL 5
REMARK VINA RESULT:    -2.678      1.699      3.427
REMARK INTER + INTRA:          -3.600
REMARK INTER:                  -3.384
REMARK INTRA:                  -0.216
REMARK UNBOUND:                -0.374
REMARK SMILES NC(=O)C[C@@H]([NH3+])C(=O)[O-]
REMARK SMILES IDX 4 1 5 2 6 3 7 7 8 8 9 9 2 10 3 11 1 12
REMARK H PARENT 6 4 6 5 6 6 1 13 1 14
REMARK Flexibility Score: inf
ROOT
ATOM      1  C   UNL     1     208.999 187.076  -3.763  1.00  0.00     0.171 C 
ENDROOT
BRANCH   1   2
ATOM      2  C   UNL     1     207.768 187.717  -4.432  1.00  0.00     0.237 C 
BRANCH   2   3
ATOM      3  N   UNL     1     207.248 186.877  -5.520  1.00  0.00    -0.350 N 
ATOM      4  H   UNL     1     207.169 187.437  -6.400  1.00  0.00     0.345 HD
ATOM      5  H   UNL     1     206.292 186.530  -5.275  1.00  0.00     0.345 HD
ATOM      6  H   UNL     1     207.878 186.058  -5.688  1.00  0.00     0.345 HD
ENDBRANCH   2   3
BRANCH   2   7
ATOM      7  C   UNL     1     206.695 187.950  -3.403  1.00  0.00     0.100 C 
ATOM      8  O   UNL     1     206.598 189.067  -2.830  1.00  0.00    -0.544 OA
ATOM      9  O   UNL     1     205.815 186.928  -3.063  1.00  0.00    -0.544 OA
ENDBRANCH   2   7
ENDBRANCH   1   2
BRANCH   1  10
ATOM     10  C   UNL     1     210.087 188.082  -3.522  1.00  0.00     0.223 C 
ATOM     11  O   UNL     1     211.284 187.700  -3.437  1.00  0.00    -0.275 OA
ATOM     12  N   UNL     1     209.772 189.465  -3.355  1.00  0.00    -0.369 N 
ATOM     13  H   UNL     1     208.783 189.796  -3.399  1.00  0.00     0.159 HD
ATOM     14  H   UNL     1     210.531 190.159  -3.177  1.00  0.00     0.159 HD
ENDBRANCH   1  10
TORSDOF 4
ENDMDL
MODEL 6
REMARK VINA RESULT:    -2.646     19.694     20.706
REMARK INTER + INTRA:          -3.562
REMARK INTER:                  -3.164
REMARK INTRA:                  -0.398
REMARK UNBOUND:                -0.374
REMARK SMILES NC(=O)C[C@@H]([NH3+])C(=O)[O-]
REMARK SMILES IDX 4 1 5 2 6 3 7 7 8 8 9 9 2 10 3 11 1 12
REMARK H PARENT 6 4 6 5 6 6 1 13 1 14
REMARK Flexibility Score: inf
ROOT
ATOM      1  C   UNL     1     221.009 205.015  -6.121  1.00  0.00     0.171 C 
ENDROOT
BRANCH   1   2
ATOM      2  C   UNL     1     220.783 203.631  -5.481  1.00  0.00     0.237 C 
BRANCH   2   3
ATOM      3  N   UNL     1     219.968 203.729  -4.262  1.00  0.00    -0.350 N 
ATOM      4  H   UNL     1     219.095 203.163  -4.368  1.00  0.00     0.345 HD
ATOM      5  H   UNL     1     219.686 204.723  -4.103  1.00  0.00     0.345 HD
ATOM      6  H   UNL     1     220.502 203.385  -3.430  1.00  0.00     0.345 HD
ENDBRANCH   2   3
BRANCH   2   7
ATOM      7  C   UNL     1     220.120 202.716  -6.474  1.00  0.00     0.100 C 
ATOM      8  O   UNL     1     219.245 201.894  -6.093  1.00  0.00    -0.544 OA
ATOM      9  O   UNL     1     220.480 202.758  -7.816  1.00  0.00    -0.544 OA
ENDBRANCH   2   7
ENDBRANCH   1   2
BRANCH   1  10
ATOM     10  C   UNL     1     219.711 205.685  -6.466  1.00  0.00     0.223 C 
ATOM     11  O   UNL     1     218.927 206.041  -5.547  1.00  0.00    -0.275 OA
ATOM     12  N   UNL     1     219.342 205.892  -7.830  1.00  0.00    -0.369 N 
ATOM     13  H   UNL     1     219.968 205.583  -8.605  1.00  0.00     0.159 HD
ATOM     14  H   UNL     1     218.433 206.349  -8.066  1.00  0.00     0.159 HD
ENDBRANCH   1  10
TORSDOF 4
ENDMDL
MODEL 7
REMARK VINA RESULT:    -2.642      2.273      3.187
REMARK INTER + INTRA:          -3.557
REMARK INTER:                  -3.292
REMARK INTRA:                  -0.265
REMARK UNBOUND:                -0.374
REMARK SMILES NC(=O)C[C@@H]([NH3+])C(=O)[O-]
REMARK SMILES IDX 4 1 5 2 6 3 7 7 8 8 9 9 2 10 3 11 1 12
REMARK H PARENT 6 4 6 5 6 6 1 13 1 14
REMARK Flexibility Score: inf
ROOT
ATOM      1  C   UNL     1     205.542 189.823  -2.695  1.00  0.00     0.171 C 
ENDROOT
BRANCH   1   2
ATOM      2  C   UNL     1     206.876 189.182  -3.127  1.00  0.00     0.237 C 
BRANCH   2   3
ATOM      3  N   UNL     1     207.965 189.536  -2.206  1.00  0.00    -0.350 N 
ATOM      4  H   UNL     1     208.503 188.680  -1.941  1.00  0.00     0.345 HD
ATOM      5  H   UNL     1     207.569 189.949  -1.330  1.00  0.00     0.345 HD
ATOM      6  H   UNL     1     208.614 190.228  -2.649  1.00  0.00     0.345 HD
ENDBRANCH   2   3
BRANCH   2   7
ATOM      7  C   UNL     1     206.720 187.686  -3.192  1.00  0.00     0.100 C 
ATOM      8  O   UNL     1     205.592 187.158  -3.005  1.00  0.00    -0.544 OA
ATOM      9  O   UNL     1     207.823 186.877  -3.442  1.00  0.00    -0.544 OA
ENDBRANCH   2   7
ENDBRANCH   1   2
BRANCH   1  10
ATOM     10  C   UNL     1     205.454 191.260  -3.119  1.00  0.00     0.223 C 
ATOM     11  O   UNL     1     206.413 192.041  -2.881  1.00  0.00    -0.275 OA
ATOM     12  N   UNL     1     204.279 191.757  -3.760  1.00  0.00    -0.369 N 
ATOM     13  H   UNL     1     203.466 191.130  -3.944  1.00  0.00     0.159 HD
ATOM     14  H   UNL     1     204.219 192.760  -4.043  1.00  0.00     0.159 HD
ENDBRANCH   1  10
TORSDOF 4
ENDMDL
MODEL 8
REMARK VINA RESULT:    -2.626      2.076      2.364
REMARK INTER + INTRA:          -3.538
REMARK INTER:                  -3.271
REMARK INTRA:                  -0.267
REMARK UNBOUND:                -0.374
REMARK SMILES NC(=O)C[C@@H]([NH3+])C(=O)[O-]
REMARK SMILES IDX 4 1 5 2 6 3 7 7 8 8 9 9 2 10 3 11 1 12
REMARK H PARENT 6 4 6 5 6 6 1 13 1 14
REMARK Flexibility Score: inf
ROOT
ATOM      1  C   UNL     1     206.017 189.332  -3.258  1.00  0.00     0.171 C 
ENDROOT
BRANCH   1   2
ATOM      2  C   UNL     1     206.730 187.978  -3.069  1.00  0.00     0.237 C 
BRANCH   2   3
ATOM      3  N   UNL     1     205.766 186.875  -2.949  1.00  0.00    -0.350 N 
ATOM      4  H   UNL     1     205.171 187.009  -2.101  1.00  0.00     0.345 HD
ATOM      5  H   UNL     1     206.277 185.968  -2.842  1.00  0.00     0.345 HD
ATOM      6  H   UNL     1     205.153 186.825  -3.796  1.00  0.00     0.345 HD
ENDBRANCH   2   3
BRANCH   2   7
ATOM      7  C   UNL     1     207.658 187.729  -4.227  1.00  0.00     0.100 C 
ATOM      8  O   UNL     1     208.777 188.306  -4.278  1.00  0.00    -0.544 OA
ATOM      9  O   UNL     1     207.282 186.875  -5.258  1.00  0.00    -0.544 OA
ENDBRANCH   2   7
ENDBRANCH   1   2
BRANCH   1  10
ATOM     10  C   UNL     1     206.566 190.381  -2.336  1.00  0.00     0.223 C 
ATOM     11  O   UNL     1     205.777 191.089  -1.655  1.00  0.00    -0.275 OA
ATOM     12  N   UNL     1     207.973 190.607  -2.249  1.00  0.00    -0.369 N 
ATOM     13  H   UNL     1     208.640 190.046  -2.823  1.00  0.00     0.159 HD
ATOM     14  H   UNL     1     208.349 191.345  -1.614  1.00  0.00     0.159 HD
ENDBRANCH   1  10
TORSDOF 4
ENDMDL
MODEL 9
REMARK VINA RESULT:    -2.596      2.196      3.140
REMARK INTER + INTRA:          -3.501
REMARK INTER:                  -3.234
REMARK INTRA:                  -0.266
REMARK UNBOUND:                -0.374
REMARK SMILES NC(=O)C[C@@H]([NH3+])C(=O)[O-]
REMARK SMILES IDX 4 1 5 2 6 3 7 7 8 8 9 9 2 10 3 11 1 12
REMARK H PARENT 6 4 6 5 6 6 1 13 1 14
REMARK Flexibility Score: inf
ROOT
ATOM      1  C   UNL     1     206.871 187.768  -3.135  1.00  0.00     0.171 C 
ENDROOT
BRANCH   1   2
ATOM      2  C   UNL     1     206.913 189.309  -3.116  1.00  0.00     0.237 C 
BRANCH   2   3
ATOM      3  N   UNL     1     205.591 189.880  -2.827  1.00  0.00    -0.350 N 
ATOM      4  H   UNL     1     205.016 189.197  -2.283  1.00  0.00     0.345 HD
ATOM      5  H   UNL     1     205.087 190.080  -3.722  1.00  0.00     0.345 HD
ATOM      6  H   UNL     1     205.682 190.767  -2.279  1.00  0.00     0.345 HD
ENDBRANCH   2   3
BRANCH   2   7
ATOM      7  C   UNL     1     207.913 189.775  -2.092  1.00  0.00     0.100 C 
ATOM      8  O   UNL     1     207.529 190.419  -1.080  1.00  0.00    -0.544 OA
ATOM      9  O   UNL     1     209.267 189.514  -2.264  1.00  0.00    -0.544 OA
ENDBRANCH   2   7
ENDBRANCH   1   2
BRANCH   1  10
ATOM     10  C   UNL     1     207.743 187.202  -4.217  1.00  0.00     0.223 C 
ATOM     11  O   UNL     1     207.242 186.905  -5.334  1.00  0.00    -0.275 OA
ATOM     12  N   UNL     1     209.132 186.966  -3.981  1.00  0.00    -0.369 N 
ATOM     13  H   UNL     1     209.559 187.183  -3.054  1.00  0.00     0.159 HD
ATOM     14  H   UNL     1     209.732 186.562  -4.733  1.00  0.00     0.159 HD
ENDBRANCH   1  10
TORSDOF 4
ENDMDL
