MODEL 1
REMARK VINA RESULT:    -0.810      0.000      0.000
REMARK INTER + INTRA:          -3.435
REMARK INTER:                  -1.378
REMARK INTRA:                  -2.058
REMARK UNBOUND:                -2.058
REMARK SMILES CCCCCCCCCCCCCC(=O)[O-]
REMARK SMILES IDX 8 1 9 2 10 3 11 4 12 5 13 6 14 7 15 8 16 9 7 10 6 11 5 12
REMARK SMILES IDX 4 13 3 14 2 15 1 16
REMARK H PARENT
REMARK Flexibility Score: inf
ROOT
ATOM      1  C   UNL     1      36.403   4.639  40.223  1.00  0.00     0.000 C 
ENDROOT
BRANCH   1   2
ATOM      2  C   UNL     1      37.228   5.109  41.434  1.00  0.00     0.000 C 
BRANCH   2   3
ATOM      3  C   UNL     1      38.734   5.181  41.128  1.00  0.00     0.000 C 
BRANCH   3   4
ATOM      4  C   UNL     1      39.022   5.327  39.623  1.00  0.00     0.000 C 
BRANCH   4   5
ATOM      5  C   UNL     1      40.509   5.117  39.279  1.00  0.00     0.006 C 
BRANCH   5   6
ATOM      6  C   UNL     1      40.761   4.531  37.881  1.00  0.00     0.053 C 
BRANCH   6   7
ATOM      7  C   UNL     1      41.879   3.535  37.883  1.00  0.00     0.041 C 
ATOM      8  O   UNL     1      42.293   3.048  38.967  1.00  0.00    -0.550 OA
ATOM      9  O   UNL     1      42.443   3.119  36.683  1.00  0.00    -0.550 OA
ENDBRANCH   6   7
ENDBRANCH   5   6
ENDBRANCH   4   5
ENDBRANCH   3   4
ENDBRANCH   2   3
ENDBRANCH   1   2
BRANCH   1  10
ATOM     10  C   UNL     1      35.564   3.384  40.523  1.00  0.00     0.000 C 
BRANCH  10  11
ATOM     11  C   UNL     1      35.646   2.867  41.974  1.00  0.00    -0.000 C 
BRANCH  11  12
ATOM     12  C   UNL     1      35.958   1.367  42.118  1.00  0.00    -0.000 C 
BRANCH  12  13
ATOM     13  C   UNL     1      37.169   0.876  41.301  1.00  0.00    -0.000 C 
BRANCH  13  14
ATOM     14  C   UNL     1      38.528   1.351  41.860  1.00  0.00    -0.000 C 
BRANCH  14  15
ATOM     15  C   UNL     1      39.558   1.618  40.753  1.00  0.00    -0.003 C 
ATOM     16  C   UNL     1      38.904   1.593  39.375  1.00  0.00     0.004 C 
ENDBRANCH  14  15
ENDBRANCH  13  14
ENDBRANCH  12  13
ENDBRANCH  11  12
ENDBRANCH  10  11
ENDBRANCH   1  10
TORSDOF 12
ENDMDL
MODEL 2
REMARK VINA RESULT:    -0.780      4.512      5.549
REMARK INTER + INTRA:          -3.385
REMARK INTER:                  -1.275
REMARK INTRA:                  -2.110
REMARK UNBOUND:                -2.058
REMARK SMILES CCCCCCCCCCCCCC(=O)[O-]
REMARK SMILES IDX 8 1 9 2 10 3 11 4 12 5 13 6 14 7 15 8 16 9 7 10 6 11 5 12
REMARK SMILES IDX 4 13 3 14 2 15 1 16
REMARK H PARENT
REMARK Flexibility Score: inf
ROOT
ATOM      1  C   UNL     1      34.352   3.182  38.308  1.00  0.00     0.000 C 
ENDROOT
BRANCH   1   2
ATOM      2  C   UNL     1      35.885   3.256  38.208  1.00  0.00     0.000 C 
BRANCH   2   3
ATOM      3  C   UNL     1      36.433   4.647  38.572  1.00  0.00     0.000 C 
BRANCH   3   4
ATOM      4  C   UNL     1      35.318   5.695  38.729  1.00  0.00     0.000 C 
BRANCH   4   5
ATOM      5  C   UNL     1      35.781   6.945  39.501  1.00  0.00     0.006 C 
BRANCH   5   6
ATOM      6  C   UNL     1      35.225   7.051  40.931  1.00  0.00     0.053 C 
BRANCH   6   7
ATOM      7  C   UNL     1      33.735   7.187  40.945  1.00  0.00     0.041 C 
ATOM      8  O   UNL     1      33.180   8.145  40.344  1.00  0.00    -0.550 OA
ATOM      9  O   UNL     1      32.954   6.239  41.594  1.00  0.00    -0.550 OA
ENDBRANCH   6   7
ENDBRANCH   5   6
ENDBRANCH   4   5
ENDBRANCH   3   4
ENDBRANCH   2   3
ENDBRANCH   1   2
BRANCH   1  10
ATOM     10  C   UNL     1      33.870   2.168  39.362  1.00  0.00     0.000 C 
BRANCH  10  11
ATOM     11  C   UNL     1      33.389   2.781  40.694  1.00  0.00    -0.000 C 
BRANCH  11  12
ATOM     12  C   UNL     1      34.330   2.561  41.892  1.00  0.00    -0.000 C 
BRANCH  12  13
ATOM     13  C   UNL     1      35.373   3.673  42.109  1.00  0.00    -0.000 C 
BRANCH  13  14
ATOM     14  C   UNL     1      36.832   3.202  41.921  1.00  0.00    -0.000 C 
BRANCH  14  15
ATOM     15  C   UNL     1      36.927   1.712  41.563  1.00  0.00    -0.003 C 
ATOM     16  C   UNL     1      38.111   1.442  40.638  1.00  0.00     0.004 C 
ENDBRANCH  14  15
ENDBRANCH  13  14
ENDBRANCH  12  13
ENDBRANCH  11  12
ENDBRANCH  10  11
ENDBRANCH   1  10
TORSDOF 12
ENDMDL
MODEL 3
REMARK VINA RESULT:    -0.763      1.887      2.958
REMARK INTER + INTRA:          -3.356
REMARK INTER:                  -1.378
REMARK INTRA:                  -1.978
REMARK UNBOUND:                -2.058
REMARK SMILES CCCCCCCCCCCCCC(=O)[O-]
REMARK SMILES IDX 8 1 9 2 10 3 11 4 12 5 13 6 14 7 15 8 16 9 7 10 6 11 5 12
REMARK SMILES IDX 4 13 3 14 2 15 1 16
REMARK H PARENT
REMARK Flexibility Score: inf
ROOT
ATOM      1  C   UNL     1      37.089   4.302  38.429  1.00  0.00     0.000 C 
ENDROOT
BRANCH   1   2
ATOM      2  C   UNL     1      38.608   4.471  38.253  1.00  0.00     0.000 C 
BRANCH   2   3
ATOM      3  C   UNL     1      39.232   5.355  39.345  1.00  0.00     0.000 C 
BRANCH   3   4
ATOM      4  C   UNL     1      40.623   4.862  39.779  1.00  0.00     0.000 C 
BRANCH   4   5
ATOM      5  C   UNL     1      40.560   3.600  40.659  1.00  0.00     0.006 C 
BRANCH   5   6
ATOM      6  C   UNL     1      41.110   2.330  39.990  1.00  0.00     0.053 C 
BRANCH   6   7
ATOM      7  C   UNL     1      42.393   1.877  40.616  1.00  0.00     0.041 C 
ATOM      8  O   UNL     1      42.761   2.350  41.723  1.00  0.00    -0.550 OA
ATOM      9  O   UNL     1      43.167   0.906  39.992  1.00  0.00    -0.550 OA
ENDBRANCH   6   7
ENDBRANCH   5   6
ENDBRANCH   4   5
ENDBRANCH   3   4
ENDBRANCH   2   3
ENDBRANCH   1   2
BRANCH   1  10
ATOM     10  C   UNL     1      36.648   2.826  38.438  1.00  0.00     0.000 C 
BRANCH  10  11
ATOM     11  C   UNL     1      37.569   1.869  39.224  1.00  0.00    -0.000 C 
BRANCH  11  12
ATOM     12  C   UNL     1      36.876   1.064  40.338  1.00  0.00    -0.000 C 
BRANCH  12  13
ATOM     13  C   UNL     1      36.379   1.903  41.531  1.00  0.00    -0.000 C 
BRANCH  13  14
ATOM     14  C   UNL     1      37.455   2.840  42.123  1.00  0.00    -0.000 C 
BRANCH  14  15
ATOM     15  C   UNL     1      37.035   4.316  42.086  1.00  0.00    -0.003 C 
ATOM     16  C   UNL     1      35.527   4.454  41.897  1.00  0.00     0.004 C 
ENDBRANCH  14  15
ENDBRANCH  13  14
ENDBRANCH  12  13
ENDBRANCH  11  12
ENDBRANCH  10  11
ENDBRANCH   1  10
TORSDOF 12
ENDMDL
MODEL 4
REMARK VINA RESULT:    -0.758      2.054      3.005
REMARK INTER + INTRA:          -3.348
REMARK INTER:                  -1.180
REMARK INTRA:                  -2.168
REMARK UNBOUND:                -2.058
REMARK SMILES CCCCCCCCCCCCCC(=O)[O-]
REMARK SMILES IDX 8 1 9 2 10 3 11 4 12 5 13 6 14 7 15 8 16 9 7 10 6 11 5 12
REMARK SMILES IDX 4 13 3 14 2 15 1 16
REMARK H PARENT
REMARK Flexibility Score: inf
ROOT
ATOM      1  C   UNL     1      37.453   4.572  37.938  1.00  0.00     0.000 C 
ENDROOT
BRANCH   1   2
ATOM      2  C   UNL     1      38.726   5.421  38.101  1.00  0.00     0.000 C 
BRANCH   2   3
ATOM      3  C   UNL     1      38.537   6.579  39.096  1.00  0.00     0.000 C 
BRANCH   3   4
ATOM      4  C   UNL     1      39.282   6.343  40.422  1.00  0.00     0.000 C 
BRANCH   4   5
ATOM      5  C   UNL     1      40.594   5.559  40.235  1.00  0.00     0.006 C 
BRANCH   5   6
ATOM      6  C   UNL     1      41.298   5.178  41.547  1.00  0.00     0.053 C 
BRANCH   6   7
ATOM      7  C   UNL     1      42.390   4.177  41.329  1.00  0.00     0.041 C 
ATOM      8  O   UNL     1      43.591   4.552  41.266  1.00  0.00    -0.550 OA
ATOM      9  O   UNL     1      42.086   2.825  41.227  1.00  0.00    -0.550 OA
ENDBRANCH   6   7
ENDBRANCH   5   6
ENDBRANCH   4   5
ENDBRANCH   3   4
ENDBRANCH   2   3
ENDBRANCH   1   2
BRANCH   1  10
ATOM     10  C   UNL     1      36.199   5.259  38.508  1.00  0.00     0.000 C 
BRANCH  10  11
ATOM     11  C   UNL     1      35.535   4.535  39.697  1.00  0.00    -0.000 C 
BRANCH  11  12
ATOM     12  C   UNL     1      35.612   5.281  41.042  1.00  0.00    -0.000 C 
BRANCH  12  13
ATOM     13  C   UNL     1      36.461   4.585  42.122  1.00  0.00    -0.000 C 
BRANCH  13  14
ATOM     14  C   UNL     1      36.837   3.128  41.772  1.00  0.00    -0.000 C 
BRANCH  14  15
ATOM     15  C   UNL     1      38.355   2.915  41.690  1.00  0.00    -0.003 C 
ATOM     16  C   UNL     1      38.745   2.231  40.383  1.00  0.00     0.004 C 
ENDBRANCH  14  15
ENDBRANCH  13  14
ENDBRANCH  12  13
ENDBRANCH  11  12
ENDBRANCH  10  11
ENDBRANCH   1  10
TORSDOF 12
ENDMDL
MODEL 5
REMARK VINA RESULT:    -0.724      2.869      5.838
REMARK INTER + INTRA:          -3.289
REMARK INTER:                  -1.118
REMARK INTRA:                  -2.171
REMARK UNBOUND:                -2.058
REMARK SMILES CCCCCCCCCCCCCC(=O)[O-]
REMARK SMILES IDX 8 1 9 2 10 3 11 4 12 5 13 6 14 7 15 8 16 9 7 10 6 11 5 12
REMARK SMILES IDX 4 13 3 14 2 15 1 16
REMARK H PARENT
REMARK Flexibility Score: inf
ROOT
ATOM      1  C   UNL     1      40.919   4.132  37.730  1.00  0.00     0.000 C 
ENDROOT
BRANCH   1   2
ATOM      2  C   UNL     1      39.958   3.716  38.856  1.00  0.00     0.000 C 
BRANCH   2   3
ATOM      3  C   UNL     1      38.830   2.798  38.358  1.00  0.00     0.000 C 
BRANCH   3   4
ATOM      4  C   UNL     1      38.760   1.474  39.140  1.00  0.00     0.000 C 
BRANCH   4   5
ATOM      5  C   UNL     1      39.639   1.483  40.405  1.00  0.00     0.006 C 
BRANCH   5   6
ATOM      6  C   UNL     1      38.875   1.221  41.712  1.00  0.00     0.053 C 
BRANCH   6   7
ATOM      7  C   UNL     1      37.860   2.286  41.993  1.00  0.00     0.041 C 
ATOM      8  O   UNL     1      38.214   3.491  42.082  1.00  0.00    -0.550 OA
ATOM      9  O   UNL     1      36.518   1.953  42.124  1.00  0.00    -0.550 OA
ENDBRANCH   6   7
ENDBRANCH   5   6
ENDBRANCH   4   5
ENDBRANCH   3   4
ENDBRANCH   2   3
ENDBRANCH   1   2
BRANCH   1  10
ATOM     10  C   UNL     1      41.006   3.088  36.602  1.00  0.00     0.000 C 
BRANCH  10  11
ATOM     11  C   UNL     1      42.256   2.184  36.635  1.00  0.00    -0.000 C 
BRANCH  11  12
ATOM     12  C   UNL     1      42.193   1.019  37.639  1.00  0.00    -0.000 C 
BRANCH  12  13
ATOM     13  C   UNL     1      43.037   1.215  38.913  1.00  0.00    -0.000 C 
BRANCH  13  14
ATOM     14  C   UNL     1      44.085   2.344  38.796  1.00  0.00    -0.000 C 
BRANCH  14  15
ATOM     15  C   UNL     1      43.889   3.441  39.851  1.00  0.00    -0.003 C 
ATOM     16  C   UNL     1      42.982   2.961  40.982  1.00  0.00     0.004 C 
ENDBRANCH  14  15
ENDBRANCH  13  14
ENDBRANCH  12  13
ENDBRANCH  11  12
ENDBRANCH  10  11
ENDBRANCH   1  10
TORSDOF 12
ENDMDL
MODEL 6
REMARK VINA RESULT:    -0.692      1.793      3.904
REMARK INTER + INTRA:          -3.235
REMARK INTER:                  -1.540
REMARK INTRA:                  -1.695
REMARK UNBOUND:                -2.058
REMARK SMILES CCCCCCCCCCCCCC(=O)[O-]
REMARK SMILES IDX 8 1 9 2 10 3 11 4 12 5 13 6 14 7 15 8 16 9 7 10 6 11 5 12
REMARK SMILES IDX 4 13 3 14 2 15 1 16
REMARK H PARENT
REMARK Flexibility Score: inf
ROOT
ATOM      1  C   UNL     1      36.529   3.966  42.125  1.00  0.00     0.000 C 
ENDROOT
BRANCH   1   2
ATOM      2  C   UNL     1      35.911   2.690  41.528  1.00  0.00     0.000 C 
BRANCH   2   3
ATOM      3  C   UNL     1      36.962   1.600  41.255  1.00  0.00     0.000 C 
BRANCH   3   4
ATOM      4  C   UNL     1      38.398   2.090  41.506  1.00  0.00     0.000 C 
BRANCH   4   5
ATOM      5  C   UNL     1      39.398   1.566  40.458  1.00  0.00     0.006 C 
BRANCH   5   6
ATOM      6  C   UNL     1      40.718   1.042  41.045  1.00  0.00     0.053 C 
BRANCH   6   7
ATOM      7  C   UNL     1      41.784   2.093  41.056  1.00  0.00     0.041 C 
ATOM      8  O   UNL     1      42.856   1.903  41.690  1.00  0.00    -0.550 OA
ATOM      9  O   UNL     1      41.609   3.271  40.340  1.00  0.00    -0.550 OA
ENDBRANCH   6   7
ENDBRANCH   5   6
ENDBRANCH   4   5
ENDBRANCH   3   4
ENDBRANCH   2   3
ENDBRANCH   1   2
BRANCH   1  10
ATOM     10  C   UNL     1      35.848   5.252  41.621  1.00  0.00     0.000 C 
BRANCH  10  11
ATOM     11  C   UNL     1      36.803   6.326  41.061  1.00  0.00    -0.000 C 
BRANCH  11  12
ATOM     12  C   UNL     1      38.295   5.946  41.073  1.00  0.00    -0.000 C 
BRANCH  12  13
ATOM     13  C   UNL     1      38.830   5.380  39.745  1.00  0.00    -0.000 C 
BRANCH  13  14
ATOM     14  C   UNL     1      37.769   5.321  38.623  1.00  0.00    -0.000 C 
BRANCH  14  15
ATOM     15  C   UNL     1      37.355   3.883  38.280  1.00  0.00    -0.003 C 
ATOM     16  C   UNL     1      37.154   3.713  36.776  1.00  0.00     0.004 C 
ENDBRANCH  14  15
ENDBRANCH  13  14
ENDBRANCH  12  13
ENDBRANCH  11  12
ENDBRANCH  10  11
ENDBRANCH   1  10
TORSDOF 12
ENDMDL
MODEL 7
REMARK VINA RESULT:    -0.684      1.868      3.386
REMARK INTER + INTRA:          -3.222
REMARK INTER:                  -1.132
REMARK INTRA:                  -2.090
REMARK UNBOUND:                -2.058
REMARK SMILES CCCCCCCCCCCCCC(=O)[O-]
REMARK SMILES IDX 8 1 9 2 10 3 11 4 12 5 13 6 14 7 15 8 16 9 7 10 6 11 5 12
REMARK SMILES IDX 4 13 3 14 2 15 1 16
REMARK H PARENT
REMARK Flexibility Score: inf
ROOT
ATOM      1  C   UNL     1      36.923   6.209  39.366  1.00  0.00     0.000 C 
ENDROOT
BRANCH   1   2
ATOM      2  C   UNL     1      35.787   5.246  38.983  1.00  0.00     0.000 C 
BRANCH   2   3
ATOM      3  C   UNL     1      36.101   4.441  37.711  1.00  0.00     0.000 C 
BRANCH   3   4
ATOM      4  C   UNL     1      36.579   3.011  38.022  1.00  0.00     0.000 C 
BRANCH   4   5
ATOM      5  C   UNL     1      37.915   2.668  37.337  1.00  0.00     0.006 C 
BRANCH   5   6
ATOM      6  C   UNL     1      39.131   3.417  37.907  1.00  0.00     0.053 C 
BRANCH   6   7
ATOM      7  C   UNL     1      39.954   4.053  36.830  1.00  0.00     0.041 C 
ATOM      8  O   UNL     1      39.586   5.139  36.309  1.00  0.00    -0.550 OA
ATOM      9  O   UNL     1      41.145   3.465  36.424  1.00  0.00    -0.550 OA
ENDBRANCH   6   7
ENDBRANCH   5   6
ENDBRANCH   4   5
ENDBRANCH   3   4
ENDBRANCH   2   3
ENDBRANCH   1   2
BRANCH   1  10
ATOM     10  C   UNL     1      37.377   6.049  40.828  1.00  0.00     0.000 C 
BRANCH  10  11
ATOM     11  C   UNL     1      38.451   4.968  41.069  1.00  0.00    -0.000 C 
BRANCH  11  12
ATOM     12  C   UNL     1      38.048   3.853  42.051  1.00  0.00    -0.000 C 
BRANCH  12  13
ATOM     13  C   UNL     1      37.829   2.471  41.407  1.00  0.00    -0.000 C 
BRANCH  13  14
ATOM     14  C   UNL     1      36.375   1.961  41.510  1.00  0.00    -0.000 C 
BRANCH  14  15
ATOM     15  C   UNL     1      35.429   3.002  42.125  1.00  0.00    -0.003 C 
ATOM     16  C   UNL     1      34.066   2.979  41.439  1.00  0.00     0.004 C 
ENDBRANCH  14  15
ENDBRANCH  13  14
ENDBRANCH  12  13
ENDBRANCH  11  12
ENDBRANCH  10  11
ENDBRANCH   1  10
TORSDOF 12
ENDMDL
MODEL 8
REMARK VINA RESULT:    -0.682      4.376      6.092
REMARK INTER + INTRA:          -3.217
REMARK INTER:                  -1.301
REMARK INTRA:                  -1.916
REMARK UNBOUND:                -2.058
REMARK SMILES CCCCCCCCCCCCCC(=O)[O-]
REMARK SMILES IDX 8 1 9 2 10 3 11 4 12 5 13 6 14 7 15 8 16 9 7 10 6 11 5 12
REMARK SMILES IDX 4 13 3 14 2 15 1 16
REMARK H PARENT
REMARK Flexibility Score: inf
ROOT
ATOM      1  C   UNL     1      38.045   3.876  38.419  1.00  0.00     0.000 C 
ENDROOT
BRANCH   1   2
ATOM      2  C   UNL     1      38.193   5.374  38.736  1.00  0.00     0.000 C 
BRANCH   2   3
ATOM      3  C   UNL     1      37.137   5.871  39.737  1.00  0.00     0.000 C 
BRANCH   3   4
ATOM      4  C   UNL     1      35.757   5.232  39.503  1.00  0.00     0.000 C 
BRANCH   4   5
ATOM      5  C   UNL     1      34.787   5.463  40.677  1.00  0.00     0.006 C 
BRANCH   5   6
ATOM      6  C   UNL     1      33.304   5.261  40.326  1.00  0.00     0.053 C 
BRANCH   6   7
ATOM      7  C   UNL     1      32.402   6.056  41.217  1.00  0.00     0.041 C 
ATOM      8  O   UNL     1      32.462   7.314  41.222  1.00  0.00    -0.550 OA
ATOM      9  O   UNL     1      31.471   5.410  42.021  1.00  0.00    -0.550 OA
ENDBRANCH   6   7
ENDBRANCH   5   6
ENDBRANCH   4   5
ENDBRANCH   3   4
ENDBRANCH   2   3
ENDBRANCH   1   2
BRANCH   1  10
ATOM     10  C   UNL     1      39.012   2.995  39.231  1.00  0.00     0.000 C 
BRANCH  10  11
ATOM     11  C   UNL     1      38.345   2.058  40.259  1.00  0.00    -0.000 C 
BRANCH  11  12
ATOM     12  C   UNL     1      38.089   2.683  41.643  1.00  0.00    -0.000 C 
BRANCH  12  13
ATOM     13  C   UNL     1      36.614   2.696  42.085  1.00  0.00    -0.000 C 
BRANCH  13  14
ATOM     14  C   UNL     1      35.832   1.427  41.679  1.00  0.00    -0.000 C 
BRANCH  14  15
ATOM     15  C   UNL     1      34.543   1.751  40.911  1.00  0.00    -0.003 C 
ATOM     16  C   UNL     1      34.755   1.626  39.404  1.00  0.00     0.004 C 
ENDBRANCH  14  15
ENDBRANCH  13  14
ENDBRANCH  12  13
ENDBRANCH  11  12
ENDBRANCH  10  11
ENDBRANCH   1  10
TORSDOF 12
ENDMDL
