MODEL 1
REMARK VINA RESULT:    -4.352      0.000      0.000
REMARK INTER + INTRA:         -17.137
REMARK INTER:                 -11.477
REMARK INTRA:                  -5.660
REMARK UNBOUND:                -5.660
REMARK SMILES CCCCCCCCCCCCCCCCCCCCCCCCCCCCCC(=O)[O-]
REMARK SMILES IDX 16 1 17 2 18 3 19 4 20 5 21 6 22 7 23 8 24 9 25 10 26 11
REMARK SMILES IDX 27 12 28 13 29 14 30 15 31 16 32 17 15 18 14 19 13 20 12 21
REMARK SMILES IDX 11 22 10 23 9 24 8 25 7 26 6 27 5 28 4 29 3 30 2 31 1 32
REMARK H PARENT
REMARK Flexibility Score: inf
ROOT
ATOM      1  C   UNL     1      26.520  -3.307  17.242  1.00  0.00     0.000 C 
ENDROOT
BRANCH   1   2
ATOM      2  C   UNL     1      27.552  -2.159  17.302  1.00  0.00     0.000 C 
BRANCH   2   3
ATOM      3  C   UNL     1      28.117  -1.907  18.709  1.00  0.00     0.000 C 
BRANCH   3   4
ATOM      4  C   UNL     1      27.705  -2.986  19.722  1.00  0.00     0.000 C 
BRANCH   4   5
ATOM      5  C   UNL     1      28.930  -3.542  20.460  1.00  0.00     0.000 C 
BRANCH   5   6
ATOM      6  C   UNL     1      29.329  -4.919  19.904  1.00  0.00     0.000 C 
BRANCH   6   7
ATOM      7  C   UNL     1      28.113  -5.817  19.628  1.00  0.00     0.000 C 
BRANCH   7   8
ATOM      8  C   UNL     1      28.193  -6.512  18.259  1.00  0.00     0.000 C 
BRANCH   8   9
ATOM      9  C   UNL     1      26.832  -7.056  17.795  1.00  0.00     0.000 C 
BRANCH   9  10
ATOM     10  C   UNL     1      25.705  -6.755  18.798  1.00  0.00     0.000 C 
BRANCH  10  11
ATOM     11  C   UNL     1      24.390  -7.478  18.435  1.00  0.00     0.000 C 
BRANCH  11  12
ATOM     12  C   UNL     1      23.135  -6.799  19.012  1.00  0.00     0.000 C 
BRANCH  12  13
ATOM     13  C   UNL     1      23.429  -5.995  20.289  1.00  0.00     0.006 C 
BRANCH  13  14
ATOM     14  C   UNL     1      23.218  -4.488  20.091  1.00  0.00     0.053 C 
BRANCH  14  15
ATOM     15  C   UNL     1      21.848  -4.055  20.519  1.00  0.00     0.041 C 
ATOM     16  O   UNL     1      21.553  -4.004  21.742  1.00  0.00    -0.550 OA
ATOM     17  O   UNL     1      20.892  -3.730  19.564  1.00  0.00    -0.550 OA
ENDBRANCH  14  15
ENDBRANCH  13  14
ENDBRANCH  12  13
ENDBRANCH  11  12
ENDBRANCH  10  11
ENDBRANCH   9  10
ENDBRANCH   8   9
ENDBRANCH   7   8
ENDBRANCH   6   7
ENDBRANCH   5   6
ENDBRANCH   4   5
ENDBRANCH   3   4
ENDBRANCH   2   3
ENDBRANCH   1   2
BRANCH   1  18
ATOM     18  C   UNL     1      26.358  -3.875  15.822  1.00  0.00     0.000 C 
BRANCH  18  19
ATOM     19  C   UNL     1      25.008  -4.606  15.637  1.00  0.00     0.000 C 
BRANCH  19  20
ATOM     20  C   UNL     1      23.903  -4.100  16.580  1.00  0.00     0.000 C 
BRANCH  20  21
ATOM     21  C   UNL     1      22.464  -4.457  16.153  1.00  0.00     0.000 C 
BRANCH  21  22
ATOM     22  C   UNL     1      22.377  -5.547  15.063  1.00  0.00     0.000 C 
BRANCH  22  23
ATOM     23  C   UNL     1      21.198  -5.344  14.096  1.00  0.00     0.000 C 
BRANCH  23  24
ATOM     24  C   UNL     1      21.635  -4.814  12.718  1.00  0.00    -0.000 C 
BRANCH  24  25
ATOM     25  C   UNL     1      21.588  -3.284  12.563  1.00  0.00    -0.000 C 
BRANCH  25  26
ATOM     26  C   UNL     1      22.907  -2.690  12.045  1.00  0.00    -0.000 C 
BRANCH  26  27
ATOM     27  C   UNL     1      23.594  -1.856  13.133  1.00  0.00    -0.000 C 
BRANCH  27  28
ATOM     28  C   UNL     1      22.570  -1.066  13.957  1.00  0.00    -0.000 C 
BRANCH  28  29
ATOM     29  C   UNL     1      23.062  -0.863  15.396  1.00  0.00    -0.000 C 
BRANCH  29  30
ATOM     30  C   UNL     1      24.587  -0.672  15.487  1.00  0.00    -0.000 C 
BRANCH  30  31
ATOM     31  C   UNL     1      25.071   0.774  15.276  1.00  0.00    -0.003 C 
ATOM     32  C   UNL     1      26.572   0.942  15.509  1.00  0.00     0.004 C 
ENDBRANCH  30  31
ENDBRANCH  29  30
ENDBRANCH  28  29
ENDBRANCH  27  28
ENDBRANCH  26  27
ENDBRANCH  25  26
ENDBRANCH  24  25
ENDBRANCH  23  24
ENDBRANCH  22  23
ENDBRANCH  21  22
ENDBRANCH  20  21
ENDBRANCH  19  20
ENDBRANCH  18  19
ENDBRANCH   1  18
TORSDOF 28
ENDMDL
MODEL 2
REMARK VINA RESULT:    -4.237      1.670      4.212
REMARK INTER + INTRA:         -16.833
REMARK INTER:                 -11.582
REMARK INTRA:                  -5.252
REMARK UNBOUND:                -5.660
REMARK SMILES CCCCCCCCCCCCCCCCCCCCCCCCCCCCCC(=O)[O-]
REMARK SMILES IDX 16 1 17 2 18 3 19 4 20 5 21 6 22 7 23 8 24 9 25 10 26 11
REMARK SMILES IDX 27 12 28 13 29 14 30 15 31 16 32 17 15 18 14 19 13 20 12 21
REMARK SMILES IDX 11 22 10 23 9 24 8 25 7 26 6 27 5 28 4 29 3 30 2 31 1 32
REMARK H PARENT
REMARK Flexibility Score: inf
ROOT
ATOM      1  C   UNL     1      24.247  -8.595  14.961  1.00  0.00     0.000 C 
ENDROOT
BRANCH   1   2
ATOM      2  C   UNL     1      23.926  -9.760  15.922  1.00  0.00     0.000 C 
BRANCH   2   3
ATOM      3  C   UNL     1      24.168  -9.425  17.403  1.00  0.00     0.000 C 
BRANCH   3   4
ATOM      4  C   UNL     1      24.118  -7.918  17.692  1.00  0.00     0.000 C 
BRANCH   4   5
ATOM      5  C   UNL     1      25.371  -7.462  18.451  1.00  0.00     0.000 C 
BRANCH   5   6
ATOM      6  C   UNL     1      26.444  -6.942  17.481  1.00  0.00     0.000 C 
BRANCH   6   7
ATOM      7  C   UNL     1      27.816  -6.775  18.155  1.00  0.00     0.000 C 
BRANCH   7   8
ATOM      8  C   UNL     1      28.264  -5.305  18.222  1.00  0.00     0.000 C 
BRANCH   8   9
ATOM      9  C   UNL     1      27.797  -4.606  19.509  1.00  0.00     0.000 C 
BRANCH   9  10
ATOM     10  C   UNL     1      26.840  -3.434  19.229  1.00  0.00     0.000 C 
BRANCH  10  11
ATOM     11  C   UNL     1      25.359  -3.829  19.414  1.00  0.00     0.000 C 
BRANCH  11  12
ATOM     12  C   UNL     1      24.484  -3.527  18.185  1.00  0.00     0.000 C 
BRANCH  12  13
ATOM     13  C   UNL     1      23.293  -4.490  18.053  1.00  0.00     0.006 C 
BRANCH  13  14
ATOM     14  C   UNL     1      22.585  -4.729  19.393  1.00  0.00     0.053 C 
BRANCH  14  15
ATOM     15  C   UNL     1      21.423  -3.802  19.583  1.00  0.00     0.041 C 
ATOM     16  O   UNL     1      20.895  -3.235  18.591  1.00  0.00    -0.550 OA
ATOM     17  O   UNL     1      20.937  -3.549  20.861  1.00  0.00    -0.550 OA
ENDBRANCH  14  15
ENDBRANCH  13  14
ENDBRANCH  12  13
ENDBRANCH  11  12
ENDBRANCH  10  11
ENDBRANCH   9  10
ENDBRANCH   8   9
ENDBRANCH   7   8
ENDBRANCH   6   7
ENDBRANCH   5   6
ENDBRANCH   4   5
ENDBRANCH   3   4
ENDBRANCH   2   3
ENDBRANCH   1   2
BRANCH   1  18
ATOM     18  C   UNL     1      23.397  -8.642  13.680  1.00  0.00     0.000 C 
BRANCH  18  19
ATOM     19  C   UNL     1      22.475  -7.409  13.546  1.00  0.00     0.000 C 
BRANCH  19  20
ATOM     20  C   UNL     1      22.705  -6.351  14.638  1.00  0.00     0.000 C 
BRANCH  20  21
ATOM     21  C   UNL     1      21.694  -5.183  14.642  1.00  0.00     0.000 C 
BRANCH  21  22
ATOM     22  C   UNL     1      21.675  -4.356  13.338  1.00  0.00     0.000 C 
BRANCH  22  23
ATOM     23  C   UNL     1      22.342  -2.978  13.486  1.00  0.00     0.000 C 
BRANCH  23  24
ATOM     24  C   UNL     1      22.801  -2.684  14.925  1.00  0.00    -0.000 C 
BRANCH  24  25
ATOM     25  C   UNL     1      22.787  -1.197  15.322  1.00  0.00    -0.000 C 
BRANCH  25  26
ATOM     26  C   UNL     1      23.669  -0.322  14.417  1.00  0.00    -0.000 C 
BRANCH  26  27
ATOM     27  C   UNL     1      24.776   0.361  15.227  1.00  0.00    -0.000 C 
BRANCH  27  28
ATOM     28  C   UNL     1      26.136  -0.301  14.977  1.00  0.00    -0.000 C 
BRANCH  28  29
ATOM     29  C   UNL     1      26.543  -1.185  16.164  1.00  0.00    -0.000 C 
BRANCH  29  30
ATOM     30  C   UNL     1      27.854  -1.953  15.919  1.00  0.00    -0.000 C 
BRANCH  30  31
ATOM     31  C   UNL     1      27.673  -3.414  15.472  1.00  0.00    -0.003 C 
ATOM     32  C   UNL     1      26.223  -3.763  15.140  1.00  0.00     0.004 C 
ENDBRANCH  30  31
ENDBRANCH  29  30
ENDBRANCH  28  29
ENDBRANCH  27  28
ENDBRANCH  26  27
ENDBRANCH  25  26
ENDBRANCH  24  25
ENDBRANCH  23  24
ENDBRANCH  22  23
ENDBRANCH  21  22
ENDBRANCH  20  21
ENDBRANCH  19  20
ENDBRANCH  18  19
ENDBRANCH   1  18
TORSDOF 28
ENDMDL
MODEL 3
REMARK VINA RESULT:    -4.209      1.160      2.862
REMARK INTER + INTRA:         -16.758
REMARK INTER:                 -11.135
REMARK INTRA:                  -5.622
REMARK UNBOUND:                -5.660
REMARK SMILES CCCCCCCCCCCCCCCCCCCCCCCCCCCCCC(=O)[O-]
REMARK SMILES IDX 16 1 17 2 18 3 19 4 20 5 21 6 22 7 23 8 24 9 25 10 26 11
REMARK SMILES IDX 27 12 28 13 29 14 30 15 31 16 32 17 15 18 14 19 13 20 12 21
REMARK SMILES IDX 11 22 10 23 9 24 8 25 7 26 6 27 5 28 4 29 3 30 2 31 1 32
REMARK H PARENT
REMARK Flexibility Score: inf
ROOT
ATOM      1  C   UNL     1      23.641  -3.279  16.006  1.00  0.00     0.000 C 
ENDROOT
BRANCH   1   2
ATOM      2  C   UNL     1      24.864  -4.089  15.525  1.00  0.00     0.000 C 
BRANCH   2   3
ATOM      3  C   UNL     1      26.112  -3.907  16.405  1.00  0.00     0.000 C 
BRANCH   3   4
ATOM      4  C   UNL     1      25.962  -2.773  17.430  1.00  0.00     0.000 C 
BRANCH   4   5
ATOM      5  C   UNL     1      26.533  -3.185  18.793  1.00  0.00     0.000 C 
BRANCH   5   6
ATOM      6  C   UNL     1      27.918  -3.833  18.636  1.00  0.00     0.000 C 
BRANCH   6   7
ATOM      7  C   UNL     1      28.088  -5.078  19.522  1.00  0.00     0.000 C 
BRANCH   7   8
ATOM      8  C   UNL     1      28.437  -6.336  18.708  1.00  0.00     0.000 C 
BRANCH   8   9
ATOM      9  C   UNL     1      27.248  -6.846  17.877  1.00  0.00     0.000 C 
BRANCH   9  10
ATOM     10  C   UNL     1      25.972  -7.023  18.720  1.00  0.00     0.000 C 
BRANCH  10  11
ATOM     11  C   UNL     1      24.740  -7.357  17.853  1.00  0.00     0.000 C 
BRANCH  11  12
ATOM     12  C   UNL     1      23.494  -6.527  18.210  1.00  0.00     0.000 C 
BRANCH  12  13
ATOM     13  C   UNL     1      23.626  -5.809  19.562  1.00  0.00     0.006 C 
BRANCH  13  14
ATOM     14  C   UNL     1      23.250  -4.324  19.472  1.00  0.00     0.053 C 
BRANCH  14  15
ATOM     15  C   UNL     1      22.044  -4.002  20.302  1.00  0.00     0.041 C 
ATOM     16  O   UNL     1      20.947  -3.728  19.747  1.00  0.00    -0.550 OA
ATOM     17  O   UNL     1      22.138  -3.985  21.689  1.00  0.00    -0.550 OA
ENDBRANCH  14  15
ENDBRANCH  13  14
ENDBRANCH  12  13
ENDBRANCH  11  12
ENDBRANCH  10  11
ENDBRANCH   9  10
ENDBRANCH   8   9
ENDBRANCH   7   8
ENDBRANCH   6   7
ENDBRANCH   5   6
ENDBRANCH   4   5
ENDBRANCH   3   4
ENDBRANCH   2   3
ENDBRANCH   1   2
BRANCH   1  18
ATOM     18  C   UNL     1      22.332  -4.082  15.910  1.00  0.00     0.000 C 
BRANCH  18  19
ATOM     19  C   UNL     1      22.438  -5.250  14.902  1.00  0.00     0.000 C 
BRANCH  19  20
ATOM     20  C   UNL     1      21.280  -5.292  13.890  1.00  0.00     0.000 C 
BRANCH  20  21
ATOM     21  C   UNL     1      21.231  -4.107  12.902  1.00  0.00     0.000 C 
BRANCH  21  22
ATOM     22  C   UNL     1      22.484  -3.972  12.009  1.00  0.00     0.000 C 
BRANCH  22  23
ATOM     23  C   UNL     1      23.207  -2.626  12.181  1.00  0.00     0.000 C 
BRANCH  23  24
ATOM     24  C   UNL     1      22.347  -1.567  12.894  1.00  0.00    -0.000 C 
BRANCH  24  25
ATOM     25  C   UNL     1      23.123  -0.611  13.818  1.00  0.00    -0.000 C 
BRANCH  25  26
ATOM     26  C   UNL     1      24.490  -0.201  13.250  1.00  0.00    -0.000 C 
BRANCH  26  27
ATOM     27  C   UNL     1      25.598  -0.409  14.290  1.00  0.00    -0.000 C 
BRANCH  27  28
ATOM     28  C   UNL     1      25.387   0.490  15.514  1.00  0.00    -0.000 C 
BRANCH  28  29
ATOM     29  C   UNL     1      26.728   1.001  16.057  1.00  0.00    -0.000 C 
BRANCH  29  30
ATOM     30  C   UNL     1      27.759  -0.123  16.264  1.00  0.00    -0.000 C 
BRANCH  30  31
ATOM     31  C   UNL     1      28.882   0.206  17.263  1.00  0.00    -0.003 C 
ATOM     32  C   UNL     1      28.775   1.616  17.841  1.00  0.00     0.004 C 
ENDBRANCH  30  31
ENDBRANCH  29  30
ENDBRANCH  28  29
ENDBRANCH  27  28
ENDBRANCH  26  27
ENDBRANCH  25  26
ENDBRANCH  24  25
ENDBRANCH  23  24
ENDBRANCH  22  23
ENDBRANCH  21  22
ENDBRANCH  20  21
ENDBRANCH  19  20
ENDBRANCH  18  19
ENDBRANCH   1  18
TORSDOF 28
ENDMDL
MODEL 4
REMARK VINA RESULT:    -4.181      2.096      7.083
REMARK INTER + INTRA:         -16.686
REMARK INTER:                 -11.950
REMARK INTRA:                  -4.736
REMARK UNBOUND:                -5.660
REMARK SMILES CCCCCCCCCCCCCCCCCCCCCCCCCCCCCC(=O)[O-]
REMARK SMILES IDX 16 1 17 2 18 3 19 4 20 5 21 6 22 7 23 8 24 9 25 10 26 11
REMARK SMILES IDX 27 12 28 13 29 14 30 15 31 16 32 17 15 18 14 19 13 20 12 21
REMARK SMILES IDX 11 22 10 23 9 24 8 25 7 26 6 27 5 28 4 29 3 30 2 31 1 32
REMARK H PARENT
REMARK Flexibility Score: inf
ROOT
ATOM      1  C   UNL     1      25.848  -3.394  19.035  1.00  0.00     0.000 C 
ENDROOT
BRANCH   1   2
ATOM      2  C   UNL     1      25.994  -3.004  17.549  1.00  0.00     0.000 C 
BRANCH   2   3
ATOM      3  C   UNL     1      25.369  -4.019  16.578  1.00  0.00     0.000 C 
BRANCH   3   4
ATOM      4  C   UNL     1      24.586  -3.352  15.437  1.00  0.00     0.000 C 
BRANCH   4   5
ATOM      5  C   UNL     1      23.167  -2.982  15.888  1.00  0.00     0.000 C 
BRANCH   5   6
ATOM      6  C   UNL     1      23.023  -1.461  16.059  1.00  0.00     0.000 C 
BRANCH   6   7
ATOM      7  C   UNL     1      22.218  -0.815  14.920  1.00  0.00     0.000 C 
BRANCH   7   8
ATOM      8  C   UNL     1      23.120  -0.221  13.825  1.00  0.00     0.000 C 
BRANCH   8   9
ATOM      9  C   UNL     1      22.881  -0.867  12.451  1.00  0.00     0.000 C 
BRANCH   9  10
ATOM     10  C   UNL     1      21.487  -1.511  12.337  1.00  0.00     0.000 C 
BRANCH  10  11
ATOM     11  C   UNL     1      21.549  -2.946  11.773  1.00  0.00     0.000 C 
BRANCH  11  12
ATOM     12  C   UNL     1      21.335  -4.035  12.838  1.00  0.00     0.000 C 
BRANCH  12  13
ATOM     13  C   UNL     1      22.214  -5.274  12.606  1.00  0.00     0.006 C 
BRANCH  13  14
ATOM     14  C   UNL     1      21.767  -6.473  13.454  1.00  0.00     0.053 C 
BRANCH  14  15
ATOM     15  C   UNL     1      22.879  -6.994  14.312  1.00  0.00     0.041 C 
ATOM     16  O   UNL     1      23.128  -6.457  15.424  1.00  0.00    -0.550 OA
ATOM     17  O   UNL     1      23.655  -8.061  13.873  1.00  0.00    -0.550 OA
ENDBRANCH  14  15
ENDBRANCH  13  14
ENDBRANCH  12  13
ENDBRANCH  11  12
ENDBRANCH  10  11
ENDBRANCH   9  10
ENDBRANCH   8   9
ENDBRANCH   7   8
ENDBRANCH   6   7
ENDBRANCH   5   6
ENDBRANCH   4   5
ENDBRANCH   3   4
ENDBRANCH   2   3
ENDBRANCH   1   2
BRANCH   1  18
ATOM     18  C   UNL     1      27.114  -3.080  19.851  1.00  0.00     0.000 C 
BRANCH  18  19
ATOM     19  C   UNL     1      28.404  -3.269  19.020  1.00  0.00     0.000 C 
BRANCH  19  20
ATOM     20  C   UNL     1      28.993  -4.687  19.118  1.00  0.00     0.000 C 
BRANCH  20  21
ATOM     21  C   UNL     1      28.971  -5.497  17.804  1.00  0.00     0.000 C 
BRANCH  21  22
ATOM     22  C   UNL     1      28.236  -6.851  17.905  1.00  0.00     0.000 C 
BRANCH  22  23
ATOM     23  C   UNL     1      26.961  -6.784  18.762  1.00  0.00     0.000 C 
BRANCH  23  24
ATOM     24  C   UNL     1      25.684  -7.116  17.968  1.00  0.00    -0.000 C 
BRANCH  24  25
ATOM     25  C   UNL     1      24.752  -8.145  18.632  1.00  0.00    -0.000 C 
BRANCH  25  26
ATOM     26  C   UNL     1      23.311  -7.637  18.795  1.00  0.00    -0.000 C 
BRANCH  26  27
ATOM     27  C   UNL     1      23.283  -6.111  18.944  1.00  0.00    -0.000 C 
BRANCH  27  28
ATOM     28  C   UNL     1      22.800  -5.700  20.341  1.00  0.00    -0.000 C 
BRANCH  28  29
ATOM     29  C   UNL     1      22.619  -4.178  20.432  1.00  0.00    -0.000 C 
BRANCH  29  30
ATOM     30  C   UNL     1      21.169  -3.730  20.175  1.00  0.00    -0.000 C 
BRANCH  30  31
ATOM     31  C   UNL     1      20.893  -3.219  18.750  1.00  0.00    -0.003 C 
ATOM     32  C   UNL     1      20.354  -1.790  18.721  1.00  0.00     0.004 C 
ENDBRANCH  30  31
ENDBRANCH  29  30
ENDBRANCH  28  29
ENDBRANCH  27  28
ENDBRANCH  26  27
ENDBRANCH  25  26
ENDBRANCH  24  25
ENDBRANCH  23  24
ENDBRANCH  22  23
ENDBRANCH  21  22
ENDBRANCH  20  21
ENDBRANCH  19  20
ENDBRANCH  18  19
ENDBRANCH   1  18
TORSDOF 28
ENDMDL
MODEL 5
REMARK VINA RESULT:    -4.136      2.629      4.971
REMARK INTER + INTRA:         -16.567
REMARK INTER:                 -10.999
REMARK INTRA:                  -5.568
REMARK UNBOUND:                -5.660
REMARK SMILES CCCCCCCCCCCCCCCCCCCCCCCCCCCCCC(=O)[O-]
REMARK SMILES IDX 16 1 17 2 18 3 19 4 20 5 21 6 22 7 23 8 24 9 25 10 26 11
REMARK SMILES IDX 27 12 28 13 29 14 30 15 31 16 32 17 15 18 14 19 13 20 12 21
REMARK SMILES IDX 11 22 10 23 9 24 8 25 7 26 6 27 5 28 4 29 3 30 2 31 1 32
REMARK H PARENT
REMARK Flexibility Score: inf
ROOT
ATOM      1  C   UNL     1      24.807  -7.492  19.062  1.00  0.00     0.000 C 
ENDROOT
BRANCH   1   2
ATOM      2  C   UNL     1      23.368  -6.943  19.166  1.00  0.00     0.000 C 
BRANCH   2   3
ATOM      3  C   UNL     1      23.135  -6.045  20.392  1.00  0.00     0.000 C 
BRANCH   3   4
ATOM      4  C   UNL     1      21.839  -5.228  20.298  1.00  0.00     0.000 C 
BRANCH   4   5
ATOM      5  C   UNL     1      22.133  -3.775  19.902  1.00  0.00     0.000 C 
BRANCH   5   6
ATOM      6  C   UNL     1      21.219  -3.322  18.752  1.00  0.00     0.000 C 
BRANCH   6   7
ATOM      7  C   UNL     1      22.001  -3.014  17.465  1.00  0.00     0.000 C 
BRANCH   7   8
ATOM      8  C   UNL     1      22.515  -4.285  16.769  1.00  0.00     0.000 C 
BRANCH   8   9
ATOM      9  C   UNL     1      23.908  -4.094  16.149  1.00  0.00     0.000 C 
BRANCH   9  10
ATOM     10  C   UNL     1      24.847  -3.274  17.052  1.00  0.00     0.000 C 
BRANCH  10  11
ATOM     11  C   UNL     1      25.540  -4.144  18.122  1.00  0.00     0.000 C 
BRANCH  11  12
ATOM     12  C   UNL     1      25.867  -3.382  19.418  1.00  0.00     0.000 C 
BRANCH  12  13
ATOM     13  C   UNL     1      27.357  -3.446  19.785  1.00  0.00     0.006 C 
BRANCH  13  14
ATOM     14  C   UNL     1      28.152  -2.269  19.204  1.00  0.00     0.053 C 
BRANCH  14  15
ATOM     15  C   UNL     1      29.145  -2.719  18.175  1.00  0.00     0.041 C 
ATOM     16  O   UNL     1      29.098  -3.891  17.719  1.00  0.00    -0.550 OA
ATOM     17  O   UNL     1      30.136  -1.848  17.737  1.00  0.00    -0.550 OA
ENDBRANCH  14  15
ENDBRANCH  13  14
ENDBRANCH  12  13
ENDBRANCH  11  12
ENDBRANCH  10  11
ENDBRANCH   9  10
ENDBRANCH   8   9
ENDBRANCH   7   8
ENDBRANCH   6   7
ENDBRANCH   5   6
ENDBRANCH   4   5
ENDBRANCH   3   4
ENDBRANCH   2   3
ENDBRANCH   1   2
BRANCH   1  18
ATOM     18  C   UNL     1      25.116  -8.064  17.667  1.00  0.00     0.000 C 
BRANCH  18  19
ATOM     19  C   UNL     1      23.979  -7.787  16.658  1.00  0.00     0.000 C 
BRANCH  19  20
ATOM     20  C   UNL     1      24.418  -7.912  15.190  1.00  0.00     0.000 C 
BRANCH  20  21
ATOM     21  C   UNL     1      23.266  -7.968  14.164  1.00  0.00     0.000 C 
BRANCH  21  22
ATOM     22  C   UNL     1      22.131  -6.955  14.428  1.00  0.00     0.000 C 
BRANCH  22  23
ATOM     23  C   UNL     1      21.543  -6.355  13.140  1.00  0.00     0.000 C 
BRANCH  23  24
ATOM     24  C   UNL     1      21.212  -4.858  13.271  1.00  0.00    -0.000 C 
BRANCH  24  25
ATOM     25  C   UNL     1      22.298  -3.902  12.746  1.00  0.00    -0.000 C 
BRANCH  25  26
ATOM     26  C   UNL     1      21.940  -2.420  12.937  1.00  0.00    -0.000 C 
BRANCH  26  27
ATOM     27  C   UNL     1      23.158  -1.621  13.417  1.00  0.00    -0.000 C 
BRANCH  27  28
ATOM     28  C   UNL     1      22.807  -0.750  14.629  1.00  0.00    -0.000 C 
BRANCH  28  29
ATOM     29  C   UNL     1      24.075  -0.302  15.369  1.00  0.00    -0.000 C 
BRANCH  29  30
ATOM     30  C   UNL     1      25.131   0.310  14.431  1.00  0.00    -0.000 C 
BRANCH  30  31
ATOM     31  C   UNL     1      26.552  -0.256  14.600  1.00  0.00    -0.003 C 
ATOM     32  C   UNL     1      26.931  -0.496  16.061  1.00  0.00     0.004 C 
ENDBRANCH  30  31
ENDBRANCH  29  30
ENDBRANCH  28  29
ENDBRANCH  27  28
ENDBRANCH  26  27
ENDBRANCH  25  26
ENDBRANCH  24  25
ENDBRANCH  23  24
ENDBRANCH  22  23
ENDBRANCH  21  22
ENDBRANCH  20  21
ENDBRANCH  19  20
ENDBRANCH  18  19
ENDBRANCH   1  18
TORSDOF 28
ENDMDL
MODEL 6
REMARK VINA RESULT:    -4.109      3.228      6.304
REMARK INTER + INTRA:         -16.495
REMARK INTER:                 -10.835
REMARK INTRA:                  -5.660
REMARK UNBOUND:                -5.660
REMARK SMILES CCCCCCCCCCCCCCCCCCCCCCCCCCCCCC(=O)[O-]
REMARK SMILES IDX 16 1 17 2 18 3 19 4 20 5 21 6 22 7 23 8 24 9 25 10 26 11
REMARK SMILES IDX 27 12 28 13 29 14 30 15 31 16 32 17 15 18 14 19 13 20 12 21
REMARK SMILES IDX 11 22 10 23 9 24 8 25 7 26 6 27 5 28 4 29 3 30 2 31 1 32
REMARK H PARENT
REMARK Flexibility Score: inf
ROOT
ATOM      1  C   UNL     1      26.390  -5.615  17.669  1.00  0.00     0.000 C 
ENDROOT
BRANCH   1   2
ATOM      2  C   UNL     1      26.452  -7.121  18.005  1.00  0.00     0.000 C 
BRANCH   2   3
ATOM      3  C   UNL     1      25.147  -7.678  18.597  1.00  0.00     0.000 C 
BRANCH   3   4
ATOM      4  C   UNL     1      23.985  -7.672  17.594  1.00  0.00     0.000 C 
BRANCH   4   5
ATOM      5  C   UNL     1      24.039  -8.906  16.683  1.00  0.00     0.000 C 
BRANCH   5   6
ATOM      6  C   UNL     1      24.054  -8.497  15.202  1.00  0.00     0.000 C 
BRANCH   6   7
ATOM      7  C   UNL     1      23.985  -6.973  15.011  1.00  0.00     0.000 C 
BRANCH   7   8
ATOM      8  C   UNL     1      23.305  -6.575  13.691  1.00  0.00     0.000 C 
BRANCH   8   9
ATOM      9  C   UNL     1      21.774  -6.702  13.757  1.00  0.00     0.000 C 
BRANCH   9  10
ATOM     10  C   UNL     1      21.065  -5.340  13.650  1.00  0.00     0.000 C 
BRANCH  10  11
ATOM     11  C   UNL     1      21.947  -4.272  12.969  1.00  0.00     0.000 C 
BRANCH  11  12
ATOM     12  C   UNL     1      21.142  -3.141  12.305  1.00  0.00     0.000 C 
BRANCH  12  13
ATOM     13  C   UNL     1      21.912  -1.811  12.261  1.00  0.00     0.006 C 
BRANCH  13  14
ATOM     14  C   UNL     1      22.307  -1.414  10.832  1.00  0.00     0.053 C 
BRANCH  14  15
ATOM     15  C   UNL     1      21.113  -1.299   9.934  1.00  0.00     0.041 C 
ATOM     16  O   UNL     1      20.243  -0.414  10.146  1.00  0.00    -0.550 OA
ATOM     17  O   UNL     1      20.951  -2.186   8.875  1.00  0.00    -0.550 OA
ENDBRANCH  14  15
ENDBRANCH  13  14
ENDBRANCH  12  13
ENDBRANCH  11  12
ENDBRANCH  10  11
ENDBRANCH   9  10
ENDBRANCH   8   9
ENDBRANCH   7   8
ENDBRANCH   6   7
ENDBRANCH   5   6
ENDBRANCH   4   5
ENDBRANCH   3   4
ENDBRANCH   2   3
ENDBRANCH   1   2
BRANCH   1  18
ATOM     18  C   UNL     1      26.319  -4.737  18.930  1.00  0.00     0.000 C 
BRANCH  18  19
ATOM     19  C   UNL     1      25.116  -3.767  18.898  1.00  0.00     0.000 C 
BRANCH  19  20
ATOM     20  C   UNL     1      23.842  -4.349  19.533  1.00  0.00     0.000 C 
BRANCH  20  21
ATOM     21  C   UNL     1      22.542  -4.102  18.739  1.00  0.00     0.000 C 
BRANCH  21  22
ATOM     22  C   UNL     1      22.707  -4.193  17.206  1.00  0.00     0.000 C 
BRANCH  22  23
ATOM     23  C   UNL     1      22.370  -2.879  16.482  1.00  0.00     0.000 C 
BRANCH  23  24
ATOM     24  C   UNL     1      23.538  -2.341  15.637  1.00  0.00    -0.000 C 
BRANCH  24  25
ATOM     25  C   UNL     1      24.615  -3.379  15.276  1.00  0.00    -0.000 C 
BRANCH  25  26
ATOM     26  C   UNL     1      25.447  -2.983  14.046  1.00  0.00    -0.000 C 
BRANCH  26  27
ATOM     27  C   UNL     1      26.767  -2.328  14.468  1.00  0.00    -0.000 C 
BRANCH  27  28
ATOM     28  C   UNL     1      26.979  -2.430  15.983  1.00  0.00    -0.000 C 
BRANCH  28  29
ATOM     29  C   UNL     1      27.623  -1.150  16.534  1.00  0.00    -0.000 C 
BRANCH  29  30
ATOM     30  C   UNL     1      27.654  -0.004  15.506  1.00  0.00    -0.000 C 
BRANCH  30  31
ATOM     31  C   UNL     1      26.705   1.167  15.816  1.00  0.00    -0.003 C 
ATOM     32  C   UNL     1      25.253   0.877  15.438  1.00  0.00     0.004 C 
ENDBRANCH  30  31
ENDBRANCH  29  30
ENDBRANCH  28  29
ENDBRANCH  27  28
ENDBRANCH  26  27
ENDBRANCH  25  26
ENDBRANCH  24  25
ENDBRANCH  23  24
ENDBRANCH  22  23
ENDBRANCH  21  22
ENDBRANCH  20  21
ENDBRANCH  19  20
ENDBRANCH  18  19
ENDBRANCH   1  18
TORSDOF 28
ENDMDL
MODEL 7
REMARK VINA RESULT:    -4.094      2.497      6.173
REMARK INTER + INTRA:         -16.455
REMARK INTER:                 -11.713
REMARK INTRA:                  -4.742
REMARK UNBOUND:                -5.660
REMARK SMILES CCCCCCCCCCCCCCCCCCCCCCCCCCCCCC(=O)[O-]
REMARK SMILES IDX 16 1 17 2 18 3 19 4 20 5 21 6 22 7 23 8 24 9 25 10 26 11
REMARK SMILES IDX 27 12 28 13 29 14 30 15 31 16 32 17 15 18 14 19 13 20 12 21
REMARK SMILES IDX 11 22 10 23 9 24 8 25 7 26 6 27 5 28 4 29 3 30 2 31 1 32
REMARK H PARENT
REMARK Flexibility Score: inf
ROOT
ATOM      1  C   UNL     1      25.862  -3.127  18.165  1.00  0.00     0.000 C 
ENDROOT
BRANCH   1   2
ATOM      2  C   UNL     1      24.550  -3.817  17.733  1.00  0.00     0.000 C 
BRANCH   2   3
ATOM      3  C   UNL     1      23.849  -3.130  16.550  1.00  0.00     0.000 C 
BRANCH   3   4
ATOM      4  C   UNL     1      22.476  -2.552  16.921  1.00  0.00     0.000 C 
BRANCH   4   5
ATOM      5  C   UNL     1      21.666  -3.553  17.756  1.00  0.00     0.000 C 
BRANCH   5   6
ATOM      6  C   UNL     1      20.860  -2.835  18.849  1.00  0.00     0.000 C 
BRANCH   6   7
ATOM      7  C   UNL     1      21.064  -3.461  20.238  1.00  0.00     0.000 C 
BRANCH   7   8
ATOM      8  C   UNL     1      21.587  -4.905  20.162  1.00  0.00     0.000 C 
BRANCH   8   9
ATOM      9  C   UNL     1      22.978  -5.061  20.797  1.00  0.00     0.000 C 
BRANCH   9  10
ATOM     10  C   UNL     1      23.610  -6.434  20.502  1.00  0.00     0.000 C 
BRANCH  10  11
ATOM     11  C   UNL     1      23.212  -6.975  19.113  1.00  0.00     0.000 C 
BRANCH  11  12
ATOM     12  C   UNL     1      24.412  -7.434  18.265  1.00  0.00     0.000 C 
BRANCH  12  13
ATOM     13  C   UNL     1      25.762  -7.078  18.906  1.00  0.00     0.006 C 
BRANCH  13  14
ATOM     14  C   UNL     1      26.853  -6.818  17.859  1.00  0.00     0.053 C 
BRANCH  14  15
ATOM     15  C   UNL     1      28.109  -6.288  18.481  1.00  0.00     0.041 C 
ATOM     16  O   UNL     1      28.256  -6.312  19.731  1.00  0.00    -0.550 OA
ATOM     17  O   UNL     1      29.109  -5.748  17.679  1.00  0.00    -0.550 OA
ENDBRANCH  14  15
ENDBRANCH  13  14
ENDBRANCH  12  13
ENDBRANCH  11  12
ENDBRANCH  10  11
ENDBRANCH   9  10
ENDBRANCH   8   9
ENDBRANCH   7   8
ENDBRANCH   6   7
ENDBRANCH   5   6
ENDBRANCH   4   5
ENDBRANCH   3   4
ENDBRANCH   2   3
ENDBRANCH   1   2
BRANCH   1  18
ATOM     18  C   UNL     1      26.164  -3.329  19.660  1.00  0.00     0.000 C 
BRANCH  18  19
ATOM     19  C   UNL     1      27.608  -2.914  20.023  1.00  0.00     0.000 C 
BRANCH  19  20
ATOM     20  C   UNL     1      28.437  -2.452  18.813  1.00  0.00     0.000 C 
BRANCH  20  21
ATOM     21  C   UNL     1      29.844  -1.914  19.149  1.00  0.00     0.000 C 
BRANCH  21  22
ATOM     22  C   UNL     1      30.064  -0.433  18.772  1.00  0.00     0.000 C 
BRANCH  22  23
ATOM     23  C   UNL     1      28.835   0.213  18.112  1.00  0.00     0.000 C 
BRANCH  23  24
ATOM     24  C   UNL     1      29.140   0.808  16.726  1.00  0.00    -0.000 C 
BRANCH  24  25
ATOM     25  C   UNL     1      29.368  -0.225  15.608  1.00  0.00    -0.000 C 
BRANCH  25  26
ATOM     26  C   UNL     1      28.169  -1.162  15.399  1.00  0.00    -0.000 C 
BRANCH  26  27
ATOM     27  C   UNL     1      26.863  -0.483  15.828  1.00  0.00    -0.000 C 
BRANCH  27  28
ATOM     28  C   UNL     1      25.726  -0.796  14.847  1.00  0.00    -0.000 C 
BRANCH  28  29
ATOM     29  C   UNL     1      24.624   0.269  14.927  1.00  0.00    -0.000 C 
BRANCH  29  30
ATOM     30  C   UNL     1      23.671   0.237  13.718  1.00  0.00    -0.000 C 
BRANCH  30  31
ATOM     31  C   UNL     1      22.318  -0.447  13.981  1.00  0.00    -0.003 C 
ATOM     32  C   UNL     1      22.102  -1.694  13.125  1.00  0.00     0.004 C 
ENDBRANCH  30  31
ENDBRANCH  29  30
ENDBRANCH  28  29
ENDBRANCH  27  28
ENDBRANCH  26  27
ENDBRANCH  25  26
ENDBRANCH  24  25
ENDBRANCH  23  24
ENDBRANCH  22  23
ENDBRANCH  21  22
ENDBRANCH  20  21
ENDBRANCH  19  20
ENDBRANCH  18  19
ENDBRANCH   1  18
TORSDOF 28
ENDMDL
MODEL 8
REMARK VINA RESULT:    -4.092      1.881      3.920
REMARK INTER + INTRA:         -16.451
REMARK INTER:                 -11.614
REMARK INTRA:                  -4.836
REMARK UNBOUND:                -5.660
REMARK SMILES CCCCCCCCCCCCCCCCCCCCCCCCCCCCCC(=O)[O-]
REMARK SMILES IDX 16 1 17 2 18 3 19 4 20 5 21 6 22 7 23 8 24 9 25 10 26 11
REMARK SMILES IDX 27 12 28 13 29 14 30 15 31 16 32 17 15 18 14 19 13 20 12 21
REMARK SMILES IDX 11 22 10 23 9 24 8 25 7 26 6 27 5 28 4 29 3 30 2 31 1 32
REMARK H PARENT
REMARK Flexibility Score: inf
ROOT
ATOM      1  C   UNL     1      24.195  -7.296  16.832  1.00  0.00     0.000 C 
ENDROOT
BRANCH   1   2
ATOM      2  C   UNL     1      25.631  -6.734  16.749  1.00  0.00     0.000 C 
BRANCH   2   3
ATOM      3  C   UNL     1      26.525  -7.142  17.931  1.00  0.00     0.000 C 
BRANCH   3   4
ATOM      4  C   UNL     1      27.984  -6.696  17.759  1.00  0.00     0.000 C 
BRANCH   4   5
ATOM      5  C   UNL     1      28.626  -6.383  19.117  1.00  0.00     0.000 C 
BRANCH   5   6
ATOM      6  C   UNL     1      29.739  -5.333  18.971  1.00  0.00     0.000 C 
BRANCH   6   7
ATOM      7  C   UNL     1      29.880  -4.447  20.219  1.00  0.00     0.000 C 
BRANCH   7   8
ATOM      8  C   UNL     1      30.251  -2.995  19.871  1.00  0.00     0.000 C 
BRANCH   8   9
ATOM      9  C   UNL     1      29.050  -2.041  19.973  1.00  0.00     0.000 C 
BRANCH   9  10
ATOM     10  C   UNL     1      27.703  -2.769  19.812  1.00  0.00     0.000 C 
BRANCH  10  11
ATOM     11  C   UNL     1      27.153  -2.671  18.374  1.00  0.00     0.000 C 
BRANCH  11  12
ATOM     12  C   UNL     1      25.868  -3.489  18.150  1.00  0.00     0.000 C 
BRANCH  12  13
ATOM     13  C   UNL     1      25.223  -3.953  19.465  1.00  0.00     0.006 C 
BRANCH  13  14
ATOM     14  C   UNL     1      23.711  -4.174  19.326  1.00  0.00     0.053 C 
BRANCH  14  15
ATOM     15  C   UNL     1      23.249  -5.374  20.097  1.00  0.00     0.041 C 
ATOM     16  O   UNL     1      24.018  -6.357  20.260  1.00  0.00    -0.550 OA
ATOM     17  O   UNL     1      21.960  -5.413  20.615  1.00  0.00    -0.550 OA
ENDBRANCH  14  15
ENDBRANCH  13  14
ENDBRANCH  12  13
ENDBRANCH  11  12
ENDBRANCH  10  11
ENDBRANCH   9  10
ENDBRANCH   8   9
ENDBRANCH   7   8
ENDBRANCH   6   7
ENDBRANCH   5   6
ENDBRANCH   4   5
ENDBRANCH   3   4
ENDBRANCH   2   3
ENDBRANCH   1   2
BRANCH   1  18
ATOM     18  C   UNL     1      24.145  -8.677  17.508  1.00  0.00     0.000 C 
BRANCH  18  19
ATOM     19  C   UNL     1      23.575  -9.765  16.570  1.00  0.00     0.000 C 
BRANCH  19  20
ATOM     20  C   UNL     1      24.238  -9.787  15.182  1.00  0.00     0.000 C 
BRANCH  20  21
ATOM     21  C   UNL     1      23.281  -9.550  13.994  1.00  0.00     0.000 C 
BRANCH  21  22
ATOM     22  C   UNL     1      23.249  -8.093  13.485  1.00  0.00     0.000 C 
BRANCH  22  23
ATOM     23  C   UNL     1      21.957  -7.348  13.860  1.00  0.00     0.000 C 
BRANCH  23  24
ATOM     24  C   UNL     1      21.650  -6.166  12.924  1.00  0.00    -0.000 C 
BRANCH  24  25
ATOM     25  C   UNL     1      22.229  -4.812  13.371  1.00  0.00    -0.000 C 
BRANCH  25  26
ATOM     26  C   UNL     1      22.013  -4.528  14.866  1.00  0.00    -0.000 C 
BRANCH  26  27
ATOM     27  C   UNL     1      23.262  -3.891  15.486  1.00  0.00    -0.000 C 
BRANCH  27  28
ATOM     28  C   UNL     1      22.935  -2.534  16.122  1.00  0.00    -0.000 C 
BRANCH  28  29
ATOM     29  C   UNL     1      23.992  -1.485  15.750  1.00  0.00    -0.000 C 
BRANCH  29  30
ATOM     30  C   UNL     1      23.723  -0.821  14.388  1.00  0.00    -0.000 C 
BRANCH  30  31
ATOM     31  C   UNL     1      22.236  -0.587  14.065  1.00  0.00    -0.003 C 
ATOM     32  C   UNL     1      21.830  -1.126  12.693  1.00  0.00     0.004 C 
ENDBRANCH  30  31
ENDBRANCH  29  30
ENDBRANCH  28  29
ENDBRANCH  27  28
ENDBRANCH  26  27
ENDBRANCH  25  26
ENDBRANCH  24  25
ENDBRANCH  23  24
ENDBRANCH  22  23
ENDBRANCH  21  22
ENDBRANCH  20  21
ENDBRANCH  19  20
ENDBRANCH  18  19
ENDBRANCH   1  18
TORSDOF 28
ENDMDL
MODEL 9
REMARK VINA RESULT:    -4.028      2.502      7.236
REMARK INTER + INTRA:         -16.281
REMARK INTER:                 -11.245
REMARK INTRA:                  -5.037
REMARK UNBOUND:                -5.660
REMARK SMILES CCCCCCCCCCCCCCCCCCCCCCCCCCCCCC(=O)[O-]
REMARK SMILES IDX 16 1 17 2 18 3 19 4 20 5 21 6 22 7 23 8 24 9 25 10 26 11
REMARK SMILES IDX 27 12 28 13 29 14 30 15 31 16 32 17 15 18 14 19 13 20 12 21
REMARK SMILES IDX 11 22 10 23 9 24 8 25 7 26 6 27 5 28 4 29 3 30 2 31 1 32
REMARK H PARENT
REMARK Flexibility Score: inf
ROOT
ATOM      1  C   UNL     1      22.104  -2.951  17.733  1.00  0.00     0.000 C 
ENDROOT
BRANCH   1   2
ATOM      2  C   UNL     1      22.336  -3.681  16.393  1.00  0.00     0.000 C 
BRANCH   2   3
ATOM      3  C   UNL     1      23.809  -3.716  15.954  1.00  0.00     0.000 C 
BRANCH   3   4
ATOM      4  C   UNL     1      24.156  -4.958  15.121  1.00  0.00     0.000 C 
BRANCH   4   5
ATOM      5  C   UNL     1      23.177  -6.104  15.410  1.00  0.00     0.000 C 
BRANCH   5   6
ATOM      6  C   UNL     1      22.608  -6.684  14.105  1.00  0.00     0.000 C 
BRANCH   6   7
ATOM      7  C   UNL     1      22.421  -5.613  13.018  1.00  0.00     0.000 C 
BRANCH   7   8
ATOM      8  C   UNL     1      21.119  -4.815  13.196  1.00  0.00     0.000 C 
BRANCH   8   9
ATOM      9  C   UNL     1      21.126  -3.494  12.409  1.00  0.00     0.000 C 
BRANCH   9  10
ATOM     10  C   UNL     1      22.348  -2.618  12.740  1.00  0.00     0.000 C 
BRANCH  10  11
ATOM     11  C   UNL     1      21.957  -1.153  13.030  1.00  0.00     0.000 C 
BRANCH  11  12
ATOM     12  C   UNL     1      22.498  -0.625  14.370  1.00  0.00     0.000 C 
BRANCH  12  13
ATOM     13  C   UNL     1      23.820   0.144  14.215  1.00  0.00     0.006 C 
BRANCH  13  14
ATOM     14  C   UNL     1      24.806  -0.157  15.351  1.00  0.00     0.053 C 
BRANCH  14  15
ATOM     15  C   UNL     1      25.889   0.875  15.438  1.00  0.00     0.041 C 
ATOM     16  O   UNL     1      27.000   0.586  15.955  1.00  0.00    -0.550 OA
ATOM     17  O   UNL     1      25.663   2.163  14.966  1.00  0.00    -0.550 OA
ENDBRANCH  14  15
ENDBRANCH  13  14
ENDBRANCH  12  13
ENDBRANCH  11  12
ENDBRANCH  10  11
ENDBRANCH   9  10
ENDBRANCH   8   9
ENDBRANCH   7   8
ENDBRANCH   6   7
ENDBRANCH   5   6
ENDBRANCH   4   5
ENDBRANCH   3   4
ENDBRANCH   2   3
ENDBRANCH   1   2
BRANCH   1  18
ATOM     18  C   UNL     1      21.750  -3.920  18.874  1.00  0.00     0.000 C 
BRANCH  18  19
ATOM     19  C   UNL     1      22.924  -4.112  19.861  1.00  0.00     0.000 C 
BRANCH  19  20
ATOM     20  C   UNL     1      23.105  -5.568  20.322  1.00  0.00     0.000 C 
BRANCH  20  21
ATOM     21  C   UNL     1      23.221  -6.606  19.185  1.00  0.00     0.000 C 
BRANCH  21  22
ATOM     22  C   UNL     1      24.658  -7.109  18.928  1.00  0.00     0.000 C 
BRANCH  22  23
ATOM     23  C   UNL     1      25.573  -6.038  18.311  1.00  0.00     0.000 C 
BRANCH  23  24
ATOM     24  C   UNL     1      26.823  -5.752  19.162  1.00  0.00    -0.000 C 
BRANCH  24  25
ATOM     25  C   UNL     1      27.053  -4.269  19.504  1.00  0.00    -0.000 C 
BRANCH  25  26
ATOM     26  C   UNL     1      26.186  -3.315  18.668  1.00  0.00    -0.000 C 
BRANCH  26  27
ATOM     27  C   UNL     1      27.027  -2.604  17.602  1.00  0.00    -0.000 C 
BRANCH  27  28
ATOM     28  C   UNL     1      28.499  -2.516  18.024  1.00  0.00    -0.000 C 
BRANCH  28  29
ATOM     29  C   UNL     1      28.821  -1.131  18.603  1.00  0.00    -0.000 C 
BRANCH  29  30
ATOM     30  C   UNL     1      30.319  -0.940  18.902  1.00  0.00    -0.000 C 
BRANCH  30  31
ATOM     31  C   UNL     1      30.673  -0.844  20.397  1.00  0.00    -0.003 C 
ATOM     32  C   UNL     1      29.921  -1.860  21.256  1.00  0.00     0.004 C 
ENDBRANCH  30  31
ENDBRANCH  29  30
ENDBRANCH  28  29
ENDBRANCH  27  28
ENDBRANCH  26  27
ENDBRANCH  25  26
ENDBRANCH  24  25
ENDBRANCH  23  24
ENDBRANCH  22  23
ENDBRANCH  21  22
ENDBRANCH  20  21
ENDBRANCH  19  20
ENDBRANCH  18  19
ENDBRANCH   1  18
TORSDOF 28
ENDMDL
