MODEL 1
REMARK VINA RESULT:    -4.080      0.000      0.000
REMARK INTER + INTRA:          -5.015
REMARK INTER:                  -4.915
REMARK INTRA:                  -0.101
REMARK UNBOUND:                -0.101
REMARK SMILES NC(=O)C[C@@H]([NH3+])C(=O)[O-]
REMARK SMILES IDX 4 1 5 2 6 3 7 7 8 8 9 9 2 10 3 11 1 12
REMARK H PARENT 6 4 6 5 6 6 1 13 1 14
REMARK Flexibility Score: inf
ROOT
ATOM      1  C   UNL     1     -13.623   2.794  26.669  1.00  0.00     0.171 C 
ENDROOT
BRANCH   1   2
ATOM      2  C   UNL     1     -14.057   3.688  27.851  1.00  0.00     0.237 C 
BRANCH   2   3
ATOM      3  N   UNL     1     -14.413   2.894  29.035  1.00  0.00    -0.350 N 
ATOM      4  H   UNL     1     -15.373   2.497  28.920  1.00  0.00     0.345 HD
ATOM      5  H   UNL     1     -13.736   2.112  29.185  1.00  0.00     0.345 HD
ATOM      6  H   UNL     1     -14.413   3.508  29.882  1.00  0.00     0.345 HD
ENDBRANCH   2   3
BRANCH   2   7
ATOM      7  C   UNL     1     -13.006   4.720  28.176  1.00  0.00     0.100 C 
ATOM      8  O   UNL     1     -11.879   4.374  28.619  1.00  0.00    -0.544 OA
ATOM      9  O   UNL     1     -13.263   6.064  27.936  1.00  0.00    -0.544 OA
ENDBRANCH   2   7
ENDBRANCH   1   2
BRANCH   1  10
ATOM     10  C   UNL     1     -14.243   3.195  25.360  1.00  0.00     0.223 C 
ATOM     11  O   UNL     1     -13.573   3.113  24.297  1.00  0.00    -0.275 OA
ATOM     12  N   UNL     1     -15.596   3.650  25.308  1.00  0.00    -0.369 N 
ATOM     13  H   UNL     1     -16.026   3.918  24.396  1.00  0.00     0.159 HD
ATOM     14  H   UNL     1     -16.169   3.717  26.177  1.00  0.00     0.159 HD
ENDBRANCH   1  10
TORSDOF 4
ENDMDL
MODEL 2
REMARK VINA RESULT:    -4.045      9.124     10.109
REMARK INTER + INTRA:          -4.974
REMARK INTER:                  -4.698
REMARK INTRA:                  -0.276
REMARK UNBOUND:                -0.101
REMARK SMILES NC(=O)C[C@@H]([NH3+])C(=O)[O-]
REMARK SMILES IDX 4 1 5 2 6 3 7 7 8 8 9 9 2 10 3 11 1 12
REMARK H PARENT 6 4 6 5 6 6 1 13 1 14
REMARK Flexibility Score: inf
ROOT
ATOM      1  C   UNL     1     -22.310   4.095  23.688  1.00  0.00     0.171 C 
ENDROOT
BRANCH   1   2
ATOM      2  C   UNL     1     -23.219   5.296  23.349  1.00  0.00     0.237 C 
BRANCH   2   3
ATOM      3  N   UNL     1     -24.409   5.341  24.211  1.00  0.00    -0.350 N 
ATOM      4  H   UNL     1     -24.217   5.933  25.050  1.00  0.00     0.345 HD
ATOM      5  H   UNL     1     -25.233   5.732  23.698  1.00  0.00     0.345 HD
ATOM      6  H   UNL     1     -24.642   4.375  24.538  1.00  0.00     0.345 HD
ENDBRANCH   2   3
BRANCH   2   7
ATOM      7  C   UNL     1     -22.456   6.596  23.397  1.00  0.00     0.100 C 
ATOM      8  O   UNL     1     -21.293   6.643  23.878  1.00  0.00    -0.544 OA
ATOM      9  O   UNL     1     -23.020   7.746  22.859  1.00  0.00    -0.544 OA
ENDBRANCH   2   7
ENDBRANCH   1   2
BRANCH   1  10
ATOM     10  C   UNL     1     -23.064   2.912  24.228  1.00  0.00     0.223 C 
ATOM     11  O   UNL     1     -24.108   2.515  23.647  1.00  0.00    -0.275 OA
ATOM     12  N   UNL     1     -22.594   2.221  25.386  1.00  0.00    -0.369 N 
ATOM     13  H   UNL     1     -23.114   1.393  25.752  1.00  0.00     0.159 HD
ATOM     14  H   UNL     1     -21.726   2.530  25.876  1.00  0.00     0.159 HD
ENDBRANCH   1  10
TORSDOF 4
ENDMDL
MODEL 3
REMARK VINA RESULT:    -4.036      1.066      3.833
REMARK INTER + INTRA:          -4.962
REMARK INTER:                  -4.852
REMARK INTRA:                  -0.110
REMARK UNBOUND:                -0.101
REMARK SMILES NC(=O)C[C@@H]([NH3+])C(=O)[O-]
REMARK SMILES IDX 4 1 5 2 6 3 7 7 8 8 9 9 2 10 3 11 1 12
REMARK H PARENT 6 4 6 5 6 6 1 13 1 14
REMARK Flexibility Score: inf
ROOT
ATOM      1  C   UNL     1     -13.860   4.320  26.750  1.00  0.00     0.171 C 
ENDROOT
BRANCH   1   2
ATOM      2  C   UNL     1     -14.491   3.202  25.893  1.00  0.00     0.237 C 
BRANCH   2   3
ATOM      3  N   UNL     1     -15.702   3.662  25.200  1.00  0.00    -0.350 N 
ATOM      4  H   UNL     1     -16.349   2.855  25.044  1.00  0.00     0.345 HD
ATOM      5  H   UNL     1     -16.199   4.397  25.753  1.00  0.00     0.345 HD
ATOM      6  H   UNL     1     -15.444   4.058  24.267  1.00  0.00     0.345 HD
ENDBRANCH   2   3
BRANCH   2   7
ATOM      7  C   UNL     1     -13.491   2.619  24.925  1.00  0.00     0.100 C 
ATOM      8  O   UNL     1     -13.696   1.502  24.381  1.00  0.00    -0.544 OA
ATOM      9  O   UNL     1     -12.354   3.344  24.589  1.00  0.00    -0.544 OA
ENDBRANCH   2   7
ENDBRANCH   1   2
BRANCH   1  10
ATOM     10  C   UNL     1     -13.411   3.850  28.105  1.00  0.00     0.223 C 
ATOM     11  O   UNL     1     -12.261   4.148  28.523  1.00  0.00    -0.275 OA
ATOM     12  N   UNL     1     -14.287   3.083  28.933  1.00  0.00    -0.369 N 
ATOM     13  H   UNL     1     -13.975   2.767  29.877  1.00  0.00     0.159 HD
ATOM     14  H   UNL     1     -15.246   2.834  28.607  1.00  0.00     0.159 HD
ENDBRANCH   1  10
TORSDOF 4
ENDMDL
MODEL 4
REMARK VINA RESULT:    -3.943     11.145     12.163
REMARK INTER + INTRA:          -4.850
REMARK INTER:                  -4.565
REMARK INTRA:                  -0.286
REMARK UNBOUND:                -0.101
REMARK SMILES NC(=O)C[C@@H]([NH3+])C(=O)[O-]
REMARK SMILES IDX 4 1 5 2 6 3 7 7 8 8 9 9 2 10 3 11 1 12
REMARK H PARENT 6 4 6 5 6 6 1 13 1 14
REMARK Flexibility Score: inf
ROOT
ATOM      1  C   UNL     1     -22.048  10.782  20.058  1.00  0.00     0.171 C 
ENDROOT
BRANCH   1   2
ATOM      2  C   UNL     1     -21.096  10.184  21.117  1.00  0.00     0.237 C 
BRANCH   2   3
ATOM      3  N   UNL     1     -21.272   8.731  21.251  1.00  0.00    -0.350 N 
ATOM      4  H   UNL     1     -22.103   8.529  21.852  1.00  0.00     0.345 HD
ATOM      5  H   UNL     1     -21.406   8.278  20.318  1.00  0.00     0.345 HD
ATOM      6  H   UNL     1     -20.428   8.317  21.709  1.00  0.00     0.345 HD
ENDBRANCH   2   3
BRANCH   2   7
ATOM      7  C   UNL     1     -19.659  10.540  20.829  1.00  0.00     0.100 C 
ATOM      8  O   UNL     1     -19.295  10.865  19.668  1.00  0.00    -0.544 OA
ATOM      9  O   UNL     1     -18.734  10.560  21.866  1.00  0.00    -0.544 OA
ENDBRANCH   2   7
ENDBRANCH   1   2
BRANCH   1  10
ATOM     10  C   UNL     1     -23.418  10.164  20.073  1.00  0.00     0.223 C 
ATOM     11  O   UNL     1     -24.003   9.963  21.170  1.00  0.00    -0.275 OA
ATOM     12  N   UNL     1     -24.071   9.821  18.850  1.00  0.00    -0.369 N 
ATOM     13  H   UNL     1     -25.027   9.401  18.864  1.00  0.00     0.159 HD
ATOM     14  H   UNL     1     -23.605   9.988  17.932  1.00  0.00     0.159 HD
ENDBRANCH   1  10
TORSDOF 4
ENDMDL
MODEL 5
REMARK VINA RESULT:    -3.892     11.175     12.299
REMARK INTER + INTRA:          -4.789
REMARK INTER:                  -4.530
REMARK INTRA:                  -0.259
REMARK UNBOUND:                -0.101
REMARK SMILES NC(=O)C[C@@H]([NH3+])C(=O)[O-]
REMARK SMILES IDX 4 1 5 2 6 3 7 7 8 8 9 9 2 10 3 11 1 12
REMARK H PARENT 6 4 6 5 6 6 1 13 1 14
REMARK Flexibility Score: inf
ROOT
ATOM      1  C   UNL     1     -21.112   9.518  21.144  1.00  0.00     0.171 C 
ENDROOT
BRANCH   1   2
ATOM      2  C   UNL     1     -22.306  10.463  20.889  1.00  0.00     0.237 C 
BRANCH   2   3
ATOM      3  N   UNL     1     -22.537  10.676  19.453  1.00  0.00    -0.350 N 
ATOM      4  H   UNL     1     -22.715   9.760  18.983  1.00  0.00     0.345 HD
ATOM      5  H   UNL     1     -23.355  11.308  19.291  1.00  0.00     0.345 HD
ATOM      6  H   UNL     1     -21.687  11.106  19.021  1.00  0.00     0.345 HD
ENDBRANCH   2   3
BRANCH   2   7
ATOM      7  C   UNL     1     -23.554   9.975  21.581  1.00  0.00     0.100 C 
ATOM      8  O   UNL     1     -23.652   8.780  21.965  1.00  0.00    -0.544 OA
ATOM      9  O   UNL     1     -24.589  10.864  21.843  1.00  0.00    -0.544 OA
ENDBRANCH   2   7
ENDBRANCH   1   2
BRANCH   1  10
ATOM     10  C   UNL     1     -19.777  10.192  20.998  1.00  0.00     0.223 C 
ATOM     11  O   UNL     1     -19.585  11.004  20.054  1.00  0.00    -0.275 OA
ATOM     12  N   UNL     1     -18.729   9.935  21.933  1.00  0.00    -0.369 N 
ATOM     13  H   UNL     1     -17.806  10.414  21.834  1.00  0.00     0.159 HD
ATOM     14  H   UNL     1     -18.873   9.272  22.726  1.00  0.00     0.159 HD
ENDBRANCH   1  10
TORSDOF 4
ENDMDL
MODEL 6
REMARK VINA RESULT:    -3.869      1.939      3.636
REMARK INTER + INTRA:          -4.761
REMARK INTER:                  -4.501
REMARK INTRA:                  -0.260
REMARK UNBOUND:                -0.101
REMARK SMILES NC(=O)C[C@@H]([NH3+])C(=O)[O-]
REMARK SMILES IDX 4 1 5 2 6 3 7 7 8 8 9 9 2 10 3 11 1 12
REMARK H PARENT 6 4 6 5 6 6 1 13 1 14
REMARK Flexibility Score: inf
ROOT
ATOM      1  C   UNL     1     -13.212   4.713  28.229  1.00  0.00     0.171 C 
ENDROOT
BRANCH   1   2
ATOM      2  C   UNL     1     -13.552   3.224  28.005  1.00  0.00     0.237 C 
BRANCH   2   3
ATOM      3  N   UNL     1     -14.568   2.746  28.954  1.00  0.00    -0.350 N 
ATOM      4  H   UNL     1     -15.374   2.334  28.432  1.00  0.00     0.345 HD
ATOM      5  H   UNL     1     -14.174   2.024  29.599  1.00  0.00     0.345 HD
ATOM      6  H   UNL     1     -14.922   3.550  29.522  1.00  0.00     0.345 HD
ENDBRANCH   2   3
BRANCH   2   7
ATOM      7  C   UNL     1     -13.964   2.961  26.578  1.00  0.00     0.100 C 
ATOM      8  O   UNL     1     -15.179   2.827  26.273  1.00  0.00    -0.544 OA
ATOM      9  O   UNL     1     -13.000   2.916  25.580  1.00  0.00    -0.544 OA
ENDBRANCH   2   7
ENDBRANCH   1   2
BRANCH   1  10
ATOM     10  C   UNL     1     -11.767   5.039  27.975  1.00  0.00     0.223 C 
ATOM     11  O   UNL     1     -10.930   4.948  28.912  1.00  0.00    -0.275 OA
ATOM     12  N   UNL     1     -11.331   5.433  26.674  1.00  0.00    -0.369 N 
ATOM     13  H   UNL     1     -10.325   5.648  26.499  1.00  0.00     0.159 HD
ATOM     14  H   UNL     1     -12.009   5.506  25.884  1.00  0.00     0.159 HD
ENDBRANCH   1  10
TORSDOF 4
ENDMDL
MODEL 7
REMARK VINA RESULT:    -3.711      8.701      9.793
REMARK INTER + INTRA:          -4.571
REMARK INTER:                  -4.064
REMARK INTRA:                  -0.507
REMARK UNBOUND:                -0.101
REMARK SMILES NC(=O)C[C@@H]([NH3+])C(=O)[O-]
REMARK SMILES IDX 4 1 5 2 6 3 7 7 8 8 9 9 2 10 3 11 1 12
REMARK H PARENT 6 4 6 5 6 6 1 13 1 14
REMARK Flexibility Score: inf
ROOT
ATOM      1  C   UNL     1     -20.868   6.651  21.666  1.00  0.00     0.171 C 
ENDROOT
BRANCH   1   2
ATOM      2  C   UNL     1     -21.407   6.199  23.040  1.00  0.00     0.237 C 
BRANCH   2   3
ATOM      3  N   UNL     1     -20.561   6.676  24.143  1.00  0.00    -0.350 N 
ATOM      4  H   UNL     1     -19.814   5.974  24.346  1.00  0.00     0.345 HD
ATOM      5  H   UNL     1     -20.114   7.592  23.909  1.00  0.00     0.345 HD
ATOM      6  H   UNL     1     -21.142   6.795  25.005  1.00  0.00     0.345 HD
ENDBRANCH   2   3
BRANCH   2   7
ATOM      7  C   UNL     1     -22.845   6.612  23.232  1.00  0.00     0.100 C 
ATOM      8  O   UNL     1     -23.639   5.895  23.895  1.00  0.00    -0.544 OA
ATOM      9  O   UNL     1     -23.289   7.823  22.714  1.00  0.00    -0.544 OA
ENDBRANCH   2   7
ENDBRANCH   1   2
BRANCH   1  10
ATOM     10  C   UNL     1     -20.015   7.887  21.738  1.00  0.00     0.223 C 
ATOM     11  O   UNL     1     -18.777   7.782  21.943  1.00  0.00    -0.275 OA
ATOM     12  N   UNL     1     -20.595   9.179  21.557  1.00  0.00    -0.369 N 
ATOM     13  H   UNL     1     -19.997  10.034  21.597  1.00  0.00     0.159 HD
ATOM     14  H   UNL     1     -21.618   9.284  21.378  1.00  0.00     0.159 HD
ENDBRANCH   1  10
TORSDOF 4
ENDMDL
MODEL 8
REMARK VINA RESULT:    -3.702      9.544     10.669
REMARK INTER + INTRA:          -4.560
REMARK INTER:                  -4.291
REMARK INTRA:                  -0.269
REMARK UNBOUND:                -0.101
REMARK SMILES NC(=O)C[C@@H]([NH3+])C(=O)[O-]
REMARK SMILES IDX 4 1 5 2 6 3 7 7 8 8 9 9 2 10 3 11 1 12
REMARK H PARENT 6 4 6 5 6 6 1 13 1 14
REMARK Flexibility Score: inf
ROOT
ATOM      1  C   UNL     1     -22.177   7.652  21.285  1.00  0.00     0.171 C 
ENDROOT
BRANCH   1   2
ATOM      2  C   UNL     1     -22.997   7.432  22.575  1.00  0.00     0.237 C 
BRANCH   2   3
ATOM      3  N   UNL     1     -24.388   7.059  22.281  1.00  0.00    -0.350 N 
ATOM      4  H   UNL     1     -24.700   6.309  22.939  1.00  0.00     0.345 HD
ATOM      5  H   UNL     1     -25.028   7.881  22.372  1.00  0.00     0.345 HD
ATOM      6  H   UNL     1     -24.453   6.686  21.306  1.00  0.00     0.345 HD
ENDBRANCH   2   3
BRANCH   2   7
ATOM      7  C   UNL     1     -22.337   6.424  23.482  1.00  0.00     0.100 C 
ATOM      8  O   UNL     1     -22.933   5.364  23.810  1.00  0.00    -0.544 OA
ATOM      9  O   UNL     1     -21.037   6.641  23.922  1.00  0.00    -0.544 OA
ENDBRANCH   2   7
ENDBRANCH   1   2
BRANCH   1  10
ATOM     10  C   UNL     1     -21.282   8.858  21.347  1.00  0.00     0.223 C 
ATOM     11  O   UNL     1     -21.728   9.987  21.014  1.00  0.00    -0.275 OA
ATOM     12  N   UNL     1     -19.933   8.736  21.801  1.00  0.00    -0.369 N 
ATOM     13  H   UNL     1     -19.318   9.578  21.852  1.00  0.00     0.159 HD
ATOM     14  H   UNL     1     -19.549   7.810  22.089  1.00  0.00     0.159 HD
ENDBRANCH   1  10
TORSDOF 4
ENDMDL
MODEL 9
REMARK VINA RESULT:    -3.688     10.040     11.101
REMARK INTER + INTRA:          -4.543
REMARK INTER:                  -4.042
REMARK INTRA:                  -0.502
REMARK UNBOUND:                -0.101
REMARK SMILES NC(=O)C[C@@H]([NH3+])C(=O)[O-]
REMARK SMILES IDX 4 1 5 2 6 3 7 7 8 8 9 9 2 10 3 11 1 12
REMARK H PARENT 6 4 6 5 6 6 1 13 1 14
REMARK Flexibility Score: inf
ROOT
ATOM      1  C   UNL     1     -22.599   7.501  20.691  1.00  0.00     0.171 C 
ENDROOT
BRANCH   1   2
ATOM      2  C   UNL     1     -21.323   7.486  21.562  1.00  0.00     0.237 C 
BRANCH   2   3
ATOM      3  N   UNL     1     -20.663   8.799  21.585  1.00  0.00    -0.350 N 
ATOM      4  H   UNL     1     -19.711   8.709  22.007  1.00  0.00     0.345 HD
ATOM      5  H   UNL     1     -20.574   9.196  20.622  1.00  0.00     0.345 HD
ATOM      6  H   UNL     1     -21.220   9.461  22.173  1.00  0.00     0.345 HD
ENDBRANCH   2   3
BRANCH   2   7
ATOM      7  C   UNL     1     -21.614   6.991  22.956  1.00  0.00     0.100 C 
ATOM      8  O   UNL     1     -20.684   6.586  23.703  1.00  0.00    -0.544 OA
ATOM      9  O   UNL     1     -22.914   7.030  23.444  1.00  0.00    -0.544 OA
ENDBRANCH   2   7
ENDBRANCH   1   2
BRANCH   1  10
ATOM     10  C   UNL     1     -23.232   8.859  20.585  1.00  0.00     0.223 C 
ATOM     11  O   UNL     1     -22.894   9.638  19.655  1.00  0.00    -0.275 OA
ATOM     12  N   UNL     1     -24.230   9.269  21.521  1.00  0.00    -0.369 N 
ATOM     13  H   UNL     1     -24.675  10.209  21.438  1.00  0.00     0.159 HD
ATOM     14  H   UNL     1     -24.528   8.634  22.294  1.00  0.00     0.159 HD
ENDBRANCH   1  10
TORSDOF 4
ENDMDL
