MODEL 1
REMARK VINA RESULT:    -4.877      0.000      0.000
REMARK INTER + INTRA:         -14.840
REMARK INTER:                 -11.149
REMARK INTRA:                  -3.692
REMARK UNBOUND:                -3.692
REMARK SMILES CCCCCCCCCCCCCCCCCCCCCCCC(=O)[O-]
REMARK SMILES IDX 13 1 14 2 15 3 16 4 17 5 18 6 19 7 20 8 21 9 22 10 23 11
REMARK SMILES IDX 24 12 25 13 26 14 12 15 11 16 10 17 9 18 8 19 7 20 6 21 5 22
REMARK SMILES IDX 4 23 3 24 2 25 1 26
REMARK H PARENT
REMARK Flexibility Score: inf
ROOT
ATOM      1  C   UNL     1      44.394  59.366  58.332  1.00  0.00     0.000 C 
ENDROOT
BRANCH   1   2
ATOM      2  C   UNL     1      45.363  58.245  58.743  1.00  0.00     0.000 C 
BRANCH   2   3
ATOM      3  C   UNL     1      45.707  58.274  60.242  1.00  0.00     0.000 C 
BRANCH   3   4
ATOM      4  C   UNL     1      45.308  59.567  60.979  1.00  0.00     0.000 C 
BRANCH   4   5
ATOM      5  C   UNL     1      44.141  59.385  61.975  1.00  0.00     0.000 C 
BRANCH   5   6
ATOM      6  C   UNL     1      43.261  60.643  62.082  1.00  0.00     0.000 C 
BRANCH   6   7
ATOM      7  C   UNL     1      43.761  61.798  61.200  1.00  0.00     0.000 C 
BRANCH   7   8
ATOM      8  C   UNL     1      42.615  62.576  60.536  1.00  0.00     0.000 C 
BRANCH   8   9
ATOM      9  C   UNL     1      42.808  62.658  59.014  1.00  0.00     0.000 C 
BRANCH   9  10
ATOM     10  C   UNL     1      41.486  62.543  58.241  1.00  0.00     0.006 C 
BRANCH  10  11
ATOM     11  C   UNL     1      41.684  62.520  56.718  1.00  0.00     0.053 C 
BRANCH  11  12
ATOM     12  C   UNL     1      40.768  61.528  56.069  1.00  0.00     0.041 C 
ATOM     13  O   UNL     1      40.071  60.751  56.775  1.00  0.00    -0.550 OA
ATOM     14  O   UNL     1      40.700  61.445  54.684  1.00  0.00    -0.550 OA
ENDBRANCH  11  12
ENDBRANCH  10  11
ENDBRANCH   9  10
ENDBRANCH   8   9
ENDBRANCH   7   8
ENDBRANCH   6   7
ENDBRANCH   5   6
ENDBRANCH   4   5
ENDBRANCH   3   4
ENDBRANCH   2   3
ENDBRANCH   1   2
BRANCH   1  15
ATOM     15  C   UNL     1      42.991  58.839  57.994  1.00  0.00     0.000 C 
BRANCH  15  16
ATOM     16  C   UNL     1      41.988  59.047  59.138  1.00  0.00     0.000 C 
BRANCH  16  17
ATOM     17  C   UNL     1      41.497  57.702  59.690  1.00  0.00     0.000 C 
BRANCH  17  18
ATOM     18  C   UNL     1      42.037  56.529  58.860  1.00  0.00    -0.000 C 
BRANCH  18  19
ATOM     19  C   UNL     1      43.062  55.674  59.624  1.00  0.00    -0.000 C 
BRANCH  19  20
ATOM     20  C   UNL     1      42.430  54.682  60.621  1.00  0.00    -0.000 C 
BRANCH  20  21
ATOM     21  C   UNL     1      41.128  54.059  60.084  1.00  0.00    -0.000 C 
BRANCH  21  22
ATOM     22  C   UNL     1      39.950  54.239  61.055  1.00  0.00    -0.000 C 
BRANCH  22  23
ATOM     23  C   UNL     1      38.634  54.565  60.322  1.00  0.00    -0.000 C 
BRANCH  23  24
ATOM     24  C   UNL     1      38.296  56.064  60.365  1.00  0.00    -0.000 C 
BRANCH  24  25
ATOM     25  C   UNL     1      36.825  56.342  60.027  1.00  0.00    -0.003 C 
ATOM     26  C   UNL     1      36.245  55.240  59.145  1.00  0.00     0.004 C 
ENDBRANCH  24  25
ENDBRANCH  23  24
ENDBRANCH  22  23
ENDBRANCH  21  22
ENDBRANCH  20  21
ENDBRANCH  19  20
ENDBRANCH  18  19
ENDBRANCH  17  18
ENDBRANCH  16  17
ENDBRANCH  15  16
ENDBRANCH   1  15
TORSDOF 22
ENDMDL
MODEL 2
REMARK VINA RESULT:    -4.782      1.433      3.078
REMARK INTER + INTRA:         -14.623
REMARK INTER:                 -12.093
REMARK INTRA:                  -2.530
REMARK UNBOUND:                -3.692
REMARK SMILES CCCCCCCCCCCCCCCCCCCCCCCC(=O)[O-]
REMARK SMILES IDX 13 1 14 2 15 3 16 4 17 5 18 6 19 7 20 8 21 9 22 10 23 11
REMARK SMILES IDX 24 12 25 13 26 14 12 15 11 16 10 17 9 18 8 19 7 20 6 21 5 22
REMARK SMILES IDX 4 23 3 24 2 25 1 26
REMARK H PARENT
REMARK Flexibility Score: inf
ROOT
ATOM      1  C   UNL     1      43.296  56.327  58.952  1.00  0.00     0.000 C 
ENDROOT
BRANCH   1   2
ATOM      2  C   UNL     1      43.719  57.037  60.249  1.00  0.00     0.000 C 
BRANCH   2   3
ATOM      3  C   UNL     1      45.049  57.797  60.105  1.00  0.00     0.000 C 
BRANCH   3   4
ATOM      4  C   UNL     1      45.170  59.072  60.961  1.00  0.00     0.000 C 
BRANCH   4   5
ATOM      5  C   UNL     1      43.913  59.380  61.805  1.00  0.00     0.000 C 
BRANCH   5   6
ATOM      6  C   UNL     1      43.183  60.648  61.326  1.00  0.00     0.000 C 
BRANCH   6   7
ATOM      7  C   UNL     1      43.900  61.345  60.158  1.00  0.00     0.000 C 
BRANCH   7   8
ATOM      8  C   UNL     1      43.045  61.398  58.884  1.00  0.00     0.000 C 
BRANCH   8   9
ATOM      9  C   UNL     1      42.963  60.019  58.212  1.00  0.00     0.000 C 
BRANCH   9  10
ATOM     10  C   UNL     1      41.668  59.825  57.408  1.00  0.00     0.006 C 
BRANCH  10  11
ATOM     11  C   UNL     1      40.732  61.040  57.480  1.00  0.00     0.053 C 
BRANCH  11  12
ATOM     12  C   UNL     1      40.543  61.657  56.129  1.00  0.00     0.041 C 
ATOM     13  O   UNL     1      39.658  61.217  55.347  1.00  0.00    -0.550 OA
ATOM     14  O   UNL     1      41.359  62.705  55.721  1.00  0.00    -0.550 OA
ENDBRANCH  11  12
ENDBRANCH  10  11
ENDBRANCH   9  10
ENDBRANCH   8   9
ENDBRANCH   7   8
ENDBRANCH   6   7
ENDBRANCH   5   6
ENDBRANCH   4   5
ENDBRANCH   3   4
ENDBRANCH   2   3
ENDBRANCH   1   2
BRANCH   1  15
ATOM     15  C   UNL     1      42.085  55.403  59.153  1.00  0.00     0.000 C 
BRANCH  15  16
ATOM     16  C   UNL     1      41.911  54.962  60.613  1.00  0.00     0.000 C 
BRANCH  16  17
ATOM     17  C   UNL     1      40.929  53.788  60.719  1.00  0.00     0.000 C 
BRANCH  17  18
ATOM     18  C   UNL     1      39.501  54.223  60.362  1.00  0.00    -0.000 C 
BRANCH  18  19
ATOM     19  C   UNL     1      38.956  55.320  61.294  1.00  0.00    -0.000 C 
BRANCH  19  20
ATOM     20  C   UNL     1      38.715  56.673  60.594  1.00  0.00    -0.000 C 
BRANCH  20  21
ATOM     21  C   UNL     1      37.812  56.540  59.355  1.00  0.00    -0.000 C 
BRANCH  21  22
ATOM     22  C   UNL     1      36.365  56.174  59.722  1.00  0.00    -0.000 C 
BRANCH  22  23
ATOM     23  C   UNL     1      35.699  55.281  58.657  1.00  0.00    -0.000 C 
BRANCH  23  24
ATOM     24  C   UNL     1      35.907  53.784  58.935  1.00  0.00    -0.000 C 
BRANCH  24  25
ATOM     25  C   UNL     1      34.905  52.903  58.175  1.00  0.00    -0.003 C 
ATOM     26  C   UNL     1      35.519  51.551  57.822  1.00  0.00     0.004 C 
ENDBRANCH  24  25
ENDBRANCH  23  24
ENDBRANCH  22  23
ENDBRANCH  21  22
ENDBRANCH  20  21
ENDBRANCH  19  20
ENDBRANCH  18  19
ENDBRANCH  17  18
ENDBRANCH  16  17
ENDBRANCH  15  16
ENDBRANCH   1  15
TORSDOF 22
ENDMDL
MODEL 3
REMARK VINA RESULT:    -4.754      3.849      8.409
REMARK INTER + INTRA:         -14.560
REMARK INTER:                 -11.851
REMARK INTRA:                  -2.709
REMARK UNBOUND:                -3.692
REMARK SMILES CCCCCCCCCCCCCCCCCCCCCCCC(=O)[O-]
REMARK SMILES IDX 13 1 14 2 15 3 16 4 17 5 18 6 19 7 20 8 21 9 22 10 23 11
REMARK SMILES IDX 24 12 25 13 26 14 12 15 11 16 10 17 9 18 8 19 7 20 6 21 5 22
REMARK SMILES IDX 4 23 3 24 2 25 1 26
REMARK H PARENT
REMARK Flexibility Score: inf
ROOT
ATOM      1  C   UNL     1      42.265  54.838  59.071  1.00  0.00     0.000 C 
ENDROOT
BRANCH   1   2
ATOM      2  C   UNL     1      42.018  54.844  60.589  1.00  0.00     0.000 C 
BRANCH   2   3
ATOM      3  C   UNL     1      40.744  54.078  60.988  1.00  0.00     0.000 C 
BRANCH   3   4
ATOM      4  C   UNL     1      39.455  54.540  60.281  1.00  0.00     0.000 C 
BRANCH   4   5
ATOM      5  C   UNL     1      38.882  55.865  60.830  1.00  0.00     0.000 C 
BRANCH   5   6
ATOM      6  C   UNL     1      38.105  56.654  59.761  1.00  0.00     0.000 C 
BRANCH   6   7
ATOM      7  C   UNL     1      36.589  56.400  59.815  1.00  0.00     0.000 C 
BRANCH   7   8
ATOM      8  C   UNL     1      36.106  55.452  58.708  1.00  0.00     0.000 C 
BRANCH   8   9
ATOM      9  C   UNL     1      35.975  54.012  59.227  1.00  0.00     0.000 C 
BRANCH   9  10
ATOM     10  C   UNL     1      35.056  53.147  58.352  1.00  0.00     0.006 C 
BRANCH  10  11
ATOM     11  C   UNL     1      35.800  51.995  57.660  1.00  0.00     0.053 C 
BRANCH  11  12
ATOM     12  C   UNL     1      34.975  50.745  57.655  1.00  0.00     0.041 C 
ATOM     13  O   UNL     1      35.473  49.656  57.261  1.00  0.00    -0.550 OA
ATOM     14  O   UNL     1      33.647  50.785  58.063  1.00  0.00    -0.550 OA
ENDBRANCH  11  12
ENDBRANCH  10  11
ENDBRANCH   9  10
ENDBRANCH   8   9
ENDBRANCH   7   8
ENDBRANCH   6   7
ENDBRANCH   5   6
ENDBRANCH   4   5
ENDBRANCH   3   4
ENDBRANCH   2   3
ENDBRANCH   1   2
BRANCH   1  15
ATOM     15  C   UNL     1      42.867  56.158  58.566  1.00  0.00     0.000 C 
BRANCH  15  16
ATOM     16  C   UNL     1      41.877  57.329  58.645  1.00  0.00     0.000 C 
BRANCH  16  17
ATOM     17  C   UNL     1      42.584  58.616  59.090  1.00  0.00     0.000 C 
BRANCH  17  18
ATOM     18  C   UNL     1      42.640  58.721  60.620  1.00  0.00    -0.000 C 
BRANCH  18  19
ATOM     19  C   UNL     1      44.069  58.605  61.178  1.00  0.00    -0.000 C 
BRANCH  19  20
ATOM     20  C   UNL     1      44.980  57.656  60.373  1.00  0.00    -0.000 C 
BRANCH  20  21
ATOM     21  C   UNL     1      46.273  58.346  59.899  1.00  0.00    -0.000 C 
BRANCH  21  22
ATOM     22  C   UNL     1      46.277  58.604  58.384  1.00  0.00    -0.000 C 
BRANCH  22  23
ATOM     23  C   UNL     1      45.864  60.047  58.035  1.00  0.00    -0.000 C 
BRANCH  23  24
ATOM     24  C   UNL     1      46.377  61.067  59.064  1.00  0.00    -0.000 C 
BRANCH  24  25
ATOM     25  C   UNL     1      45.236  61.813  59.768  1.00  0.00    -0.003 C 
ATOM     26  C   UNL     1      44.045  62.006  58.832  1.00  0.00     0.004 C 
ENDBRANCH  24  25
ENDBRANCH  23  24
ENDBRANCH  22  23
ENDBRANCH  21  22
ENDBRANCH  20  21
ENDBRANCH  19  20
ENDBRANCH  18  19
ENDBRANCH  17  18
ENDBRANCH  16  17
ENDBRANCH  15  16
ENDBRANCH   1  15
TORSDOF 22
ENDMDL
MODEL 4
REMARK VINA RESULT:    -4.746      1.632      3.271
REMARK INTER + INTRA:         -14.541
REMARK INTER:                 -11.868
REMARK INTRA:                  -2.674
REMARK UNBOUND:                -3.692
REMARK SMILES CCCCCCCCCCCCCCCCCCCCCCCC(=O)[O-]
REMARK SMILES IDX 13 1 14 2 15 3 16 4 17 5 18 6 19 7 20 8 21 9 22 10 23 11
REMARK SMILES IDX 24 12 25 13 26 14 12 15 11 16 10 17 9 18 8 19 7 20 6 21 5 22
REMARK SMILES IDX 4 23 3 24 2 25 1 26
REMARK H PARENT
REMARK Flexibility Score: inf
ROOT
ATOM      1  C   UNL     1      43.189  56.931  60.213  1.00  0.00     0.000 C 
ENDROOT
BRANCH   1   2
ATOM      2  C   UNL     1      44.630  57.466  60.251  1.00  0.00     0.000 C 
BRANCH   2   3
ATOM      3  C   UNL     1      45.146  57.884  58.862  1.00  0.00     0.000 C 
BRANCH   3   4
ATOM      4  C   UNL     1      46.569  58.472  58.843  1.00  0.00     0.000 C 
BRANCH   4   5
ATOM      5  C   UNL     1      47.081  58.916  60.231  1.00  0.00     0.000 C 
BRANCH   5   6
ATOM      6  C   UNL     1      46.960  60.436  60.442  1.00  0.00     0.000 C 
BRANCH   6   7
ATOM      7  C   UNL     1      45.856  60.813  61.444  1.00  0.00     0.000 C 
BRANCH   7   8
ATOM      8  C   UNL     1      44.706  61.595  60.792  1.00  0.00     0.000 C 
BRANCH   8   9
ATOM      9  C   UNL     1      45.083  62.063  59.378  1.00  0.00     0.000 C 
BRANCH   9  10
ATOM     10  C   UNL     1      44.060  61.630  58.317  1.00  0.00     0.006 C 
BRANCH  10  11
ATOM     11  C   UNL     1      42.904  60.804  58.901  1.00  0.00     0.053 C 
BRANCH  11  12
ATOM     12  C   UNL     1      41.993  60.310  57.820  1.00  0.00     0.041 C 
ATOM     13  O   UNL     1      41.266  61.118  57.182  1.00  0.00    -0.550 OA
ATOM     14  O   UNL     1      41.928  58.953  57.531  1.00  0.00    -0.550 OA
ENDBRANCH  11  12
ENDBRANCH  10  11
ENDBRANCH   9  10
ENDBRANCH   8   9
ENDBRANCH   7   8
ENDBRANCH   6   7
ENDBRANCH   5   6
ENDBRANCH   4   5
ENDBRANCH   3   4
ENDBRANCH   2   3
ENDBRANCH   1   2
BRANCH   1  15
ATOM     15  C   UNL     1      42.915  56.061  58.977  1.00  0.00     0.000 C 
BRANCH  15  16
ATOM     16  C   UNL     1      42.245  54.725  59.328  1.00  0.00     0.000 C 
BRANCH  16  17
ATOM     17  C   UNL     1      41.611  54.779  60.725  1.00  0.00     0.000 C 
BRANCH  17  18
ATOM     18  C   UNL     1      40.525  53.706  60.885  1.00  0.00    -0.000 C 
BRANCH  18  19
ATOM     19  C   UNL     1      39.104  54.252  60.665  1.00  0.00    -0.000 C 
BRANCH  19  20
ATOM     20  C   UNL     1      39.023  55.792  60.640  1.00  0.00    -0.000 C 
BRANCH  20  21
ATOM     21  C   UNL     1      37.586  56.300  60.417  1.00  0.00    -0.000 C 
BRANCH  21  22
ATOM     22  C   UNL     1      37.192  56.308  58.932  1.00  0.00    -0.000 C 
BRANCH  22  23
ATOM     23  C   UNL     1      35.867  55.564  58.675  1.00  0.00    -0.000 C 
BRANCH  23  24
ATOM     24  C   UNL     1      35.938  54.085  59.088  1.00  0.00    -0.000 C 
BRANCH  24  25
ATOM     25  C   UNL     1      34.948  53.211  58.305  1.00  0.00    -0.003 C 
ATOM     26  C   UNL     1      35.598  51.901  57.866  1.00  0.00     0.004 C 
ENDBRANCH  24  25
ENDBRANCH  23  24
ENDBRANCH  22  23
ENDBRANCH  21  22
ENDBRANCH  20  21
ENDBRANCH  19  20
ENDBRANCH  18  19
ENDBRANCH  17  18
ENDBRANCH  16  17
ENDBRANCH  15  16
ENDBRANCH   1  15
TORSDOF 22
ENDMDL
MODEL 5
REMARK VINA RESULT:    -4.735      2.153      4.103
REMARK INTER + INTRA:         -14.517
REMARK INTER:                 -12.503
REMARK INTRA:                  -2.014
REMARK UNBOUND:                -3.692
REMARK SMILES CCCCCCCCCCCCCCCCCCCCCCCC(=O)[O-]
REMARK SMILES IDX 13 1 14 2 15 3 16 4 17 5 18 6 19 7 20 8 21 9 22 10 23 11
REMARK SMILES IDX 24 12 25 13 26 14 12 15 11 16 10 17 9 18 8 19 7 20 6 21 5 22
REMARK SMILES IDX 4 23 3 24 2 25 1 26
REMARK H PARENT
REMARK Flexibility Score: inf
ROOT
ATOM      1  C   UNL     1      42.821  55.561  60.510  1.00  0.00     0.000 C 
ENDROOT
BRANCH   1   2
ATOM      2  C   UNL     1      43.571  56.885  60.291  1.00  0.00     0.000 C 
BRANCH   2   3
ATOM      3  C   UNL     1      43.899  57.146  58.811  1.00  0.00     0.000 C 
BRANCH   3   4
ATOM      4  C   UNL     1      45.085  58.097  58.562  1.00  0.00     0.000 C 
BRANCH   4   5
ATOM      5  C   UNL     1      46.174  58.039  59.655  1.00  0.00     0.000 C 
BRANCH   5   6
ATOM      6  C   UNL     1      46.471  59.423  60.260  1.00  0.00     0.000 C 
BRANCH   6   7
ATOM      7  C   UNL     1      45.478  60.502  59.799  1.00  0.00     0.000 C 
BRANCH   7   8
ATOM      8  C   UNL     1      44.443  60.856  60.878  1.00  0.00     0.000 C 
BRANCH   8   9
ATOM      9  C   UNL     1      43.142  61.376  60.250  1.00  0.00     0.000 C 
BRANCH   9  10
ATOM     10  C   UNL     1      43.128  61.250  58.719  1.00  0.00     0.006 C 
BRANCH  10  11
ATOM     11  C   UNL     1      41.821  61.754  58.089  1.00  0.00     0.053 C 
BRANCH  11  12
ATOM     12  C   UNL     1      41.221  60.719  57.189  1.00  0.00     0.041 C 
ATOM     13  O   UNL     1      41.022  60.974  55.971  1.00  0.00    -0.550 OA
ATOM     14  O   UNL     1      40.857  59.479  57.698  1.00  0.00    -0.550 OA
ENDBRANCH  11  12
ENDBRANCH  10  11
ENDBRANCH   9  10
ENDBRANCH   8   9
ENDBRANCH   7   8
ENDBRANCH   6   7
ENDBRANCH   5   6
ENDBRANCH   4   5
ENDBRANCH   3   4
ENDBRANCH   2   3
ENDBRANCH   1   2
BRANCH   1  15
ATOM     15  C   UNL     1      41.340  55.649  60.110  1.00  0.00     0.000 C 
BRANCH  15  16
ATOM     16  C   UNL     1      40.603  54.310  60.264  1.00  0.00     0.000 C 
BRANCH  16  17
ATOM     17  C   UNL     1      39.137  54.531  60.656  1.00  0.00     0.000 C 
BRANCH  17  18
ATOM     18  C   UNL     1      38.856  56.012  60.946  1.00  0.00    -0.000 C 
BRANCH  18  19
ATOM     19  C   UNL     1      37.476  56.472  60.442  1.00  0.00    -0.000 C 
BRANCH  19  20
ATOM     20  C   UNL     1      37.162  56.038  58.995  1.00  0.00    -0.000 C 
BRANCH  20  21
ATOM     21  C   UNL     1      35.830  55.274  58.888  1.00  0.00    -0.000 C 
BRANCH  21  22
ATOM     22  C   UNL     1      36.024  53.750  58.926  1.00  0.00    -0.000 C 
BRANCH  22  23
ATOM     23  C   UNL     1      35.020  53.009  58.022  1.00  0.00    -0.000 C 
BRANCH  23  24
ATOM     24  C   UNL     1      35.018  51.493  58.269  1.00  0.00    -0.000 C 
BRANCH  24  25
ATOM     25  C   UNL     1      35.887  50.733  57.257  1.00  0.00    -0.003 C 
ATOM     26  C   UNL     1      35.338  49.332  57.002  1.00  0.00     0.004 C 
ENDBRANCH  24  25
ENDBRANCH  23  24
ENDBRANCH  22  23
ENDBRANCH  21  22
ENDBRANCH  20  21
ENDBRANCH  19  20
ENDBRANCH  18  19
ENDBRANCH  17  18
ENDBRANCH  16  17
ENDBRANCH  15  16
ENDBRANCH   1  15
TORSDOF 22
ENDMDL
MODEL 6
REMARK VINA RESULT:    -4.714      1.224      2.048
REMARK INTER + INTRA:         -14.468
REMARK INTER:                 -10.948
REMARK INTRA:                  -3.520
REMARK UNBOUND:                -3.692
REMARK SMILES CCCCCCCCCCCCCCCCCCCCCCCC(=O)[O-]
REMARK SMILES IDX 13 1 14 2 15 3 16 4 17 5 18 6 19 7 20 8 21 9 22 10 23 11
REMARK SMILES IDX 24 12 25 13 26 14 12 15 11 16 10 17 9 18 8 19 7 20 6 21 5 22
REMARK SMILES IDX 4 23 3 24 2 25 1 26
REMARK H PARENT
REMARK Flexibility Score: inf
ROOT
ATOM      1  C   UNL     1      44.157  58.630  61.371  1.00  0.00     0.000 C 
ENDROOT
BRANCH   1   2
ATOM      2  C   UNL     1      45.497  58.969  60.695  1.00  0.00     0.000 C 
BRANCH   2   3
ATOM      3  C   UNL     1      45.719  58.186  59.389  1.00  0.00     0.000 C 
BRANCH   3   4
ATOM      4  C   UNL     1      45.707  59.038  58.106  1.00  0.00     0.000 C 
BRANCH   4   5
ATOM      5  C   UNL     1      46.681  60.236  58.141  1.00  0.00     0.000 C 
BRANCH   5   6
ATOM      6  C   UNL     1      45.954  61.586  58.002  1.00  0.00     0.000 C 
BRANCH   6   7
ATOM      7  C   UNL     1      45.552  62.190  59.358  1.00  0.00     0.000 C 
BRANCH   7   8
ATOM      8  C   UNL     1      44.062  62.557  59.425  1.00  0.00     0.000 C 
BRANCH   8   9
ATOM      9  C   UNL     1      43.405  62.468  58.039  1.00  0.00     0.000 C 
BRANCH   9  10
ATOM     10  C   UNL     1      42.271  61.433  57.985  1.00  0.00     0.006 C 
BRANCH  10  11
ATOM     11  C   UNL     1      40.964  62.008  57.419  1.00  0.00     0.053 C 
BRANCH  11  12
ATOM     12  C   UNL     1      40.410  61.131  56.339  1.00  0.00     0.041 C 
ATOM     13  O   UNL     1      40.766  61.297  55.141  1.00  0.00    -0.550 OA
ATOM     14  O   UNL     1      39.483  60.144  56.649  1.00  0.00    -0.550 OA
ENDBRANCH  11  12
ENDBRANCH  10  11
ENDBRANCH   9  10
ENDBRANCH   8   9
ENDBRANCH   7   8
ENDBRANCH   6   7
ENDBRANCH   5   6
ENDBRANCH   4   5
ENDBRANCH   3   4
ENDBRANCH   2   3
ENDBRANCH   1   2
BRANCH   1  15
ATOM     15  C   UNL     1      42.960  59.293  60.673  1.00  0.00     0.000 C 
BRANCH  15  16
ATOM     16  C   UNL     1      41.901  58.278  60.220  1.00  0.00     0.000 C 
BRANCH  16  17
ATOM     17  C   UNL     1      42.172  57.802  58.787  1.00  0.00     0.000 C 
BRANCH  17  18
ATOM     18  C   UNL     1      42.282  56.273  58.719  1.00  0.00    -0.000 C 
BRANCH  18  19
ATOM     19  C   UNL     1      43.090  55.676  59.885  1.00  0.00    -0.000 C 
BRANCH  19  20
ATOM     20  C   UNL     1      42.368  54.532  60.626  1.00  0.00    -0.000 C 
BRANCH  20  21
ATOM     21  C   UNL     1      40.987  54.221  60.021  1.00  0.00    -0.000 C 
BRANCH  21  22
ATOM     22  C   UNL     1      39.968  53.780  61.084  1.00  0.00    -0.000 C 
BRANCH  22  23
ATOM     23  C   UNL     1      38.791  54.766  61.210  1.00  0.00    -0.000 C 
BRANCH  23  24
ATOM     24  C   UNL     1      38.938  55.975  60.273  1.00  0.00    -0.000 C 
BRANCH  24  25
ATOM     25  C   UNL     1      37.599  56.403  59.656  1.00  0.00    -0.003 C 
ATOM     26  C   UNL     1      36.642  55.219  59.542  1.00  0.00     0.004 C 
ENDBRANCH  24  25
ENDBRANCH  23  24
ENDBRANCH  22  23
ENDBRANCH  21  22
ENDBRANCH  20  21
ENDBRANCH  19  20
ENDBRANCH  18  19
ENDBRANCH  17  18
ENDBRANCH  16  17
ENDBRANCH  15  16
ENDBRANCH   1  15
TORSDOF 22
ENDMDL
MODEL 7
REMARK VINA RESULT:    -4.703      3.200      7.371
REMARK INTER + INTRA:         -14.443
REMARK INTER:                 -11.889
REMARK INTRA:                  -2.555
REMARK UNBOUND:                -3.692
REMARK SMILES CCCCCCCCCCCCCCCCCCCCCCCC(=O)[O-]
REMARK SMILES IDX 13 1 14 2 15 3 16 4 17 5 18 6 19 7 20 8 21 9 22 10 23 11
REMARK SMILES IDX 24 12 25 13 26 14 12 15 11 16 10 17 9 18 8 19 7 20 6 21 5 22
REMARK SMILES IDX 4 23 3 24 2 25 1 26
REMARK H PARENT
REMARK Flexibility Score: inf
ROOT
ATOM      1  C   UNL     1      44.193  57.273  60.165  1.00  0.00     0.000 C 
ENDROOT
BRANCH   1   2
ATOM      2  C   UNL     1      43.402  55.974  60.385  1.00  0.00     0.000 C 
BRANCH   2   3
ATOM      3  C   UNL     1      42.562  55.574  59.160  1.00  0.00     0.000 C 
BRANCH   3   4
ATOM      4  C   UNL     1      41.755  54.271  59.317  1.00  0.00     0.000 C 
BRANCH   4   5
ATOM      5  C   UNL     1      41.091  54.109  60.701  1.00  0.00     0.000 C 
BRANCH   5   6
ATOM      6  C   UNL     1      39.567  54.324  60.649  1.00  0.00     0.000 C 
BRANCH   6   7
ATOM      7  C   UNL     1      39.178  55.804  60.498  1.00  0.00     0.000 C 
BRANCH   7   8
ATOM      8  C   UNL     1      37.660  56.026  60.555  1.00  0.00     0.000 C 
BRANCH   8   9
ATOM      9  C   UNL     1      37.032  55.939  59.156  1.00  0.00     0.000 C 
BRANCH   9  10
ATOM     10  C   UNL     1      35.846  54.965  59.096  1.00  0.00     0.006 C 
BRANCH  10  11
ATOM     11  C   UNL     1      36.281  53.492  59.113  1.00  0.00     0.053 C 
BRANCH  11  12
ATOM     12  C   UNL     1      35.405  52.660  58.228  1.00  0.00     0.041 C 
ATOM     13  O   UNL     1      34.206  52.992  58.026  1.00  0.00    -0.550 OA
ATOM     14  O   UNL     1      35.905  51.504  57.641  1.00  0.00    -0.550 OA
ENDBRANCH  11  12
ENDBRANCH  10  11
ENDBRANCH   9  10
ENDBRANCH   8   9
ENDBRANCH   7   8
ENDBRANCH   6   7
ENDBRANCH   5   6
ENDBRANCH   4   5
ENDBRANCH   3   4
ENDBRANCH   2   3
ENDBRANCH   1   2
BRANCH   1  15
ATOM     15  C   UNL     1      44.599  57.476  58.697  1.00  0.00     0.000 C 
BRANCH  15  16
ATOM     16  C   UNL     1      45.847  58.358  58.543  1.00  0.00     0.000 C 
BRANCH  16  17
ATOM     17  C   UNL     1      46.655  58.399  59.847  1.00  0.00     0.000 C 
BRANCH  17  18
ATOM     18  C   UNL     1      46.860  59.842  60.330  1.00  0.00    -0.000 C 
BRANCH  18  19
ATOM     19  C   UNL     1      45.544  60.540  60.713  1.00  0.00    -0.000 C 
BRANCH  19  20
ATOM     20  C   UNL     1      45.342  61.911  60.036  1.00  0.00    -0.000 C 
BRANCH  20  21
ATOM     21  C   UNL     1      43.855  62.276  59.880  1.00  0.00    -0.000 C 
BRANCH  21  22
ATOM     22  C   UNL     1      43.045  61.157  59.207  1.00  0.00    -0.000 C 
BRANCH  22  23
ATOM     23  C   UNL     1      42.368  61.627  57.905  1.00  0.00    -0.000 C 
BRANCH  23  24
ATOM     24  C   UNL     1      41.346  60.609  57.376  1.00  0.00    -0.000 C 
BRANCH  24  25
ATOM     25  C   UNL     1      41.765  59.159  57.657  1.00  0.00    -0.003 C 
ATOM     26  C   UNL     1      40.617  58.364  58.273  1.00  0.00     0.004 C 
ENDBRANCH  24  25
ENDBRANCH  23  24
ENDBRANCH  22  23
ENDBRANCH  21  22
ENDBRANCH  20  21
ENDBRANCH  19  20
ENDBRANCH  18  19
ENDBRANCH  17  18
ENDBRANCH  16  17
ENDBRANCH  15  16
ENDBRANCH   1  15
TORSDOF 22
ENDMDL
MODEL 8
REMARK VINA RESULT:    -4.588      2.915      7.182
REMARK INTER + INTRA:         -14.181
REMARK INTER:                 -11.793
REMARK INTRA:                  -2.388
REMARK UNBOUND:                -3.692
REMARK SMILES CCCCCCCCCCCCCCCCCCCCCCCC(=O)[O-]
REMARK SMILES IDX 13 1 14 2 15 3 16 4 17 5 18 6 19 7 20 8 21 9 22 10 23 11
REMARK SMILES IDX 24 12 25 13 26 14 12 15 11 16 10 17 9 18 8 19 7 20 6 21 5 22
REMARK SMILES IDX 4 23 3 24 2 25 1 26
REMARK H PARENT
REMARK Flexibility Score: inf
ROOT
ATOM      1  C   UNL     1      44.498  57.626  60.298  1.00  0.00     0.000 C 
ENDROOT
BRANCH   1   2
ATOM      2  C   UNL     1      43.396  58.006  59.294  1.00  0.00     0.000 C 
BRANCH   2   3
ATOM      3  C   UNL     1      42.628  56.784  58.763  1.00  0.00     0.000 C 
BRANCH   3   4
ATOM      4  C   UNL     1      42.947  55.452  59.468  1.00  0.00     0.000 C 
BRANCH   4   5
ATOM      5  C   UNL     1      41.788  54.433  59.435  1.00  0.00     0.000 C 
BRANCH   5   6
ATOM      6  C   UNL     1      40.991  54.408  60.752  1.00  0.00     0.000 C 
BRANCH   6   7
ATOM      7  C   UNL     1      39.547  54.907  60.586  1.00  0.00     0.000 C 
BRANCH   7   8
ATOM      8  C   UNL     1      39.468  56.420  60.333  1.00  0.00     0.000 C 
BRANCH   8   9
ATOM      9  C   UNL     1      38.218  56.782  59.517  1.00  0.00     0.000 C 
BRANCH   9  10
ATOM     10  C   UNL     1      36.948  56.092  60.037  1.00  0.00     0.006 C 
BRANCH  10  11
ATOM     11  C   UNL     1      36.069  55.530  58.909  1.00  0.00     0.053 C 
BRANCH  11  12
ATOM     12  C   UNL     1      35.977  54.038  58.989  1.00  0.00     0.041 C 
ATOM     13  O   UNL     1      36.695  53.399  59.803  1.00  0.00    -0.550 OA
ATOM     14  O   UNL     1      35.113  53.347  58.147  1.00  0.00    -0.550 OA
ENDBRANCH  11  12
ENDBRANCH  10  11
ENDBRANCH   9  10
ENDBRANCH   8   9
ENDBRANCH   7   8
ENDBRANCH   6   7
ENDBRANCH   5   6
ENDBRANCH   4   5
ENDBRANCH   3   4
ENDBRANCH   2   3
ENDBRANCH   1   2
BRANCH   1  15
ATOM     15  C   UNL     1      45.891  58.095  59.850  1.00  0.00     0.000 C 
BRANCH  15  16
ATOM     16  C   UNL     1      46.008  58.237  58.326  1.00  0.00     0.000 C 
BRANCH  16  17
ATOM     17  C   UNL     1      46.219  59.703  57.926  1.00  0.00     0.000 C 
BRANCH  17  18
ATOM     18  C   UNL     1      46.530  60.575  59.151  1.00  0.00    -0.000 C 
BRANCH  18  19
ATOM     19  C   UNL     1      45.611  61.804  59.262  1.00  0.00    -0.000 C 
BRANCH  19  20
ATOM     20  C   UNL     1      44.587  61.717  60.412  1.00  0.00    -0.000 C 
BRANCH  20  21
ATOM     21  C   UNL     1      43.164  61.415  59.908  1.00  0.00    -0.000 C 
BRANCH  21  22
ATOM     22  C   UNL     1      42.995  61.721  58.411  1.00  0.00    -0.000 C 
BRANCH  22  23
ATOM     23  C   UNL     1      41.641  62.388  58.100  1.00  0.00    -0.000 C 
BRANCH  23  24
ATOM     24  C   UNL     1      41.499  62.756  56.615  1.00  0.00    -0.000 C 
BRANCH  24  25
ATOM     25  C   UNL     1      40.746  61.684  55.815  1.00  0.00    -0.003 C 
ATOM     26  C   UNL     1      40.327  62.212  54.445  1.00  0.00     0.004 C 
ENDBRANCH  24  25
ENDBRANCH  23  24
ENDBRANCH  22  23
ENDBRANCH  21  22
ENDBRANCH  20  21
ENDBRANCH  19  20
ENDBRANCH  18  19
ENDBRANCH  17  18
ENDBRANCH  16  17
ENDBRANCH  15  16
ENDBRANCH   1  15
TORSDOF 22
ENDMDL
MODEL 9
REMARK VINA RESULT:    -4.567      2.510      7.243
REMARK INTER + INTRA:         -14.131
REMARK INTER:                 -10.786
REMARK INTRA:                  -3.346
REMARK UNBOUND:                -3.692
REMARK SMILES CCCCCCCCCCCCCCCCCCCCCCCC(=O)[O-]
REMARK SMILES IDX 13 1 14 2 15 3 16 4 17 5 18 6 19 7 20 8 21 9 22 10 23 11
REMARK SMILES IDX 24 12 25 13 26 14 12 15 11 16 10 17 9 18 8 19 7 20 6 21 5 22
REMARK SMILES IDX 4 23 3 24 2 25 1 26
REMARK H PARENT
REMARK Flexibility Score: inf
ROOT
ATOM      1  C   UNL     1      40.437  58.590  58.048  1.00  0.00     0.000 C 
ENDROOT
BRANCH   1   2
ATOM      2  C   UNL     1      41.961  58.598  58.255  1.00  0.00     0.000 C 
BRANCH   2   3
ATOM      3  C   UNL     1      42.360  58.697  59.738  1.00  0.00     0.000 C 
BRANCH   3   4
ATOM      4  C   UNL     1      43.236  57.542  60.258  1.00  0.00     0.000 C 
BRANCH   4   5
ATOM      5  C   UNL     1      43.401  56.380  59.253  1.00  0.00     0.000 C 
BRANCH   5   6
ATOM      6  C   UNL     1      42.645  55.113  59.693  1.00  0.00     0.000 C 
BRANCH   6   7
ATOM      7  C   UNL     1      41.245  55.417  60.249  1.00  0.00     0.000 C 
BRANCH   7   8
ATOM      8  C   UNL     1      40.464  54.146  60.614  1.00  0.00     0.000 C 
BRANCH   8   9
ATOM      9  C   UNL     1      38.952  54.415  60.654  1.00  0.00     0.000 C 
BRANCH   9  10
ATOM     10  C   UNL     1      38.616  55.910  60.756  1.00  0.00     0.006 C 
BRANCH  10  11
ATOM     11  C   UNL     1      37.842  56.434  59.537  1.00  0.00     0.053 C 
BRANCH  11  12
ATOM     12  C   UNL     1      36.389  56.084  59.629  1.00  0.00     0.041 C 
ATOM     13  O   UNL     1      35.609  56.787  60.326  1.00  0.00    -0.550 OA
ATOM     14  O   UNL     1      35.897  54.967  58.965  1.00  0.00    -0.550 OA
ENDBRANCH  11  12
ENDBRANCH  10  11
ENDBRANCH   9  10
ENDBRANCH   8   9
ENDBRANCH   7   8
ENDBRANCH   6   7
ENDBRANCH   5   6
ENDBRANCH   4   5
ENDBRANCH   3   4
ENDBRANCH   2   3
ENDBRANCH   1   2
BRANCH   1  15
ATOM     15  C   UNL     1      39.944  59.805  57.247  1.00  0.00     0.000 C 
BRANCH  15  16
ATOM     16  C   UNL     1      41.091  60.712  56.779  1.00  0.00     0.000 C 
BRANCH  16  17
ATOM     17  C   UNL     1      40.661  62.185  56.780  1.00  0.00     0.000 C 
BRANCH  17  18
ATOM     18  C   UNL     1      41.697  63.066  57.491  1.00  0.00    -0.000 C 
BRANCH  18  19
ATOM     19  C   UNL     1      42.861  62.260  58.091  1.00  0.00    -0.000 C 
BRANCH  19  20
ATOM     20  C   UNL     1      42.922  62.300  59.632  1.00  0.00    -0.000 C 
BRANCH  20  21
ATOM     21  C   UNL     1      44.355  62.502  60.158  1.00  0.00    -0.000 C 
BRANCH  21  22
ATOM     22  C   UNL     1      45.049  61.172  60.490  1.00  0.00    -0.000 C 
BRANCH  22  23
ATOM     23  C   UNL     1      46.102  60.782  59.434  1.00  0.00    -0.000 C 
BRANCH  23  24
ATOM     24  C   UNL     1      45.558  59.773  58.410  1.00  0.00    -0.000 C 
BRANCH  24  25
ATOM     25  C   UNL     1      46.430  58.513  58.311  1.00  0.00    -0.003 C 
ATOM     26  C   UNL     1      46.847  58.023  59.695  1.00  0.00     0.004 C 
ENDBRANCH  24  25
ENDBRANCH  23  24
ENDBRANCH  22  23
ENDBRANCH  21  22
ENDBRANCH  20  21
ENDBRANCH  19  20
ENDBRANCH  18  19
ENDBRANCH  17  18
ENDBRANCH  16  17
ENDBRANCH  15  16
ENDBRANCH   1  15
TORSDOF 22
ENDMDL
