MODEL 1
REMARK VINA RESULT:    -3.953      0.000      0.000
REMARK INTER + INTRA:          -5.816
REMARK INTER:                  -5.340
REMARK INTRA:                  -0.476
REMARK UNBOUND:                -0.476
REMARK SMILES O=C[C@@H](O)[C@@H](O)[C@@H](O)CO
REMARK SMILES IDX 7 1 9 2 10 3 5 5 3 6 2 7 1 8 4 9 6 11 8 13
REMARK H PARENT 10 4 4 10 6 12 8 14
REMARK Flexibility Score: inf
ROOT
ATOM      1  C   UNL     1      -6.363 -12.765  -0.154  1.00  0.00     0.171 C 
ENDROOT
BRANCH   1   2
ATOM      2  C   UNL     1      -6.993 -11.421  -0.572  1.00  0.00     0.190 C 
BRANCH   2   3
ATOM      3  O   UNL     1      -7.558 -11.498  -1.855  1.00  0.00    -0.394 OA
ATOM      4  H   UNL     1      -6.941 -11.024  -2.470  1.00  0.00     0.210 HD
ENDBRANCH   2   3
ENDBRANCH   1   2
BRANCH   1   5
ATOM      5  C   UNL     1      -4.871 -12.873  -0.565  1.00  0.00     0.181 C 
BRANCH   5   6
ATOM      6  C   UNL     1      -4.440 -14.340  -0.831  1.00  0.00     0.209 C 
BRANCH   6   7
ATOM      7  C   UNL     1      -3.520 -14.457  -2.014  1.00  0.00     0.258 C 
ATOM      8  O   UNL     1      -2.539 -13.737  -2.118  1.00  0.00    -0.300 OA
ENDBRANCH   6   7
BRANCH   6   9
ATOM      9  O   UNL     1      -3.795 -14.869   0.299  1.00  0.00    -0.383 OA
ATOM     10  H   UNL     1      -3.539 -14.098   0.871  1.00  0.00     0.211 HD
ENDBRANCH   6   9
ENDBRANCH   5   6
BRANCH   5  11
ATOM     11  O   UNL     1      -4.641 -12.085  -1.708  1.00  0.00    -0.387 OA
ATOM     12  H   UNL     1      -4.727 -12.684  -2.495  1.00  0.00     0.211 HD
ENDBRANCH   5  11
ENDBRANCH   1   5
BRANCH   1  13
ATOM     13  O   UNL     1      -6.537 -12.975   1.226  1.00  0.00    -0.388 OA
ATOM     14  H   UNL     1      -7.365 -12.501   1.502  1.00  0.00     0.211 HD
ENDBRANCH   1  13
TORSDOF 8
ENDMDL
MODEL 2
REMARK VINA RESULT:    -3.596      1.236      2.635
REMARK INTER + INTRA:          -5.333
REMARK INTER:                  -4.850
REMARK INTRA:                  -0.483
REMARK UNBOUND:                -0.476
REMARK SMILES O=C[C@@H](O)[C@@H](O)[C@@H](O)CO
REMARK SMILES IDX 7 1 9 2 10 3 5 5 3 6 2 7 1 8 4 9 6 11 8 13
REMARK H PARENT 10 4 4 10 6 12 8 14
REMARK Flexibility Score: inf
ROOT
ATOM      1  C   UNL     1      -5.102 -12.512  -0.630  1.00  0.00     0.171 C 
ENDROOT
BRANCH   1   2
ATOM      2  C   UNL     1      -6.505 -12.098  -0.144  1.00  0.00     0.190 C 
BRANCH   2   3
ATOM      3  O   UNL     1      -6.633 -12.260   1.244  1.00  0.00    -0.394 OA
ATOM      4  H   UNL     1      -7.548 -11.961   1.486  1.00  0.00     0.210 HD
ENDBRANCH   2   3
ENDBRANCH   1   2
BRANCH   1   5
ATOM      5  C   UNL     1      -4.985 -14.042  -0.867  1.00  0.00     0.181 C 
BRANCH   5   6
ATOM      6  C   UNL     1      -3.512 -14.528  -0.845  1.00  0.00     0.209 C 
BRANCH   6   7
ATOM      7  C   UNL     1      -3.299 -15.655   0.127  1.00  0.00     0.258 C 
ATOM      8  O   UNL     1      -3.447 -15.483   1.326  1.00  0.00    -0.300 OA
ENDBRANCH   6   7
BRANCH   6   9
ATOM      9  O   UNL     1      -3.122 -14.953  -2.125  1.00  0.00    -0.383 OA
ATOM     10  H   UNL     1      -3.745 -15.681  -2.389  1.00  0.00     0.211 HD
ENDBRANCH   6   9
ENDBRANCH   5   6
BRANCH   5  11
ATOM     11  O   UNL     1      -5.736 -14.725   0.105  1.00  0.00    -0.387 OA
ATOM     12  H   UNL     1      -5.301 -14.553   0.982  1.00  0.00     0.211 HD
ENDBRANCH   5  11
ENDBRANCH   1   5
BRANCH   1  13
ATOM     13  O   UNL     1      -4.750 -11.781  -1.779  1.00  0.00    -0.388 OA
ATOM     14  H   UNL     1      -5.539 -11.766  -2.382  1.00  0.00     0.211 HD
ENDBRANCH   1  13
TORSDOF 8
ENDMDL
MODEL 3
REMARK VINA RESULT:    -3.156     16.231     17.002
REMARK INTER + INTRA:          -4.739
REMARK INTER:                  -4.223
REMARK INTRA:                  -0.516
REMARK UNBOUND:                -0.476
REMARK SMILES O=C[C@@H](O)[C@@H](O)[C@@H](O)CO
REMARK SMILES IDX 7 1 9 2 10 3 5 5 3 6 2 7 1 8 4 9 6 11 8 13
REMARK H PARENT 10 4 4 10 6 12 8 14
REMARK Flexibility Score: inf
ROOT
ATOM      1  C   UNL     1      -0.274  -3.172  11.516  1.00  0.00     0.171 C 
ENDROOT
BRANCH   1   2
ATOM      2  C   UNL     1      -0.133  -4.642  11.955  1.00  0.00     0.190 C 
BRANCH   2   3
ATOM      3  O   UNL     1       0.576  -4.750  13.162  1.00  0.00    -0.394 OA
ATOM      4  H   UNL     1      -0.087  -4.965  13.867  1.00  0.00     0.210 HD
ENDBRANCH   2   3
ENDBRANCH   1   2
BRANCH   1   5
ATOM      5  C   UNL     1       0.777  -2.769  10.448  1.00  0.00     0.181 C 
BRANCH   5   6
ATOM      6  C   UNL     1       1.011  -1.236  10.403  1.00  0.00     0.209 C 
BRANCH   6   7
ATOM      7  C   UNL     1       0.751  -0.660   9.039  1.00  0.00     0.258 C 
ATOM      8  O   UNL     1       1.538  -0.842   8.123  1.00  0.00    -0.300 OA
ENDBRANCH   6   7
BRANCH   6   9
ATOM      9  O   UNL     1       0.181  -0.591  11.333  1.00  0.00    -0.383 OA
ATOM     10  H   UNL     1       0.608  -0.699  12.224  1.00  0.00     0.211 HD
ENDBRANCH   6   9
ENDBRANCH   5   6
BRANCH   5  11
ATOM     11  O   UNL     1       1.987  -3.437  10.707  1.00  0.00    -0.387 OA
ATOM     12  H   UNL     1       2.358  -3.718   9.829  1.00  0.00     0.211 HD
ENDBRANCH   5  11
ENDBRANCH   1   5
BRANCH   1  13
ATOM     13  O   UNL     1      -1.586  -2.920  11.072  1.00  0.00    -0.388 OA
ATOM     14  H   UNL     1      -2.171  -2.868  11.872  1.00  0.00     0.211 HD
ENDBRANCH   1  13
TORSDOF 8
ENDMDL
MODEL 4
REMARK VINA RESULT:    -2.994      6.700      7.653
REMARK INTER + INTRA:          -4.521
REMARK INTER:                  -3.806
REMARK INTRA:                  -0.715
REMARK UNBOUND:                -0.476
REMARK SMILES O=C[C@@H](O)[C@@H](O)[C@@H](O)CO
REMARK SMILES IDX 7 1 9 2 10 3 5 5 3 6 2 7 1 8 4 9 6 11 8 13
REMARK H PARENT 10 4 4 10 6 12 8 14
REMARK Flexibility Score: inf
ROOT
ATOM      1  C   UNL     1       1.169  -7.818   1.147  1.00  0.00     0.171 C 
ENDROOT
BRANCH   1   2
ATOM      2  C   UNL     1       1.725  -7.987   2.574  1.00  0.00     0.190 C 
BRANCH   2   3
ATOM      3  O   UNL     1       0.705  -7.892   3.535  1.00  0.00    -0.394 OA
ATOM      4  H   UNL     1       0.444  -6.937   3.585  1.00  0.00     0.210 HD
ENDBRANCH   2   3
ENDBRANCH   1   2
BRANCH   1   5
ATOM      5  C   UNL     1       0.473  -9.103   0.625  1.00  0.00     0.181 C 
BRANCH   5   6
ATOM      6  C   UNL     1      -1.073  -8.979   0.633  1.00  0.00     0.209 C 
BRANCH   6   7
ATOM      7  C   UNL     1      -1.745 -10.197   0.062  1.00  0.00     0.258 C 
ATOM      8  O   UNL     1      -1.530 -10.549  -1.087  1.00  0.00    -0.300 OA
ENDBRANCH   6   7
BRANCH   6   9
ATOM      9  O   UNL     1      -1.537  -8.777   1.943  1.00  0.00    -0.383 OA
ATOM     10  H   UNL     1      -2.481  -9.089   1.965  1.00  0.00     0.211 HD
ENDBRANCH   6   9
ENDBRANCH   5   6
BRANCH   5  11
ATOM     11  O   UNL     1       0.931  -9.388  -0.674  1.00  0.00    -0.387 OA
ATOM     12  H   UNL     1       0.869  -8.545  -1.195  1.00  0.00     0.211 HD
ENDBRANCH   5  11
ENDBRANCH   1   5
BRANCH   1  13
ATOM     13  O   UNL     1       0.310  -6.704   1.088  1.00  0.00    -0.388 OA
ATOM     14  H   UNL     1       0.847  -5.923   0.794  1.00  0.00     0.211 HD
ENDBRANCH   1  13
TORSDOF 8
ENDMDL
MODEL 5
REMARK VINA RESULT:    -2.925     16.002     16.723
REMARK INTER + INTRA:          -4.428
REMARK INTER:                  -4.194
REMARK INTRA:                  -0.234
REMARK UNBOUND:                -0.476
REMARK SMILES O=C[C@@H](O)[C@@H](O)[C@@H](O)CO
REMARK SMILES IDX 7 1 9 2 10 3 5 5 3 6 2 7 1 8 4 9 6 11 8 13
REMARK H PARENT 10 4 4 10 6 12 8 14
REMARK Flexibility Score: inf
ROOT
ATOM      1  C   UNL     1       0.698  -2.726  10.338  1.00  0.00     0.171 C 
ENDROOT
BRANCH   1   2
ATOM      2  C   UNL     1      -0.237  -3.152  11.486  1.00  0.00     0.190 C 
BRANCH   2   3
ATOM      3  O   UNL     1      -1.572  -3.224  11.059  1.00  0.00    -0.394 OA
ATOM      4  H   UNL     1      -1.752  -2.401  10.534  1.00  0.00     0.210 HD
ENDBRANCH   2   3
ENDBRANCH   1   2
BRANCH   1   5
ATOM      5  C   UNL     1       1.029  -1.210  10.374  1.00  0.00     0.181 C 
BRANCH   5   6
ATOM      6  C   UNL     1       1.002  -0.569   8.962  1.00  0.00     0.209 C 
BRANCH   6   7
ATOM      7  C   UNL     1       2.013  -1.189   8.037  1.00  0.00     0.258 C 
ATOM      8  O   UNL     1       1.686  -1.591   6.932  1.00  0.00    -0.300 OA
ENDBRANCH   6   7
BRANCH   6   9
ATOM      9  O   UNL     1      -0.274  -0.701   8.392  1.00  0.00    -0.383 OA
ATOM     10  H   UNL     1      -0.166  -0.576   7.412  1.00  0.00     0.211 HD
ENDBRANCH   6   9
ENDBRANCH   5   6
BRANCH   5  11
ATOM     11  O   UNL     1       0.119  -0.553  11.222  1.00  0.00    -0.387 OA
ATOM     12  H   UNL     1      -0.076   0.330  10.810  1.00  0.00     0.211 HD
ENDBRANCH   5  11
ENDBRANCH   1   5
BRANCH   1  13
ATOM     13  O   UNL     1       1.866  -3.511  10.344  1.00  0.00    -0.388 OA
ATOM     14  H   UNL     1       2.645  -2.895  10.351  1.00  0.00     0.211 HD
ENDBRANCH   1  13
TORSDOF 8
ENDMDL
MODEL 6
REMARK VINA RESULT:    -2.832      1.267      4.046
REMARK INTER + INTRA:          -4.302
REMARK INTER:                  -3.974
REMARK INTRA:                  -0.328
REMARK UNBOUND:                -0.476
REMARK SMILES O=C[C@@H](O)[C@@H](O)[C@@H](O)CO
REMARK SMILES IDX 7 1 9 2 10 3 5 5 3 6 2 7 1 8 4 9 6 11 8 13
REMARK H PARENT 10 4 4 10 6 12 8 14
REMARK Flexibility Score: inf
ROOT
ATOM      1  C   UNL     1      -4.010 -13.240  -1.410  1.00  0.00     0.171 C 
ENDROOT
BRANCH   1   2
ATOM      2  C   UNL     1      -3.099 -14.337  -1.995  1.00  0.00     0.190 C 
BRANCH   2   3
ATOM      3  O   UNL     1      -2.933 -15.399  -1.092  1.00  0.00    -0.394 OA
ATOM      4  H   UNL     1      -3.490 -15.192  -0.298  1.00  0.00     0.210 HD
ENDBRANCH   2   3
ENDBRANCH   1   2
BRANCH   1   5
ATOM      5  C   UNL     1      -5.008 -13.797  -0.360  1.00  0.00     0.181 C 
BRANCH   5   6
ATOM      6  C   UNL     1      -5.938 -12.693   0.209  1.00  0.00     0.209 C 
BRANCH   6   7
ATOM      7  C   UNL     1      -6.928 -12.202  -0.810  1.00  0.00     0.258 C 
ATOM      8  O   UNL     1      -7.236 -11.022  -0.865  1.00  0.00    -0.300 OA
ENDBRANCH   6   7
BRANCH   6   9
ATOM      9  O   UNL     1      -6.638 -13.175   1.326  1.00  0.00    -0.383 OA
ATOM     10  H   UNL     1      -7.231 -12.440   1.635  1.00  0.00     0.211 HD
ENDBRANCH   6   9
ENDBRANCH   5   6
BRANCH   5  11
ATOM     11  O   UNL     1      -5.773 -14.824  -0.939  1.00  0.00    -0.387 OA
ATOM     12  H   UNL     1      -6.486 -15.058  -0.288  1.00  0.00     0.211 HD
ENDBRANCH   5  11
ENDBRANCH   1   5
BRANCH   1  13
ATOM     13  O   UNL     1      -3.234 -12.192  -0.883  1.00  0.00    -0.388 OA
ATOM     14  H   UNL     1      -2.641 -12.576  -0.185  1.00  0.00     0.211 HD
ENDBRANCH   1  13
TORSDOF 8
ENDMDL
MODEL 7
REMARK VINA RESULT:    -2.685      6.922      7.797
REMARK INTER + INTRA:          -4.103
REMARK INTER:                  -3.600
REMARK INTRA:                  -0.503
REMARK UNBOUND:                -0.476
REMARK SMILES O=C[C@@H](O)[C@@H](O)[C@@H](O)CO
REMARK SMILES IDX 7 1 9 2 10 3 5 5 3 6 2 7 1 8 4 9 6 11 8 13
REMARK H PARENT 10 4 4 10 6 12 8 14
REMARK Flexibility Score: inf
ROOT
ATOM      1  C   UNL     1       0.996  -7.628   1.114  1.00  0.00     0.171 C 
ENDROOT
BRANCH   1   2
ATOM      2  C   UNL     1       1.325  -8.106   2.542  1.00  0.00     0.190 C 
BRANCH   2   3
ATOM      3  O   UNL     1       0.234  -7.927   3.406  1.00  0.00    -0.394 OA
ATOM      4  H   UNL     1      -0.398  -8.672   3.232  1.00  0.00     0.210 HD
ENDBRANCH   2   3
ENDBRANCH   1   2
BRANCH   1   5
ATOM      5  C   UNL     1       0.200  -8.686   0.304  1.00  0.00     0.181 C 
BRANCH   5   6
ATOM      6  C   UNL     1       1.132  -9.667  -0.455  1.00  0.00     0.209 C 
BRANCH   6   7
ATOM      7  C   UNL     1       0.379 -10.527  -1.431  1.00  0.00     0.258 C 
ATOM      8  O   UNL     1      -0.827 -10.683  -1.327  1.00  0.00    -0.300 OA
ENDBRANCH   6   7
BRANCH   6   9
ATOM      9  O   UNL     1       2.124  -8.955  -1.149  1.00  0.00    -0.383 OA
ATOM     10  H   UNL     1       2.698  -9.629  -1.602  1.00  0.00     0.211 HD
ENDBRANCH   6   9
ENDBRANCH   5   6
BRANCH   5  11
ATOM     11  O   UNL     1      -0.650  -9.397   1.170  1.00  0.00    -0.387 OA
ATOM     12  H   UNL     1      -0.137  -9.570   2.003  1.00  0.00     0.211 HD
ENDBRANCH   5  11
ENDBRANCH   1   5
BRANCH   1  13
ATOM     13  O   UNL     1       0.321  -6.395   1.158  1.00  0.00    -0.388 OA
ATOM     14  H   UNL     1       0.572  -5.883   0.345  1.00  0.00     0.211 HD
ENDBRANCH   1  13
TORSDOF 8
ENDMDL
MODEL 8
REMARK VINA RESULT:    -2.466      7.543      8.632
REMARK INTER + INTRA:          -3.807
REMARK INTER:                  -3.154
REMARK INTRA:                  -0.653
REMARK UNBOUND:                -0.476
REMARK SMILES O=C[C@@H](O)[C@@H](O)[C@@H](O)CO
REMARK SMILES IDX 7 1 9 2 10 3 5 5 3 6 2 7 1 8 4 9 6 11 8 13
REMARK H PARENT 10 4 4 10 6 12 8 14
REMARK Flexibility Score: inf
ROOT
ATOM      1  C   UNL     1       1.461  -7.441  -0.087  1.00  0.00     0.171 C 
ENDROOT
BRANCH   1   2
ATOM      2  C   UNL     1       1.922  -8.404  -1.199  1.00  0.00     0.190 C 
BRANCH   2   3
ATOM      3  O   UNL     1       1.073  -9.518  -1.295  1.00  0.00    -0.394 OA
ATOM      4  H   UNL     1       1.330 -10.141  -0.567  1.00  0.00     0.210 HD
ENDBRANCH   2   3
ENDBRANCH   1   2
BRANCH   1   5
ATOM      5  C   UNL     1       1.654  -8.039   1.332  1.00  0.00     0.181 C 
BRANCH   5   6
ATOM      6  C   UNL     1       0.359  -7.965   2.182  1.00  0.00     0.209 C 
BRANCH   6   7
ATOM      7  C   UNL     1      -0.560  -9.126   1.921  1.00  0.00     0.258 C 
ATOM      8  O   UNL     1      -1.020  -9.322   0.807  1.00  0.00    -0.300 OA
ENDBRANCH   6   7
BRANCH   6   9
ATOM      9  O   UNL     1       0.675  -7.936   3.549  1.00  0.00    -0.383 OA
ATOM     10  H   UNL     1       0.237  -7.129   3.930  1.00  0.00     0.211 HD
ENDBRANCH   6   9
ENDBRANCH   5   6
BRANCH   5  11
ATOM     11  O   UNL     1       2.089  -9.372   1.223  1.00  0.00    -0.387 OA
ATOM     12  H   UNL     1       1.360  -9.945   1.580  1.00  0.00     0.211 HD
ENDBRANCH   5  11
ENDBRANCH   1   5
BRANCH   1  13
ATOM     13  O   UNL     1       2.108  -6.200  -0.220  1.00  0.00    -0.388 OA
ATOM     14  H   UNL     1       1.542  -5.622  -0.795  1.00  0.00     0.211 HD
ENDBRANCH   1  13
TORSDOF 8
ENDMDL
