MODEL 1
REMARK VINA RESULT:    -4.344      0.000      0.000
REMARK INTER + INTRA:          -4.344
REMARK INTER:                  -4.344
REMARK INTRA:                   0.000
REMARK UNBOUND:                 0.000
REMARK SMILES CC1=CC(=O)[C@@H]2C[C@H]1C2(C)C
REMARK SMILES IDX 1 1 2 2 3 3 4 4 5 5 6 6 7 7 8 8 9 9 10 10 11 11
REMARK H PARENT
REMARK Flexibility Score: inf
ROOT
ATOM      1  C   UNL     1       1.541  25.760  39.587  1.00  0.00     0.040 C 
ATOM      2  C   UNL     1       2.082  24.428  39.171  1.00  0.00    -0.066 C 
ATOM      3  C   UNL     1       3.311  24.005  39.575  1.00  0.00     0.047 C 
ATOM      4  C   UNL     1       3.727  22.640  39.118  1.00  0.00     0.159 C 
ATOM      5  O   UNL     1       4.823  22.122  39.457  1.00  0.00    -0.295 OA
ATOM      6  C   UNL     1       2.727  21.922  38.212  1.00  0.00     0.067 C 
ATOM      7  C   UNL     1       2.299  22.999  37.190  1.00  0.00     0.021 C 
ATOM      8  C   UNL     1       1.284  23.478  38.252  1.00  0.00     0.022 C 
ATOM      9  C   UNL     1       1.311  22.040  38.845  1.00  0.00    -0.019 C 
ATOM     10  C   UNL     1       0.280  21.103  38.166  1.00  0.00     0.012 C 
ATOM     11  C   UNL     1       1.175  21.878  40.386  1.00  0.00     0.012 C 
ENDROOT
TORSDOF 0
ENDMDL
MODEL 2
REMARK VINA RESULT:    -4.341      1.813      3.467
REMARK INTER + INTRA:          -4.341
REMARK INTER:                  -4.341
REMARK INTRA:                   0.000
REMARK UNBOUND:                 0.000
REMARK SMILES CC1=CC(=O)[C@@H]2C[C@H]1C2(C)C
REMARK SMILES IDX 1 1 2 2 3 3 4 4 5 5 6 6 7 7 8 8 9 9 10 10 11 11
REMARK H PARENT
REMARK Flexibility Score: inf
ROOT
ATOM      1  C   UNL     1       0.885  20.273  38.120  1.00  0.00     0.040 C 
ATOM      2  C   UNL     1       1.314  21.637  38.562  1.00  0.00    -0.066 C 
ATOM      3  C   UNL     1       0.535  22.392  39.385  1.00  0.00     0.047 C 
ATOM      4  C   UNL     1       1.088  23.727  39.781  1.00  0.00     0.159 C 
ATOM      5  O   UNL     1       0.481  24.499  40.568  1.00  0.00    -0.295 OA
ATOM      6  C   UNL     1       2.439  24.084  39.163  1.00  0.00     0.067 C 
ATOM      7  C   UNL     1       2.287  23.705  37.673  1.00  0.00     0.021 C 
ATOM      8  C   UNL     1       2.645  22.262  38.093  1.00  0.00     0.022 C 
ATOM      9  C   UNL     1       3.393  22.866  39.317  1.00  0.00    -0.019 C 
ATOM     10  C   UNL     1       4.865  23.222  38.991  1.00  0.00     0.012 C 
ATOM     11  C   UNL     1       3.369  22.074  40.656  1.00  0.00     0.012 C 
ENDROOT
TORSDOF 0
ENDMDL
MODEL 3
REMARK VINA RESULT:    -4.264      1.588      2.844
REMARK INTER + INTRA:          -4.264
REMARK INTER:                  -4.264
REMARK INTRA:                   0.000
REMARK UNBOUND:                 0.000
REMARK SMILES CC1=CC(=O)[C@@H]2C[C@H]1C2(C)C
REMARK SMILES IDX 1 1 2 2 3 3 4 4 5 5 6 6 7 7 8 8 9 9 10 10 11 11
REMARK H PARENT
REMARK Flexibility Score: inf
ROOT
ATOM      1  C   UNL     1       1.895  25.844  39.859  1.00  0.00     0.040 C 
ATOM      2  C   UNL     1       2.137  24.435  39.414  1.00  0.00    -0.066 C 
ATOM      3  C   UNL     1       1.970  24.064  38.115  1.00  0.00     0.047 C 
ATOM      4  C   UNL     1       2.272  22.633  37.790  1.00  0.00     0.159 C 
ATOM      5  O   UNL     1       2.193  22.179  36.618  1.00  0.00    -0.295 OA
ATOM      6  C   UNL     1       2.684  21.765  38.979  1.00  0.00     0.067 C 
ATOM      7  C   UNL     1       1.662  22.123  40.081  1.00  0.00     0.021 C 
ATOM      8  C   UNL     1       2.567  23.333  40.405  1.00  0.00     0.022 C 
ATOM      9  C   UNL     1       3.757  22.531  39.803  1.00  0.00    -0.019 C 
ATOM     10  C   UNL     1       4.451  21.628  40.854  1.00  0.00     0.012 C 
ATOM     11  C   UNL     1       4.858  23.317  39.034  1.00  0.00     0.012 C 
ENDROOT
TORSDOF 0
ENDMDL
MODEL 4
REMARK VINA RESULT:    -4.214      1.834      3.248
REMARK INTER + INTRA:          -4.214
REMARK INTER:                  -4.214
REMARK INTRA:                   0.000
REMARK UNBOUND:                 0.000
REMARK SMILES CC1=CC(=O)[C@@H]2C[C@H]1C2(C)C
REMARK SMILES IDX 1 1 2 2 3 3 4 4 5 5 6 6 7 7 8 8 9 9 10 10 11 11
REMARK H PARENT
REMARK Flexibility Score: inf
ROOT
ATOM      1  C   UNL     1       2.045  22.101  36.924  1.00  0.00     0.040 C 
ATOM      2  C   UNL     1       2.564  22.874  38.096  1.00  0.00    -0.066 C 
ATOM      3  C   UNL     1       2.069  24.103  38.409  1.00  0.00     0.047 C 
ATOM      4  C   UNL     1       2.649  24.762  39.623  1.00  0.00     0.159 C 
ATOM      5  O   UNL     1       2.248  25.881  40.037  1.00  0.00    -0.295 OA
ATOM      6  C   UNL     1       3.761  23.980  40.323  1.00  0.00     0.067 C 
ATOM      7  C   UNL     1       4.675  23.508  39.171  1.00  0.00     0.021 C 
ATOM      8  C   UNL     1       3.694  22.327  38.994  1.00  0.00     0.022 C 
ATOM      9  C   UNL     1       3.300  22.504  40.488  1.00  0.00    -0.019 C 
ATOM     10  C   UNL     1       4.222  21.701  41.440  1.00  0.00     0.012 C 
ATOM     11  C   UNL     1       1.823  22.232  40.896  1.00  0.00     0.012 C 
ENDROOT
TORSDOF 0
ENDMDL
MODEL 5
REMARK VINA RESULT:    -4.212      1.686      2.992
REMARK INTER + INTRA:          -4.212
REMARK INTER:                  -4.212
REMARK INTRA:                   0.000
REMARK UNBOUND:                 0.000
REMARK SMILES CC1=CC(=O)[C@@H]2C[C@H]1C2(C)C
REMARK SMILES IDX 1 1 2 2 3 3 4 4 5 5 6 6 7 7 8 8 9 9 10 10 11 11
REMARK H PARENT
REMARK Flexibility Score: inf
ROOT
ATOM      1  C   UNL     1       5.528  22.627  39.334  1.00  0.00     0.040 C 
ATOM      2  C   UNL     1       4.052  22.867  39.385  1.00  0.00    -0.066 C 
ATOM      3  C   UNL     1       3.534  24.120  39.262  1.00  0.00     0.047 C 
ATOM      4  C   UNL     1       2.040  24.227  39.298  1.00  0.00     0.159 C 
ATOM      5  O   UNL     1       1.441  25.325  39.156  1.00  0.00    -0.295 OA
ATOM      6  C   UNL     1       1.296  22.910  39.519  1.00  0.00     0.067 C 
ATOM      7  C   UNL     1       2.065  22.229  40.673  1.00  0.00     0.021 C 
ATOM      8  C   UNL     1       3.047  21.714  39.598  1.00  0.00     0.022 C 
ATOM      9  C   UNL     1       1.891  21.838  38.564  1.00  0.00    -0.019 C 
ATOM     10  C   UNL     1       1.021  20.557  38.496  1.00  0.00     0.012 C 
ATOM     11  C   UNL     1       2.248  22.260  37.109  1.00  0.00     0.012 C 
ENDROOT
TORSDOF 0
ENDMDL
MODEL 6
REMARK VINA RESULT:    -4.117      1.656      3.207
REMARK INTER + INTRA:          -4.117
REMARK INTER:                  -4.117
REMARK INTRA:                   0.000
REMARK UNBOUND:                 0.000
REMARK SMILES CC1=CC(=O)[C@@H]2C[C@H]1C2(C)C
REMARK SMILES IDX 1 1 2 2 3 3 4 4 5 5 6 6 7 7 8 8 9 9 10 10 11 11
REMARK H PARENT
REMARK Flexibility Score: inf
ROOT
ATOM      1  C   UNL     1       5.252  22.638  39.299  1.00  0.00     0.040 C 
ATOM      2  C   UNL     1       3.769  22.826  39.237  1.00  0.00    -0.066 C 
ATOM      3  C   UNL     1       2.913  21.814  39.553  1.00  0.00     0.047 C 
ATOM      4  C   UNL     1       1.452  22.136  39.482  1.00  0.00     0.159 C 
ATOM      5  O   UNL     1       0.564  21.298  39.787  1.00  0.00    -0.295 OA
ATOM      6  C   UNL     1       1.116  23.552  39.014  1.00  0.00     0.067 C 
ATOM      7  C   UNL     1       2.031  23.774  37.790  1.00  0.00     0.021 C 
ATOM      8  C   UNL     1       3.137  24.163  38.796  1.00  0.00     0.022 C 
ATOM      9  C   UNL     1       2.010  24.556  39.794  1.00  0.00    -0.019 C 
ATOM     10  C   UNL     1       1.547  26.024  39.612  1.00  0.00     0.012 C 
ATOM     11  C   UNL     1       2.252  24.307  41.311  1.00  0.00     0.012 C 
ENDROOT
TORSDOF 0
ENDMDL
MODEL 7
REMARK VINA RESULT:    -4.103     13.990     14.974
REMARK INTER + INTRA:          -4.103
REMARK INTER:                  -4.103
REMARK INTRA:                   0.000
REMARK UNBOUND:                 0.000
REMARK SMILES CC1=CC(=O)[C@@H]2C[C@H]1C2(C)C
REMARK SMILES IDX 1 1 2 2 3 3 4 4 5 5 6 6 7 7 8 8 9 9 10 10 11 11
REMARK H PARENT
REMARK Flexibility Score: inf
ROOT
ATOM      1  C   UNL     1       4.736  11.686  46.702  1.00  0.00     0.040 C 
ATOM      2  C   UNL     1       3.360  11.167  46.975  1.00  0.00    -0.066 C 
ATOM      3  C   UNL     1       3.147   9.864  47.308  1.00  0.00     0.047 C 
ATOM      4  C   UNL     1       1.727   9.474  47.587  1.00  0.00     0.159 C 
ATOM      5  O   UNL     1       1.408   8.309  47.942  1.00  0.00    -0.295 OA
ATOM      6  C   UNL     1       0.696  10.589  47.410  1.00  0.00     0.067 C 
ATOM      7  C   UNL     1       1.082  11.253  46.070  1.00  0.00     0.021 C 
ATOM      8  C   UNL     1       2.114  12.074  46.874  1.00  0.00     0.022 C 
ATOM      9  C   UNL     1       1.219  11.865  48.128  1.00  0.00    -0.019 C 
ATOM     10  C   UNL     1       0.127  12.957  48.262  1.00  0.00     0.012 C 
ATOM     11  C   UNL     1       1.916  11.703  49.510  1.00  0.00     0.012 C 
ENDROOT
TORSDOF 0
ENDMDL
MODEL 8
REMARK VINA RESULT:    -4.101     13.380     14.920
REMARK INTER + INTRA:          -4.101
REMARK INTER:                  -4.101
REMARK INTRA:                   0.000
REMARK UNBOUND:                 0.000
REMARK SMILES CC1=CC(=O)[C@@H]2C[C@H]1C2(C)C
REMARK SMILES IDX 1 1 2 2 3 3 4 4 5 5 6 6 7 7 8 8 9 9 10 10 11 11
REMARK H PARENT
REMARK Flexibility Score: inf
ROOT
ATOM      1  C   UNL     1       0.669  12.881  48.699  1.00  0.00     0.040 C 
ATOM      2  C   UNL     1       1.229  11.748  47.898  1.00  0.00    -0.066 C 
ATOM      3  C   UNL     1       0.581  11.268  46.801  1.00  0.00     0.047 C 
ATOM      4  C   UNL     1       1.258  10.153  46.065  1.00  0.00     0.159 C 
ATOM      5  O   UNL     1       0.779   9.651  45.014  1.00  0.00    -0.295 OA
ATOM      6  C   UNL     1       2.572   9.669  46.678  1.00  0.00     0.067 C 
ATOM      7  C   UNL     1       2.263   9.543  48.186  1.00  0.00     0.021 C 
ATOM      8  C   UNL     1       2.555  11.057  48.283  1.00  0.00     0.022 C 
ATOM      9  C   UNL     1       3.447  10.908  47.017  1.00  0.00    -0.019 C 
ATOM     10  C   UNL     1       4.907  10.523  47.367  1.00  0.00     0.012 C 
ATOM     11  C   UNL     1       3.485  12.087  46.002  1.00  0.00     0.012 C 
ENDROOT
TORSDOF 0
ENDMDL
MODEL 9
REMARK VINA RESULT:    -4.080     13.670     15.275
REMARK INTER + INTRA:          -4.080
REMARK INTER:                  -4.080
REMARK INTRA:                   0.000
REMARK UNBOUND:                 0.000
REMARK SMILES CC1=CC(=O)[C@@H]2C[C@H]1C2(C)C
REMARK SMILES IDX 1 1 2 2 3 3 4 4 5 5 6 6 7 7 8 8 9 9 10 10 11 11
REMARK H PARENT
REMARK Flexibility Score: inf
ROOT
ATOM      1  C   UNL     1       1.772  11.762  49.343  1.00  0.00     0.040 C 
ATOM      2  C   UNL     1       2.299  10.845  48.285  1.00  0.00    -0.066 C 
ATOM      3  C   UNL     1       1.831   9.573  48.153  1.00  0.00     0.047 C 
ATOM      4  C   UNL     1       2.415   8.763  47.037  1.00  0.00     0.159 C 
ATOM      5  O   UNL     1       2.036   7.588  46.789  1.00  0.00    -0.295 OA
ATOM      6  C   UNL     1       3.502   9.463  46.221  1.00  0.00     0.067 C 
ATOM      7  C   UNL     1       4.415  10.113  47.284  1.00  0.00     0.021 C 
ATOM      8  C   UNL     1       3.408  11.285  47.306  1.00  0.00     0.022 C 
ATOM      9  C   UNL     1       3.005  10.891  45.856  1.00  0.00    -0.019 C 
ATOM     10  C   UNL     1       3.899  11.573  44.790  1.00  0.00     0.012 C 
ATOM     11  C   UNL     1       1.519  11.070  45.432  1.00  0.00     0.012 C 
ENDROOT
TORSDOF 0
ENDMDL
