MODEL 1
REMARK VINA RESULT:     2.461      0.000      0.000
REMARK INTER + INTRA:           2.816
REMARK INTER:                   2.749
REMARK INTRA:                   0.067
REMARK UNBOUND:                 0.067
REMARK SMILES COc1cc2c(cc1C(C)=O)C=CC(C)(C)O2
REMARK SMILES IDX 8 1 3 2 4 3 5 4 6 5 7 6 12 7 13 8 14 9 17 10 15 11 16 12
REMARK SMILES IDX 9 13 10 14 11 15 2 16 1 17
REMARK H PARENT
REMARK Flexibility Score: inf
ROOT
ATOM      1  C   UNL     1     120.322 114.462 126.459  1.00  0.00     0.060 A 
ATOM      2  C   UNL     1     119.325 114.216 125.482  1.00  0.00     0.133 A 
ATOM      3  C   UNL     1     118.205 115.069 125.404  1.00  0.00     0.094 A 
ATOM      4  C   UNL     1     118.066 116.140 126.287  1.00  0.00     0.131 A 
ATOM      5  C   UNL     1     119.045 116.388 127.249  1.00  0.00     0.017 A 
ATOM      6  C   UNL     1     120.168 115.558 127.335  1.00  0.00     0.027 A 
ATOM      7  C   UNL     1     118.894 117.560 128.124  1.00  0.00     0.012 C 
ATOM      8  C   UNL     1     117.787 118.308 128.080  1.00  0.00     0.021 C 
ATOM      9  C   UNL     1     116.593 117.917 127.227  1.00  0.00     0.122 C 
ATOM     10  O   UNL     1     116.954 116.984 126.198  1.00  0.00    -0.483 OA
ATOM     11  C   UNL     1     116.014 119.170 126.559  1.00  0.00     0.061 C 
ATOM     12  C   UNL     1     115.531 117.268 128.125  1.00  0.00     0.061 C 
ENDROOT
BRANCH   1  13
ATOM     13  C   UNL     1     121.529 113.594 126.565  1.00  0.00     0.163 C 
ATOM     14  C   UNL     1     122.094 113.188 127.894  1.00  0.00     0.093 C 
ATOM     15  O   UNL     1     122.125 113.210 125.523  1.00  0.00    -0.294 OA
ENDBRANCH   1  13
BRANCH   2  16
ATOM     16  O   UNL     1     119.464 113.117 124.618  1.00  0.00    -0.496 OA
ATOM     17  C   UNL     1     119.500 113.200 123.197  1.00  0.00     0.278 C 
ENDBRANCH   2  16
TORSDOF 2
ENDMDL
