MODEL 1
REMARK VINA RESULT:    -3.724      0.000      0.000
REMARK INTER + INTRA:          -3.724
REMARK INTER:                  -3.724
REMARK INTRA:                   0.000
REMARK UNBOUND:                 0.000
REMARK SMILES CC1=CC(=O)[C@@H]2C[C@H]1C2(C)C
REMARK SMILES IDX 1 1 2 2 3 3 4 4 5 5 6 6 7 7 8 8 9 9 10 10 11 11
REMARK H PARENT
REMARK Flexibility Score: inf
ROOT
ATOM      1  C   UNL     1     187.266 184.784 223.137  1.00  0.00     0.040 C 
ATOM      2  C   UNL     1     187.213 183.399 223.702  1.00  0.00    -0.066 C 
ATOM      3  C   UNL     1     186.747 182.351 222.968  1.00  0.00     0.047 C 
ATOM      4  C   UNL     1     186.774 181.010 223.635  1.00  0.00     0.159 C 
ATOM      5  O   UNL     1     186.406 179.959 223.048  1.00  0.00    -0.295 OA
ATOM      6  C   UNL     1     187.279 181.007 225.078  1.00  0.00     0.067 C 
ATOM      7  C   UNL     1     186.551 182.199 225.737  1.00  0.00     0.021 C 
ATOM      8  C   UNL     1     187.665 183.093 225.147  1.00  0.00     0.022 C 
ATOM      9  C   UNL     1     188.590 181.841 225.145  1.00  0.00    -0.019 C 
ATOM     10  C   UNL     1     189.621 181.690 223.991  1.00  0.00     0.012 C 
ATOM     11  C   UNL     1     189.337 181.658 226.491  1.00  0.00     0.012 C 
ENDROOT
TORSDOF 0
ENDMDL
MODEL 2
REMARK VINA RESULT:    -3.709      7.324      9.499
REMARK INTER + INTRA:          -3.709
REMARK INTER:                  -3.709
REMARK INTRA:                   0.000
REMARK UNBOUND:                 0.000
REMARK SMILES CC1=CC(=O)[C@@H]2C[C@H]1C2(C)C
REMARK SMILES IDX 1 1 2 2 3 3 4 4 5 5 6 6 7 7 8 8 9 9 10 10 11 11
REMARK H PARENT
REMARK Flexibility Score: inf
ROOT
ATOM      1  C   UNL     1     185.498 187.943 223.238  1.00  0.00     0.040 C 
ATOM      2  C   UNL     1     185.554 189.345 223.758  1.00  0.00    -0.066 C 
ATOM      3  C   UNL     1     186.006 190.371 222.985  1.00  0.00     0.047 C 
ATOM      4  C   UNL     1     185.984 191.733 223.609  1.00  0.00     0.159 C 
ATOM      5  O   UNL     1     186.339 192.765 222.983  1.00  0.00    -0.295 OA
ATOM      6  C   UNL     1     185.499 191.780 225.057  1.00  0.00     0.067 C 
ATOM      7  C   UNL     1     186.240 190.612 225.744  1.00  0.00     0.021 C 
ATOM      8  C   UNL     1     185.121 189.696 225.198  1.00  0.00     0.022 C 
ATOM      9  C   UNL     1     184.191 190.944 225.170  1.00  0.00    -0.019 C 
ATOM     10  C   UNL     1     183.144 191.055 224.026  1.00  0.00     0.012 C 
ATOM     11  C   UNL     1     183.463 191.167 226.519  1.00  0.00     0.012 C 
ENDROOT
TORSDOF 0
ENDMDL
MODEL 3
REMARK VINA RESULT:    -3.631     14.372     16.088
REMARK INTER + INTRA:          -3.631
REMARK INTER:                  -3.631
REMARK INTRA:                   0.000
REMARK UNBOUND:                 0.000
REMARK SMILES CC1=CC(=O)[C@@H]2C[C@H]1C2(C)C
REMARK SMILES IDX 1 1 2 2 3 3 4 4 5 5 6 6 7 7 8 8 9 9 10 10 11 11
REMARK H PARENT
REMARK Flexibility Score: inf
ROOT
ATOM      1  C   UNL     1     177.722 177.338 236.011  1.00  0.00     0.040 C 
ATOM      2  C   UNL     1     177.687 178.790 236.370  1.00  0.00    -0.066 C 
ATOM      3  C   UNL     1     178.709 179.377 237.052  1.00  0.00     0.047 C 
ATOM      4  C   UNL     1     178.570 180.844 237.324  1.00  0.00     0.159 C 
ATOM      5  O   UNL     1     179.465 181.506 237.910  1.00  0.00    -0.295 OA
ATOM      6  C   UNL     1     177.267 181.478 236.838  1.00  0.00     0.067 C 
ATOM      7  C   UNL     1     176.172 180.487 237.289  1.00  0.00     0.021 C 
ATOM      8  C   UNL     1     176.486 179.689 236.003  1.00  0.00     0.022 C 
ATOM      9  C   UNL     1     177.006 181.016 235.376  1.00  0.00    -0.019 C 
ATOM     10  C   UNL     1     178.212 180.943 234.398  1.00  0.00     0.012 C 
ATOM     11  C   UNL     1     175.876 181.828 234.693  1.00  0.00     0.012 C 
ENDROOT
TORSDOF 0
ENDMDL
MODEL 4
REMARK VINA RESULT:    -3.614     14.206     15.803
REMARK INTER + INTRA:          -3.614
REMARK INTER:                  -3.614
REMARK INTRA:                   0.000
REMARK UNBOUND:                 0.000
REMARK SMILES CC1=CC(=O)[C@@H]2C[C@H]1C2(C)C
REMARK SMILES IDX 1 1 2 2 3 3 4 4 5 5 6 6 7 7 8 8 9 9 10 10 11 11
REMARK H PARENT
REMARK Flexibility Score: inf
ROOT
ATOM      1  C   UNL     1     180.213 180.330 237.857  1.00  0.00     0.040 C 
ATOM      2  C   UNL     1     178.897 180.087 237.187  1.00  0.00    -0.066 C 
ATOM      3  C   UNL     1     178.018 181.102 236.964  1.00  0.00     0.047 C 
ATOM      4  C   UNL     1     176.749 180.737 236.256  1.00  0.00     0.159 C 
ATOM      5  O   UNL     1     175.875 181.592 235.958  1.00  0.00    -0.295 OA
ATOM      6  C   UNL     1     176.590 179.254 235.922  1.00  0.00     0.067 C 
ATOM      7  C   UNL     1     177.005 178.526 237.219  1.00  0.00     0.021 C 
ATOM      8  C   UNL     1     178.465 178.676 236.733  1.00  0.00     0.022 C 
ATOM      9  C   UNL     1     177.913 178.747 235.279  1.00  0.00    -0.019 C 
ATOM     10  C   UNL     1     178.640 179.670 234.261  1.00  0.00     0.012 C 
ATOM     11  C   UNL     1     177.758 177.344 234.638  1.00  0.00     0.012 C 
ENDROOT
TORSDOF 0
ENDMDL
MODEL 5
REMARK VINA RESULT:    -3.582      2.019      3.164
REMARK INTER + INTRA:          -3.582
REMARK INTER:                  -3.582
REMARK INTRA:                   0.000
REMARK UNBOUND:                 0.000
REMARK SMILES CC1=CC(=O)[C@@H]2C[C@H]1C2(C)C
REMARK SMILES IDX 1 1 2 2 3 3 4 4 5 5 6 6 7 7 8 8 9 9 10 10 11 11
REMARK H PARENT
REMARK Flexibility Score: inf
ROOT
ATOM      1  C   UNL     1     186.712 180.820 223.227  1.00  0.00     0.040 C 
ATOM      2  C   UNL     1     187.989 181.431 223.711  1.00  0.00    -0.066 C 
ATOM      3  C   UNL     1     189.102 181.460 222.928  1.00  0.00     0.047 C 
ATOM      4  C   UNL     1     190.309 182.127 223.515  1.00  0.00     0.159 C 
ATOM      5  O   UNL     1     191.386 182.252 222.876  1.00  0.00    -0.295 OA
ATOM      6  C   UNL     1     190.140 182.646 224.942  1.00  0.00     0.067 C 
ATOM      7  C   UNL     1     189.442 181.487 225.687  1.00  0.00     0.021 C 
ATOM      8  C   UNL     1     188.113 182.041 225.124  1.00  0.00     0.022 C 
ATOM      9  C   UNL     1     188.801 183.434 225.027  1.00  0.00    -0.019 C 
ATOM     10  C   UNL     1     188.416 184.364 223.843  1.00  0.00     0.012 C 
ATOM     11  C   UNL     1     188.677 184.246 226.342  1.00  0.00     0.012 C 
ENDROOT
TORSDOF 0
ENDMDL
MODEL 6
REMARK VINA RESULT:    -3.580     14.454     15.732
REMARK INTER + INTRA:          -3.580
REMARK INTER:                  -3.580
REMARK INTRA:                   0.000
REMARK UNBOUND:                 0.000
REMARK SMILES CC1=CC(=O)[C@@H]2C[C@H]1C2(C)C
REMARK SMILES IDX 1 1 2 2 3 3 4 4 5 5 6 6 7 7 8 8 9 9 10 10 11 11
REMARK H PARENT
REMARK Flexibility Score: inf
ROOT
ATOM      1  C   UNL     1     176.867 182.018 233.521  1.00  0.00     0.040 C 
ATOM      2  C   UNL     1     177.481 181.678 234.842  1.00  0.00    -0.066 C 
ATOM      3  C   UNL     1     177.901 182.649 235.699  1.00  0.00     0.047 C 
ATOM      4  C   UNL     1     178.470 182.181 237.004  1.00  0.00     0.159 C 
ATOM      5  O   UNL     1     178.857 182.982 237.895  1.00  0.00    -0.295 OA
ATOM      6  C   UNL     1     178.547 180.665 237.179  1.00  0.00     0.067 C 
ATOM      7  C   UNL     1     179.128 180.158 235.840  1.00  0.00     0.021 C 
ATOM      8  C   UNL     1     177.684 180.214 235.292  1.00  0.00     0.022 C 
ATOM      9  C   UNL     1     177.182 180.048 236.756  1.00  0.00    -0.019 C 
ATOM     10  C   UNL     1     175.879 180.784 237.174  1.00  0.00     0.012 C 
ATOM     11  C   UNL     1     177.054 178.560 237.170  1.00  0.00     0.012 C 
ENDROOT
TORSDOF 0
ENDMDL
MODEL 7
REMARK VINA RESULT:    -3.579      7.770      9.476
REMARK INTER + INTRA:          -3.579
REMARK INTER:                  -3.579
REMARK INTRA:                   0.000
REMARK UNBOUND:                 0.000
REMARK SMILES CC1=CC(=O)[C@@H]2C[C@H]1C2(C)C
REMARK SMILES IDX 1 1 2 2 3 3 4 4 5 5 6 6 7 7 8 8 9 9 10 10 11 11
REMARK H PARENT
REMARK Flexibility Score: inf
ROOT
ATOM      1  C   UNL     1     182.276 190.503 222.911  1.00  0.00     0.040 C 
ATOM      2  C   UNL     1     183.478 190.795 223.753  1.00  0.00    -0.066 C 
ATOM      3  C   UNL     1     183.355 191.262 225.026  1.00  0.00     0.047 C 
ATOM      4  C   UNL     1     184.633 191.485 225.776  1.00  0.00     0.159 C 
ATOM      5  O   UNL     1     184.650 191.878 226.972  1.00  0.00    -0.295 OA
ATOM      6  C   UNL     1     185.912 191.203 224.989  1.00  0.00     0.067 C 
ATOM      7  C   UNL     1     185.673 191.881 223.622  1.00  0.00     0.021 C 
ATOM      8  C   UNL     1     184.913 190.598 223.216  1.00  0.00     0.022 C 
ATOM      9  C   UNL     1     185.759 189.830 224.273  1.00  0.00    -0.019 C 
ATOM     10  C   UNL     1     185.085 188.664 225.048  1.00  0.00     0.012 C 
ATOM     11  C   UNL     1     187.101 189.315 223.692  1.00  0.00     0.012 C 
ENDROOT
TORSDOF 0
ENDMDL
MODEL 8
REMARK VINA RESULT:    -3.531      7.489      9.126
REMARK INTER + INTRA:          -3.531
REMARK INTER:                  -3.531
REMARK INTRA:                   0.000
REMARK UNBOUND:                 0.000
REMARK SMILES CC1=CC(=O)[C@@H]2C[C@H]1C2(C)C
REMARK SMILES IDX 1 1 2 2 3 3 4 4 5 5 6 6 7 7 8 8 9 9 10 10 11 11
REMARK H PARENT
REMARK Flexibility Score: inf
ROOT
ATOM      1  C   UNL     1     185.992 192.056 223.249  1.00  0.00     0.040 C 
ATOM      2  C   UNL     1     184.767 191.307 223.669  1.00  0.00    -0.066 C 
ATOM      3  C   UNL     1     183.607 191.390 222.960  1.00  0.00     0.047 C 
ATOM      4  C   UNL     1     182.460 190.569 223.466  1.00  0.00     0.159 C 
ATOM      5  O   UNL     1     181.349 190.530 222.876  1.00  0.00    -0.295 OA
ATOM      6  C   UNL     1     182.734 189.781 224.746  1.00  0.00     0.067 C 
ATOM      7  C   UNL     1     183.444 190.794 225.670  1.00  0.00     0.021 C 
ATOM      8  C   UNL     1     184.750 190.420 224.933  1.00  0.00     0.022 C 
ATOM      9  C   UNL     1     184.099 189.048 224.594  1.00  0.00    -0.019 C 
ATOM     10  C   UNL     1     184.436 188.392 223.226  1.00  0.00     0.012 C 
ATOM     11  C   UNL     1     184.330 187.995 225.708  1.00  0.00     0.012 C 
ENDROOT
TORSDOF 0
ENDMDL
MODEL 9
REMARK VINA RESULT:    -3.515     14.314     15.688
REMARK INTER + INTRA:          -3.515
REMARK INTER:                  -3.515
REMARK INTRA:                   0.000
REMARK UNBOUND:                 0.000
REMARK SMILES CC1=CC(=O)[C@@H]2C[C@H]1C2(C)C
REMARK SMILES IDX 1 1 2 2 3 3 4 4 5 5 6 6 7 7 8 8 9 9 10 10 11 11
REMARK H PARENT
REMARK Flexibility Score: inf
ROOT
ATOM      1  C   UNL     1     175.875 181.198 233.321  1.00  0.00     0.040 C 
ATOM      2  C   UNL     1     176.364 180.620 234.611  1.00  0.00    -0.066 C 
ATOM      3  C   UNL     1     176.580 179.282 234.751  1.00  0.00     0.047 C 
ATOM      4  C   UNL     1     177.099 178.830 236.082  1.00  0.00     0.159 C 
ATOM      5  O   UNL     1     177.375 177.626 236.322  1.00  0.00    -0.295 OA
ATOM      6  C   UNL     1     177.273 179.933 237.126  1.00  0.00     0.067 C 
ATOM      7  C   UNL     1     175.969 180.755 237.028  1.00  0.00     0.021 C 
ATOM      8  C   UNL     1     176.631 181.503 235.849  1.00  0.00     0.022 C 
ATOM      9  C   UNL     1     178.012 181.130 236.463  1.00  0.00    -0.019 C 
ATOM     10  C   UNL     1     179.189 180.826 235.494  1.00  0.00     0.012 C 
ATOM     11  C   UNL     1     178.496 182.173 237.502  1.00  0.00     0.012 C 
ENDROOT
TORSDOF 0
ENDMDL
