MODEL 1
REMARK VINA RESULT:    -2.127      0.000      0.000
REMARK INTER + INTRA:          -7.718
REMARK INTER:                  -5.360
REMARK INTRA:                  -2.358
REMARK UNBOUND:                -2.358
REMARK SMILES CCCCCCCCCCCCCCCCCCCCCCCCCCCC(=O)[O-]
REMARK SMILES IDX 15 1 16 2 17 3 18 4 19 5 20 6 21 7 22 8 23 9 24 10 25 11
REMARK SMILES IDX 26 12 27 13 28 14 29 15 30 16 14 17 13 18 12 19 11 20 10 21
REMARK SMILES IDX 9 22 8 23 7 24 6 25 5 26 4 27 3 28 2 29 1 30
REMARK H PARENT
REMARK Flexibility Score: inf
ROOT
ATOM      1  C   UNL     1      16.240  -6.881   6.800  1.00  0.00     0.000 C 
ENDROOT
BRANCH   1   2
ATOM      2  C   UNL     1      14.827  -7.458   6.977  1.00  0.00     0.000 C 
BRANCH   2   3
ATOM      3  C   UNL     1      14.470  -8.403   5.821  1.00  0.00     0.000 C 
BRANCH   3   4
ATOM      4  C   UNL     1      14.341  -7.661   4.479  1.00  0.00     0.000 C 
BRANCH   4   5
ATOM      5  C   UNL     1      12.888  -7.631   3.974  1.00  0.00     0.000 C 
BRANCH   5   6
ATOM      6  C   UNL     1      11.884  -7.229   5.064  1.00  0.00     0.000 C 
BRANCH   6   7
ATOM      7  C   UNL     1      11.181  -8.437   5.705  1.00  0.00     0.000 C 
BRANCH   7   8
ATOM      8  C   UNL     1       9.678  -8.430   5.387  1.00  0.00     0.000 C 
BRANCH   8   9
ATOM      9  C   UNL     1       9.274  -9.515   4.368  1.00  0.00     0.000 C 
BRANCH   9  10
ATOM     10  C   UNL     1       7.878 -10.122   4.612  1.00  0.00     0.000 C 
BRANCH  10  11
ATOM     11  C   UNL     1       6.692  -9.275   4.110  1.00  0.00     0.000 C 
BRANCH  11  12
ATOM     12  C   UNL     1       5.610  -8.980   5.166  1.00  0.00     0.006 C 
BRANCH  12  13
ATOM     13  C   UNL     1       4.577  -7.953   4.687  1.00  0.00     0.053 C 
BRANCH  13  14
ATOM     14  C   UNL     1       4.952  -6.579   5.142  1.00  0.00     0.041 C 
ATOM     15  O   UNL     1       4.608  -5.571   4.468  1.00  0.00    -0.550 OA
ATOM     16  O   UNL     1       5.718  -6.413   6.289  1.00  0.00    -0.550 OA
ENDBRANCH  13  14
ENDBRANCH  12  13
ENDBRANCH  11  12
ENDBRANCH  10  11
ENDBRANCH   9  10
ENDBRANCH   8   9
ENDBRANCH   7   8
ENDBRANCH   6   7
ENDBRANCH   5   6
ENDBRANCH   4   5
ENDBRANCH   3   4
ENDBRANCH   2   3
ENDBRANCH   1   2
BRANCH   1  17
ATOM     17  C   UNL     1      17.297  -7.603   7.661  1.00  0.00     0.000 C 
BRANCH  17  18
ATOM     18  C   UNL     1      18.713  -7.002   7.564  1.00  0.00     0.000 C 
BRANCH  18  19
ATOM     19  C   UNL     1      19.873  -7.977   7.843  1.00  0.00     0.000 C 
BRANCH  19  20
ATOM     20  C   UNL     1      19.458  -9.445   8.063  1.00  0.00     0.000 C 
BRANCH  20  21
ATOM     21  C   UNL     1      18.900 -10.106   6.795  1.00  0.00     0.000 C 
BRANCH  21  22
ATOM     22  C   UNL     1      19.897  -9.993   5.633  1.00  0.00    -0.000 C 
BRANCH  22  23
ATOM     23  C   UNL     1      19.222  -9.637   4.295  1.00  0.00    -0.000 C 
BRANCH  23  24
ATOM     24  C   UNL     1      17.914  -8.838   4.422  1.00  0.00    -0.000 C 
BRANCH  24  25
ATOM     25  C   UNL     1      18.111  -7.326   4.209  1.00  0.00    -0.000 C 
BRANCH  25  26
ATOM     26  C   UNL     1      19.572  -6.965   3.875  1.00  0.00    -0.000 C 
BRANCH  26  27
ATOM     27  C   UNL     1      20.006  -5.571   4.372  1.00  0.00    -0.000 C 
BRANCH  27  28
ATOM     28  C   UNL     1      21.442  -5.518   4.929  1.00  0.00    -0.000 C 
BRANCH  28  29
ATOM     29  C   UNL     1      21.938  -6.891   5.406  1.00  0.00    -0.003 C 
ATOM     30  C   UNL     1      23.125  -7.368   4.572  1.00  0.00     0.004 C 
ENDBRANCH  28  29
ENDBRANCH  27  28
ENDBRANCH  26  27
ENDBRANCH  25  26
ENDBRANCH  24  25
ENDBRANCH  23  24
ENDBRANCH  22  23
ENDBRANCH  21  22
ENDBRANCH  20  21
ENDBRANCH  19  20
ENDBRANCH  18  19
ENDBRANCH  17  18
ENDBRANCH   1  17
TORSDOF 26
ENDMDL
MODEL 2
REMARK VINA RESULT:    -0.925      1.621      2.072
REMARK INTER + INTRA:          -4.688
REMARK INTER:                  -3.556
REMARK INTRA:                  -1.132
REMARK UNBOUND:                -2.358
REMARK SMILES CCCCCCCCCCCCCCCCCCCCCCCCCCCC(=O)[O-]
REMARK SMILES IDX 15 1 16 2 17 3 18 4 19 5 20 6 21 7 22 8 23 9 24 10 25 11
REMARK SMILES IDX 26 12 27 13 28 14 29 15 30 16 14 17 13 18 12 19 11 20 10 21
REMARK SMILES IDX 9 22 8 23 7 24 6 25 5 26 4 27 3 28 2 29 1 30
REMARK H PARENT
REMARK Flexibility Score: inf
ROOT
ATOM      1  C   UNL     1      16.488  -6.347   7.683  1.00  0.00     0.000 C 
ENDROOT
BRANCH   1   2
ATOM      2  C   UNL     1      15.262  -7.270   7.607  1.00  0.00     0.000 C 
BRANCH   2   3
ATOM      3  C   UNL     1      15.409  -8.287   6.467  1.00  0.00     0.000 C 
BRANCH   3   4
ATOM      4  C   UNL     1      15.410  -7.617   5.082  1.00  0.00     0.000 C 
BRANCH   4   5
ATOM      5  C   UNL     1      13.988  -7.278   4.604  1.00  0.00     0.000 C 
BRANCH   5   6
ATOM      6  C   UNL     1      12.957  -8.349   4.987  1.00  0.00     0.000 C 
BRANCH   6   7
ATOM      7  C   UNL     1      11.928  -8.614   3.876  1.00  0.00     0.000 C 
BRANCH   7   8
ATOM      8  C   UNL     1      10.944  -9.719   4.289  1.00  0.00     0.000 C 
BRANCH   8   9
ATOM      9  C   UNL     1       9.480  -9.385   3.932  1.00  0.00     0.000 C 
BRANCH   9  10
ATOM     10  C   UNL     1       8.842  -8.308   4.832  1.00  0.00     0.000 C 
BRANCH  10  11
ATOM     11  C   UNL     1       7.362  -7.997   4.542  1.00  0.00     0.000 C 
BRANCH  11  12
ATOM     12  C   UNL     1       6.427  -8.083   5.764  1.00  0.00     0.006 C 
BRANCH  12  13
ATOM     13  C   UNL     1       6.634  -9.364   6.580  1.00  0.00     0.053 C 
BRANCH  13  14
ATOM     14  C   UNL     1       7.432  -9.078   7.813  1.00  0.00     0.041 C 
ATOM     15  O   UNL     1       8.324  -9.884   8.192  1.00  0.00    -0.550 OA
ATOM     16  O   UNL     1       7.162  -7.943   8.566  1.00  0.00    -0.550 OA
ENDBRANCH  13  14
ENDBRANCH  12  13
ENDBRANCH  11  12
ENDBRANCH  10  11
ENDBRANCH   9  10
ENDBRANCH   8   9
ENDBRANCH   7   8
ENDBRANCH   6   7
ENDBRANCH   5   6
ENDBRANCH   4   5
ENDBRANCH   3   4
ENDBRANCH   2   3
ENDBRANCH   1   2
BRANCH   1  17
ATOM     17  C   UNL     1      17.596  -6.893   8.606  1.00  0.00     0.000 C 
BRANCH  17  18
ATOM     18  C   UNL     1      19.023  -6.737   8.045  1.00  0.00     0.000 C 
BRANCH  18  19
ATOM     19  C   UNL     1      20.064  -7.739   8.581  1.00  0.00     0.000 C 
BRANCH  19  20
ATOM     20  C   UNL     1      19.507  -9.125   8.960  1.00  0.00     0.000 C 
BRANCH  20  21
ATOM     21  C   UNL     1      19.359 -10.061   7.752  1.00  0.00     0.000 C 
BRANCH  21  22
ATOM     22  C   UNL     1      20.441  -9.775   6.700  1.00  0.00    -0.000 C 
BRANCH  22  23
ATOM     23  C   UNL     1      20.023  -8.690   5.690  1.00  0.00    -0.000 C 
BRANCH  23  24
ATOM     24  C   UNL     1      19.258  -9.210   4.460  1.00  0.00    -0.000 C 
BRANCH  24  25
ATOM     25  C   UNL     1      18.284  -8.171   3.876  1.00  0.00    -0.000 C 
BRANCH  25  26
ATOM     26  C   UNL     1      18.446  -6.783   4.527  1.00  0.00    -0.000 C 
BRANCH  26  27
ATOM     27  C   UNL     1      19.532  -5.904   3.875  1.00  0.00    -0.000 C 
BRANCH  27  28
ATOM     28  C   UNL     1      20.734  -5.602   4.791  1.00  0.00    -0.000 C 
BRANCH  28  29
ATOM     29  C   UNL     1      22.074  -5.985   4.147  1.00  0.00    -0.003 C 
ATOM     30  C   UNL     1      22.578  -7.324   4.679  1.00  0.00     0.004 C 
ENDBRANCH  28  29
ENDBRANCH  27  28
ENDBRANCH  26  27
ENDBRANCH  25  26
ENDBRANCH  24  25
ENDBRANCH  23  24
ENDBRANCH  22  23
ENDBRANCH  21  22
ENDBRANCH  20  21
ENDBRANCH  19  20
ENDBRANCH  18  19
ENDBRANCH  17  18
ENDBRANCH   1  17
TORSDOF 26
ENDMDL
MODEL 3
REMARK VINA RESULT:    -0.550      1.520      2.561
REMARK INTER + INTRA:          -3.745
REMARK INTER:                  -1.759
REMARK INTRA:                  -1.986
REMARK UNBOUND:                -2.358
REMARK SMILES CCCCCCCCCCCCCCCCCCCCCCCCCCCC(=O)[O-]
REMARK SMILES IDX 15 1 16 2 17 3 18 4 19 5 20 6 21 7 22 8 23 9 24 10 25 11
REMARK SMILES IDX 26 12 27 13 28 14 29 15 30 16 14 17 13 18 12 19 11 20 10 21
REMARK SMILES IDX 9 22 8 23 7 24 6 25 5 26 4 27 3 28 2 29 1 30
REMARK H PARENT
REMARK Flexibility Score: inf
ROOT
ATOM      1  C   UNL     1      15.796  -6.825   7.366  1.00  0.00     0.000 C 
ENDROOT
BRANCH   1   2
ATOM      2  C   UNL     1      15.969  -8.239   7.944  1.00  0.00     0.000 C 
BRANCH   2   3
ATOM      3  C   UNL     1      14.908  -9.195   7.384  1.00  0.00     0.000 C 
BRANCH   3   4
ATOM      4  C   UNL     1      13.555  -8.499   7.155  1.00  0.00     0.000 C 
BRANCH   4   5
ATOM      5  C   UNL     1      12.918  -8.902   5.814  1.00  0.00     0.000 C 
BRANCH   5   6
ATOM      6  C   UNL     1      12.361  -7.704   5.032  1.00  0.00     0.000 C 
BRANCH   6   7
ATOM      7  C   UNL     1      11.322  -8.109   3.975  1.00  0.00     0.000 C 
BRANCH   7   8
ATOM      8  C   UNL     1      10.818  -9.540   4.218  1.00  0.00     0.000 C 
BRANCH   8   9
ATOM      9  C   UNL     1       9.324  -9.718   3.875  1.00  0.00     0.000 C 
BRANCH   9  10
ATOM     10  C   UNL     1       8.399  -9.789   5.105  1.00  0.00     0.000 C 
BRANCH  10  11
ATOM     11  C   UNL     1       7.045  -9.068   4.956  1.00  0.00     0.000 C 
BRANCH  11  12
ATOM     12  C   UNL     1       7.122  -7.530   4.968  1.00  0.00     0.006 C 
BRANCH  12  13
ATOM     13  C   UNL     1       6.109  -6.877   4.020  1.00  0.00     0.053 C 
BRANCH  13  14
ATOM     14  C   UNL     1       4.970  -6.290   4.792  1.00  0.00     0.041 C 
ATOM     15  O   UNL     1       5.161  -5.819   5.945  1.00  0.00    -0.550 OA
ATOM     16  O   UNL     1       3.689  -6.302   4.255  1.00  0.00    -0.550 OA
ENDBRANCH  13  14
ENDBRANCH  12  13
ENDBRANCH  11  12
ENDBRANCH  10  11
ENDBRANCH   9  10
ENDBRANCH   8   9
ENDBRANCH   7   8
ENDBRANCH   6   7
ENDBRANCH   5   6
ENDBRANCH   4   5
ENDBRANCH   3   4
ENDBRANCH   2   3
ENDBRANCH   1   2
BRANCH   1  17
ATOM     17  C   UNL     1      16.140  -6.743   5.865  1.00  0.00     0.000 C 
BRANCH  17  18
ATOM     18  C   UNL     1      16.528  -8.092   5.229  1.00  0.00     0.000 C 
BRANCH  18  19
ATOM     19  C   UNL     1      17.697  -8.045   4.226  1.00  0.00     0.000 C 
BRANCH  19  20
ATOM     20  C   UNL     1      18.739  -9.170   4.378  1.00  0.00     0.000 C 
BRANCH  20  21
ATOM     21  C   UNL     1      18.423 -10.125   5.538  1.00  0.00     0.000 C 
BRANCH  21  22
ATOM     22  C   UNL     1      19.140  -9.684   6.823  1.00  0.00    -0.000 C 
BRANCH  22  23
ATOM     23  C   UNL     1      20.119  -8.518   6.594  1.00  0.00    -0.000 C 
BRANCH  23  24
ATOM     24  C   UNL     1      19.579  -7.132   6.989  1.00  0.00    -0.000 C 
BRANCH  24  25
ATOM     25  C   UNL     1      20.137  -5.998   6.111  1.00  0.00    -0.000 C 
BRANCH  25  26
ATOM     26  C   UNL     1      20.790  -6.523   4.817  1.00  0.00    -0.000 C 
BRANCH  26  27
ATOM     27  C   UNL     1      21.390  -5.421   3.921  1.00  0.00    -0.000 C 
BRANCH  27  28
ATOM     28  C   UNL     1      20.563  -4.122   3.877  1.00  0.00    -0.000 C 
BRANCH  28  29
ATOM     29  C   UNL     1      21.418  -2.873   4.137  1.00  0.00    -0.003 C 
ATOM     30  C   UNL     1      20.548  -1.623   4.247  1.00  0.00     0.004 C 
ENDBRANCH  28  29
ENDBRANCH  27  28
ENDBRANCH  26  27
ENDBRANCH  25  26
ENDBRANCH  24  25
ENDBRANCH  23  24
ENDBRANCH  22  23
ENDBRANCH  21  22
ENDBRANCH  20  21
ENDBRANCH  19  20
ENDBRANCH  18  19
ENDBRANCH  17  18
ENDBRANCH   1  17
TORSDOF 26
ENDMDL
MODEL 4
REMARK VINA RESULT:    -0.385      1.204      2.376
REMARK INTER + INTRA:          -3.327
REMARK INTER:                  -1.629
REMARK INTRA:                  -1.698
REMARK UNBOUND:                -2.358
REMARK SMILES CCCCCCCCCCCCCCCCCCCCCCCCCCCC(=O)[O-]
REMARK SMILES IDX 15 1 16 2 17 3 18 4 19 5 20 6 21 7 22 8 23 9 24 10 25 11
REMARK SMILES IDX 26 12 27 13 28 14 29 15 30 16 14 17 13 18 12 19 11 20 10 21
REMARK SMILES IDX 9 22 8 23 7 24 6 25 5 26 4 27 3 28 2 29 1 30
REMARK H PARENT
REMARK Flexibility Score: inf
ROOT
ATOM      1  C   UNL     1      18.450  -7.697   7.644  1.00  0.00     0.000 C 
ENDROOT
BRANCH   1   2
ATOM      2  C   UNL     1      17.769  -6.536   8.386  1.00  0.00     0.000 C 
BRANCH   2   3
ATOM      3  C   UNL     1      16.253  -6.543   8.146  1.00  0.00     0.000 C 
BRANCH   3   4
ATOM      4  C   UNL     1      15.799  -7.752   7.310  1.00  0.00     0.000 C 
BRANCH   4   5
ATOM      5  C   UNL     1      14.955  -7.331   6.096  1.00  0.00     0.000 C 
BRANCH   5   6
ATOM      6  C   UNL     1      14.409  -8.527   5.303  1.00  0.00     0.000 C 
BRANCH   6   7
ATOM      7  C   UNL     1      13.332  -8.127   4.281  1.00  0.00     0.000 C 
BRANCH   7   8
ATOM      8  C   UNL     1      12.378  -9.298   4.000  1.00  0.00     0.000 C 
BRANCH   8   9
ATOM      9  C   UNL     1      11.336  -9.508   5.118  1.00  0.00     0.000 C 
BRANCH   9  10
ATOM     10  C   UNL     1       9.893  -9.151   4.710  1.00  0.00     0.000 C 
BRANCH  10  11
ATOM     11  C   UNL     1       9.541  -7.653   4.768  1.00  0.00     0.000 C 
BRANCH  11  12
ATOM     12  C   UNL     1       8.047  -7.328   4.578  1.00  0.00     0.006 C 
BRANCH  12  13
ATOM     13  C   UNL     1       7.225  -7.547   5.853  1.00  0.00     0.053 C 
BRANCH  13  14
ATOM     14  C   UNL     1       5.767  -7.362   5.576  1.00  0.00     0.041 C 
ATOM     15  O   UNL     1       5.251  -6.213   5.630  1.00  0.00    -0.550 OA
ATOM     16  O   UNL     1       4.968  -8.464   5.300  1.00  0.00    -0.550 OA
ENDBRANCH  13  14
ENDBRANCH  12  13
ENDBRANCH  11  12
ENDBRANCH  10  11
ENDBRANCH   9  10
ENDBRANCH   8   9
ENDBRANCH   7   8
ENDBRANCH   6   7
ENDBRANCH   5   6
ENDBRANCH   4   5
ENDBRANCH   3   4
ENDBRANCH   2   3
ENDBRANCH   1   2
BRANCH   1  17
ATOM     17  C   UNL     1      18.567  -8.973   8.502  1.00  0.00     0.000 C 
BRANCH  17  18
ATOM     18  C   UNL     1      19.796  -9.845   8.178  1.00  0.00     0.000 C 
BRANCH  18  19
ATOM     19  C   UNL     1      20.692  -9.335   7.033  1.00  0.00     0.000 C 
BRANCH  19  20
ATOM     20  C   UNL     1      20.542 -10.086   5.696  1.00  0.00     0.000 C 
BRANCH  20  21
ATOM     21  C   UNL     1      20.122  -9.169   4.538  1.00  0.00     0.000 C 
BRANCH  21  22
ATOM     22  C   UNL     1      18.797  -9.637   3.920  1.00  0.00    -0.000 C 
BRANCH  22  23
ATOM     23  C   UNL     1      17.609  -8.728   4.291  1.00  0.00    -0.000 C 
BRANCH  23  24
ATOM     24  C   UNL     1      17.997  -7.381   4.925  1.00  0.00    -0.000 C 
BRANCH  24  25
ATOM     25  C   UNL     1      18.324  -6.298   3.880  1.00  0.00    -0.000 C 
BRANCH  25  26
ATOM     26  C   UNL     1      19.818  -5.918   3.876  1.00  0.00    -0.000 C 
BRANCH  26  27
ATOM     27  C   UNL     1      20.332  -5.364   5.220  1.00  0.00    -0.000 C 
BRANCH  27  28
ATOM     28  C   UNL     1      21.822  -5.647   5.492  1.00  0.00    -0.000 C 
BRANCH  28  29
ATOM     29  C   UNL     1      22.559  -6.160   4.246  1.00  0.00    -0.003 C 
ATOM     30  C   UNL     1      23.120  -7.561   4.478  1.00  0.00     0.004 C 
ENDBRANCH  28  29
ENDBRANCH  27  28
ENDBRANCH  26  27
ENDBRANCH  25  26
ENDBRANCH  24  25
ENDBRANCH  23  24
ENDBRANCH  22  23
ENDBRANCH  21  22
ENDBRANCH  20  21
ENDBRANCH  19  20
ENDBRANCH  18  19
ENDBRANCH  17  18
ENDBRANCH   1  17
TORSDOF 26
ENDMDL
MODEL 5
REMARK VINA RESULT:    -0.327      1.702      2.685
REMARK INTER + INTRA:          -3.182
REMARK INTER:                  -2.272
REMARK INTRA:                  -0.911
REMARK UNBOUND:                -2.358
REMARK SMILES CCCCCCCCCCCCCCCCCCCCCCCCCCCC(=O)[O-]
REMARK SMILES IDX 15 1 16 2 17 3 18 4 19 5 20 6 21 7 22 8 23 9 24 10 25 11
REMARK SMILES IDX 26 12 27 13 28 14 29 15 30 16 14 17 13 18 12 19 11 20 10 21
REMARK SMILES IDX 9 22 8 23 7 24 6 25 5 26 4 27 3 28 2 29 1 30
REMARK H PARENT
REMARK Flexibility Score: inf
ROOT
ATOM      1  C   UNL     1      16.049  -6.823   7.592  1.00  0.00     0.000 C 
ENDROOT
BRANCH   1   2
ATOM      2  C   UNL     1      15.287  -8.144   7.406  1.00  0.00     0.000 C 
BRANCH   2   3
ATOM      3  C   UNL     1      15.652  -8.806   6.070  1.00  0.00     0.000 C 
BRANCH   3   4
ATOM      4  C   UNL     1      14.891  -8.188   4.884  1.00  0.00     0.000 C 
BRANCH   4   5
ATOM      5  C   UNL     1      14.376  -9.259   3.908  1.00  0.00     0.000 C 
BRANCH   5   6
ATOM      6  C   UNL     1      12.886  -9.576   4.099  1.00  0.00     0.000 C 
BRANCH   6   7
ATOM      7  C   UNL     1      12.102  -8.412   4.725  1.00  0.00     0.000 C 
BRANCH   7   8
ATOM      8  C   UNL     1      11.140  -8.917   5.812  1.00  0.00     0.000 C 
BRANCH   8   9
ATOM      9  C   UNL     1       9.830  -9.491   5.236  1.00  0.00     0.000 C 
BRANCH   9  10
ATOM     10  C   UNL     1       9.333  -8.776   3.964  1.00  0.00     0.000 C 
BRANCH  10  11
ATOM     11  C   UNL     1       7.848  -8.367   3.973  1.00  0.00     0.000 C 
BRANCH  11  12
ATOM     12  C   UNL     1       7.524  -7.112   4.808  1.00  0.00     0.006 C 
BRANCH  12  13
ATOM     13  C   UNL     1       6.350  -7.327   5.770  1.00  0.00     0.053 C 
BRANCH  13  14
ATOM     14  C   UNL     1       6.600  -8.510   6.649  1.00  0.00     0.041 C 
ATOM     15  O   UNL     1       7.528  -8.482   7.502  1.00  0.00    -0.550 OA
ATOM     16  O   UNL     1       5.838  -9.661   6.498  1.00  0.00    -0.550 OA
ENDBRANCH  13  14
ENDBRANCH  12  13
ENDBRANCH  11  12
ENDBRANCH  10  11
ENDBRANCH   9  10
ENDBRANCH   8   9
ENDBRANCH   7   8
ENDBRANCH   6   7
ENDBRANCH   5   6
ENDBRANCH   4   5
ENDBRANCH   3   4
ENDBRANCH   2   3
ENDBRANCH   1   2
BRANCH   1  17
ATOM     17  C   UNL     1      17.542  -7.031   7.922  1.00  0.00     0.000 C 
BRANCH  17  18
ATOM     18  C   UNL     1      18.494  -6.785   6.735  1.00  0.00     0.000 C 
BRANCH  18  19
ATOM     19  C   UNL     1      18.391  -7.794   5.576  1.00  0.00     0.000 C 
BRANCH  19  20
ATOM     20  C   UNL     1      18.707  -9.256   5.948  1.00  0.00     0.000 C 
BRANCH  20  21
ATOM     21  C   UNL     1      19.046 -10.124   4.727  1.00  0.00     0.000 C 
BRANCH  21  22
ATOM     22  C   UNL     1      20.168  -9.486   3.895  1.00  0.00    -0.000 C 
BRANCH  22  23
ATOM     23  C   UNL     1      21.497  -9.374   4.664  1.00  0.00    -0.000 C 
BRANCH  23  24
ATOM     24  C   UNL     1      21.542  -8.258   5.722  1.00  0.00    -0.000 C 
BRANCH  24  25
ATOM     25  C   UNL     1      22.526  -7.130   5.363  1.00  0.00    -0.000 C 
BRANCH  25  26
ATOM     26  C   UNL     1      22.284  -6.566   3.949  1.00  0.00    -0.000 C 
BRANCH  26  27
ATOM     27  C   UNL     1      22.288  -5.026   3.875  1.00  0.00    -0.000 C 
BRANCH  27  28
ATOM     28  C   UNL     1      20.898  -4.382   4.040  1.00  0.00    -0.000 C 
BRANCH  28  29
ATOM     29  C   UNL     1      20.929  -3.146   4.953  1.00  0.00    -0.003 C 
ATOM     30  C   UNL     1      20.528  -1.887   4.187  1.00  0.00     0.004 C 
ENDBRANCH  28  29
ENDBRANCH  27  28
ENDBRANCH  26  27
ENDBRANCH  25  26
ENDBRANCH  24  25
ENDBRANCH  23  24
ENDBRANCH  22  23
ENDBRANCH  21  22
ENDBRANCH  20  21
ENDBRANCH  19  20
ENDBRANCH  18  19
ENDBRANCH  17  18
ENDBRANCH   1  17
TORSDOF 26
ENDMDL
MODEL 6
REMARK VINA RESULT:     0.022      3.720     11.453
REMARK INTER + INTRA:          -2.301
REMARK INTER:                  -1.752
REMARK INTRA:                  -0.549
REMARK UNBOUND:                -2.358
REMARK SMILES CCCCCCCCCCCCCCCCCCCCCCCCCCCC(=O)[O-]
REMARK SMILES IDX 15 1 16 2 17 3 18 4 19 5 20 6 21 7 22 8 23 9 24 10 25 11
REMARK SMILES IDX 26 12 27 13 28 14 29 15 30 16 14 17 13 18 12 19 11 20 10 21
REMARK SMILES IDX 9 22 8 23 7 24 6 25 5 26 4 27 3 28 2 29 1 30
REMARK H PARENT
REMARK Flexibility Score: inf
ROOT
ATOM      1  C   UNL     1      17.767  -8.165   5.865  1.00  0.00     0.000 C 
ENDROOT
BRANCH   1   2
ATOM      2  C   UNL     1      17.933  -9.572   6.459  1.00  0.00     0.000 C 
BRANCH   2   3
ATOM      3  C   UNL     1      19.382 -10.058   6.326  1.00  0.00     0.000 C 
BRANCH   3   4
ATOM      4  C   UNL     1      20.391  -8.897   6.323  1.00  0.00     0.000 C 
BRANCH   4   5
ATOM      5  C   UNL     1      20.920  -8.595   4.911  1.00  0.00     0.000 C 
BRANCH   5   6
ATOM      6  C   UNL     1      22.452  -8.521   4.849  1.00  0.00     0.000 C 
BRANCH   6   7
ATOM      7  C   UNL     1      22.961  -7.446   3.875  1.00  0.00     0.000 C 
BRANCH   7   8
ATOM      8  C   UNL     1      23.043  -6.075   4.563  1.00  0.00     0.000 C 
BRANCH   8   9
ATOM      9  C   UNL     1      21.871  -5.144   4.189  1.00  0.00     0.000 C 
BRANCH   9  10
ATOM     10  C   UNL     1      20.665  -5.234   5.145  1.00  0.00     0.000 C 
BRANCH  10  11
ATOM     11  C   UNL     1      20.767  -4.375   6.420  1.00  0.00     0.000 C 
BRANCH  11  12
ATOM     12  C   UNL     1      20.002  -4.927   7.639  1.00  0.00     0.006 C 
BRANCH  12  13
ATOM     13  C   UNL     1      19.460  -6.343   7.408  1.00  0.00     0.053 C 
BRANCH  13  14
ATOM     14  C   UNL     1      18.741  -6.835   8.624  1.00  0.00     0.041 C 
ATOM     15  O   UNL     1      19.289  -7.672   9.390  1.00  0.00    -0.550 OA
ATOM     16  O   UNL     1      17.449  -6.400   8.889  1.00  0.00    -0.550 OA
ENDBRANCH  13  14
ENDBRANCH  12  13
ENDBRANCH  11  12
ENDBRANCH  10  11
ENDBRANCH   9  10
ENDBRANCH   8   9
ENDBRANCH   7   8
ENDBRANCH   6   7
ENDBRANCH   5   6
ENDBRANCH   4   5
ENDBRANCH   3   4
ENDBRANCH   2   3
ENDBRANCH   1   2
BRANCH   1  17
ATOM     17  C   UNL     1      16.569  -8.056   4.899  1.00  0.00     0.000 C 
BRANCH  17  18
ATOM     18  C   UNL     1      16.355  -9.299   4.012  1.00  0.00     0.000 C 
BRANCH  18  19
ATOM     19  C   UNL     1      14.932  -9.889   4.022  1.00  0.00     0.000 C 
BRANCH  19  20
ATOM     20  C   UNL     1      13.803  -8.876   4.294  1.00  0.00     0.000 C 
BRANCH  20  21
ATOM     21  C   UNL     1      12.416  -9.405   3.900  1.00  0.00     0.000 C 
BRANCH  21  22
ATOM     22  C   UNL     1      11.311  -8.683   4.683  1.00  0.00    -0.000 C 
BRANCH  22  23
ATOM     23  C   UNL     1       9.988  -9.471   4.719  1.00  0.00    -0.000 C 
BRANCH  23  24
ATOM     24  C   UNL     1       8.876  -8.833   5.569  1.00  0.00    -0.000 C 
BRANCH  24  25
ATOM     25  C   UNL     1       8.419  -9.731   6.733  1.00  0.00    -0.000 C 
BRANCH  25  26
ATOM     26  C   UNL     1       7.359  -9.050   7.621  1.00  0.00    -0.000 C 
BRANCH  26  27
ATOM     27  C   UNL     1       7.172  -7.546   7.339  1.00  0.00    -0.000 C 
BRANCH  27  28
ATOM     28  C   UNL     1       5.890  -7.204   6.556  1.00  0.00    -0.000 C 
BRANCH  28  29
ATOM     29  C   UNL     1       6.174  -6.865   5.085  1.00  0.00    -0.003 C 
ATOM     30  C   UNL     1       4.945  -7.116   4.215  1.00  0.00     0.004 C 
ENDBRANCH  28  29
ENDBRANCH  27  28
ENDBRANCH  26  27
ENDBRANCH  25  26
ENDBRANCH  24  25
ENDBRANCH  23  24
ENDBRANCH  22  23
ENDBRANCH  21  22
ENDBRANCH  20  21
ENDBRANCH  19  20
ENDBRANCH  18  19
ENDBRANCH  17  18
ENDBRANCH   1  17
TORSDOF 26
ENDMDL
MODEL 7
REMARK VINA RESULT:     0.118      1.626      3.805
REMARK INTER + INTRA:          -2.061
REMARK INTER:                   0.027
REMARK INTRA:                  -2.088
REMARK UNBOUND:                -2.358
REMARK SMILES CCCCCCCCCCCCCCCCCCCCCCCCCCCC(=O)[O-]
REMARK SMILES IDX 15 1 16 2 17 3 18 4 19 5 20 6 21 7 22 8 23 9 24 10 25 11
REMARK SMILES IDX 26 12 27 13 28 14 29 15 30 16 14 17 13 18 12 19 11 20 10 21
REMARK SMILES IDX 9 22 8 23 7 24 6 25 5 26 4 27 3 28 2 29 1 30
REMARK H PARENT
REMARK Flexibility Score: inf
ROOT
ATOM      1  C   UNL     1      18.997  -5.608   7.694  1.00  0.00     0.000 C 
ENDROOT
BRANCH   1   2
ATOM      2  C   UNL     1      18.222  -6.505   8.673  1.00  0.00     0.000 C 
BRANCH   2   3
ATOM      3  C   UNL     1      17.639  -7.729   7.954  1.00  0.00     0.000 C 
BRANCH   3   4
ATOM      4  C   UNL     1      16.321  -7.407   7.228  1.00  0.00     0.000 C 
BRANCH   4   5
ATOM      5  C   UNL     1      15.705  -8.654   6.571  1.00  0.00     0.000 C 
BRANCH   5   6
ATOM      6  C   UNL     1      14.408  -9.111   7.255  1.00  0.00     0.000 C 
BRANCH   6   7
ATOM      7  C   UNL     1      13.293  -8.055   7.191  1.00  0.00     0.000 C 
BRANCH   7   8
ATOM      8  C   UNL     1      12.673  -7.993   5.786  1.00  0.00     0.000 C 
BRANCH   8   9
ATOM      9  C   UNL     1      11.426  -8.889   5.639  1.00  0.00     0.000 C 
BRANCH   9  10
ATOM     10  C   UNL     1      10.375  -8.349   4.649  1.00  0.00     0.000 C 
BRANCH  10  11
ATOM     11  C   UNL     1       9.056  -7.866   5.283  1.00  0.00     0.000 C 
BRANCH  11  12
ATOM     12  C   UNL     1       8.497  -8.777   6.393  1.00  0.00     0.006 C 
BRANCH  12  13
ATOM     13  C   UNL     1       6.967  -8.881   6.362  1.00  0.00     0.053 C 
BRANCH  13  14
ATOM     14  C   UNL     1       6.351  -7.522   6.261  1.00  0.00     0.041 C 
ATOM     15  O   UNL     1       5.698  -7.196   5.234  1.00  0.00    -0.550 OA
ATOM     16  O   UNL     1       6.533  -6.600   7.283  1.00  0.00    -0.550 OA
ENDBRANCH  13  14
ENDBRANCH  12  13
ENDBRANCH  11  12
ENDBRANCH  10  11
ENDBRANCH   9  10
ENDBRANCH   8   9
ENDBRANCH   7   8
ENDBRANCH   6   7
ENDBRANCH   5   6
ENDBRANCH   4   5
ENDBRANCH   3   4
ENDBRANCH   2   3
ENDBRANCH   1   2
BRANCH   1  17
ATOM     17  C   UNL     1      19.628  -6.396   6.528  1.00  0.00     0.000 C 
BRANCH  17  18
ATOM     18  C   UNL     1      20.176  -5.513   5.389  1.00  0.00     0.000 C 
BRANCH  18  19
ATOM     19  C   UNL     1      21.710  -5.472   5.256  1.00  0.00     0.000 C 
BRANCH  19  20
ATOM     20  C   UNL     1      22.261  -5.886   3.877  1.00  0.00     0.000 C 
BRANCH  20  21
ATOM     21  C   UNL     1      22.937  -7.265   3.892  1.00  0.00     0.000 C 
BRANCH  21  22
ATOM     22  C   UNL     1      22.137  -8.259   4.746  1.00  0.00    -0.000 C 
BRANCH  22  23
ATOM     23  C   UNL     1      21.900  -9.605   4.036  1.00  0.00    -0.000 C 
BRANCH  23  24
ATOM     24  C   UNL     1      20.453 -10.123   4.097  1.00  0.00    -0.000 C 
BRANCH  24  25
ATOM     25  C   UNL     1      19.408  -9.013   3.883  1.00  0.00    -0.000 C 
BRANCH  25  26
ATOM     26  C   UNL     1      17.965  -9.517   4.083  1.00  0.00    -0.000 C 
BRANCH  26  27
ATOM     27  C   UNL     1      16.891  -8.419   3.958  1.00  0.00    -0.000 C 
BRANCH  27  28
ATOM     28  C   UNL     1      17.455  -6.987   3.887  1.00  0.00    -0.000 C 
BRANCH  28  29
ATOM     29  C   UNL     1      16.355  -5.917   3.958  1.00  0.00    -0.003 C 
ATOM     30  C   UNL     1      14.968  -6.550   3.875  1.00  0.00     0.004 C 
ENDBRANCH  28  29
ENDBRANCH  27  28
ENDBRANCH  26  27
ENDBRANCH  25  26
ENDBRANCH  24  25
ENDBRANCH  23  24
ENDBRANCH  22  23
ENDBRANCH  21  22
ENDBRANCH  20  21
ENDBRANCH  19  20
ENDBRANCH  18  19
ENDBRANCH  17  18
ENDBRANCH   1  17
TORSDOF 26
ENDMDL
