MODEL 1
REMARK VINA RESULT:    -3.139      0.000      0.000
REMARK INTER + INTRA:          -4.190
REMARK INTER:                  -4.057
REMARK INTRA:                  -0.133
REMARK UNBOUND:                -0.133
REMARK SMILES CCCCCCC(=O)[O-]
REMARK SMILES IDX 5 1 6 2 7 3 8 4 9 5 4 6 3 7 2 8 1 9
REMARK H PARENT
REMARK Flexibility Score: inf
ROOT
ATOM      1  C   UNL     1      48.255  21.224  15.668  1.00  0.00     0.006 C 
ENDROOT
BRANCH   1   2
ATOM      2  C   UNL     1      47.412  21.994  16.692  1.00  0.00     0.053 C 
BRANCH   2   3
ATOM      3  C   UNL     1      45.956  21.864  16.373  1.00  0.00     0.041 C 
ATOM      4  O   UNL     1      45.542  20.894  15.684  1.00  0.00    -0.550 OA
ATOM      5  O   UNL     1      45.048  22.788  16.876  1.00  0.00    -0.550 OA
ENDBRANCH   2   3
ENDBRANCH   1   2
BRANCH   1   6
ATOM      6  C   UNL     1      49.730  21.653  15.674  1.00  0.00     0.000 C 
BRANCH   6   7
ATOM      7  C   UNL     1      50.538  21.013  14.536  1.00  0.00    -0.000 C 
BRANCH   7   8
ATOM      8  C   UNL     1      52.036  21.005  14.863  1.00  0.00    -0.003 C 
ATOM      9  C   UNL     1      52.329  21.799  16.133  1.00  0.00     0.004 C 
ENDBRANCH   7   8
ENDBRANCH   6   7
ENDBRANCH   1   6
TORSDOF 5
ENDMDL
MODEL 2
REMARK VINA RESULT:    -3.093     10.876     13.433
REMARK INTER + INTRA:          -4.130
REMARK INTER:                  -3.980
REMARK INTRA:                  -0.150
REMARK UNBOUND:                -0.133
REMARK SMILES CCCCCCC(=O)[O-]
REMARK SMILES IDX 5 1 6 2 7 3 8 4 9 5 4 6 3 7 2 8 1 9
REMARK H PARENT
REMARK Flexibility Score: inf
ROOT
ATOM      1  C   UNL     1      36.178  20.931  14.766  1.00  0.00     0.006 C 
ENDROOT
BRANCH   1   2
ATOM      2  C   UNL     1      36.793  22.288  15.133  1.00  0.00     0.053 C 
BRANCH   2   3
ATOM      3  C   UNL     1      37.998  22.559  14.290  1.00  0.00     0.041 C 
ATOM      4  O   UNL     1      39.145  22.237  14.700  1.00  0.00    -0.550 OA
ATOM      5  O   UNL     1      37.853  23.124  13.029  1.00  0.00    -0.550 OA
ENDBRANCH   2   3
ENDBRANCH   1   2
BRANCH   1   6
ATOM      6  C   UNL     1      35.793  20.103  16.002  1.00  0.00     0.000 C 
BRANCH   6   7
ATOM      7  C   UNL     1      34.274  20.017  16.208  1.00  0.00    -0.000 C 
BRANCH   7   8
ATOM      8  C   UNL     1      33.748  18.625  15.838  1.00  0.00    -0.003 C 
ATOM      9  C   UNL     1      33.253  18.587  14.395  1.00  0.00     0.004 C 
ENDBRANCH   7   8
ENDBRANCH   6   7
ENDBRANCH   1   6
TORSDOF 5
ENDMDL
MODEL 3
REMARK VINA RESULT:    -3.000     11.842     13.876
REMARK INTER + INTRA:          -4.010
REMARK INTER:                  -3.757
REMARK INTRA:                  -0.253
REMARK UNBOUND:                -0.133
REMARK SMILES CCCCCCC(=O)[O-]
REMARK SMILES IDX 5 1 6 2 7 3 8 4 9 5 4 6 3 7 2 8 1 9
REMARK H PARENT
REMARK Flexibility Score: inf
ROOT
ATOM      1  C   UNL     1      34.689  20.271  16.578  1.00  0.00     0.006 C 
ENDROOT
BRANCH   1   2
ATOM      2  C   UNL     1      33.379  20.064  15.807  1.00  0.00     0.053 C 
BRANCH   2   3
ATOM      3  C   UNL     1      33.251  18.640  15.369  1.00  0.00     0.041 C 
ATOM      4  O   UNL     1      33.269  18.348  14.144  1.00  0.00    -0.550 OA
ATOM      5  O   UNL     1      33.160  17.627  16.315  1.00  0.00    -0.550 OA
ENDBRANCH   2   3
ENDBRANCH   1   2
BRANCH   1   6
ATOM      6  C   UNL     1      35.930  20.149  15.680  1.00  0.00     0.000 C 
BRANCH   6   7
ATOM      7  C   UNL     1      35.917  21.145  14.512  1.00  0.00    -0.000 C 
BRANCH   7   8
ATOM      8  C   UNL     1      36.707  22.412  14.862  1.00  0.00    -0.003 C 
ATOM      9  C   UNL     1      38.207  22.195  14.681  1.00  0.00     0.004 C 
ENDBRANCH   7   8
ENDBRANCH   6   7
ENDBRANCH   1   6
TORSDOF 5
ENDMDL
MODEL 4
REMARK VINA RESULT:    -2.939     13.345     14.803
REMARK INTER + INTRA:          -3.931
REMARK INTER:                  -3.560
REMARK INTRA:                  -0.372
REMARK UNBOUND:                -0.133
REMARK SMILES CCCCCCC(=O)[O-]
REMARK SMILES IDX 5 1 6 2 7 3 8 4 9 5 4 6 3 7 2 8 1 9
REMARK H PARENT
REMARK Flexibility Score: inf
ROOT
ATOM      1  C   UNL     1      35.882  20.664  14.654  1.00  0.00     0.006 C 
ENDROOT
BRANCH   1   2
ATOM      2  C   UNL     1      34.709  21.197  13.821  1.00  0.00     0.053 C 
BRANCH   2   3
ATOM      3  C   UNL     1      34.488  20.334  12.620  1.00  0.00     0.041 C 
ATOM      4  O   UNL     1      33.693  19.359  12.677  1.00  0.00    -0.550 OA
ATOM      5  O   UNL     1      35.121  20.635  11.420  1.00  0.00    -0.550 OA
ENDBRANCH   2   3
ENDBRANCH   1   2
BRANCH   1   6
ATOM      6  C   UNL     1      35.427  19.737  15.792  1.00  0.00     0.000 C 
BRANCH   6   7
ATOM      7  C   UNL     1      34.347  20.374  16.678  1.00  0.00    -0.000 C 
BRANCH   7   8
ATOM      8  C   UNL     1      33.097  19.488  16.744  1.00  0.00    -0.003 C 
ATOM      9  C   UNL     1      33.308  18.179  15.987  1.00  0.00     0.004 C 
ENDBRANCH   7   8
ENDBRANCH   6   7
ENDBRANCH   1   6
TORSDOF 5
ENDMDL
MODEL 5
REMARK VINA RESULT:    -2.914     12.030     13.285
REMARK INTER + INTRA:          -3.899
REMARK INTER:                  -3.733
REMARK INTRA:                  -0.166
REMARK UNBOUND:                -0.133
REMARK SMILES CCCCCCC(=O)[O-]
REMARK SMILES IDX 5 1 6 2 7 3 8 4 9 5 4 6 3 7 2 8 1 9
REMARK H PARENT
REMARK Flexibility Score: inf
ROOT
ATOM      1  C   UNL     1      36.009  20.283  15.596  1.00  0.00     0.006 C 
ENDROOT
BRANCH   1   2
ATOM      2  C   UNL     1      34.606  20.044  16.169  1.00  0.00     0.053 C 
BRANCH   2   3
ATOM      3  C   UNL     1      33.914  18.952  15.415  1.00  0.00     0.041 C 
ATOM      4  O   UNL     1      33.879  18.975  14.156  1.00  0.00    -0.550 OA
ATOM      5  O   UNL     1      33.349  17.884  16.100  1.00  0.00    -0.550 OA
ENDBRANCH   2   3
ENDBRANCH   1   2
BRANCH   1   6
ATOM      6  C   UNL     1      36.228  21.739  15.156  1.00  0.00     0.000 C 
BRANCH   6   7
ATOM      7  C   UNL     1      37.704  22.059  14.882  1.00  0.00    -0.000 C 
BRANCH   7   8
ATOM      8  C   UNL     1      37.848  23.000  13.681  1.00  0.00    -0.003 C 
ATOM      9  C   UNL     1      36.733  22.772  12.663  1.00  0.00     0.004 C 
ENDBRANCH   7   8
ENDBRANCH   6   7
ENDBRANCH   1   6
TORSDOF 5
ENDMDL
MODEL 6
REMARK VINA RESULT:    -2.871     12.627     14.123
REMARK INTER + INTRA:          -3.843
REMARK INTER:                  -3.525
REMARK INTRA:                  -0.318
REMARK UNBOUND:                -0.133
REMARK SMILES CCCCCCC(=O)[O-]
REMARK SMILES IDX 5 1 6 2 7 3 8 4 9 5 4 6 3 7 2 8 1 9
REMARK H PARENT
REMARK Flexibility Score: inf
ROOT
ATOM      1  C   UNL     1      36.328  21.439  15.032  1.00  0.00     0.006 C 
ENDROOT
BRANCH   1   2
ATOM      2  C   UNL     1      35.237  21.895  14.056  1.00  0.00     0.053 C 
BRANCH   2   3
ATOM      3  C   UNL     1      35.693  21.715  12.642  1.00  0.00     0.041 C 
ATOM      4  O   UNL     1      35.119  20.881  11.893  1.00  0.00    -0.550 OA
ATOM      5  O   UNL     1      36.720  22.501  12.136  1.00  0.00    -0.550 OA
ENDBRANCH   2   3
ENDBRANCH   1   2
BRANCH   1   6
ATOM      6  C   UNL     1      35.946  20.159  15.791  1.00  0.00     0.000 C 
BRANCH   6   7
ATOM      7  C   UNL     1      34.466  20.132  16.198  1.00  0.00    -0.000 C 
BRANCH   7   8
ATOM      8  C   UNL     1      33.837  18.768  15.891  1.00  0.00    -0.003 C 
ATOM      9  C   UNL     1      33.378  18.685  14.438  1.00  0.00     0.004 C 
ENDBRANCH   7   8
ENDBRANCH   6   7
ENDBRANCH   1   6
TORSDOF 5
ENDMDL
MODEL 7
REMARK VINA RESULT:    -2.801     13.161     13.955
REMARK INTER + INTRA:          -3.753
REMARK INTER:                  -3.532
REMARK INTRA:                  -0.221
REMARK UNBOUND:                -0.133
REMARK SMILES CCCCCCC(=O)[O-]
REMARK SMILES IDX 5 1 6 2 7 3 8 4 9 5 4 6 3 7 2 8 1 9
REMARK H PARENT
REMARK Flexibility Score: inf
ROOT
ATOM      1  C   UNL     1      34.220  20.487  12.457  1.00  0.00     0.006 C 
ENDROOT
BRANCH   1   2
ATOM      2  C   UNL     1      35.062  20.884  13.676  1.00  0.00     0.053 C 
BRANCH   2   3
ATOM      3  C   UNL     1      34.915  19.869  14.765  1.00  0.00     0.041 C 
ATOM      4  O   UNL     1      34.027  18.980  14.687  1.00  0.00    -0.550 OA
ATOM      5  O   UNL     1      35.791  19.874  15.843  1.00  0.00    -0.550 OA
ENDBRANCH   2   3
ENDBRANCH   1   2
BRANCH   1   6
ATOM      6  C   UNL     1      34.757  21.085  11.147  1.00  0.00     0.000 C 
BRANCH   6   7
ATOM      7  C   UNL     1      35.738  22.242  11.382  1.00  0.00    -0.000 C 
BRANCH   7   8
ATOM      8  C   UNL     1      36.818  22.276  10.294  1.00  0.00    -0.003 C 
ATOM      9  C   UNL     1      36.683  21.089   9.344  1.00  0.00     0.004 C 
ENDBRANCH   7   8
ENDBRANCH   6   7
ENDBRANCH   1   6
TORSDOF 5
ENDMDL
MODEL 8
REMARK VINA RESULT:    -2.785     12.950     13.949
REMARK INTER + INTRA:          -3.732
REMARK INTER:                  -3.577
REMARK INTRA:                  -0.155
REMARK UNBOUND:                -0.133
REMARK SMILES CCCCCCC(=O)[O-]
REMARK SMILES IDX 5 1 6 2 7 3 8 4 9 5 4 6 3 7 2 8 1 9
REMARK H PARENT
REMARK Flexibility Score: inf
ROOT
ATOM      1  C   UNL     1      35.086  21.657  12.430  1.00  0.00     0.006 C 
ENDROOT
BRANCH   1   2
ATOM      2  C   UNL     1      35.027  21.154  10.983  1.00  0.00     0.053 C 
BRANCH   2   3
ATOM      3  C   UNL     1      36.283  21.512  10.254  1.00  0.00     0.041 C 
ATOM      4  O   UNL     1      36.673  20.813   9.281  1.00  0.00    -0.550 OA
ATOM      5  O   UNL     1      37.000  22.645  10.617  1.00  0.00    -0.550 OA
ENDBRANCH   2   3
ENDBRANCH   1   2
BRANCH   1   6
ATOM      6  C   UNL     1      35.222  20.515  13.449  1.00  0.00     0.000 C 
BRANCH   6   7
ATOM      7  C   UNL     1      36.077  20.903  14.663  1.00  0.00    -0.000 C 
BRANCH   7   8
ATOM      8  C   UNL     1      35.625  20.146  15.918  1.00  0.00    -0.003 C 
ATOM      9  C   UNL     1      34.378  19.312  15.640  1.00  0.00     0.004 C 
ENDBRANCH   7   8
ENDBRANCH   6   7
ENDBRANCH   1   6
TORSDOF 5
ENDMDL
MODEL 9
REMARK VINA RESULT:    -2.751     12.400     13.095
REMARK INTER + INTRA:          -3.688
REMARK INTER:                  -3.471
REMARK INTRA:                  -0.216
REMARK UNBOUND:                -0.133
REMARK SMILES CCCCCCC(=O)[O-]
REMARK SMILES IDX 5 1 6 2 7 3 8 4 9 5 4 6 3 7 2 8 1 9
REMARK H PARENT
REMARK Flexibility Score: inf
ROOT
ATOM      1  C   UNL     1      35.960  22.694  13.513  1.00  0.00     0.006 C 
ENDROOT
BRANCH   1   2
ATOM      2  C   UNL     1      36.499  21.932  14.731  1.00  0.00     0.053 C 
BRANCH   2   3
ATOM      3  C   UNL     1      35.867  20.579  14.821  1.00  0.00     0.041 C 
ATOM      4  O   UNL     1      35.247  20.101  13.834  1.00  0.00    -0.550 OA
ATOM      5  O   UNL     1      36.004  19.823  15.978  1.00  0.00    -0.550 OA
ENDBRANCH   2   3
ENDBRANCH   1   2
BRANCH   1   6
ATOM      6  C   UNL     1      37.044  22.964  12.458  1.00  0.00     0.000 C 
BRANCH   6   7
ATOM      7  C   UNL     1      36.486  22.979  11.027  1.00  0.00    -0.000 C 
BRANCH   7   8
ATOM      8  C   UNL     1      35.976  21.591  10.622  1.00  0.00    -0.003 C 
ATOM      9  C   UNL     1      36.653  21.106   9.342  1.00  0.00     0.004 C 
ENDBRANCH   7   8
ENDBRANCH   6   7
ENDBRANCH   1   6
TORSDOF 5
ENDMDL
