MODEL 1
REMARK VINA RESULT:    -3.106      0.000      0.000
REMARK INTER + INTRA:          -3.106
REMARK INTER:                  -3.106
REMARK INTRA:                   0.000
REMARK UNBOUND:                 0.000
REMARK SMILES c1cc[nH]c1
REMARK SMILES IDX 1 1 5 2 4 3 3 4 2 5
REMARK H PARENT 4 6
REMARK Flexibility Score: inf
ROOT
ATOM      1  C   UNL     1      20.836  89.975  37.239  1.00  0.00     0.019 A 
ATOM      2  C   UNL     1      19.777  89.130  37.501  1.00  0.00     0.082 A 
ATOM      3  N   UNL     1      18.656  89.846  37.697  1.00  0.00    -0.368 N 
ATOM      4  C   UNL     1      18.986  91.144  37.561  1.00  0.00     0.082 A 
ATOM      5  C   UNL     1      20.331  91.259  37.276  1.00  0.00     0.019 A 
ATOM      6  H   UNL     1      17.707  89.467  37.912  1.00  0.00     0.165 HD
ENDROOT
TORSDOF 0
ENDMDL
MODEL 2
REMARK VINA RESULT:    -3.085      5.121      5.659
REMARK INTER + INTRA:          -3.085
REMARK INTER:                  -3.085
REMARK INTRA:                   0.000
REMARK UNBOUND:                 0.000
REMARK SMILES c1cc[nH]c1
REMARK SMILES IDX 1 1 5 2 4 3 3 4 2 5
REMARK H PARENT 4 6
REMARK Flexibility Score: inf
ROOT
ATOM      1  C   UNL     1      24.201  87.832  34.699  1.00  0.00     0.019 A 
ATOM      2  C   UNL     1      24.177  86.468  34.496  1.00  0.00     0.082 A 
ATOM      3  N   UNL     1      22.910  86.053  34.315  1.00  0.00    -0.368 N 
ATOM      4  C   UNL     1      22.122  87.141  34.400  1.00  0.00     0.082 A 
ATOM      5  C   UNL     1      22.891  88.261  34.637  1.00  0.00     0.019 A 
ATOM      6  H   UNL     1      22.598  85.073  34.140  1.00  0.00     0.165 HD
ENDROOT
TORSDOF 0
ENDMDL
MODEL 3
REMARK VINA RESULT:    -3.081      0.083      1.625
REMARK INTER + INTRA:          -3.081
REMARK INTER:                  -3.081
REMARK INTRA:                   0.000
REMARK UNBOUND:                 0.000
REMARK SMILES c1cc[nH]c1
REMARK SMILES IDX 1 1 5 2 4 3 3 4 2 5
REMARK H PARENT 4 6
REMARK Flexibility Score: inf
ROOT
ATOM      1  C   UNL     1      20.366  91.296  37.255  1.00  0.00     0.019 A 
ATOM      2  C   UNL     1      19.042  91.165  37.620  1.00  0.00     0.082 A 
ATOM      3  N   UNL     1      18.732  89.864  37.764  1.00  0.00    -0.368 N 
ATOM      4  C   UNL     1      19.847  89.160  37.495  1.00  0.00     0.082 A 
ATOM      5  C   UNL     1      20.879  90.017  37.176  1.00  0.00     0.019 A 
ATOM      6  H   UNL     1      17.802  89.474  38.035  1.00  0.00     0.165 HD
ENDROOT
TORSDOF 0
ENDMDL
MODEL 4
REMARK VINA RESULT:    -3.072      5.155      5.837
REMARK INTER + INTRA:          -3.072
REMARK INTER:                  -3.072
REMARK INTRA:                   0.000
REMARK UNBOUND:                 0.000
REMARK SMILES c1cc[nH]c1
REMARK SMILES IDX 1 1 5 2 4 3 3 4 2 5
REMARK H PARENT 4 6
REMARK Flexibility Score: inf
ROOT
ATOM      1  C   UNL     1      22.860  88.204  34.595  1.00  0.00     0.019 A 
ATOM      2  C   UNL     1      22.127  87.048  34.424  1.00  0.00     0.082 A 
ATOM      3  N   UNL     1      22.951  85.987  34.358  1.00  0.00    -0.368 N 
ATOM      4  C   UNL     1      24.207  86.454  34.486  1.00  0.00     0.082 A 
ATOM      5  C   UNL     1      24.186  87.825  34.635  1.00  0.00     0.019 A 
ATOM      6  H   UNL     1      22.670  84.990  34.231  1.00  0.00     0.165 HD
ENDROOT
TORSDOF 0
ENDMDL
MODEL 5
REMARK VINA RESULT:    -2.932      3.769      4.306
REMARK INTER + INTRA:          -2.932
REMARK INTER:                  -2.932
REMARK INTRA:                   0.000
REMARK UNBOUND:                 0.000
REMARK SMILES c1cc[nH]c1
REMARK SMILES IDX 1 1 5 2 4 3 3 4 2 5
REMARK H PARENT 4 6
REMARK Flexibility Score: inf
ROOT
ATOM      1  C   UNL     1      20.912  87.649  34.141  1.00  0.00     0.019 A 
ATOM      2  C   UNL     1      19.712  87.795  34.805  1.00  0.00     0.082 A 
ATOM      3  N   UNL     1      19.705  87.033  35.913  1.00  0.00    -0.368 N 
ATOM      4  C   UNL     1      20.891  86.399  35.965  1.00  0.00     0.082 A 
ATOM      5  C   UNL     1      21.664  86.759  34.881  1.00  0.00     0.019 A 
ATOM      6  H   UNL     1      18.926  86.949  36.603  1.00  0.00     0.165 HD
ENDROOT
TORSDOF 0
ENDMDL
MODEL 6
REMARK VINA RESULT:    -2.915      3.085      3.319
REMARK INTER + INTRA:          -2.915
REMARK INTER:                  -2.915
REMARK INTRA:                   0.000
REMARK UNBOUND:                 0.000
REMARK SMILES c1cc[nH]c1
REMARK SMILES IDX 1 1 5 2 4 3 3 4 2 5
REMARK H PARENT 4 6
REMARK Flexibility Score: inf
ROOT
ATOM      1  C   UNL     1      19.447  89.121  34.323  1.00  0.00     0.019 A 
ATOM      2  C   UNL     1      19.881  87.844  34.617  1.00  0.00     0.082 A 
ATOM      3  N   UNL     1      19.144  87.328  35.617  1.00  0.00    -0.368 N 
ATOM      4  C   UNL     1      18.241  88.263  35.965  1.00  0.00     0.082 A 
ATOM      5  C   UNL     1      18.401  89.387  35.182  1.00  0.00     0.019 A 
ATOM      6  H   UNL     1      19.251  86.381  36.041  1.00  0.00     0.165 HD
ENDROOT
TORSDOF 0
ENDMDL
MODEL 7
REMARK VINA RESULT:    -2.899      2.716      3.267
REMARK INTER + INTRA:          -2.899
REMARK INTER:                  -2.899
REMARK INTRA:                   0.000
REMARK UNBOUND:                 0.000
REMARK SMILES c1cc[nH]c1
REMARK SMILES IDX 1 1 5 2 4 3 3 4 2 5
REMARK H PARENT 4 6
REMARK Flexibility Score: inf
ROOT
ATOM      1  C   UNL     1      17.641  88.870  36.031  1.00  0.00     0.019 A 
ATOM      2  C   UNL     1      18.171  89.694  37.002  1.00  0.00     0.082 A 
ATOM      3  N   UNL     1      17.237  89.970  37.930  1.00  0.00    -0.368 N 
ATOM      4  C   UNL     1      16.112  89.330  37.561  1.00  0.00     0.082 A 
ATOM      5  C   UNL     1      16.328  88.638  36.388  1.00  0.00     0.019 A 
ATOM      6  H   UNL     1      17.362  90.568  38.776  1.00  0.00     0.165 HD
ENDROOT
TORSDOF 0
ENDMDL
MODEL 8
REMARK VINA RESULT:    -2.887     12.921     13.056
REMARK INTER + INTRA:          -2.887
REMARK INTER:                  -2.887
REMARK INTRA:                   0.000
REMARK UNBOUND:                 0.000
REMARK SMILES c1cc[nH]c1
REMARK SMILES IDX 1 1 5 2 4 3 3 4 2 5
REMARK H PARENT 4 6
REMARK Flexibility Score: inf
ROOT
ATOM      1  C   UNL     1      11.059  93.772  28.275  1.00  0.00     0.019 A 
ATOM      2  C   UNL     1      11.487  95.003  28.727  1.00  0.00     0.082 A 
ATOM      3  N   UNL     1      10.771  95.370  29.805  1.00  0.00    -0.368 N 
ATOM      4  C   UNL     1       9.887  94.384  30.047  1.00  0.00     0.082 A 
ATOM      5  C   UNL     1      10.040  93.377  29.117  1.00  0.00     0.019 A 
ATOM      6  H   UNL     1      10.880  96.253  30.351  1.00  0.00     0.165 HD
ENDROOT
TORSDOF 0
ENDMDL
MODEL 9
REMARK VINA RESULT:    -2.871      4.380      5.118
REMARK INTER + INTRA:          -2.871
REMARK INTER:                  -2.871
REMARK INTRA:                   0.000
REMARK UNBOUND:                 0.000
REMARK SMILES c1cc[nH]c1
REMARK SMILES IDX 1 1 5 2 4 3 3 4 2 5
REMARK H PARENT 4 6
REMARK Flexibility Score: inf
ROOT
ATOM      1  C   UNL     1      23.547  89.414  34.604  1.00  0.00     0.019 A 
ATOM      2  C   UNL     1      22.231  89.073  34.367  1.00  0.00     0.082 A 
ATOM      3  N   UNL     1      22.092  87.735  34.388  1.00  0.00    -0.368 N 
ATOM      4  C   UNL     1      23.309  87.216  34.637  1.00  0.00     0.082 A 
ATOM      5  C   UNL     1      24.234  88.230  34.777  1.00  0.00     0.019 A 
ATOM      6  H   UNL     1      21.208  87.201  34.241  1.00  0.00     0.165 HD
ENDROOT
TORSDOF 0
ENDMDL
