MODEL 1
REMARK VINA RESULT:    -3.655      0.000      0.000
REMARK INTER + INTRA:          -4.395
REMARK INTER:                  -4.296
REMARK INTRA:                  -0.099
REMARK UNBOUND:                -0.099
REMARK SMILES CCCCC(=O)[O-]
REMARK SMILES IDX 4 1 5 2 6 3 7 4 3 5 2 6 1 7
REMARK H PARENT
REMARK Flexibility Score: inf
ROOT
ATOM      1  C   UNL     1       8.981   6.955  79.222  1.00  0.00     0.053 C 
ENDROOT
BRANCH   1   2
ATOM      2  C   UNL     1       8.641   5.556  79.630  1.00  0.00     0.041 C 
ATOM      3  O   UNL     1       7.440   5.214  79.784  1.00  0.00    -0.550 OA
ATOM      4  O   UNL     1       9.650   4.614  79.791  1.00  0.00    -0.550 OA
ENDBRANCH   1   2
BRANCH   1   5
ATOM      5  C   UNL     1       7.742   7.855  79.316  1.00  0.00     0.006 C 
BRANCH   5   6
ATOM      6  C   UNL     1       7.668   8.620  80.647  1.00  0.00    -0.003 C 
ATOM      7  C   UNL     1       6.354   8.384  81.391  1.00  0.00     0.004 C 
ENDBRANCH   5   6
ENDBRANCH   1   5
TORSDOF 3
ENDMDL
MODEL 2
REMARK VINA RESULT:    -3.650      0.947      1.472
REMARK INTER + INTRA:          -4.389
REMARK INTER:                  -4.322
REMARK INTRA:                  -0.068
REMARK UNBOUND:                -0.099
REMARK SMILES CCCCC(=O)[O-]
REMARK SMILES IDX 4 1 5 2 6 3 7 4 3 5 2 6 1 7
REMARK H PARENT
REMARK Flexibility Score: inf
ROOT
ATOM      1  C   UNL     1       9.076   6.705  79.007  1.00  0.00     0.053 C 
ENDROOT
BRANCH   1   2
ATOM      2  C   UNL     1       8.770   5.390  79.651  1.00  0.00     0.041 C 
ATOM      3  O   UNL     1       7.590   5.106  79.984  1.00  0.00    -0.550 OA
ATOM      4  O   UNL     1       9.781   4.455  79.839  1.00  0.00    -0.550 OA
ENDBRANCH   1   2
BRANCH   1   5
ATOM      5  C   UNL     1       7.947   7.709  79.276  1.00  0.00     0.006 C 
BRANCH   5   6
ATOM      6  C   UNL     1       8.346   8.785  80.298  1.00  0.00    -0.003 C 
ATOM      7  C   UNL     1       9.769   9.302  80.086  1.00  0.00     0.004 C 
ENDBRANCH   5   6
ENDBRANCH   1   5
TORSDOF 3
ENDMDL
MODEL 3
REMARK VINA RESULT:    -3.595      1.160      1.339
REMARK INTER + INTRA:          -4.325
REMARK INTER:                  -4.281
REMARK INTRA:                  -0.043
REMARK UNBOUND:                -0.099
REMARK SMILES CCCCC(=O)[O-]
REMARK SMILES IDX 4 1 5 2 6 3 7 4 3 5 2 6 1 7
REMARK H PARENT
REMARK Flexibility Score: inf
ROOT
ATOM      1  C   UNL     1       7.405   6.405  79.895  1.00  0.00     0.053 C 
ENDROOT
BRANCH   1   2
ATOM      2  C   UNL     1       8.776   5.943  79.511  1.00  0.00     0.041 C 
ATOM      3  O   UNL     1       9.533   6.692  78.842  1.00  0.00    -0.550 OA
ATOM      4  O   UNL     1       9.235   4.702  79.935  1.00  0.00    -0.550 OA
ENDBRANCH   1   2
BRANCH   1   5
ATOM      5  C   UNL     1       7.305   7.932  79.784  1.00  0.00     0.006 C 
BRANCH   5   6
ATOM      6  C   UNL     1       7.125   8.612  81.151  1.00  0.00    -0.003 C 
ATOM      7  C   UNL     1       5.717   8.435  81.717  1.00  0.00     0.004 C 
ENDBRANCH   5   6
ENDBRANCH   1   5
TORSDOF 3
ENDMDL
MODEL 4
REMARK VINA RESULT:    -3.377      2.737      3.439
REMARK INTER + INTRA:          -4.068
REMARK INTER:                  -3.964
REMARK INTRA:                  -0.103
REMARK UNBOUND:                -0.099
REMARK SMILES CCCCC(=O)[O-]
REMARK SMILES IDX 4 1 5 2 6 3 7 4 3 5 2 6 1 7
REMARK H PARENT
REMARK Flexibility Score: inf
ROOT
ATOM      1  C   UNL     1       8.191   9.089  80.080  1.00  0.00     0.053 C 
ENDROOT
BRANCH   1   2
ATOM      2  C   UNL     1       9.681   9.147  79.957  1.00  0.00     0.041 C 
ATOM      3  O   UNL     1      10.305  10.184  80.298  1.00  0.00    -0.550 OA
ATOM      4  O   UNL     1      10.385   8.036  79.509  1.00  0.00    -0.550 OA
ENDBRANCH   1   2
BRANCH   1   5
ATOM      5  C   UNL     1       7.625   7.962  79.205  1.00  0.00     0.006 C 
BRANCH   5   6
ATOM      6  C   UNL     1       7.080   6.789  80.034  1.00  0.00    -0.003 C 
ATOM      7  C   UNL     1       7.854   5.491  79.800  1.00  0.00     0.004 C 
ENDBRANCH   5   6
ENDBRANCH   1   5
TORSDOF 3
ENDMDL
MODEL 5
REMARK VINA RESULT:    -3.347      2.515      3.596
REMARK INTER + INTRA:          -4.034
REMARK INTER:                  -3.938
REMARK INTRA:                  -0.096
REMARK UNBOUND:                -0.099
REMARK SMILES CCCCC(=O)[O-]
REMARK SMILES IDX 4 1 5 2 6 3 7 4 3 5 2 6 1 7
REMARK H PARENT
REMARK Flexibility Score: inf
ROOT
ATOM      1  C   UNL     1       8.981   8.487  80.037  1.00  0.00     0.053 C 
ENDROOT
BRANCH   1   2
ATOM      2  C   UNL     1       7.615   9.033  80.311  1.00  0.00     0.041 C 
ATOM      3  O   UNL     1       7.164   9.988  79.627  1.00  0.00    -0.550 OA
ATOM      4  O   UNL     1       6.818   8.453  81.292  1.00  0.00    -0.550 OA
ENDBRANCH   1   2
BRANCH   1   5
ATOM      5  C   UNL     1       8.930   7.472  78.887  1.00  0.00     0.006 C 
BRANCH   5   6
ATOM      6  C   UNL     1       9.139   6.027  79.367  1.00  0.00    -0.003 C 
ATOM      7  C   UNL     1       7.843   5.367  79.834  1.00  0.00     0.004 C 
ENDBRANCH   5   6
ENDBRANCH   1   5
TORSDOF 3
ENDMDL
MODEL 6
REMARK VINA RESULT:    -3.283      3.067      4.283
REMARK INTER + INTRA:          -3.958
REMARK INTER:                  -3.938
REMARK INTRA:                  -0.020
REMARK UNBOUND:                -0.099
REMARK SMILES CCCCC(=O)[O-]
REMARK SMILES IDX 4 1 5 2 6 3 7 4 3 5 2 6 1 7
REMARK H PARENT
REMARK Flexibility Score: inf
ROOT
ATOM      1  C   UNL     1       7.122   8.438  81.106  1.00  0.00     0.053 C 
ENDROOT
BRANCH   1   2
ATOM      2  C   UNL     1       5.836   8.995  81.629  1.00  0.00     0.041 C 
ATOM      3  O   UNL     1       5.585  10.223  81.519  1.00  0.00    -0.550 OA
ATOM      4  O   UNL     1       4.891   8.148  82.197  1.00  0.00    -0.550 OA
ENDBRANCH   1   2
BRANCH   1   5
ATOM      5  C   UNL     1       6.848   7.396  80.013  1.00  0.00     0.006 C 
BRANCH   5   6
ATOM      6  C   UNL     1       7.997   6.387  79.859  1.00  0.00    -0.003 C 
ATOM      7  C   UNL     1       9.109   6.893  78.941  1.00  0.00     0.004 C 
ENDBRANCH   5   6
ENDBRANCH   1   5
TORSDOF 3
ENDMDL
MODEL 7
REMARK VINA RESULT:    -3.248      2.530      3.844
REMARK INTER + INTRA:          -3.917
REMARK INTER:                  -3.890
REMARK INTRA:                  -0.027
REMARK UNBOUND:                -0.099
REMARK SMILES CCCCC(=O)[O-]
REMARK SMILES IDX 4 1 5 2 6 3 7 4 3 5 2 6 1 7
REMARK H PARENT
REMARK Flexibility Score: inf
ROOT
ATOM      1  C   UNL     1       7.669   7.219  79.846  1.00  0.00     0.053 C 
ENDROOT
BRANCH   1   2
ATOM      2  C   UNL     1       8.083   8.653  79.949  1.00  0.00     0.041 C 
ATOM      3  O   UNL     1       7.220   9.568  79.892  1.00  0.00    -0.550 OA
ATOM      4  O   UNL     1       9.417   8.979  80.157  1.00  0.00    -0.550 OA
ENDBRANCH   1   2
BRANCH   1   5
ATOM      5  C   UNL     1       8.828   6.366  79.312  1.00  0.00     0.006 C 
BRANCH   5   6
ATOM      6  C   UNL     1       8.825   4.941  79.889  1.00  0.00    -0.003 C 
ATOM      7  C   UNL     1      10.200   4.275  79.822  1.00  0.00     0.004 C 
ENDBRANCH   5   6
ENDBRANCH   1   5
TORSDOF 3
ENDMDL
MODEL 8
REMARK VINA RESULT:    -3.155      2.898      3.778
REMARK INTER + INTRA:          -3.808
REMARK INTER:                  -3.734
REMARK INTRA:                  -0.074
REMARK UNBOUND:                -0.099
REMARK SMILES CCCCC(=O)[O-]
REMARK SMILES IDX 4 1 5 2 6 3 7 4 3 5 2 6 1 7
REMARK H PARENT
REMARK Flexibility Score: inf
ROOT
ATOM      1  C   UNL     1       7.120   7.398  80.367  1.00  0.00     0.053 C 
ENDROOT
BRANCH   1   2
ATOM      2  C   UNL     1       6.812   8.743  80.945  1.00  0.00     0.041 C 
ATOM      3  O   UNL     1       6.496   8.856  82.158  1.00  0.00    -0.550 OA
ATOM      4  O   UNL     1       6.922   9.881  80.155  1.00  0.00    -0.550 OA
ENDBRANCH   1   2
BRANCH   1   5
ATOM      5  C   UNL     1       7.887   7.546  79.047  1.00  0.00     0.006 C 
BRANCH   5   6
ATOM      6  C   UNL     1       9.389   7.261  79.203  1.00  0.00    -0.003 C 
ATOM      7  C   UNL     1      10.175   8.479  79.686  1.00  0.00     0.004 C 
ENDBRANCH   5   6
ENDBRANCH   1   5
TORSDOF 3
ENDMDL
MODEL 9
REMARK VINA RESULT:    -3.082      8.485      9.487
REMARK INTER + INTRA:          -3.722
REMARK INTER:                  -3.706
REMARK INTRA:                  -0.016
REMARK UNBOUND:                -0.099
REMARK SMILES CCCCC(=O)[O-]
REMARK SMILES IDX 4 1 5 2 6 3 7 4 3 5 2 6 1 7
REMARK H PARENT
REMARK Flexibility Score: inf
ROOT
ATOM      1  C   UNL     1       2.714   5.154  85.625  1.00  0.00     0.053 C 
ENDROOT
BRANCH   1   2
ATOM      2  C   UNL     1       1.888   6.400  85.697  1.00  0.00     0.041 C 
ATOM      3  O   UNL     1       0.682   6.383  85.335  1.00  0.00    -0.550 OA
ATOM      4  O   UNL     1       2.436   7.569  86.210  1.00  0.00    -0.550 OA
ENDBRANCH   1   2
BRANCH   1   5
ATOM      5  C   UNL     1       2.319   4.185  86.747  1.00  0.00     0.006 C 
BRANCH   5   6
ATOM      6  C   UNL     1       3.290   3.001  86.872  1.00  0.00    -0.003 C 
ATOM      7  C   UNL     1       2.854   1.988  87.931  1.00  0.00     0.004 C 
ENDBRANCH   5   6
ENDBRANCH   1   5
TORSDOF 3
ENDMDL
