MODEL 1
REMARK VINA RESULT:    -4.191      0.000      0.000
REMARK INTER + INTRA:          -6.929
REMARK INTER:                  -6.151
REMARK INTRA:                  -0.778
REMARK UNBOUND:                -0.778
REMARK SMILES O=C([O-])CCCCCCCC(=O)[O-]
REMARK SMILES IDX 7 1 6 2 5 3 4 4 2 5 1 6 3 7 8 8 9 9 10 10 11 11 12 12 13 13
REMARK H PARENT
REMARK Flexibility Score: inf
ROOT
ATOM      1  C   UNL     1      27.034 -13.128  15.219  1.00  0.00     0.000 C 
ENDROOT
BRANCH   1   2
ATOM      2  C   UNL     1      27.915 -14.391  15.118  1.00  0.00     0.000 C 
BRANCH   2   3
ATOM      3  C   UNL     1      29.246 -14.322  15.888  1.00  0.00     0.006 C 
BRANCH   3   4
ATOM      4  C   UNL     1      29.404 -13.024  16.689  1.00  0.00     0.053 C 
BRANCH   4   5
ATOM      5  C   UNL     1      30.649 -12.305  16.276  1.00  0.00     0.041 C 
ATOM      6  O   UNL     1      30.673 -11.640  15.207  1.00  0.00    -0.550 OA
ATOM      7  O   UNL     1      31.770 -12.329  17.097  1.00  0.00    -0.550 OA
ENDBRANCH   4   5
ENDBRANCH   3   4
ENDBRANCH   2   3
ENDBRANCH   1   2
BRANCH   1   8
ATOM      8  C   UNL     1      26.886 -12.332  13.911  1.00  0.00     0.000 C 
BRANCH   8   9
ATOM      9  C   UNL     1      27.263 -10.849  14.067  1.00  0.00     0.006 C 
BRANCH   9  10
ATOM     10  C   UNL     1      27.250 -10.400  15.534  1.00  0.00     0.053 C 
BRANCH  10  11
ATOM     11  C   UNL     1      28.324  -9.394  15.813  1.00  0.00     0.041 C 
ATOM     12  O   UNL     1      28.666  -9.144  16.998  1.00  0.00    -0.550 OA
ATOM     13  O   UNL     1      28.970  -8.757  14.761  1.00  0.00    -0.550 OA
ENDBRANCH  10  11
ENDBRANCH   9  10
ENDBRANCH   8   9
ENDBRANCH   1   8
TORSDOF 8
ENDMDL
MODEL 2
REMARK VINA RESULT:    -4.165      2.370      3.462
REMARK INTER + INTRA:          -6.890
REMARK INTER:                  -6.386
REMARK INTRA:                  -0.505
REMARK UNBOUND:                -0.778
REMARK SMILES O=C([O-])CCCCCCCC(=O)[O-]
REMARK SMILES IDX 7 1 6 2 5 3 4 4 2 5 1 6 3 7 8 8 9 9 10 10 11 11 12 12 13 13
REMARK H PARENT
REMARK Flexibility Score: inf
ROOT
ATOM      1  C   UNL     1      27.332 -10.497  15.256  1.00  0.00     0.000 C 
ENDROOT
BRANCH   1   2
ATOM      2  C   UNL     1      27.054 -11.276  13.954  1.00  0.00     0.000 C 
BRANCH   2   3
ATOM      3  C   UNL     1      27.088 -12.810  14.090  1.00  0.00     0.006 C 
BRANCH   3   4
ATOM      4  C   UNL     1      27.155 -13.276  15.550  1.00  0.00     0.053 C 
BRANCH   4   5
ATOM      5  C   UNL     1      28.508 -13.838  15.855  1.00  0.00     0.041 C 
ATOM      6  O   UNL     1      28.833 -14.976  15.426  1.00  0.00    -0.550 OA
ATOM      7  O   UNL     1      29.428 -13.083  16.573  1.00  0.00    -0.550 OA
ENDBRANCH   4   5
ENDBRANCH   3   4
ENDBRANCH   2   3
ENDBRANCH   1   2
BRANCH   1   8
ATOM      8  C   UNL     1      28.184  -9.228  15.086  1.00  0.00     0.000 C 
BRANCH   8   9
ATOM      9  C   UNL     1      29.688  -9.528  14.979  1.00  0.00     0.006 C 
BRANCH   9  10
ATOM     10  C   UNL     1      30.378  -8.658  13.920  1.00  0.00     0.053 C 
BRANCH  10  11
ATOM     11  C   UNL     1      30.704  -9.444  12.687  1.00  0.00     0.041 C 
ATOM     12  O   UNL     1      30.207 -10.587  12.514  1.00  0.00    -0.550 OA
ATOM     13  O   UNL     1      31.529  -8.897  11.712  1.00  0.00    -0.550 OA
ENDBRANCH  10  11
ENDBRANCH   9  10
ENDBRANCH   8   9
ENDBRANCH   1   8
TORSDOF 8
ENDMDL
MODEL 3
REMARK VINA RESULT:    -4.122      2.492      4.462
REMARK INTER + INTRA:          -6.828
REMARK INTER:                  -6.252
REMARK INTRA:                  -0.576
REMARK UNBOUND:                -0.778
REMARK SMILES O=C([O-])CCCCCCCC(=O)[O-]
REMARK SMILES IDX 7 1 6 2 5 3 4 4 2 5 1 6 3 7 8 8 9 9 10 10 11 11 12 12 13 13
REMARK H PARENT
REMARK Flexibility Score: inf
ROOT
ATOM      1  C   UNL     1      29.412 -11.078  13.543  1.00  0.00     0.000 C 
ENDROOT
BRANCH   1   2
ATOM      2  C   UNL     1      30.221  -9.764  13.527  1.00  0.00     0.000 C 
BRANCH   2   3
ATOM      3  C   UNL     1      29.974  -8.830  14.726  1.00  0.00     0.006 C 
BRANCH   3   4
ATOM      4  C   UNL     1      30.850  -9.173  15.937  1.00  0.00     0.053 C 
BRANCH   4   5
ATOM      5  C   UNL     1      30.137  -8.831  17.208  1.00  0.00     0.041 C 
ATOM      6  O   UNL     1      28.883  -8.913  17.273  1.00  0.00    -0.550 OA
ATOM      7  O   UNL     1      30.863  -8.469  18.336  1.00  0.00    -0.550 OA
ENDBRANCH   4   5
ENDBRANCH   3   4
ENDBRANCH   2   3
ENDBRANCH   1   2
BRANCH   1   8
ATOM      8  C   UNL     1      28.109 -11.029  14.360  1.00  0.00     0.000 C 
BRANCH   8   9
ATOM      9  C   UNL     1      28.139 -11.955  15.588  1.00  0.00     0.006 C 
BRANCH   9  10
ATOM     10  C   UNL     1      27.088 -13.069  15.497  1.00  0.00     0.053 C 
BRANCH  10  11
ATOM     11  C   UNL     1      27.572 -14.219  14.668  1.00  0.00     0.041 C 
ATOM     12  O   UNL     1      27.044 -14.463  13.552  1.00  0.00    -0.550 OA
ATOM     13  O   UNL     1      28.631 -15.000  15.114  1.00  0.00    -0.550 OA
ENDBRANCH  10  11
ENDBRANCH   9  10
ENDBRANCH   8   9
ENDBRANCH   1   8
TORSDOF 8
ENDMDL
MODEL 4
REMARK VINA RESULT:    -4.111      5.063      6.394
REMARK INTER + INTRA:          -6.812
REMARK INTER:                  -6.503
REMARK INTRA:                  -0.309
REMARK UNBOUND:                -0.778
REMARK SMILES O=C([O-])CCCCCCCC(=O)[O-]
REMARK SMILES IDX 7 1 6 2 5 3 4 4 2 5 1 6 3 7 8 8 9 9 10 10 11 11 12 12 13 13
REMARK H PARENT
REMARK Flexibility Score: inf
ROOT
ATOM      1  C   UNL     1      31.135  -8.536  12.703  1.00  0.00     0.000 C 
ENDROOT
BRANCH   1   2
ATOM      2  C   UNL     1      30.330  -9.497  13.602  1.00  0.00     0.000 C 
BRANCH   2   3
ATOM      3  C   UNL     1      29.869  -8.904  14.946  1.00  0.00     0.006 C 
BRANCH   3   4
ATOM      4  C   UNL     1      28.349  -8.970  15.135  1.00  0.00     0.053 C 
BRANCH   4   5
ATOM      5  C   UNL     1      27.880 -10.390  15.092  1.00  0.00     0.041 C 
ATOM      6  O   UNL     1      27.028 -10.751  14.238  1.00  0.00    -0.550 OA
ATOM      7  O   UNL     1      28.421 -11.327  15.964  1.00  0.00    -0.550 OA
ENDBRANCH   4   5
ENDBRANCH   3   4
ENDBRANCH   2   3
ENDBRANCH   1   2
BRANCH   1   8
ATOM      8  C   UNL     1      30.491  -7.157  12.484  1.00  0.00     0.000 C 
BRANCH   8   9
ATOM      9  C   UNL     1      30.876  -6.524  11.136  1.00  0.00     0.006 C 
BRANCH   9  10
ATOM     10  C   UNL     1      32.076  -5.577  11.264  1.00  0.00     0.053 C 
BRANCH  10  11
ATOM     11  C   UNL     1      33.047  -5.762  10.138  1.00  0.00     0.041 C 
ATOM     12  O   UNL     1      32.632  -6.007   8.976  1.00  0.00    -0.550 OA
ATOM     13  O   UNL     1      34.410  -5.628  10.368  1.00  0.00    -0.550 OA
ENDBRANCH  10  11
ENDBRANCH   9  10
ENDBRANCH   8   9
ENDBRANCH   1   8
TORSDOF 8
ENDMDL
MODEL 5
REMARK VINA RESULT:    -4.104      4.991      6.718
REMARK INTER + INTRA:          -6.802
REMARK INTER:                  -6.490
REMARK INTRA:                  -0.312
REMARK UNBOUND:                -0.778
REMARK SMILES O=C([O-])CCCCCCCC(=O)[O-]
REMARK SMILES IDX 7 1 6 2 5 3 4 4 2 5 1 6 3 7 8 8 9 9 10 10 11 11 12 12 13 13
REMARK H PARENT
REMARK Flexibility Score: inf
ROOT
ATOM      1  C   UNL     1      31.032  -8.916  12.547  1.00  0.00     0.000 C 
ENDROOT
BRANCH   1   2
ATOM      2  C   UNL     1      30.675  -7.416  12.595  1.00  0.00     0.000 C 
BRANCH   2   3
ATOM      3  C   UNL     1      30.858  -6.658  11.268  1.00  0.00     0.006 C 
BRANCH   3   4
ATOM      4  C   UNL     1      31.925  -5.560  11.351  1.00  0.00     0.053 C 
BRANCH   4   5
ATOM      5  C   UNL     1      32.923  -5.718  10.248  1.00  0.00     0.041 C 
ATOM      6  O   UNL     1      32.536  -5.942   9.071  1.00  0.00    -0.550 OA
ATOM      7  O   UNL     1      34.279  -5.571  10.510  1.00  0.00    -0.550 OA
ENDBRANCH   4   5
ENDBRANCH   3   4
ENDBRANCH   2   3
ENDBRANCH   1   2
BRANCH   1   8
ATOM      8  C   UNL     1      30.262  -9.800  13.542  1.00  0.00     0.000 C 
BRANCH   8   9
ATOM      9  C   UNL     1      29.872  -9.053  14.828  1.00  0.00     0.006 C 
BRANCH   9  10
ATOM     10  C   UNL     1      28.357  -9.068  15.069  1.00  0.00     0.053 C 
BRANCH  10  11
ATOM     11  C   UNL     1      27.810 -10.463  15.063  1.00  0.00     0.041 C 
ATOM     12  O   UNL     1      26.944 -10.801  14.215  1.00  0.00    -0.550 OA
ATOM     13  O   UNL     1      28.284 -11.398  15.974  1.00  0.00    -0.550 OA
ENDBRANCH  10  11
ENDBRANCH   9  10
ENDBRANCH   8   9
ENDBRANCH   1   8
TORSDOF 8
ENDMDL
MODEL 6
REMARK VINA RESULT:    -4.097      1.764      3.273
REMARK INTER + INTRA:          -6.791
REMARK INTER:                  -6.020
REMARK INTRA:                  -0.771
REMARK UNBOUND:                -0.778
REMARK SMILES O=C([O-])CCCCCCCC(=O)[O-]
REMARK SMILES IDX 7 1 6 2 5 3 4 4 2 5 1 6 3 7 8 8 9 9 10 10 11 11 12 12 13 13
REMARK H PARENT
REMARK Flexibility Score: inf
ROOT
ATOM      1  C   UNL     1      27.230 -10.417  15.619  1.00  0.00     0.000 C 
ENDROOT
BRANCH   1   2
ATOM      2  C   UNL     1      27.274 -10.950  14.171  1.00  0.00     0.000 C 
BRANCH   2   3
ATOM      3  C   UNL     1      27.881 -12.355  14.010  1.00  0.00     0.006 C 
BRANCH   3   4
ATOM      4  C   UNL     1      27.401 -13.338  15.085  1.00  0.00     0.053 C 
BRANCH   4   5
ATOM      5  C   UNL     1      28.565 -13.875  15.857  1.00  0.00     0.041 C 
ATOM      6  O   UNL     1      29.062 -14.992  15.559  1.00  0.00    -0.550 OA
ATOM      7  O   UNL     1      29.132 -13.119  16.876  1.00  0.00    -0.550 OA
ENDBRANCH   4   5
ENDBRANCH   3   4
ENDBRANCH   2   3
ENDBRANCH   1   2
BRANCH   1   8
ATOM      8  C   UNL     1      28.288  -9.351  15.951  1.00  0.00     0.000 C 
BRANCH   8   9
ATOM      9  C   UNL     1      29.159  -8.975  14.741  1.00  0.00     0.006 C 
BRANCH   9  10
ATOM     10  C   UNL     1      30.654  -8.965  15.086  1.00  0.00     0.053 C 
BRANCH  10  11
ATOM     11  C   UNL     1      31.101 -10.281  15.647  1.00  0.00     0.041 C 
ATOM     12  O   UNL     1      31.165 -11.296  14.907  1.00  0.00    -0.550 OA
ATOM     13  O   UNL     1      31.480 -10.375  16.980  1.00  0.00    -0.550 OA
ENDBRANCH  10  11
ENDBRANCH   9  10
ENDBRANCH   8   9
ENDBRANCH   1   8
TORSDOF 8
ENDMDL
MODEL 7
REMARK VINA RESULT:    -4.089      4.932      6.681
REMARK INTER + INTRA:          -6.780
REMARK INTER:                  -6.410
REMARK INTRA:                  -0.370
REMARK UNBOUND:                -0.778
REMARK SMILES O=C([O-])CCCCCCCC(=O)[O-]
REMARK SMILES IDX 7 1 6 2 5 3 4 4 2 5 1 6 3 7 8 8 9 9 10 10 11 11 12 12 13 13
REMARK H PARENT
REMARK Flexibility Score: inf
ROOT
ATOM      1  C   UNL     1      31.196  -8.370  12.846  1.00  0.00     0.000 C 
ENDROOT
BRANCH   1   2
ATOM      2  C   UNL     1      30.508  -7.081  12.349  1.00  0.00     0.000 C 
BRANCH   2   3
ATOM      3  C   UNL     1      31.149  -6.436  11.107  1.00  0.00     0.006 C 
BRANCH   3   4
ATOM      4  C   UNL     1      32.197  -5.373  11.462  1.00  0.00     0.053 C 
BRANCH   4   5
ATOM      5  C   UNL     1      33.574  -5.885  11.177  1.00  0.00     0.041 C 
ATOM      6  O   UNL     1      34.195  -6.551  12.046  1.00  0.00    -0.550 OA
ATOM      7  O   UNL     1      34.152  -5.668   9.932  1.00  0.00    -0.550 OA
ENDBRANCH   4   5
ENDBRANCH   3   4
ENDBRANCH   2   3
ENDBRANCH   1   2
BRANCH   1   8
ATOM      8  C   UNL     1      30.267  -9.371  13.554  1.00  0.00     0.000 C 
BRANCH   8   9
ATOM      9  C   UNL     1      29.882  -8.928  14.975  1.00  0.00     0.006 C 
BRANCH   9  10
ATOM     10  C   UNL     1      28.385  -9.117  15.254  1.00  0.00     0.053 C 
BRANCH  10  11
ATOM     11  C   UNL     1      27.958 -10.537  15.039  1.00  0.00     0.041 C 
ATOM     12  O   UNL     1      27.086 -10.814  14.176  1.00  0.00    -0.550 OA
ATOM     13  O   UNL     1      28.551 -11.559  15.771  1.00  0.00    -0.550 OA
ENDBRANCH  10  11
ENDBRANCH   9  10
ENDBRANCH   8   9
ENDBRANCH   1   8
TORSDOF 8
ENDMDL
MODEL 8
REMARK VINA RESULT:    -4.081      2.539      4.565
REMARK INTER + INTRA:          -6.768
REMARK INTER:                  -6.294
REMARK INTRA:                  -0.474
REMARK UNBOUND:                -0.778
REMARK SMILES O=C([O-])CCCCCCCC(=O)[O-]
REMARK SMILES IDX 7 1 6 2 5 3 4 4 2 5 1 6 3 7 8 8 9 9 10 10 11 11 12 12 13 13
REMARK H PARENT
REMARK Flexibility Score: inf
ROOT
ATOM      1  C   UNL     1      28.007  -9.407  15.180  1.00  0.00     0.000 C 
ENDROOT
BRANCH   1   2
ATOM      2  C   UNL     1      29.269  -9.489  16.063  1.00  0.00     0.000 C 
BRANCH   2   3
ATOM      3  C   UNL     1      30.557  -8.951  15.415  1.00  0.00     0.006 C 
BRANCH   3   4
ATOM      4  C   UNL     1      30.441  -8.807  13.892  1.00  0.00     0.053 C 
BRANCH   4   5
ATOM      5  C   UNL     1      30.994 -10.020  13.212  1.00  0.00     0.041 C 
ATOM      6  O   UNL     1      31.771 -10.794  13.829  1.00  0.00    -0.550 OA
ATOM      7  O   UNL     1      30.613 -10.321  11.910  1.00  0.00    -0.550 OA
ENDBRANCH   4   5
ENDBRANCH   3   4
ENDBRANCH   2   3
ENDBRANCH   1   2
BRANCH   1   8
ATOM      8  C   UNL     1      27.311 -10.752  14.913  1.00  0.00     0.000 C 
BRANCH   8   9
ATOM      9  C   UNL     1      27.945 -11.918  15.688  1.00  0.00     0.006 C 
BRANCH   9  10
ATOM     10  C   UNL     1      27.135 -13.213  15.550  1.00  0.00     0.053 C 
BRANCH  10  11
ATOM     11  C   UNL     1      27.875 -14.246  14.756  1.00  0.00     0.041 C 
ATOM     12  O   UNL     1      27.662 -14.369  13.522  1.00  0.00    -0.550 OA
ATOM     13  O   UNL     1      28.825 -15.048  15.374  1.00  0.00    -0.550 OA
ENDBRANCH  10  11
ENDBRANCH   9  10
ENDBRANCH   8   9
ENDBRANCH   1   8
TORSDOF 8
ENDMDL
MODEL 9
REMARK VINA RESULT:    -4.047      5.045      6.803
REMARK INTER + INTRA:          -6.717
REMARK INTER:                  -6.507
REMARK INTRA:                  -0.210
REMARK UNBOUND:                -0.778
REMARK SMILES O=C([O-])CCCCCCCC(=O)[O-]
REMARK SMILES IDX 7 1 6 2 5 3 4 4 2 5 1 6 3 7 8 8 9 9 10 10 11 11 12 12 13 13
REMARK H PARENT
REMARK Flexibility Score: inf
ROOT
ATOM      1  C   UNL     1      30.978  -8.562  12.747  1.00  0.00     0.000 C 
ENDROOT
BRANCH   1   2
ATOM      2  C   UNL     1      30.500  -7.116  12.497  1.00  0.00     0.000 C 
BRANCH   2   3
ATOM      3  C   UNL     1      30.977  -6.490  11.174  1.00  0.00     0.006 C 
BRANCH   3   4
ATOM      4  C   UNL     1      32.195  -5.575  11.354  1.00  0.00     0.053 C 
BRANCH   4   5
ATOM      5  C   UNL     1      33.110  -5.688  10.176  1.00  0.00     0.041 C 
ATOM      6  O   UNL     1      34.348  -5.509  10.315  1.00  0.00    -0.550 OA
ATOM      7  O   UNL     1      32.601  -6.041   8.932  1.00  0.00    -0.550 OA
ENDBRANCH   4   5
ENDBRANCH   3   4
ENDBRANCH   2   3
ENDBRANCH   1   2
BRANCH   1   8
ATOM      8  C   UNL     1      30.211  -9.321  13.843  1.00  0.00     0.000 C 
BRANCH   8   9
ATOM      9  C   UNL     1      29.813 -10.744  13.418  1.00  0.00     0.006 C 
BRANCH   9  10
ATOM     10  C   UNL     1      28.432 -11.143  13.956  1.00  0.00     0.053 C 
BRANCH  10  11
ATOM     11  C   UNL     1      28.326 -10.908  15.432  1.00  0.00     0.041 C 
ATOM     12  O   UNL     1      28.991 -11.610  16.236  1.00  0.00    -0.550 OA
ATOM     13  O   UNL     1      27.516  -9.888  15.916  1.00  0.00    -0.550 OA
ENDBRANCH  10  11
ENDBRANCH   9  10
ENDBRANCH   8   9
ENDBRANCH   1   8
TORSDOF 8
ENDMDL
