MODEL 1
REMARK VINA RESULT:    -5.508      0.000      0.000
REMARK INTER + INTRA:          -6.242
REMARK INTER:                  -5.992
REMARK INTRA:                  -0.250
REMARK UNBOUND:                -0.250
REMARK SMILES O=C([O-])c1ccccc1O
REMARK SMILES IDX 4 1 9 2 5 3 8 4 6 5 7 6 2 7 1 8 3 9 10 10
REMARK H PARENT 10 11
REMARK Flexibility Score: inf
ROOT
ATOM      1  C   UNL     1       9.713  69.366   0.271  1.00  0.00     0.039 A 
ATOM      2  C   UNL     1      10.131  69.817   1.546  1.00  0.00     0.124 A 
ATOM      3  C   UNL     1       9.191  68.063   0.150  1.00  0.00     0.014 A 
ATOM      4  C   UNL     1      10.019  68.970   2.659  1.00  0.00     0.047 A 
ATOM      5  C   UNL     1       9.086  67.230   1.266  1.00  0.00     0.001 A 
ATOM      6  C   UNL     1       9.499  67.682   2.518  1.00  0.00     0.004 A 
ENDROOT
BRANCH   1   7
ATOM      7  C   UNL     1       9.810  70.223  -0.938  1.00  0.00     0.075 C 
ATOM      8  O   UNL     1       9.428  71.423  -0.915  1.00  0.00    -0.545 OA
ATOM      9  O   UNL     1      10.329  69.711  -2.121  1.00  0.00    -0.545 OA
ENDBRANCH   1   7
BRANCH   2  10
ATOM     10  O   UNL     1      10.653  71.099   1.713  1.00  0.00    -0.507 OA
ATOM     11  H   UNL     1      11.287  71.322   2.473  1.00  0.00     0.293 HD
ENDBRANCH   2  10
TORSDOF 2
ENDMDL
MODEL 2
REMARK VINA RESULT:    -5.490      1.389      2.506
REMARK INTER + INTRA:          -6.221
REMARK INTER:                  -5.973
REMARK INTRA:                  -0.249
REMARK UNBOUND:                -0.250
REMARK SMILES O=C([O-])c1ccccc1O
REMARK SMILES IDX 4 1 9 2 5 3 8 4 6 5 7 6 2 7 1 8 3 9 10 10
REMARK H PARENT 10 11
REMARK Flexibility Score: inf
ROOT
ATOM      1  C   UNL     1       9.490  69.935  -0.596  1.00  0.00     0.039 A 
ATOM      2  C   UNL     1       8.693  68.823  -0.960  1.00  0.00     0.124 A 
ATOM      3  C   UNL     1      10.110  69.941   0.668  1.00  0.00     0.014 A 
ATOM      4  C   UNL     1       8.533  67.754  -0.064  1.00  0.00     0.047 A 
ATOM      5  C   UNL     1       9.943  68.871   1.550  1.00  0.00     0.001 A 
ATOM      6  C   UNL     1       9.156  67.779   1.184  1.00  0.00     0.004 A 
ENDROOT
BRANCH   1   7
ATOM      7  C   UNL     1       9.691  71.091  -1.507  1.00  0.00     0.075 C 
ATOM      8  O   UNL     1       9.451  72.267  -1.127  1.00  0.00    -0.545 OA
ATOM      9  O   UNL     1      10.151  70.890  -2.804  1.00  0.00    -0.545 OA
ENDBRANCH   1   7
BRANCH   2  10
ATOM     10  O   UNL     1       8.060  68.775  -2.202  1.00  0.00    -0.507 OA
ATOM     11  H   UNL     1       7.893  67.897  -2.681  1.00  0.00     0.293 HD
ENDBRANCH   2  10
TORSDOF 2
ENDMDL
MODEL 3
REMARK VINA RESULT:    -5.488      1.941      2.844
REMARK INTER + INTRA:          -6.220
REMARK INTER:                  -5.974
REMARK INTRA:                  -0.246
REMARK UNBOUND:                -0.250
REMARK SMILES O=C([O-])c1ccccc1O
REMARK SMILES IDX 4 1 9 2 5 3 8 4 6 5 7 6 2 7 1 8 3 9 10 10
REMARK H PARENT 10 11
REMARK Flexibility Score: inf
ROOT
ATOM      1  C   UNL     1      10.040  69.942   1.091  1.00  0.00     0.039 A 
ATOM      2  C   UNL     1      10.509  68.695   1.570  1.00  0.00     0.124 A 
ATOM      3  C   UNL     1       9.452  70.000  -0.187  1.00  0.00     0.014 A 
ATOM      4  C   UNL     1      10.384  67.547   0.772  1.00  0.00     0.047 A 
ATOM      5  C   UNL     1       9.333  68.850  -0.971  1.00  0.00     0.001 A 
ATOM      6  C   UNL     1       9.798  67.626  -0.492  1.00  0.00     0.004 A 
ENDROOT
BRANCH   1   7
ATOM      7  C   UNL     1      10.149  71.185   1.896  1.00  0.00     0.075 C 
ATOM      8  O   UNL     1       9.680  71.247   3.063  1.00  0.00    -0.545 OA
ATOM      9  O   UNL     1      10.778  72.308   1.370  1.00  0.00    -0.545 OA
ENDBRANCH   1   7
BRANCH   2  10
ATOM     10  O   UNL     1      11.099  68.591   2.830  1.00  0.00    -0.507 OA
ATOM     11  H   UNL     1      10.558  68.348   3.652  1.00  0.00     0.293 HD
ENDBRANCH   2  10
TORSDOF 2
ENDMDL
MODEL 4
REMARK VINA RESULT:    -5.473      1.280      3.171
REMARK INTER + INTRA:          -6.204
REMARK INTER:                  -5.954
REMARK INTRA:                  -0.250
REMARK UNBOUND:                -0.250
REMARK SMILES O=C([O-])c1ccccc1O
REMARK SMILES IDX 4 1 9 2 5 3 8 4 6 5 7 6 2 7 1 8 3 9 10 10
REMARK H PARENT 10 11
REMARK Flexibility Score: inf
ROOT
ATOM      1  C   UNL     1       9.617  69.453   0.186  1.00  0.00     0.039 A 
ATOM      2  C   UNL     1       9.382  69.853  -1.152  1.00  0.00     0.124 A 
ATOM      3  C   UNL     1       9.741  68.080   0.472  1.00  0.00     0.014 A 
ATOM      4  C   UNL     1       9.276  68.885  -2.163  1.00  0.00     0.047 A 
ATOM      5  C   UNL     1       9.633  67.127  -0.544  1.00  0.00     0.001 A 
ATOM      6  C   UNL     1       9.402  67.529  -1.859  1.00  0.00     0.004 A 
ENDROOT
BRANCH   1   7
ATOM      7  C   UNL     1       9.737  70.438   1.291  1.00  0.00     0.075 C 
ATOM      8  O   UNL     1      10.436  71.477   1.163  1.00  0.00    -0.545 OA
ATOM      9  O   UNL     1       9.073  70.226   2.494  1.00  0.00    -0.545 OA
ENDBRANCH   1   7
BRANCH   2  10
ATOM     10  O   UNL     1       9.253  71.202  -1.481  1.00  0.00    -0.507 OA
ATOM     11  H   UNL     1       8.348  71.623  -1.659  1.00  0.00     0.293 HD
ENDBRANCH   2  10
TORSDOF 2
ENDMDL
MODEL 5
REMARK VINA RESULT:    -5.464      1.858      2.592
REMARK INTER + INTRA:          -6.194
REMARK INTER:                  -5.942
REMARK INTRA:                  -0.251
REMARK UNBOUND:                -0.250
REMARK SMILES O=C([O-])c1ccccc1O
REMARK SMILES IDX 4 1 9 2 5 3 8 4 6 5 7 6 2 7 1 8 3 9 10 10
REMARK H PARENT 10 11
REMARK Flexibility Score: inf
ROOT
ATOM      1  C   UNL     1       9.842  68.899  -0.540  1.00  0.00     0.039 A 
ATOM      2  C   UNL     1      10.002  67.720   0.227  1.00  0.00     0.124 A 
ATOM      3  C   UNL     1       9.758  70.137   0.128  1.00  0.00     0.014 A 
ATOM      4  C   UNL     1      10.075  67.800   1.626  1.00  0.00     0.047 A 
ATOM      5  C   UNL     1       9.831  70.202   1.521  1.00  0.00     0.001 A 
ATOM      6  C   UNL     1       9.990  69.036   2.269  1.00  0.00     0.004 A 
ENDROOT
BRANCH   1   7
ATOM      7  C   UNL     1       9.760  68.868  -2.023  1.00  0.00     0.075 C 
ATOM      8  O   UNL     1      10.352  69.730  -2.724  1.00  0.00    -0.545 OA
ATOM      9  O   UNL     1       9.024  67.879  -2.664  1.00  0.00    -0.545 OA
ENDBRANCH   1   7
BRANCH   2  10
ATOM     10  O   UNL     1      10.090  66.473  -0.392  1.00  0.00    -0.507 OA
ATOM     11  H   UNL     1       9.343  66.114  -0.975  1.00  0.00     0.293 HD
ENDBRANCH   2  10
TORSDOF 2
ENDMDL
MODEL 6
REMARK VINA RESULT:    -5.447      2.207      3.857
REMARK INTER + INTRA:          -6.175
REMARK INTER:                  -5.924
REMARK INTRA:                  -0.252
REMARK UNBOUND:                -0.250
REMARK SMILES O=C([O-])c1ccccc1O
REMARK SMILES IDX 4 1 9 2 5 3 8 4 6 5 7 6 2 7 1 8 3 9 10 10
REMARK H PARENT 10 11
REMARK Flexibility Score: inf
ROOT
ATOM      1  C   UNL     1       9.345  69.111   0.824  1.00  0.00     0.039 A 
ATOM      2  C   UNL     1       8.942  67.925   0.165  1.00  0.00     0.124 A 
ATOM      3  C   UNL     1       9.726  70.223   0.049  1.00  0.00     0.014 A 
ATOM      4  C   UNL     1       8.929  67.875  -1.238  1.00  0.00     0.047 A 
ATOM      5  C   UNL     1       9.709  70.160  -1.346  1.00  0.00     0.001 A 
ATOM      6  C   UNL     1       9.311  68.988  -1.989  1.00  0.00     0.004 A 
ENDROOT
BRANCH   1   7
ATOM      7  C   UNL     1       9.376  69.215   2.306  1.00  0.00     0.075 C 
ATOM      8  O   UNL     1       8.972  70.254   2.893  1.00  0.00    -0.545 OA
ATOM      9  O   UNL     1       9.853  68.159   3.073  1.00  0.00    -0.545 OA
ENDBRANCH   1   7
BRANCH   2  10
ATOM     10  O   UNL     1       8.557  66.800   0.892  1.00  0.00    -0.507 OA
ATOM     11  H   UNL     1       8.157  65.984   0.441  1.00  0.00     0.293 HD
ENDBRANCH   2  10
TORSDOF 2
ENDMDL
MODEL 7
REMARK VINA RESULT:    -5.390      2.239      3.546
REMARK INTER + INTRA:          -6.113
REMARK INTER:                  -5.875
REMARK INTRA:                  -0.238
REMARK UNBOUND:                -0.250
REMARK SMILES O=C([O-])c1ccccc1O
REMARK SMILES IDX 4 1 9 2 5 3 8 4 6 5 7 6 2 7 1 8 3 9 10 10
REMARK H PARENT 10 11
REMARK Flexibility Score: inf
ROOT
ATOM      1  C   UNL     1       9.627  70.082  -0.488  1.00  0.00     0.039 A 
ATOM      2  C   UNL     1       9.864  71.258  -1.239  1.00  0.00     0.124 A 
ATOM      3  C   UNL     1       9.763  70.133   0.913  1.00  0.00     0.014 A 
ATOM      4  C   UNL     1      10.227  72.445  -0.584  1.00  0.00     0.047 A 
ATOM      5  C   UNL     1      10.125  71.321   1.553  1.00  0.00     0.001 A 
ATOM      6  C   UNL     1      10.356  72.475   0.805  1.00  0.00     0.004 A 
ENDROOT
BRANCH   1   7
ATOM      7  C   UNL     1       9.241  68.801  -1.133  1.00  0.00     0.075 C 
ATOM      8  O   UNL     1       9.711  68.470  -2.253  1.00  0.00    -0.545 OA
ATOM      9  O   UNL     1       8.349  67.940  -0.503  1.00  0.00    -0.545 OA
ENDBRANCH   1   7
BRANCH   2  10
ATOM     10  O   UNL     1       9.742  71.254  -2.628  1.00  0.00    -0.507 OA
ATOM     11  H   UNL     1      10.194  71.954  -3.205  1.00  0.00     0.293 HD
ENDBRANCH   2  10
TORSDOF 2
ENDMDL
MODEL 8
REMARK VINA RESULT:    -5.376      1.000      2.773
REMARK INTER + INTRA:          -6.098
REMARK INTER:                  -5.845
REMARK INTRA:                  -0.253
REMARK UNBOUND:                -0.250
REMARK SMILES O=C([O-])c1ccccc1O
REMARK SMILES IDX 4 1 9 2 5 3 8 4 6 5 7 6 2 7 1 8 3 9 10 10
REMARK H PARENT 10 11
REMARK Flexibility Score: inf
ROOT
ATOM      1  C   UNL     1       9.547  69.782   1.608  1.00  0.00     0.039 A 
ATOM      2  C   UNL     1       9.359  69.496   0.235  1.00  0.00     0.124 A 
ATOM      3  C   UNL     1       9.531  68.719   2.532  1.00  0.00     0.014 A 
ATOM      4  C   UNL     1       9.162  68.170  -0.182  1.00  0.00     0.047 A 
ATOM      5  C   UNL     1       9.334  67.405   2.103  1.00  0.00     0.001 A 
ATOM      6  C   UNL     1       9.150  67.131   0.748  1.00  0.00     0.004 A 
ENDROOT
BRANCH   1   7
ATOM      7  C   UNL     1       9.760  71.167   2.101  1.00  0.00     0.075 C 
ATOM      8  O   UNL     1       9.079  71.630   3.054  1.00  0.00    -0.545 OA
ATOM      9  O   UNL     1      10.722  71.981   1.513  1.00  0.00    -0.545 OA
ENDBRANCH   1   7
BRANCH   2  10
ATOM     10  O   UNL     1       9.367  70.517  -0.715  1.00  0.00    -0.507 OA
ATOM     11  H   UNL     1      10.197  70.738  -1.253  1.00  0.00     0.293 HD
ENDBRANCH   2  10
TORSDOF 2
ENDMDL
MODEL 9
REMARK VINA RESULT:    -5.355      1.323      1.774
REMARK INTER + INTRA:          -6.075
REMARK INTER:                  -5.825
REMARK INTRA:                  -0.249
REMARK UNBOUND:                -0.250
REMARK SMILES O=C([O-])c1ccccc1O
REMARK SMILES IDX 4 1 9 2 5 3 8 4 6 5 7 6 2 7 1 8 3 9 10 10
REMARK H PARENT 10 11
REMARK Flexibility Score: inf
ROOT
ATOM      1  C   UNL     1       9.088  68.655  -0.148  1.00  0.00     0.039 A 
ATOM      2  C   UNL     1       9.607  69.826   0.456  1.00  0.00     0.124 A 
ATOM      3  C   UNL     1       8.975  67.485   0.628  1.00  0.00     0.014 A 
ATOM      4  C   UNL     1       9.997  69.804   1.804  1.00  0.00     0.047 A 
ATOM      5  C   UNL     1       9.366  67.477   1.968  1.00  0.00     0.001 A 
ATOM      6  C   UNL     1       9.876  68.634   2.555  1.00  0.00     0.004 A 
ENDROOT
BRANCH   1   7
ATOM      7  C   UNL     1       8.661  68.626  -1.570  1.00  0.00     0.075 C 
ATOM      8  O   UNL     1       7.514  68.224  -1.896  1.00  0.00    -0.545 OA
ATOM      9  O   UNL     1       9.529  69.048  -2.571  1.00  0.00    -0.545 OA
ENDBRANCH   1   7
BRANCH   2  10
ATOM     10  O   UNL     1       9.737  71.007  -0.274  1.00  0.00    -0.507 OA
ATOM     11  H   UNL     1      10.263  71.797   0.081  1.00  0.00     0.293 HD
ENDBRANCH   2  10
TORSDOF 2
ENDMDL
