MODEL 1
REMARK VINA RESULT:    -3.368      0.000      0.000
REMARK INTER + INTRA:          -5.297
REMARK INTER:                  -4.944
REMARK INTRA:                  -0.353
REMARK UNBOUND:                -0.353
REMARK SMILES O=C([O-])CCCCCCCC(=O)[O-]
REMARK SMILES IDX 7 1 6 2 5 3 4 4 2 5 1 6 3 7 8 8 9 9 10 10 11 11 12 12 13 13
REMARK H PARENT
REMARK Flexibility Score: inf
ROOT
ATOM      1  C   UNL     1      16.730  18.685  50.190  1.00  0.00     0.000 C 
ENDROOT
BRANCH   1   2
ATOM      2  C   UNL     1      16.919  19.307  48.798  1.00  0.00     0.000 C 
BRANCH   2   3
ATOM      3  C   UNL     1      17.245  18.259  47.720  1.00  0.00     0.006 C 
BRANCH   3   4
ATOM      4  C   UNL     1      16.428  18.472  46.439  1.00  0.00     0.053 C 
BRANCH   4   5
ATOM      5  C   UNL     1      15.091  17.800  46.518  1.00  0.00     0.041 C 
ATOM      6  O   UNL     1      14.110  18.398  47.033  1.00  0.00    -0.550 OA
ATOM      7  O   UNL     1      14.938  16.501  46.053  1.00  0.00    -0.550 OA
ENDBRANCH   4   5
ENDBRANCH   3   4
ENDBRANCH   2   3
ENDBRANCH   1   2
BRANCH   1   8
ATOM      8  C   UNL     1      18.053  18.539  50.957  1.00  0.00     0.000 C 
BRANCH   8   9
ATOM      9  C   UNL     1      17.932  17.486  52.065  1.00  0.00     0.006 C 
BRANCH   9  10
ATOM     10  C   UNL     1      16.545  17.528  52.714  1.00  0.00     0.053 C 
BRANCH  10  11
ATOM     11  C   UNL     1      16.543  18.454  53.889  1.00  0.00     0.041 C 
ATOM     12  O   UNL     1      15.463  18.948  54.304  1.00  0.00    -0.550 OA
ATOM     13  O   UNL     1      17.730  18.731  54.557  1.00  0.00    -0.550 OA
ENDBRANCH  10  11
ENDBRANCH   9  10
ENDBRANCH   8   9
ENDBRANCH   1   8
TORSDOF 8
ENDMDL
MODEL 2
REMARK VINA RESULT:    -3.299     11.434     12.931
REMARK INTER + INTRA:          -5.195
REMARK INTER:                  -4.841
REMARK INTRA:                  -0.355
REMARK UNBOUND:                -0.353
REMARK SMILES O=C([O-])CCCCCCCC(=O)[O-]
REMARK SMILES IDX 7 1 6 2 5 3 4 4 2 5 1 6 3 7 8 8 9 9 10 10 11 11 12 12 13 13
REMARK H PARENT
REMARK Flexibility Score: inf
ROOT
ATOM      1  C   UNL     1      19.105  29.385  55.519  1.00  0.00     0.000 C 
ENDROOT
BRANCH   1   2
ATOM      2  C   UNL     1      18.554  29.570  54.096  1.00  0.00     0.000 C 
BRANCH   2   3
ATOM      3  C   UNL     1      17.125  30.142  54.084  1.00  0.00     0.006 C 
BRANCH   3   4
ATOM      4  C   UNL     1      16.194  29.390  55.044  1.00  0.00     0.053 C 
BRANCH   4   5
ATOM      5  C   UNL     1      15.433  28.307  54.341  1.00  0.00     0.041 C 
ATOM      6  O   UNL     1      15.391  28.275  53.083  1.00  0.00    -0.550 OA
ATOM      7  O   UNL     1      14.741  27.354  55.077  1.00  0.00    -0.550 OA
ENDBRANCH   4   5
ENDBRANCH   3   4
ENDBRANCH   2   3
ENDBRANCH   1   2
BRANCH   1   8
ATOM      8  C   UNL     1      20.637  29.287  55.551  1.00  0.00     0.000 C 
BRANCH   8   9
ATOM      9  C   UNL     1      21.223  30.197  56.638  1.00  0.00     0.006 C 
BRANCH   9  10
ATOM     10  C   UNL     1      21.759  29.375  57.813  1.00  0.00     0.053 C 
BRANCH  10  11
ATOM     11  C   UNL     1      20.826  29.460  58.980  1.00  0.00     0.041 C 
ATOM     12  O   UNL     1      20.807  30.490  59.703  1.00  0.00    -0.550 OA
ATOM     13  O   UNL     1      19.942  28.420  59.240  1.00  0.00    -0.550 OA
ENDBRANCH  10  11
ENDBRANCH   9  10
ENDBRANCH   8   9
ENDBRANCH   1   8
TORSDOF 8
ENDMDL
MODEL 3
REMARK VINA RESULT:    -3.263     11.214     13.847
REMARK INTER + INTRA:          -5.142
REMARK INTER:                  -4.724
REMARK INTRA:                  -0.418
REMARK UNBOUND:                -0.353
REMARK SMILES O=C([O-])CCCCCCCC(=O)[O-]
REMARK SMILES IDX 7 1 6 2 5 3 4 4 2 5 1 6 3 7 8 8 9 9 10 10 11 11 12 12 13 13
REMARK H PARENT
REMARK Flexibility Score: inf
ROOT
ATOM      1  C   UNL     1      19.721  28.998  55.054  1.00  0.00     0.000 C 
ENDROOT
BRANCH   1   2
ATOM      2  C   UNL     1      20.467  30.203  55.650  1.00  0.00     0.000 C 
BRANCH   2   3
ATOM      3  C   UNL     1      21.122  29.882  57.005  1.00  0.00     0.006 C 
BRANCH   3   4
ATOM      4  C   UNL     1      20.500  28.648  57.671  1.00  0.00     0.053 C 
BRANCH   4   5
ATOM      5  C   UNL     1      20.443  28.793  59.161  1.00  0.00     0.041 C 
ATOM      6  O   UNL     1      20.014  27.848  59.875  1.00  0.00    -0.550 OA
ATOM      7  O   UNL     1      20.832  29.985  59.758  1.00  0.00    -0.550 OA
ENDBRANCH   4   5
ENDBRANCH   3   4
ENDBRANCH   2   3
ENDBRANCH   1   2
BRANCH   1   8
ATOM      8  C   UNL     1      18.320  29.365  54.541  1.00  0.00     0.000 C 
BRANCH   8   9
ATOM      9  C   UNL     1      17.245  29.001  55.573  1.00  0.00     0.006 C 
BRANCH   9  10
ATOM     10  C   UNL     1      15.851  29.388  55.074  1.00  0.00     0.053 C 
BRANCH  10  11
ATOM     11  C   UNL     1      15.227  28.253  54.325  1.00  0.00     0.041 C 
ATOM     12  O   UNL     1      14.542  27.392  54.936  1.00  0.00    -0.550 OA
ATOM     13  O   UNL     1      15.362  28.174  52.944  1.00  0.00    -0.550 OA
ENDBRANCH  10  11
ENDBRANCH   9  10
ENDBRANCH   8   9
ENDBRANCH   1   8
TORSDOF 8
ENDMDL
MODEL 4
REMARK VINA RESULT:    -3.260      0.658      6.342
REMARK INTER + INTRA:          -5.137
REMARK INTER:                  -4.750
REMARK INTRA:                  -0.388
REMARK UNBOUND:                -0.353
REMARK SMILES O=C([O-])CCCCCCCC(=O)[O-]
REMARK SMILES IDX 7 1 6 2 5 3 4 4 2 5 1 6 3 7 8 8 9 9 10 10 11 11 12 12 13 13
REMARK H PARENT
REMARK Flexibility Score: inf
ROOT
ATOM      1  C   UNL     1      16.972  19.489  50.290  1.00  0.00     0.000 C 
ENDROOT
BRANCH   1   2
ATOM      2  C   UNL     1      17.876  18.263  50.493  1.00  0.00     0.000 C 
BRANCH   2   3
ATOM      3  C   UNL     1      18.049  17.894  51.977  1.00  0.00     0.006 C 
BRANCH   3   4
ATOM      4  C   UNL     1      16.728  17.451  52.621  1.00  0.00     0.053 C 
BRANCH   4   5
ATOM      5  C   UNL     1      16.367  18.313  53.792  1.00  0.00     0.041 C 
ATOM      6  O   UNL     1      16.657  17.947  54.962  1.00  0.00    -0.550 OA
ATOM      7  O   UNL     1      15.681  19.503  53.593  1.00  0.00    -0.550 OA
ENDBRANCH   4   5
ENDBRANCH   3   4
ENDBRANCH   2   3
ENDBRANCH   1   2
BRANCH   1   8
ATOM      8  C   UNL     1      16.103  19.379  49.029  1.00  0.00     0.000 C 
BRANCH   8   9
ATOM      9  C   UNL     1      16.802  18.541  47.951  1.00  0.00     0.006 C 
BRANCH   9  10
ATOM     10  C   UNL     1      16.132  18.727  46.588  1.00  0.00     0.053 C 
BRANCH  10  11
ATOM     11  C   UNL     1      14.877  17.916  46.505  1.00  0.00     0.041 C 
ATOM     12  O   UNL     1      13.762  18.448  46.747  1.00  0.00    -0.550 OA
ATOM     13  O   UNL     1      14.935  16.585  46.109  1.00  0.00    -0.550 OA
ENDBRANCH  10  11
ENDBRANCH   9  10
ENDBRANCH   8   9
ENDBRANCH   1   8
TORSDOF 8
ENDMDL
MODEL 5
REMARK VINA RESULT:    -3.222     11.262     12.643
REMARK INTER + INTRA:          -5.083
REMARK INTER:                  -4.590
REMARK INTRA:                  -0.492
REMARK UNBOUND:                -0.353
REMARK SMILES O=C([O-])CCCCCCCC(=O)[O-]
REMARK SMILES IDX 7 1 6 2 5 3 4 4 2 5 1 6 3 7 8 8 9 9 10 10 11 11 12 12 13 13
REMARK H PARENT
REMARK Flexibility Score: inf
ROOT
ATOM      1  C   UNL     1      18.737  29.789  54.576  1.00  0.00     0.000 C 
ENDROOT
BRANCH   1   2
ATOM      2  C   UNL     1      17.280  30.089  54.192  1.00  0.00     0.000 C 
BRANCH   2   3
ATOM      3  C   UNL     1      16.268  29.438  55.152  1.00  0.00     0.006 C 
BRANCH   3   4
ATOM      4  C   UNL     1      15.189  28.644  54.403  1.00  0.00     0.053 C 
BRANCH   4   5
ATOM      5  C   UNL     1      15.789  27.700  53.407  1.00  0.00     0.041 C 
ATOM      6  O   UNL     1      16.511  26.743  53.793  1.00  0.00    -0.550 OA
ATOM      7  O   UNL     1      15.579  27.898  52.048  1.00  0.00    -0.550 OA
ENDBRANCH   4   5
ENDBRANCH   3   4
ENDBRANCH   2   3
ENDBRANCH   1   2
BRANCH   1   8
ATOM      8  C   UNL     1      18.849  28.781  55.730  1.00  0.00     0.000 C 
BRANCH   8   9
ATOM      9  C   UNL     1      20.277  28.742  56.288  1.00  0.00     0.006 C 
BRANCH   9  10
ATOM     10  C   UNL     1      20.883  30.146  56.347  1.00  0.00     0.053 C 
BRANCH  10  11
ATOM     11  C   UNL     1      21.830  30.261  57.500  1.00  0.00     0.041 C 
ATOM     12  O   UNL     1      21.390  30.448  58.665  1.00  0.00    -0.550 OA
ATOM     13  O   UNL     1      23.196  30.110  57.295  1.00  0.00    -0.550 OA
ENDBRANCH  10  11
ENDBRANCH   9  10
ENDBRANCH   8   9
ENDBRANCH   1   8
TORSDOF 8
ENDMDL
MODEL 6
REMARK VINA RESULT:    -3.218      5.198      8.107
REMARK INTER + INTRA:          -5.076
REMARK INTER:                  -4.775
REMARK INTRA:                  -0.302
REMARK UNBOUND:                -0.353
REMARK SMILES O=C([O-])CCCCCCCC(=O)[O-]
REMARK SMILES IDX 7 1 6 2 5 3 4 4 2 5 1 6 3 7 8 8 9 9 10 10 11 11 12 12 13 13
REMARK H PARENT
REMARK Flexibility Score: inf
ROOT
ATOM      1  C   UNL     1      20.266  20.095  45.628  1.00  0.00     0.000 C 
ENDROOT
BRANCH   1   2
ATOM      2  C   UNL     1      19.163  19.109  45.212  1.00  0.00     0.000 C 
BRANCH   2   3
ATOM      3  C   UNL     1      17.749  19.656  45.476  1.00  0.00     0.006 C 
BRANCH   3   4
ATOM      4  C   UNL     1      16.764  18.547  45.870  1.00  0.00     0.053 C 
BRANCH   4   5
ATOM      5  C   UNL     1      16.519  18.525  47.348  1.00  0.00     0.041 C 
ATOM      6  O   UNL     1      17.447  18.212  48.140  1.00  0.00    -0.550 OA
ATOM      7  O   UNL     1      15.256  18.815  47.847  1.00  0.00    -0.550 OA
ENDBRANCH   4   5
ENDBRANCH   3   4
ENDBRANCH   2   3
ENDBRANCH   1   2
BRANCH   1   8
ATOM      8  C   UNL     1      21.673  19.592  45.272  1.00  0.00     0.000 C 
BRANCH   8   9
ATOM      9  C   UNL     1      21.620  18.588  44.113  1.00  0.00     0.006 C 
BRANCH   9  10
ATOM     10  C   UNL     1      22.734  17.545  44.238  1.00  0.00     0.053 C 
BRANCH  10  11
ATOM     11  C   UNL     1      22.721  16.620  43.062  1.00  0.00     0.041 C 
ATOM     12  O   UNL     1      22.882  17.073  41.899  1.00  0.00    -0.550 OA
ATOM     13  O   UNL     1      22.582  15.251  43.256  1.00  0.00    -0.550 OA
ENDBRANCH  10  11
ENDBRANCH   9  10
ENDBRANCH   8   9
ENDBRANCH   1   8
TORSDOF 8
ENDMDL
MODEL 7
REMARK VINA RESULT:    -3.112     10.906     13.430
REMARK INTER + INTRA:          -4.921
REMARK INTER:                  -4.387
REMARK INTRA:                  -0.534
REMARK UNBOUND:                -0.353
REMARK SMILES O=C([O-])CCCCCCCC(=O)[O-]
REMARK SMILES IDX 7 1 6 2 5 3 4 4 2 5 1 6 3 7 8 8 9 9 10 10 11 11 12 12 13 13
REMARK H PARENT
REMARK Flexibility Score: inf
ROOT
ATOM      1  C   UNL     1      18.531  28.373  55.317  1.00  0.00     0.000 C 
ENDROOT
BRANCH   1   2
ATOM      2  C   UNL     1      19.263  29.608  54.769  1.00  0.00     0.000 C 
BRANCH   2   3
ATOM      3  C   UNL     1      20.373  30.105  55.713  1.00  0.00     0.006 C 
BRANCH   3   4
ATOM      4  C   UNL     1      20.931  28.979  56.594  1.00  0.00     0.053 C 
BRANCH   4   5
ATOM      5  C   UNL     1      20.705  29.252  58.049  1.00  0.00     0.041 C 
ATOM      6  O   UNL     1      21.487  30.010  58.682  1.00  0.00    -0.550 OA
ATOM      7  O   UNL     1      19.650  28.641  58.715  1.00  0.00    -0.550 OA
ENDBRANCH   4   5
ENDBRANCH   3   4
ENDBRANCH   2   3
ENDBRANCH   1   2
BRANCH   1   8
ATOM      8  C   UNL     1      17.171  28.721  55.940  1.00  0.00     0.000 C 
BRANCH   8   9
ATOM      9  C   UNL     1      16.284  29.471  54.938  1.00  0.00     0.006 C 
BRANCH   9  10
ATOM     10  C   UNL     1      15.136  28.584  54.449  1.00  0.00     0.053 C 
BRANCH  10  11
ATOM     11  C   UNL     1      15.476  27.964  53.130  1.00  0.00     0.041 C 
ATOM     12  O   UNL     1      16.460  28.385  52.468  1.00  0.00    -0.550 OA
ATOM     13  O   UNL     1      14.736  26.888  52.656  1.00  0.00    -0.550 OA
ENDBRANCH  10  11
ENDBRANCH   9  10
ENDBRANCH   8   9
ENDBRANCH   1   8
TORSDOF 8
ENDMDL
MODEL 8
REMARK VINA RESULT:    -3.110      9.785     11.616
REMARK INTER + INTRA:          -4.918
REMARK INTER:                  -4.194
REMARK INTRA:                  -0.724
REMARK UNBOUND:                -0.353
REMARK SMILES O=C([O-])CCCCCCCC(=O)[O-]
REMARK SMILES IDX 7 1 6 2 5 3 4 4 2 5 1 6 3 7 8 8 9 9 10 10 11 11 12 12 13 13
REMARK H PARENT
REMARK Flexibility Score: inf
ROOT
ATOM      1  C   UNL     1      24.364  20.169  41.324  1.00  0.00     0.000 C 
ENDROOT
BRANCH   1   2
ATOM      2  C   UNL     1      25.828  20.497  41.655  1.00  0.00     0.000 C 
BRANCH   2   3
ATOM      3  C   UNL     1      26.027  20.902  43.127  1.00  0.00     0.006 C 
BRANCH   3   4
ATOM      4  C   UNL     1      26.178  19.683  44.046  1.00  0.00     0.053 C 
BRANCH   4   5
ATOM      5  C   UNL     1      25.061  19.600  45.042  1.00  0.00     0.041 C 
ATOM      6  O   UNL     1      24.019  20.290  44.886  1.00  0.00    -0.550 OA
ATOM      7  O   UNL     1      25.186  18.785  46.160  1.00  0.00    -0.550 OA
ENDBRANCH   4   5
ENDBRANCH   3   4
ENDBRANCH   2   3
ENDBRANCH   1   2
BRANCH   1   8
ATOM      8  C   UNL     1      24.230  19.025  40.307  1.00  0.00     0.000 C 
BRANCH   8   9
ATOM      9  C   UNL     1      23.126  18.046  40.725  1.00  0.00     0.006 C 
BRANCH   9  10
ATOM     10  C   UNL     1      22.642  18.336  42.148  1.00  0.00     0.053 C 
BRANCH  10  11
ATOM     11  C   UNL     1      22.724  17.104  42.992  1.00  0.00     0.041 C 
ATOM     12  O   UNL     1      22.685  17.191  44.247  1.00  0.00    -0.550 OA
ATOM     13  O   UNL     1      22.793  15.853  42.390  1.00  0.00    -0.550 OA
ENDBRANCH  10  11
ENDBRANCH   9  10
ENDBRANCH   8   9
ENDBRANCH   1   8
TORSDOF 8
ENDMDL
MODEL 9
REMARK VINA RESULT:    -3.080      1.762      2.276
REMARK INTER + INTRA:          -4.874
REMARK INTER:                  -4.107
REMARK INTRA:                  -0.767
REMARK UNBOUND:                -0.353
REMARK SMILES O=C([O-])CCCCCCCC(=O)[O-]
REMARK SMILES IDX 7 1 6 2 5 3 4 4 2 5 1 6 3 7 8 8 9 9 10 10 11 11 12 12 13 13
REMARK H PARENT
REMARK Flexibility Score: inf
ROOT
ATOM      1  C   UNL     1      16.032  20.197  50.028  1.00  0.00     0.000 C 
ENDROOT
BRANCH   1   2
ATOM      2  C   UNL     1      15.116  19.004  49.712  1.00  0.00     0.000 C 
BRANCH   2   3
ATOM      3  C   UNL     1      14.288  19.215  48.432  1.00  0.00     0.006 C 
BRANCH   3   4
ATOM      4  C   UNL     1      14.750  18.304  47.287  1.00  0.00     0.053 C 
BRANCH   4   5
ATOM      5  C   UNL     1      15.941  18.870  46.577  1.00  0.00     0.041 C 
ATOM      6  O   UNL     1      17.057  18.290  46.647  1.00  0.00    -0.550 OA
ATOM      7  O   UNL     1      15.826  20.056  45.865  1.00  0.00    -0.550 OA
ENDBRANCH   4   5
ENDBRANCH   3   4
ENDBRANCH   2   3
ENDBRANCH   1   2
BRANCH   1   8
ATOM      8  C   UNL     1      17.520  19.815  50.028  1.00  0.00     0.000 C 
BRANCH   8   9
ATOM      9  C   UNL     1      17.697  18.299  50.175  1.00  0.00     0.006 C 
BRANCH   9  10
ATOM     10  C   UNL     1      18.407  17.954  51.487  1.00  0.00     0.053 C 
BRANCH  10  11
ATOM     11  C   UNL     1      17.435  17.952  52.625  1.00  0.00     0.041 C 
ATOM     12  O   UNL     1      16.431  17.193  52.599  1.00  0.00    -0.550 OA
ATOM     13  O   UNL     1      17.666  18.752  53.738  1.00  0.00    -0.550 OA
ENDBRANCH  10  11
ENDBRANCH   9  10
ENDBRANCH   8   9
ENDBRANCH   1   8
TORSDOF 8
ENDMDL
