MODEL 1
REMARK VINA RESULT:    14.008      0.000      0.000
REMARK INTER + INTRA:          24.662
REMARK INTER:                  25.473
REMARK INTRA:                  -0.811
REMARK UNBOUND:                -0.811
REMARK SMILES CCCCCCCCCCCCCC[C@H](C)C(=O)[O-]
REMARK SMILES IDX 9 1 10 2 11 3 12 4 13 5 14 6 15 7 16 8 17 9 18 10 19 11 8 12
REMARK SMILES IDX 7 13 6 14 5 15 4 16 3 17 2 18 1 19
REMARK H PARENT
REMARK Flexibility Score: inf
ROOT
ATOM      1  C   UNL     1      18.396  17.846  21.182  1.00  0.00     0.000 C 
ENDROOT
BRANCH   1   2
ATOM      2  C   UNL     1      19.785  18.420  20.879  1.00  0.00     0.000 C 
BRANCH   2   3
ATOM      3  C   UNL     1      20.354  17.827  19.584  1.00  0.00     0.000 C 
BRANCH   3   4
ATOM      4  C   UNL     1      21.890  17.858  19.594  1.00  0.00     0.000 C 
BRANCH   4   5
ATOM      5  C   UNL     1      22.486  17.823  21.011  1.00  0.00     0.001 C 
BRANCH   5   6
ATOM      6  C   UNL     1      24.028  17.907  21.104  1.00  0.00     0.009 C 
BRANCH   6   7
ATOM      7  C   UNL     1      24.635  18.454  22.424  1.00  0.00     0.032 C 
ATOM      8  C   UNL     1      25.431  19.754  22.232  1.00  0.00     0.014 C 
BRANCH   7   9
ATOM      9  C   UNL     1      25.420  17.416  23.183  1.00  0.00     0.044 C 
ATOM     10  O   UNL     1      25.546  16.256  22.710  1.00  0.00    -0.550 OA
ATOM     11  O   UNL     1      26.051  17.734  24.380  1.00  0.00    -0.550 OA
ENDBRANCH   7   9
ENDBRANCH   6   7
ENDBRANCH   5   6
ENDBRANCH   4   5
ENDBRANCH   3   4
ENDBRANCH   2   3
ENDBRANCH   1   2
BRANCH   1  12
ATOM     12  C   UNL     1      17.803  17.159  19.944  1.00  0.00     0.000 C 
BRANCH  12  13
ATOM     13  C   UNL     1      16.481  17.797  19.482  1.00  0.00    -0.000 C 
BRANCH  13  14
ATOM     14  C   UNL     1      15.969  17.249  18.133  1.00  0.00    -0.000 C 
BRANCH  14  15
ATOM     15  C   UNL     1      16.970  17.493  16.990  1.00  0.00    -0.000 C 
BRANCH  15  16
ATOM     16  C   UNL     1      16.278  17.748  15.642  1.00  0.00    -0.000 C 
BRANCH  16  17
ATOM     17  C   UNL     1      16.925  16.964  14.488  1.00  0.00    -0.000 C 
BRANCH  17  18
ATOM     18  C   UNL     1      18.179  17.660  13.935  1.00  0.00    -0.003 C 
ATOM     19  C   UNL     1      18.046  19.182  13.910  1.00  0.00     0.004 C 
ENDBRANCH  17  18
ENDBRANCH  16  17
ENDBRANCH  15  16
ENDBRANCH  14  15
ENDBRANCH  13  14
ENDBRANCH  12  13
ENDBRANCH   1  12
TORSDOF 14
ENDMDL
MODEL 2
REMARK VINA RESULT:    14.293      4.212      8.907
REMARK INTER + INTRA:          25.180
REMARK INTER:                  25.822
REMARK INTRA:                  -0.642
REMARK UNBOUND:                -0.811
REMARK SMILES CCCCCCCCCCCCCC[C@H](C)C(=O)[O-]
REMARK SMILES IDX 9 1 10 2 11 3 12 4 13 5 14 6 15 7 16 8 17 9 18 10 19 11 8 12
REMARK SMILES IDX 7 13 6 14 5 15 4 16 3 17 2 18 1 19
REMARK H PARENT
REMARK Flexibility Score: inf
ROOT
ATOM      1  C   UNL     1      18.425  17.982  21.120  1.00  0.00     0.000 C 
ENDROOT
BRANCH   1   2
ATOM      2  C   UNL     1      18.102  16.868  20.118  1.00  0.00     0.000 C 
BRANCH   2   3
ATOM      3  C   UNL     1      16.629  16.919  19.696  1.00  0.00     0.000 C 
BRANCH   3   4
ATOM      4  C   UNL     1      16.405  17.983  18.610  1.00  0.00     0.000 C 
BRANCH   4   5
ATOM      5  C   UNL     1      16.613  17.445  17.185  1.00  0.00     0.001 C 
BRANCH   5   6
ATOM      6  C   UNL     1      17.995  17.721  16.547  1.00  0.00     0.009 C 
BRANCH   6   7
ATOM      7  C   UNL     1      18.091  17.665  14.999  1.00  0.00     0.032 C 
ATOM      8  C   UNL     1      17.983  19.046  14.334  1.00  0.00     0.014 C 
BRANCH   7   9
ATOM      9  C   UNL     1      17.143  16.667  14.388  1.00  0.00     0.044 C 
ATOM     10  O   UNL     1      15.917  16.941  14.296  1.00  0.00    -0.550 OA
ATOM     11  O   UNL     1      17.609  15.460  13.877  1.00  0.00    -0.550 OA
ENDBRANCH   7   9
ENDBRANCH   6   7
ENDBRANCH   5   6
ENDBRANCH   4   5
ENDBRANCH   3   4
ENDBRANCH   2   3
ENDBRANCH   1   2
BRANCH   1  12
ATOM     12  C   UNL     1      19.838  18.538  20.888  1.00  0.00     0.000 C 
BRANCH  12  13
ATOM     13  C   UNL     1      20.640  17.723  19.858  1.00  0.00    -0.000 C 
BRANCH  13  14
ATOM     14  C   UNL     1      22.137  18.093  19.809  1.00  0.00    -0.000 C 
BRANCH  14  15
ATOM     15  C   UNL     1      22.868  17.726  21.113  1.00  0.00    -0.000 C 
BRANCH  15  16
ATOM     16  C   UNL     1      24.339  18.173  21.113  1.00  0.00    -0.000 C 
BRANCH  16  17
ATOM     17  C   UNL     1      24.661  19.143  22.262  1.00  0.00    -0.000 C 
BRANCH  17  18
ATOM     18  C   UNL     1      25.730  18.589  23.217  1.00  0.00    -0.003 C 
ATOM     19  C   UNL     1      25.509  17.116  23.558  1.00  0.00     0.004 C 
ENDBRANCH  17  18
ENDBRANCH  16  17
ENDBRANCH  15  16
ENDBRANCH  14  15
ENDBRANCH  13  14
ENDBRANCH  12  13
ENDBRANCH   1  12
TORSDOF 14
ENDMDL
MODEL 3
REMARK VINA RESULT:    14.547      2.533      3.131
REMARK INTER + INTRA:          25.642
REMARK INTER:                  26.438
REMARK INTRA:                  -0.796
REMARK UNBOUND:                -0.811
REMARK SMILES CCCCCCCCCCCCCC[C@H](C)C(=O)[O-]
REMARK SMILES IDX 9 1 10 2 11 3 12 4 13 5 14 6 15 7 16 8 17 9 18 10 19 11 8 12
REMARK SMILES IDX 7 13 6 14 5 15 4 16 3 17 2 18 1 19
REMARK H PARENT
REMARK Flexibility Score: inf
ROOT
ATOM      1  C   UNL     1      17.854  17.136  20.381  1.00  0.00     0.000 C 
ENDROOT
BRANCH   1   2
ATOM      2  C   UNL     1      19.218  17.713  19.984  1.00  0.00     0.000 C 
BRANCH   2   3
ATOM      3  C   UNL     1      19.764  18.635  21.081  1.00  0.00     0.000 C 
BRANCH   3   4
ATOM      4  C   UNL     1      19.301  18.171  22.470  1.00  0.00     0.000 C 
BRANCH   4   5
ATOM      5  C   UNL     1      20.275  18.562  23.594  1.00  0.00     0.001 C 
BRANCH   5   6
ATOM      6  C   UNL     1      21.095  19.853  23.366  1.00  0.00     0.009 C 
BRANCH   6   7
ATOM      7  C   UNL     1      21.553  20.640  24.624  1.00  0.00     0.032 C 
ATOM      8  C   UNL     1      20.814  21.975  24.807  1.00  0.00     0.014 C 
BRANCH   7   9
ATOM      9  C   UNL     1      23.048  20.806  24.700  1.00  0.00     0.044 C 
ATOM     10  O   UNL     1      23.621  21.670  23.983  1.00  0.00    -0.550 OA
ATOM     11  O   UNL     1      23.806  20.051  25.588  1.00  0.00    -0.550 OA
ENDBRANCH   7   9
ENDBRANCH   6   7
ENDBRANCH   5   6
ENDBRANCH   4   5
ENDBRANCH   3   4
ENDBRANCH   2   3
ENDBRANCH   1   2
BRANCH   1  12
ATOM     12  C   UNL     1      16.747  17.654  19.451  1.00  0.00     0.000 C 
BRANCH  12  13
ATOM     13  C   UNL     1      17.033  17.373  17.966  1.00  0.00    -0.000 C 
BRANCH  13  14
ATOM     14  C   UNL     1      15.781  17.459  17.069  1.00  0.00    -0.000 C 
BRANCH  14  15
ATOM     15  C   UNL     1      16.117  17.946  15.648  1.00  0.00    -0.000 C 
BRANCH  15  16
ATOM     16  C   UNL     1      17.123  17.032  14.931  1.00  0.00    -0.000 C 
BRANCH  16  17
ATOM     17  C   UNL     1      18.140  17.819  14.087  1.00  0.00    -0.000 C 
BRANCH  17  18
ATOM     18  C   UNL     1      17.763  19.303  13.947  1.00  0.00    -0.003 C 
ATOM     19  C   UNL     1      18.955  20.236  14.157  1.00  0.00     0.004 C 
ENDBRANCH  17  18
ENDBRANCH  16  17
ENDBRANCH  15  16
ENDBRANCH  14  15
ENDBRANCH  13  14
ENDBRANCH  12  13
ENDBRANCH   1  12
TORSDOF 14
ENDMDL
MODEL 4
REMARK VINA RESULT:    14.731      0.591      1.244
REMARK INTER + INTRA:          25.976
REMARK INTER:                  26.854
REMARK INTRA:                  -0.878
REMARK UNBOUND:                -0.811
REMARK SMILES CCCCCCCCCCCCCC[C@H](C)C(=O)[O-]
REMARK SMILES IDX 9 1 10 2 11 3 12 4 13 5 14 6 15 7 16 8 17 9 18 10 19 11 8 12
REMARK SMILES IDX 7 13 6 14 5 15 4 16 3 17 2 18 1 19
REMARK H PARENT
REMARK Flexibility Score: inf
ROOT
ATOM      1  C   UNL     1      18.218  18.141  20.967  1.00  0.00     0.000 C 
ENDROOT
BRANCH   1   2
ATOM      2  C   UNL     1      19.746  18.253  20.940  1.00  0.00     0.000 C 
BRANCH   2   3
ATOM      3  C   UNL     1      20.309  17.771  19.598  1.00  0.00     0.000 C 
BRANCH   3   4
ATOM      4  C   UNL     1      21.842  17.864  19.579  1.00  0.00     0.000 C 
BRANCH   4   5
ATOM      5  C   UNL     1      22.466  17.844  20.985  1.00  0.00     0.001 C 
BRANCH   5   6
ATOM      6  C   UNL     1      24.004  17.991  21.050  1.00  0.00     0.009 C 
BRANCH   6   7
ATOM      7  C   UNL     1      24.614  18.544  22.367  1.00  0.00     0.032 C 
ATOM      8  C   UNL     1      25.441  19.822  22.162  1.00  0.00     0.014 C 
BRANCH   7   9
ATOM      9  C   UNL     1      25.369  17.500  23.147  1.00  0.00     0.044 C 
ATOM     10  O   UNL     1      25.845  17.785  24.278  1.00  0.00    -0.550 OA
ATOM     11  O   UNL     1      25.508  16.206  22.658  1.00  0.00    -0.550 OA
ENDBRANCH   7   9
ENDBRANCH   6   7
ENDBRANCH   5   6
ENDBRANCH   4   5
ENDBRANCH   3   4
ENDBRANCH   2   3
ENDBRANCH   1   2
BRANCH   1  12
ATOM     12  C   UNL     1      17.728  17.061  19.991  1.00  0.00     0.000 C 
BRANCH  12  13
ATOM     13  C   UNL     1      16.555  17.535  19.114  1.00  0.00    -0.000 C 
BRANCH  13  14
ATOM     14  C   UNL     1      16.659  17.079  17.644  1.00  0.00    -0.000 C 
BRANCH  14  15
ATOM     15  C   UNL     1      16.721  18.270  16.670  1.00  0.00    -0.000 C 
BRANCH  15  16
ATOM     16  C   UNL     1      16.369  17.873  15.228  1.00  0.00    -0.000 C 
BRANCH  16  17
ATOM     17  C   UNL     1      17.570  17.987  14.274  1.00  0.00    -0.000 C 
BRANCH  17  18
ATOM     18  C   UNL     1      18.319  16.655  14.109  1.00  0.00    -0.003 C 
ATOM     19  C   UNL     1      17.378  15.475  13.875  1.00  0.00     0.004 C 
ENDBRANCH  17  18
ENDBRANCH  16  17
ENDBRANCH  15  16
ENDBRANCH  14  15
ENDBRANCH  13  14
ENDBRANCH  12  13
ENDBRANCH   1  12
TORSDOF 14
ENDMDL
MODEL 5
REMARK VINA RESULT:    14.981      5.358      7.316
REMARK INTER + INTRA:          26.432
REMARK INTER:                  27.114
REMARK INTRA:                  -0.682
REMARK UNBOUND:                -0.811
REMARK SMILES CCCCCCCCCCCCCC[C@H](C)C(=O)[O-]
REMARK SMILES IDX 9 1 10 2 11 3 12 4 13 5 14 6 15 7 16 8 17 9 18 10 19 11 8 12
REMARK SMILES IDX 7 13 6 14 5 15 4 16 3 17 2 18 1 19
REMARK H PARENT
REMARK Flexibility Score: inf
ROOT
ATOM      1  C   UNL     1      15.371  13.862  20.614  1.00  0.00     0.000 C 
ENDROOT
BRANCH   1   2
ATOM      2  C   UNL     1      14.160  13.145  20.007  1.00  0.00     0.000 C 
BRANCH   2   3
ATOM      3  C   UNL     1      14.547  11.753  19.493  1.00  0.00     0.000 C 
BRANCH   3   4
ATOM      4  C   UNL     1      15.707  11.168  20.312  1.00  0.00     0.000 C 
BRANCH   4   5
ATOM      5  C   UNL     1      16.128   9.765  19.847  1.00  0.00     0.001 C 
BRANCH   5   6
ATOM      6  C   UNL     1      17.514   9.274  20.328  1.00  0.00     0.009 C 
BRANCH   6   7
ATOM      7  C   UNL     1      18.767   9.933  19.691  1.00  0.00     0.032 C 
ATOM      8  C   UNL     1      19.567   8.975  18.795  1.00  0.00     0.014 C 
BRANCH   7   9
ATOM      9  C   UNL     1      19.642  10.628  20.700  1.00  0.00     0.044 C 
ATOM     10  O   UNL     1      20.167  11.738  20.417  1.00  0.00    -0.550 OA
ATOM     11  O   UNL     1      19.842  10.086  21.965  1.00  0.00    -0.550 OA
ENDBRANCH   7   9
ENDBRANCH   6   7
ENDBRANCH   5   6
ENDBRANCH   4   5
ENDBRANCH   3   4
ENDBRANCH   2   3
ENDBRANCH   1   2
BRANCH   1  12
ATOM     12  C   UNL     1      15.369  15.353  20.248  1.00  0.00     0.000 C 
BRANCH  12  13
ATOM     13  C   UNL     1      16.781  15.909  19.993  1.00  0.00    -0.000 C 
BRANCH  13  14
ATOM     14  C   UNL     1      16.791  17.379  19.526  1.00  0.00    -0.000 C 
BRANCH  14  15
ATOM     15  C   UNL     1      16.171  17.548  18.128  1.00  0.00    -0.000 C 
BRANCH  15  16
ATOM     16  C   UNL     1      17.204  17.397  16.999  1.00  0.00    -0.000 C 
BRANCH  16  17
ATOM     17  C   UNL     1      16.621  17.732  15.616  1.00  0.00    -0.000 C 
BRANCH  17  18
ATOM     18  C   UNL     1      17.637  17.517  14.483  1.00  0.00    -0.003 C 
ATOM     19  C   UNL     1      17.653  16.077  13.971  1.00  0.00     0.004 C 
ENDBRANCH  17  18
ENDBRANCH  16  17
ENDBRANCH  15  16
ENDBRANCH  14  15
ENDBRANCH  13  14
ENDBRANCH  12  13
ENDBRANCH   1  12
TORSDOF 14
ENDMDL
MODEL 6
REMARK VINA RESULT:    15.005      4.066      9.065
REMARK INTER + INTRA:          26.475
REMARK INTER:                  27.313
REMARK INTRA:                  -0.838
REMARK UNBOUND:                -0.811
REMARK SMILES CCCCCCCCCCCCCC[C@H](C)C(=O)[O-]
REMARK SMILES IDX 9 1 10 2 11 3 12 4 13 5 14 6 15 7 16 8 17 9 18 10 19 11 8 12
REMARK SMILES IDX 7 13 6 14 5 15 4 16 3 17 2 18 1 19
REMARK H PARENT
REMARK Flexibility Score: inf
ROOT
ATOM      1  C   UNL     1      19.826  18.173  20.869  1.00  0.00     0.000 C 
ENDROOT
BRANCH   1   2
ATOM      2  C   UNL     1      18.326  17.861  20.812  1.00  0.00     0.000 C 
BRANCH   2   3
ATOM      3  C   UNL     1      17.972  17.102  19.527  1.00  0.00     0.000 C 
BRANCH   3   4
ATOM      4  C   UNL     1      16.519  17.376  19.110  1.00  0.00     0.000 C 
BRANCH   4   5
ATOM      5  C   UNL     1      16.386  17.832  17.648  1.00  0.00     0.001 C 
BRANCH   5   6
ATOM      6  C   UNL     1      17.356  17.176  16.638  1.00  0.00     0.009 C 
BRANCH   6   7
ATOM      7  C   UNL     1      17.055  17.372  15.127  1.00  0.00     0.032 C 
ATOM      8  C   UNL     1      17.686  16.290  14.238  1.00  0.00     0.014 C 
BRANCH   7   9
ATOM      9  C   UNL     1      17.375  18.761  14.641  1.00  0.00     0.044 C 
ATOM     10  O   UNL     1      16.633  19.726  14.967  1.00  0.00    -0.550 OA
ATOM     11  O   UNL     1      18.510  19.006  13.875  1.00  0.00    -0.550 OA
ENDBRANCH   7   9
ENDBRANCH   6   7
ENDBRANCH   5   6
ENDBRANCH   4   5
ENDBRANCH   3   4
ENDBRANCH   2   3
ENDBRANCH   1   2
BRANCH   1  12
ATOM     12  C   UNL     1      20.506  17.852  19.531  1.00  0.00     0.000 C 
BRANCH  12  13
ATOM     13  C   UNL     1      22.043  17.854  19.626  1.00  0.00    -0.000 C 
BRANCH  13  14
ATOM     14  C   UNL     1      22.574  17.626  21.056  1.00  0.00    -0.000 C 
BRANCH  14  15
ATOM     15  C   UNL     1      24.007  18.156  21.234  1.00  0.00    -0.000 C 
BRANCH  15  16
ATOM     16  C   UNL     1      24.686  17.612  22.501  1.00  0.00    -0.000 C 
BRANCH  16  17
ATOM     17  C   UNL     1      25.341  18.720  23.343  1.00  0.00    -0.000 C 
BRANCH  17  18
ATOM     18  C   UNL     1      24.692  20.094  23.112  1.00  0.00    -0.003 C 
ATOM     19  C   UNL     1      23.638  20.432  24.166  1.00  0.00     0.004 C 
ENDBRANCH  17  18
ENDBRANCH  16  17
ENDBRANCH  15  16
ENDBRANCH  14  15
ENDBRANCH  13  14
ENDBRANCH  12  13
ENDBRANCH   1  12
TORSDOF 14
ENDMDL
MODEL 7
REMARK VINA RESULT:    15.211      6.186      8.827
REMARK INTER + INTRA:          26.849
REMARK INTER:                  27.533
REMARK INTRA:                  -0.684
REMARK UNBOUND:                -0.811
REMARK SMILES CCCCCCCCCCCCCC[C@H](C)C(=O)[O-]
REMARK SMILES IDX 9 1 10 2 11 3 12 4 13 5 14 6 15 7 16 8 17 9 18 10 19 11 8 12
REMARK SMILES IDX 7 13 6 14 5 15 4 16 3 17 2 18 1 19
REMARK H PARENT
REMARK Flexibility Score: inf
ROOT
ATOM      1  C   UNL     1      15.344  14.213  20.647  1.00  0.00     0.000 C 
ENDROOT
BRANCH   1   2
ATOM      2  C   UNL     1      15.494  15.382  19.667  1.00  0.00     0.000 C 
BRANCH   2   3
ATOM      3  C   UNL     1      16.560  16.372  20.152  1.00  0.00     0.000 C 
BRANCH   3   4
ATOM      4  C   UNL     1      16.687  17.559  19.184  1.00  0.00     0.000 C 
BRANCH   4   5
ATOM      5  C   UNL     1      17.193  17.152  17.791  1.00  0.00     0.001 C 
BRANCH   5   6
ATOM      6  C   UNL     1      16.918  18.155  16.645  1.00  0.00     0.009 C 
BRANCH   6   7
ATOM      7  C   UNL     1      17.704  17.961  15.321  1.00  0.00     0.032 C 
ATOM      8  C   UNL     1      17.943  19.274  14.560  1.00  0.00     0.014 C 
BRANCH   7   9
ATOM      9  C   UNL     1      17.112  16.894  14.438  1.00  0.00     0.044 C 
ATOM     10  O   UNL     1      17.867  16.056  13.876  1.00  0.00    -0.550 OA
ATOM     11  O   UNL     1      15.736  16.789  14.270  1.00  0.00    -0.550 OA
ENDBRANCH   7   9
ENDBRANCH   6   7
ENDBRANCH   5   6
ENDBRANCH   4   5
ENDBRANCH   3   4
ENDBRANCH   2   3
ENDBRANCH   1   2
BRANCH   1  12
ATOM     12  C   UNL     1      14.176  13.303  20.244  1.00  0.00     0.000 C 
BRANCH  12  13
ATOM     13  C   UNL     1      14.639  11.985  19.598  1.00  0.00    -0.000 C 
BRANCH  13  14
ATOM     14  C   UNL     1      15.642  11.193  20.463  1.00  0.00    -0.000 C 
BRANCH  14  15
ATOM     15  C   UNL     1      16.014   9.841  19.827  1.00  0.00    -0.000 C 
BRANCH  15  16
ATOM     16  C   UNL     1      17.398   9.340  20.270  1.00  0.00    -0.000 C 
BRANCH  16  17
ATOM     17  C   UNL     1      18.397   9.260  19.104  1.00  0.00    -0.000 C 
BRANCH  17  18
ATOM     18  C   UNL     1      19.827   9.632  19.528  1.00  0.00    -0.003 C 
ATOM     19  C   UNL     1      19.860  10.732  20.588  1.00  0.00     0.004 C 
ENDBRANCH  17  18
ENDBRANCH  16  17
ENDBRANCH  15  16
ENDBRANCH  14  15
ENDBRANCH  13  14
ENDBRANCH  12  13
ENDBRANCH   1  12
TORSDOF 14
ENDMDL
MODEL 8
REMARK VINA RESULT:    15.550      1.805      2.665
REMARK INTER + INTRA:          27.466
REMARK INTER:                  28.145
REMARK INTRA:                  -0.679
REMARK UNBOUND:                -0.811
REMARK SMILES CCCCCCCCCCCCCC[C@H](C)C(=O)[O-]
REMARK SMILES IDX 9 1 10 2 11 3 12 4 13 5 14 6 15 7 16 8 17 9 18 10 19 11 8 12
REMARK SMILES IDX 7 13 6 14 5 15 4 16 3 17 2 18 1 19
REMARK H PARENT
REMARK Flexibility Score: inf
ROOT
ATOM      1  C   UNL     1      19.681  18.414  22.132  1.00  0.00     0.000 C 
ENDROOT
BRANCH   1   2
ATOM      2  C   UNL     1      20.539  19.624  22.517  1.00  0.00     0.000 C 
BRANCH   2   3
ATOM      3  C   UNL     1      21.086  19.478  23.942  1.00  0.00     0.000 C 
BRANCH   3   4
ATOM      4  C   UNL     1      21.749  20.782  24.413  1.00  0.00     0.000 C 
BRANCH   4   5
ATOM      5  C   UNL     1      23.265  20.816  24.158  1.00  0.00     0.001 C 
BRANCH   5   6
ATOM      6  C   UNL     1      24.007  19.465  24.285  1.00  0.00     0.009 C 
BRANCH   6   7
ATOM      7  C   UNL     1      25.129  19.167  23.253  1.00  0.00     0.032 C 
ATOM      8  C   UNL     1      25.264  20.252  22.174  1.00  0.00     0.014 C 
BRANCH   7   9
ATOM      9  C   UNL     1      25.027  17.787  22.659  1.00  0.00     0.044 C 
ATOM     10  O   UNL     1      24.408  17.615  21.575  1.00  0.00    -0.550 OA
ATOM     11  O   UNL     1      25.648  16.700  23.265  1.00  0.00    -0.550 OA
ENDBRANCH   7   9
ENDBRANCH   6   7
ENDBRANCH   5   6
ENDBRANCH   4   5
ENDBRANCH   3   4
ENDBRANCH   2   3
ENDBRANCH   1   2
BRANCH   1  12
ATOM     12  C   UNL     1      19.458  18.359  20.614  1.00  0.00     0.000 C 
BRANCH  12  13
ATOM     13  C   UNL     1      18.383  17.337  20.203  1.00  0.00    -0.000 C 
BRANCH  13  14
ATOM     14  C   UNL     1      17.072  17.985  19.709  1.00  0.00    -0.000 C 
BRANCH  14  15
ATOM     15  C   UNL     1      16.503  17.269  18.471  1.00  0.00    -0.000 C 
BRANCH  15  16
ATOM     16  C   UNL     1      17.403  17.420  17.234  1.00  0.00    -0.000 C 
BRANCH  16  17
ATOM     17  C   UNL     1      16.600  17.488  15.924  1.00  0.00    -0.000 C 
BRANCH  17  18
ATOM     18  C   UNL     1      17.504  17.555  14.683  1.00  0.00    -0.003 C 
ATOM     19  C   UNL     1      17.668  16.198  13.999  1.00  0.00     0.004 C 
ENDBRANCH  17  18
ENDBRANCH  16  17
ENDBRANCH  15  16
ENDBRANCH  14  15
ENDBRANCH  13  14
ENDBRANCH  12  13
ENDBRANCH   1  12
TORSDOF 14
ENDMDL
MODEL 9
REMARK VINA RESULT:    15.826      5.549      7.954
REMARK INTER + INTRA:          27.969
REMARK INTER:                  28.744
REMARK INTRA:                  -0.775
REMARK UNBOUND:                -0.811
REMARK SMILES CCCCCCCCCCCCCC[C@H](C)C(=O)[O-]
REMARK SMILES IDX 9 1 10 2 11 3 12 4 13 5 14 6 15 7 16 8 17 9 18 10 19 11 8 12
REMARK SMILES IDX 7 13 6 14 5 15 4 16 3 17 2 18 1 19
REMARK H PARENT
REMARK Flexibility Score: inf
ROOT
ATOM      1  C   UNL     1      14.971  13.133  20.661  1.00  0.00     0.000 C 
ENDROOT
BRANCH   1   2
ATOM      2  C   UNL     1      14.100  12.311  19.704  1.00  0.00     0.000 C 
BRANCH   2   3
ATOM      3  C   UNL     1      14.904  11.166  19.076  1.00  0.00     0.000 C 
BRANCH   3   4
ATOM      4  C   UNL     1      15.432  10.209  20.156  1.00  0.00     0.000 C 
BRANCH   4   5
ATOM      5  C   UNL     1      16.468   9.207  19.622  1.00  0.00     0.001 C 
BRANCH   5   6
ATOM      6  C   UNL     1      17.840   9.199  20.337  1.00  0.00     0.009 C 
BRANCH   6   7
ATOM      7  C   UNL     1      19.000   9.982  19.667  1.00  0.00     0.032 C 
ATOM      8  C   UNL     1      19.911   9.095  18.803  1.00  0.00     0.014 C 
BRANCH   7   9
ATOM      9  C   UNL     1      19.785  10.818  20.643  1.00  0.00     0.044 C 
ATOM     10  O   UNL     1      20.044  10.365  21.790  1.00  0.00    -0.550 OA
ATOM     11  O   UNL     1      20.272  12.069  20.281  1.00  0.00    -0.550 OA
ENDBRANCH   7   9
ENDBRANCH   6   7
ENDBRANCH   5   6
ENDBRANCH   4   5
ENDBRANCH   3   4
ENDBRANCH   2   3
ENDBRANCH   1   2
BRANCH   1  12
ATOM     12  C   UNL     1      14.696  14.635  20.502  1.00  0.00     0.000 C 
BRANCH  12  13
ATOM     13  C   UNL     1      15.967  15.446  20.192  1.00  0.00    -0.000 C 
BRANCH  13  14
ATOM     14  C   UNL     1      15.686  16.788  19.485  1.00  0.00    -0.000 C 
BRANCH  14  15
ATOM     15  C   UNL     1      16.978  17.473  19.005  1.00  0.00    -0.000 C 
BRANCH  15  16
ATOM     16  C   UNL     1      18.209  17.058  19.828  1.00  0.00    -0.000 C 
BRANCH  16  17
ATOM     17  C   UNL     1      18.433  17.963  21.051  1.00  0.00    -0.000 C 
BRANCH  17  18
ATOM     18  C   UNL     1      19.811  18.643  21.035  1.00  0.00    -0.003 C 
ATOM     19  C   UNL     1      20.790  17.969  20.075  1.00  0.00     0.004 C 
ENDBRANCH  17  18
ENDBRANCH  16  17
ENDBRANCH  15  16
ENDBRANCH  14  15
ENDBRANCH  13  14
ENDBRANCH  12  13
ENDBRANCH   1  12
TORSDOF 14
ENDMDL
