MODEL 1
REMARK VINA RESULT:    -4.471      0.000      0.000
REMARK INTER + INTRA:          -4.752
REMARK INTER:                  -5.517
REMARK INTRA:                   0.764
REMARK UNBOUND:                 0.764
REMARK SMILES CC1=CC=CC(C)(C)CC1=O
REMARK SMILES IDX 1 1 2 2 3 3 10 4 11 5 9 6 4 8 5 9 6 10 7 11 8 12
REMARK H PARENT
REMARK Flexibility Score: 80.00
ROOT
ATOM      1  C   UNL     1      -2.432 -16.177  -6.010  1.00  0.00     0.048 C 
ATOM      2  C   UNL     1      -3.365 -15.270  -6.778  1.00  0.00    -0.008 C 
ATOM      3  C   UNL     1      -3.445 -15.442  -8.114  1.00  0.00     0.007 C 
ENDROOT
BRANCH   2   4
ATOM      4  C   UNL     1      -4.061 -14.209  -6.008  1.00  0.00     0.159 C 
ATOM      5  O   UNL     1      -3.703 -13.985  -4.818  1.00  0.00    -0.295 OA
BRANCH   4   6
ATOM      6  C   UNL     1      -5.185 -13.389  -6.562  1.00  0.00     0.091 CG0
ATOM      7  G   UNL     1      -4.792 -12.590  -7.825  1.00  0.00     0.000 G0
ENDBRANCH   4   6
ENDBRANCH   2   4
BRANCH   3   8
ATOM      8  C   UNL     1      -4.239 -14.701  -9.123  1.00  0.00    -0.003 C 
ATOM      9  C   UNL     1      -4.807 -13.492  -9.028  1.00  0.00    -0.020 C 
BRANCH   9  10
ATOM     10  C   UNL     1      -4.792 -12.586  -7.821  1.00  0.00    -0.010 CG0
ATOM     11  C   UNL     1      -3.409 -11.906  -7.687  1.00  0.00     0.016 C 
ATOM     12  C   UNL     1      -5.850 -11.478  -8.032  1.00  0.00     0.016 C 
ATOM     13  G   UNL     1      -5.184 -13.390  -6.561  1.00  0.00     0.000 G0
ENDBRANCH   9  10
ENDBRANCH   3   8
TORSDOF 0
ENDMDL
MODEL 2
REMARK VINA RESULT:    -4.439      1.141      1.522
REMARK INTER + INTRA:          -4.712
REMARK INTER:                  -5.768
REMARK INTRA:                   1.056
REMARK UNBOUND:                 0.764
REMARK SMILES CC1=CC=CC(C)(C)CC1=O
REMARK SMILES IDX 1 1 2 2 3 3 10 4 11 5 9 6 4 8 5 9 6 10 7 11 8 12
REMARK H PARENT
REMARK Flexibility Score: 80.00
ROOT
ATOM      1  C   UNL     1      -3.370 -16.982  -6.073  1.00  0.00     0.048 C 
ATOM      2  C   UNL     1      -3.598 -15.604  -6.650  1.00  0.00    -0.008 C 
ATOM      3  C   UNL     1      -2.687 -15.135  -7.528  1.00  0.00     0.007 C 
ENDROOT
BRANCH   2   4
ATOM      4  C   UNL     1      -4.770 -14.846  -6.145  1.00  0.00     0.159 C 
ATOM      5  O   UNL     1      -5.660 -15.461  -5.495  1.00  0.00    -0.295 OA
BRANCH   4   6
ATOM      6  C   UNL     1      -4.967 -13.379  -6.376  1.00  0.00     0.091 CG0
ATOM      7  G   UNL     1      -5.003 -12.998  -7.873  1.00  0.00     0.000 G0
ENDBRANCH   4   6
ENDBRANCH   2   4
BRANCH   3   8
ATOM      8  C   UNL     1      -2.626 -13.831  -8.231  1.00  0.00    -0.003 C 
ATOM      9  C   UNL     1      -3.583 -12.905  -8.376  1.00  0.00    -0.020 C 
BRANCH   9  10
ATOM     10  C   UNL     1      -5.000 -12.991  -7.864  1.00  0.00    -0.010 CG0
ATOM     11  C   UNL     1      -5.740 -11.660  -8.131  1.00  0.00     0.016 C 
ATOM     12  C   UNL     1      -5.731 -14.108  -8.643  1.00  0.00     0.016 C 
ATOM     13  G   UNL     1      -4.990 -13.377  -6.367  1.00  0.00     0.000 G0
ENDBRANCH   9  10
ENDBRANCH   3   8
TORSDOF 0
ENDMDL
MODEL 3
REMARK VINA RESULT:    -4.428      1.245      1.334
REMARK INTER + INTRA:          -4.699
REMARK INTER:                  -5.448
REMARK INTRA:                   0.750
REMARK UNBOUND:                 0.764
REMARK SMILES CC1=CC=CC(C)(C)CC1=O
REMARK SMILES IDX 1 1 2 2 3 3 10 4 11 5 9 6 4 8 5 9 6 10 7 11 8 12
REMARK H PARENT
REMARK Flexibility Score: 80.00
ROOT
ATOM      1  C   UNL     1      -4.295 -16.177  -5.376  1.00  0.00     0.048 C 
ATOM      2  C   UNL     1      -4.204 -15.235  -6.553  1.00  0.00    -0.008 C 
ATOM      3  C   UNL     1      -3.317 -15.534  -7.526  1.00  0.00     0.007 C 
ENDROOT
BRANCH   2   4
ATOM      4  C   UNL     1      -5.046 -14.013  -6.507  1.00  0.00     0.159 C 
ATOM      5  O   UNL     1      -5.635 -13.719  -5.430  1.00  0.00    -0.295 OA
BRANCH   4   6
ATOM      6  C   UNL     1      -5.250 -13.106  -7.681  1.00  0.00     0.091 CG0
ATOM      7  G   UNL     1      -3.934 -12.500  -8.219  1.00  0.00     0.000 G0
ENDBRANCH   4   6
ENDBRANCH   2   4
BRANCH   3   8
ATOM      8  C   UNL     1      -2.988 -14.799  -8.771  1.00  0.00    -0.003 C 
ATOM      9  C   UNL     1      -3.229 -13.520  -9.085  1.00  0.00    -0.020 C 
BRANCH   9  10
ATOM     10  C   UNL     1      -3.942 -12.504  -8.226  1.00  0.00    -0.010 CG0
ATOM     11  C   UNL     1      -2.997 -11.999  -7.111  1.00  0.00     0.016 C 
ATOM     12  C   UNL     1      -4.319 -11.296  -9.115  1.00  0.00     0.016 C 
ATOM     13  G   UNL     1      -5.246 -13.116  -7.669  1.00  0.00     0.000 G0
ENDBRANCH   9  10
ENDBRANCH   3   8
TORSDOF 0
ENDMDL
MODEL 4
REMARK VINA RESULT:    -4.277      1.511      3.151
REMARK INTER + INTRA:          -4.512
REMARK INTER:                  -5.270
REMARK INTRA:                   0.758
REMARK UNBOUND:                 0.764
REMARK SMILES CC1=CC=CC(C)(C)CC1=O
REMARK SMILES IDX 1 1 2 2 3 3 10 4 11 5 9 6 4 8 5 9 6 10 7 11 8 12
REMARK H PARENT
REMARK Flexibility Score: 80.00
ROOT
ATOM      1  C   UNL     1      -6.835 -12.577  -5.570  1.00  0.00     0.048 C 
ATOM      2  C   UNL     1      -5.670 -12.656  -6.528  1.00  0.00    -0.008 C 
ATOM      3  C   UNL     1      -5.636 -11.771  -7.546  1.00  0.00     0.007 C 
ENDROOT
BRANCH   2   4
ATOM      4  C   UNL     1      -4.693 -13.754  -6.315  1.00  0.00     0.159 C 
ATOM      5  O   UNL     1      -4.979 -14.673  -5.498  1.00  0.00    -0.295 OA
BRANCH   4   6
ATOM      6  C   UNL     1      -3.369 -13.828  -7.010  1.00  0.00     0.091 CG0
ATOM      7  G   UNL     1      -3.491 -13.888  -8.549  1.00  0.00     0.000 G0
ENDBRANCH   4   6
ENDBRANCH   2   4
BRANCH   3   8
ATOM      8  C   UNL     1      -4.651 -11.620  -8.644  1.00  0.00    -0.003 C 
ATOM      9  C   UNL     1      -3.748 -12.501  -9.094  1.00  0.00    -0.020 C 
BRANCH   9  10
ATOM     10  C   UNL     1      -3.498 -13.887  -8.552  1.00  0.00    -0.010 CG0
ATOM     11  C   UNL     1      -4.615 -14.848  -9.022  1.00  0.00     0.016 C 
ATOM     12  C   UNL     1      -2.156 -14.398  -9.124  1.00  0.00     0.016 C 
ATOM     13  G   UNL     1      -3.372 -13.829  -7.012  1.00  0.00     0.000 G0
ENDBRANCH   9  10
ENDBRANCH   3   8
TORSDOF 0
ENDMDL
MODEL 5
REMARK VINA RESULT:    -4.235      1.405      3.466
REMARK INTER + INTRA:          -4.460
REMARK INTER:                  -5.212
REMARK INTRA:                   0.751
REMARK UNBOUND:                 0.764
REMARK SMILES CC1=CC=CC(C)(C)CC1=O
REMARK SMILES IDX 1 1 2 2 3 3 10 4 11 5 9 6 4 8 5 9 6 10 7 11 8 12
REMARK H PARENT
REMARK Flexibility Score: 80.00
ROOT
ATOM      1  C   UNL     1      -6.323 -12.206  -8.285  1.00  0.00     0.048 C 
ATOM      2  C   UNL     1      -5.043 -12.926  -7.933  1.00  0.00    -0.008 C 
ATOM      3  C   UNL     1      -4.190 -13.215  -8.938  1.00  0.00     0.007 C 
ENDROOT
BRANCH   2   4
ATOM      4  C   UNL     1      -4.861 -13.325  -6.514  1.00  0.00     0.159 C 
ATOM      5  O   UNL     1      -5.832 -13.201  -5.717  1.00  0.00    -0.295 OA
BRANCH   4   6
ATOM      6  C   UNL     1      -3.574 -13.858  -5.964  1.00  0.00     0.091 CG0
ATOM      7  G   UNL     1      -3.082 -15.130  -6.690  1.00  0.00     0.000 G0
ENDBRANCH   4   6
ENDBRANCH   2   4
BRANCH   3   8
ATOM      8  C   UNL     1      -2.889 -13.925  -8.908  1.00  0.00    -0.003 C 
ATOM      9  C   UNL     1      -2.399 -14.750  -7.974  1.00  0.00    -0.020 C 
BRANCH   9  10
ATOM     10  C   UNL     1      -3.071 -15.139  -6.679  1.00  0.00    -0.010 CG0
ATOM     11  C   UNL     1      -4.187 -16.173  -6.951  1.00  0.00     0.016 C 
ATOM     12  C   UNL     1      -2.015 -15.805  -5.766  1.00  0.00     0.016 C 
ATOM     13  G   UNL     1      -3.594 -13.873  -5.963  1.00  0.00     0.000 G0
ENDBRANCH   9  10
ENDBRANCH   3   8
TORSDOF 0
ENDMDL
MODEL 6
REMARK VINA RESULT:    -4.127      1.816      3.694
REMARK INTER + INTRA:          -4.328
REMARK INTER:                  -5.074
REMARK INTRA:                   0.746
REMARK UNBOUND:                 0.764
REMARK SMILES CC1=CC=CC(C)(C)CC1=O
REMARK SMILES IDX 1 1 2 2 3 3 10 4 11 5 9 6 4 8 5 9 6 10 7 11 8 12
REMARK H PARENT
REMARK Flexibility Score: 80.00
ROOT
ATOM      1  C   UNL     1      -4.324 -11.294  -9.050  1.00  0.00     0.048 C 
ATOM      2  C   UNL     1      -4.198 -12.309  -7.937  1.00  0.00    -0.008 C 
ATOM      3  C   UNL     1      -3.035 -12.347  -7.254  1.00  0.00     0.007 C 
ENDROOT
BRANCH   2   4
ATOM      4  C   UNL     1      -5.341 -13.235  -7.735  1.00  0.00     0.159 C 
ATOM      5  O   UNL     1      -6.253 -13.275  -8.606  1.00  0.00    -0.295 OA
BRANCH   4   6
ATOM      6  C   UNL     1      -5.483 -14.123  -6.538  1.00  0.00     0.091 CG0
ATOM      7  G   UNL     1      -4.303 -15.105  -6.365  1.00  0.00     0.000 G0
ENDBRANCH   4   6
ENDBRANCH   2   4
BRANCH   3   8
ATOM      8  C   UNL     1      -2.611 -13.236  -6.146  1.00  0.00    -0.003 C 
ATOM      9  C   UNL     1      -3.125 -14.412  -5.764  1.00  0.00    -0.020 C 
BRANCH   9  10
ATOM     10  C   UNL     1      -4.312 -15.114  -6.377  1.00  0.00    -0.010 CG0
ATOM     11  C   UNL     1      -3.900 -15.786  -7.707  1.00  0.00     0.016 C 
ATOM     12  C   UNL     1      -4.774 -16.224  -5.404  1.00  0.00     0.016 C 
ATOM     13  G   UNL     1      -5.476 -14.113  -6.551  1.00  0.00     0.000 G0
ENDBRANCH   9  10
ENDBRANCH   3   8
TORSDOF 0
ENDMDL
MODEL 7
REMARK VINA RESULT:    -4.034      1.976      3.813
REMARK INTER + INTRA:          -4.212
REMARK INTER:                  -4.949
REMARK INTRA:                   0.737
REMARK UNBOUND:                 0.764
REMARK SMILES CC1=CC=CC(C)(C)CC1=O
REMARK SMILES IDX 1 1 2 2 3 3 10 4 11 5 9 6 4 8 5 9 6 10 7 11 8 12
REMARK H PARENT
REMARK Flexibility Score: 80.00
ROOT
ATOM      1  C   UNL     1      -3.122 -11.716  -9.087  1.00  0.00     0.048 C 
ATOM      2  C   UNL     1      -3.678 -12.897  -8.325  1.00  0.00    -0.008 C 
ATOM      3  C   UNL     1      -4.718 -12.673  -7.495  1.00  0.00     0.007 C 
ENDROOT
BRANCH   2   4
ATOM      4  C   UNL     1      -2.983 -14.198  -8.497  1.00  0.00     0.159 C 
ATOM      5  O   UNL     1      -1.878 -14.223  -9.106  1.00  0.00    -0.295 OA
BRANCH   4   6
ATOM      6  C   UNL     1      -3.530 -15.499  -7.995  1.00  0.00     0.091 CG0
ATOM      7  G   UNL     1      -3.777 -15.508  -6.470  1.00  0.00     0.000 G0
ENDBRANCH   4   6
ENDBRANCH   2   4
BRANCH   3   8
ATOM      8  C   UNL     1      -5.448 -13.612  -6.610  1.00  0.00    -0.003 C 
ATOM      9  C   UNL     1      -5.068 -14.814  -6.159  1.00  0.00    -0.020 C 
BRANCH   9  10
ATOM     10  C   UNL     1      -3.777 -15.527  -6.480  1.00  0.00    -0.010 CG0
ATOM     11  C   UNL     1      -2.618 -14.917  -5.659  1.00  0.00     0.016 C 
ATOM     12  C   UNL     1      -3.926 -17.010  -6.068  1.00  0.00     0.016 C 
ATOM     13  G   UNL     1      -3.519 -15.475  -8.003  1.00  0.00     0.000 G0
ENDBRANCH   9  10
ENDBRANCH   3   8
TORSDOF 0
ENDMDL
MODEL 8
REMARK VINA RESULT:    -4.033      1.717      2.531
REMARK INTER + INTRA:          -4.211
REMARK INTER:                  -4.976
REMARK INTRA:                   0.765
REMARK UNBOUND:                 0.764
REMARK SMILES CC1=CC=CC(C)(C)CC1=O
REMARK SMILES IDX 1 1 2 2 3 3 10 4 11 5 9 6 4 8 5 9 6 10 7 11 8 12
REMARK H PARENT
REMARK Flexibility Score: 80.00
ROOT
ATOM      1  C   UNL     1      -3.704 -17.175  -6.167  1.00  0.00     0.048 C 
ATOM      2  C   UNL     1      -3.467 -15.763  -6.650  1.00  0.00    -0.008 C 
ATOM      3  C   UNL     1      -2.842 -14.911  -5.811  1.00  0.00     0.007 C 
ENDROOT
BRANCH   2   4
ATOM      4  C   UNL     1      -4.012 -15.406  -7.985  1.00  0.00     0.159 C 
ATOM      5  O   UNL     1      -4.811 -16.204  -8.550  1.00  0.00    -0.295 OA
BRANCH   4   6
ATOM      6  C   UNL     1      -3.654 -14.148  -8.713  1.00  0.00     0.091 CG0
ATOM      7  G   UNL     1      -4.030 -12.866  -7.936  1.00  0.00     0.000 G0
ENDBRANCH   4   6
ENDBRANCH   2   4
BRANCH   3   8
ATOM      8  C   UNL     1      -2.498 -13.481  -5.990  1.00  0.00    -0.003 C 
ATOM      9  C   UNL     1      -2.994 -12.596  -6.865  1.00  0.00    -0.020 C 
BRANCH   9  10
ATOM     10  C   UNL     1      -4.033 -12.870  -7.926  1.00  0.00    -0.010 CG0
ATOM     11  C   UNL     1      -5.435 -12.965  -7.280  1.00  0.00     0.016 C 
ATOM     12  C   UNL     1      -4.042 -11.680  -8.914  1.00  0.00     0.016 C 
ATOM     13  G   UNL     1      -3.652 -14.144  -8.713  1.00  0.00     0.000 G0
ENDBRANCH   9  10
ENDBRANCH   3   8
TORSDOF 0
ENDMDL
MODEL 9
REMARK VINA RESULT:    -3.826      1.794      3.429
REMARK INTER + INTRA:          -3.956
REMARK INTER:                  -4.711
REMARK INTRA:                   0.755
REMARK UNBOUND:                 0.764
REMARK SMILES CC1=CC=CC(C)(C)CC1=O
REMARK SMILES IDX 1 1 2 2 3 3 10 4 11 5 9 6 4 8 5 9 6 10 7 11 8 12
REMARK H PARENT
REMARK Flexibility Score: 80.00
ROOT
ATOM      1  C   UNL     1      -3.280 -11.433  -7.873  1.00  0.00     0.048 C 
ATOM      2  C   UNL     1      -3.353 -12.941  -7.817  1.00  0.00    -0.008 C 
ATOM      3  C   UNL     1      -3.860 -13.583  -8.891  1.00  0.00     0.007 C 
ENDROOT
BRANCH   2   4
ATOM      4  C   UNL     1      -2.930 -13.592  -6.552  1.00  0.00     0.159 C 
ATOM      5  O   UNL     1      -2.731 -12.872  -5.534  1.00  0.00    -0.295 OA
BRANCH   4   6
ATOM      6  C   UNL     1      -2.710 -15.067  -6.414  1.00  0.00     0.091 CG0
ATOM      7  G   UNL     1      -3.968 -15.903  -6.739  1.00  0.00     0.000 G0
ENDBRANCH   4   6
ENDBRANCH   2   4
BRANCH   3   8
ATOM      8  C   UNL     1      -4.080 -15.031  -9.117  1.00  0.00    -0.003 C 
ATOM      9  C   UNL     1      -4.141 -16.026  -8.223  1.00  0.00    -0.020 C 
BRANCH   9  10
ATOM     10  C   UNL     1      -3.967 -15.900  -6.728  1.00  0.00    -0.010 CG0
ATOM     11  C   UNL     1      -5.250 -15.315  -6.094  1.00  0.00     0.016 C 
ATOM     12  C   UNL     1      -3.749 -17.316  -6.145  1.00  0.00     0.016 C 
ATOM     13  G   UNL     1      -2.711 -15.055  -6.420  1.00  0.00     0.000 G0
ENDBRANCH   9  10
ENDBRANCH   3   8
TORSDOF 0
ENDMDL
