MODEL 1
REMARK VINA RESULT:    -5.442      0.000      0.000
REMARK INTER + INTRA:          -9.303
REMARK INTER:                  -7.988
REMARK INTRA:                  -1.315
REMARK UNBOUND:                -1.315
REMARK SMILES Cc1cc2c(C(C)C)c(O)c(O)c(C=O)c2c(O)c1-c1c(C)cc2c(C(C)C)c(O)c(O)c(C=O)c2c1O
REMARK SMILES IDX 1 1 2 2 3 3 4 4 16 5 13 6 11 7 9 8 5 9 17 10 19 11 20 12
REMARK SMILES IDX 37 13 21 14 36 15 23 16 22 17 24 18 33 19 25 20 31 21 29 22
REMARK SMILES IDX 38 23 34 25 35 26 26 27 27 28 28 29 32 30 30 32 18 34 6 36
REMARK SMILES IDX 7 37 8 38 14 39 15 40 10 41 12 43
REMARK H PARENT 38 24 32 31 30 33 18 35 10 42 12 44
REMARK Flexibility Score: inf
ROOT
ATOM      1  C   UNL     1      63.419  23.360  51.734  1.00  0.00     0.045 C 
ATOM      2  C   UNL     1      62.500  24.495  51.352  1.00  0.00    -0.039 A 
ATOM      3  C   UNL     1      63.041  25.759  51.112  1.00  0.00     0.013 A 
ATOM      4  C   UNL     1      62.230  26.870  50.786  1.00  0.00    -0.006 A 
ATOM      5  C   UNL     1      60.823  26.672  50.636  1.00  0.00     0.039 A 
ATOM      6  C   UNL     1      60.003  27.788  50.300  1.00  0.00     0.072 A 
ATOM      7  C   UNL     1      60.595  29.010  49.937  1.00  0.00     0.169 A 
ATOM      8  C   UNL     1      61.991  29.165  49.984  1.00  0.00     0.162 A 
ATOM      9  C   UNL     1      62.799  28.163  50.565  1.00  0.00     0.008 A 
ATOM     10  C   UNL     1      60.291  25.356  50.782  1.00  0.00     0.132 A 
ATOM     11  C   UNL     1      61.124  24.284  51.164  1.00  0.00     0.031 A 
ENDROOT
BRANCH  11  12
ATOM     12  C   UNL     1      60.556  22.920  51.336  1.00  0.00     0.031 A 
ATOM     13  C   UNL     1      60.057  22.514  52.592  1.00  0.00     0.132 A 
ATOM     14  C   UNL     1      60.524  22.034  50.248  1.00  0.00    -0.039 A 
ATOM     15  C   UNL     1      59.569  21.188  52.779  1.00  0.00     0.039 A 
ATOM     16  C   UNL     1      59.935  20.777  50.402  1.00  0.00     0.013 A 
ATOM     17  C   UNL     1      61.088  22.429  48.904  1.00  0.00     0.045 C 
ATOM     18  C   UNL     1      59.387  20.358  51.634  1.00  0.00    -0.006 A 
ATOM     19  C   UNL     1      59.235  20.671  54.064  1.00  0.00     0.072 A 
ATOM     20  C   UNL     1      58.691  19.117  51.751  1.00  0.00     0.008 A 
ATOM     21  C   UNL     1      58.675  19.385  54.186  1.00  0.00     0.169 A 
ATOM     22  C   UNL     1      58.431  18.602  53.041  1.00  0.00     0.162 A 
BRANCH  13  23
ATOM     23  O   UNL     1      60.009  23.438  53.642  1.00  0.00    -0.507 OA
ATOM     24  H   UNL     1      59.276  24.127  53.755  1.00  0.00     0.293 HD
ENDBRANCH  13  23
BRANCH  19  25
ATOM     25  C   UNL     1      59.587  21.389  55.315  1.00  0.00     0.264 C 
ATOM     26  O   UNL     1      58.704  21.959  56.007  1.00  0.00    -0.298 OA
ENDBRANCH  19  25
BRANCH  20  27
ATOM     27  C   UNL     1      58.235  18.331  50.506  1.00  0.00     0.017 C 
ATOM     28  C   UNL     1      59.053  17.047  50.339  1.00  0.00     0.012 C 
ATOM     29  C   UNL     1      56.722  18.043  50.474  1.00  0.00     0.012 C 
ENDBRANCH  20  27
BRANCH  21  30
ATOM     30  O   UNL     1      58.381  18.910  55.471  1.00  0.00    -0.504 OA
ATOM     31  H   UNL     1      58.474  19.446  56.320  1.00  0.00     0.293 HD
ENDBRANCH  21  30
BRANCH  22  32
ATOM     32  O   UNL     1      57.966  17.288  53.156  1.00  0.00    -0.504 OA
ATOM     33  H   UNL     1      58.231  16.639  53.883  1.00  0.00     0.293 HD
ENDBRANCH  22  32
ENDBRANCH  11  12
BRANCH  10  34
ATOM     34  O   UNL     1      58.941  25.107  50.502  1.00  0.00    -0.507 OA
ATOM     35  H   UNL     1      58.493  24.209  50.635  1.00  0.00     0.293 HD
ENDBRANCH  10  34
BRANCH   9  36
ATOM     36  C   UNL     1      64.274  28.468  50.888  1.00  0.00     0.017 C 
ATOM     37  C   UNL     1      65.111  28.536  49.607  1.00  0.00     0.012 C 
ATOM     38  C   UNL     1      64.478  29.724  51.756  1.00  0.00     0.012 C 
ENDBRANCH   9  36
BRANCH   6  39
ATOM     39  C   UNL     1      58.524  27.739  50.402  1.00  0.00     0.264 C 
ATOM     40  O   UNL     1      57.902  28.468  51.218  1.00  0.00    -0.298 OA
ENDBRANCH   6  39
BRANCH   8  41
ATOM     41  O   UNL     1      62.597  30.305  49.450  1.00  0.00    -0.504 OA
ATOM     42  H   UNL     1      63.007  30.348  48.527  1.00  0.00     0.293 HD
ENDBRANCH   8  41
BRANCH   7  43
ATOM     43  O   UNL     1      59.766  30.080  49.578  1.00  0.00    -0.504 OA
ATOM     44  H   UNL     1      59.627  30.903  50.147  1.00  0.00     0.293 HD
ENDBRANCH   7  43
TORSDOF 11
ENDMDL
MODEL 2
REMARK VINA RESULT:    -5.251      3.375     11.229
REMARK INTER + INTRA:          -9.023
REMARK INTER:                  -7.847
REMARK INTRA:                  -1.176
REMARK UNBOUND:                -1.315
REMARK SMILES Cc1cc2c(C(C)C)c(O)c(O)c(C=O)c2c(O)c1-c1c(C)cc2c(C(C)C)c(O)c(O)c(C=O)c2c1O
REMARK SMILES IDX 1 1 2 2 3 3 4 4 16 5 13 6 11 7 9 8 5 9 17 10 19 11 20 12
REMARK SMILES IDX 37 13 21 14 36 15 23 16 22 17 24 18 33 19 25 20 31 21 29 22
REMARK SMILES IDX 38 23 34 25 35 26 26 27 27 28 28 29 32 30 30 32 18 34 6 36
REMARK SMILES IDX 7 37 8 38 14 39 15 40 10 41 12 43
REMARK H PARENT 38 24 32 31 30 33 18 35 10 42 12 44
REMARK Flexibility Score: inf
ROOT
ATOM      1  C   UNL     1      65.726  27.624  50.771  1.00  0.00     0.045 C 
ATOM      2  C   UNL     1      64.232  27.610  50.554  1.00  0.00    -0.039 A 
ATOM      3  C   UNL     1      63.517  26.438  50.807  1.00  0.00     0.013 A 
ATOM      4  C   UNL     1      62.122  26.351  50.590  1.00  0.00    -0.006 A 
ATOM      5  C   UNL     1      61.422  27.519  50.161  1.00  0.00     0.039 A 
ATOM      6  C   UNL     1      60.014  27.437  49.947  1.00  0.00     0.072 A 
ATOM      7  C   UNL     1      59.311  26.284  50.339  1.00  0.00     0.169 A 
ATOM      8  C   UNL     1      59.998  25.176  50.863  1.00  0.00     0.162 A 
ATOM      9  C   UNL     1      61.410  25.136  50.835  1.00  0.00     0.008 A 
ATOM     10  C   UNL     1      62.142  28.740  50.003  1.00  0.00     0.132 A 
ATOM     11  C   UNL     1      63.543  28.772  50.174  1.00  0.00     0.031 A 
ENDROOT
BRANCH  11  12
ATOM     12  C   UNL     1      64.289  30.045  49.985  1.00  0.00     0.031 A 
ATOM     13  C   UNL     1      64.979  30.289  48.778  1.00  0.00     0.132 A 
ATOM     14  C   UNL     1      64.313  31.001  51.013  1.00  0.00    -0.039 A 
ATOM     15  C   UNL     1      65.746  31.479  48.615  1.00  0.00     0.039 A 
ATOM     16  C   UNL     1      64.966  32.217  50.805  1.00  0.00     0.013 A 
ATOM     17  C   UNL     1      63.618  30.747  52.329  1.00  0.00     0.045 C 
ATOM     18  C   UNL     1      65.628  32.510  49.592  1.00  0.00    -0.006 A 
ATOM     19  C   UNL     1      66.609  31.684  47.500  1.00  0.00     0.072 A 
ATOM     20  C   UNL     1      66.196  33.797  49.350  1.00  0.00     0.008 A 
ATOM     21  C   UNL     1      67.280  32.911  47.340  1.00  0.00     0.169 A 
ATOM     22  C   UNL     1      67.098  33.950  48.273  1.00  0.00     0.162 A 
BRANCH  13  23
ATOM     23  O   UNL     1      64.868  29.371  47.727  1.00  0.00    -0.507 OA
ATOM     24  H   UNL     1      65.597  28.719  47.468  1.00  0.00     0.293 HD
ENDBRANCH  13  23
BRANCH  19  25
ATOM     25  C   UNL     1      66.946  30.588  46.556  1.00  0.00     0.264 C 
ATOM     26  O   UNL     1      67.932  29.833  46.764  1.00  0.00    -0.298 OA
ENDBRANCH  19  25
BRANCH  20  27
ATOM     27  C   UNL     1      65.858  35.005  50.244  1.00  0.00     0.017 C 
ATOM     28  C   UNL     1      64.350  35.272  50.259  1.00  0.00     0.012 C 
ATOM     29  C   UNL     1      66.423  34.898  51.673  1.00  0.00     0.012 C 
ENDBRANCH  20  27
BRANCH  21  30
ATOM     30  O   UNL     1      68.135  33.061  46.240  1.00  0.00    -0.504 OA
ATOM     31  H   UNL     1      67.869  32.917  45.278  1.00  0.00     0.293 HD
ENDBRANCH  21  30
BRANCH  22  32
ATOM     32  O   UNL     1      67.832  35.137  48.178  1.00  0.00    -0.504 OA
ATOM     33  H   UNL     1      67.581  35.931  47.606  1.00  0.00     0.293 HD
ENDBRANCH  22  32
ENDBRANCH  11  12
BRANCH  10  34
ATOM     34  O   UNL     1      61.460  29.930  49.721  1.00  0.00    -0.507 OA
ATOM     35  H   UNL     1      60.831  30.388  50.369  1.00  0.00     0.293 HD
ENDBRANCH  10  34
BRANCH   9  36
ATOM     36  C   UNL     1      62.139  23.810  51.123  1.00  0.00     0.017 C 
ATOM     37  C   UNL     1      62.109  23.483  52.619  1.00  0.00     0.012 C 
ATOM     38  C   UNL     1      61.633  22.622  50.281  1.00  0.00     0.012 C 
ENDBRANCH   9  36
BRANCH   6  39
ATOM     39  C   UNL     1      59.261  28.500  49.240  1.00  0.00     0.264 C 
ATOM     40  O   UNL     1      58.493  29.279  49.862  1.00  0.00    -0.298 OA
ENDBRANCH   6  39
BRANCH   8  41
ATOM     41  O   UNL     1      59.297  24.106  51.425  1.00  0.00    -0.504 OA
ATOM     42  H   UNL     1      58.351  23.856  51.173  1.00  0.00     0.293 HD
ENDBRANCH   8  41
BRANCH   7  43
ATOM     43  O   UNL     1      57.924  26.245  50.150  1.00  0.00    -0.504 OA
ATOM     44  H   UNL     1      57.470  25.738  49.403  1.00  0.00     0.293 HD
ENDBRANCH   7  43
TORSDOF 11
ENDMDL
MODEL 3
REMARK VINA RESULT:    -5.229     10.609     13.292
REMARK INTER + INTRA:          -8.989
REMARK INTER:                  -7.631
REMARK INTRA:                  -1.359
REMARK UNBOUND:                -1.315
REMARK SMILES Cc1cc2c(C(C)C)c(O)c(O)c(C=O)c2c(O)c1-c1c(C)cc2c(C(C)C)c(O)c(O)c(C=O)c2c1O
REMARK SMILES IDX 1 1 2 2 3 3 4 4 16 5 13 6 11 7 9 8 5 9 17 10 19 11 20 12
REMARK SMILES IDX 37 13 21 14 36 15 23 16 22 17 24 18 33 19 25 20 31 21 29 22
REMARK SMILES IDX 38 23 34 25 35 26 26 27 27 28 28 29 32 30 30 32 18 34 6 36
REMARK SMILES IDX 7 37 8 38 14 39 15 40 10 41 12 43
REMARK H PARENT 38 24 32 31 30 33 18 35 10 42 12 44
REMARK Flexibility Score: inf
ROOT
ATOM      1  C   UNL     1      62.129  30.168  57.431  1.00  0.00     0.045 C 
ATOM      2  C   UNL     1      61.999  31.486  58.156  1.00  0.00    -0.039 A 
ATOM      3  C   UNL     1      60.832  32.237  58.003  1.00  0.00     0.013 A 
ATOM      4  C   UNL     1      60.665  33.494  58.627  1.00  0.00    -0.006 A 
ATOM      5  C   UNL     1      61.697  33.974  59.490  1.00  0.00     0.039 A 
ATOM      6  C   UNL     1      61.529  35.239  60.127  1.00  0.00     0.072 A 
ATOM      7  C   UNL     1      60.291  35.901  60.056  1.00  0.00     0.169 A 
ATOM      8  C   UNL     1      59.241  35.366  59.289  1.00  0.00     0.162 A 
ATOM      9  C   UNL     1      59.471  34.259  58.442  1.00  0.00     0.008 A 
ATOM     10  C   UNL     1      62.841  33.155  59.723  1.00  0.00     0.132 A 
ATOM     11  C   UNL     1      62.998  31.932  59.037  1.00  0.00     0.031 A 
ENDROOT
BRANCH  11  12
ATOM     12  C   UNL     1      64.205  31.094  59.269  1.00  0.00     0.031 A 
ATOM     13  C   UNL     1      65.340  31.243  58.443  1.00  0.00     0.132 A 
ATOM     14  C   UNL     1      64.212  30.149  60.307  1.00  0.00    -0.039 A 
ATOM     15  C   UNL     1      66.477  30.401  58.621  1.00  0.00     0.039 A 
ATOM     16  C   UNL     1      65.369  29.408  60.554  1.00  0.00     0.013 A 
ATOM     17  C   UNL     1      62.997  29.940  61.178  1.00  0.00     0.045 C 
ATOM     18  C   UNL     1      66.536  29.567  59.774  1.00  0.00    -0.006 A 
ATOM     19  C   UNL     1      67.563  30.381  57.699  1.00  0.00     0.072 A 
ATOM     20  C   UNL     1      67.747  28.886  60.106  1.00  0.00     0.008 A 
ATOM     21  C   UNL     1      68.701  29.596  57.965  1.00  0.00     0.169 A 
ATOM     22  C   UNL     1      68.781  28.831  59.145  1.00  0.00     0.162 A 
BRANCH  13  23
ATOM     23  O   UNL     1      65.355  32.254  57.474  1.00  0.00    -0.507 OA
ATOM     24  H   UNL     1      65.869  33.120  57.569  1.00  0.00     0.293 HD
ENDBRANCH  13  23
BRANCH  19  25
ATOM     25  C   UNL     1      67.486  31.057  56.380  1.00  0.00     0.264 C 
ATOM     26  O   UNL     1      68.132  32.114  56.153  1.00  0.00    -0.298 OA
ENDBRANCH  19  25
BRANCH  20  27
ATOM     27  C   UNL     1      67.936  28.205  61.475  1.00  0.00     0.017 C 
ATOM     28  C   UNL     1      68.244  26.715  61.309  1.00  0.00     0.012 C 
ATOM     29  C   UNL     1      68.979  28.898  62.373  1.00  0.00     0.012 C 
ENDBRANCH  20  27
BRANCH  21  30
ATOM     30  O   UNL     1      69.737  29.590  57.021  1.00  0.00    -0.504 OA
ATOM     31  H   UNL     1      70.417  30.326  56.906  1.00  0.00     0.293 HD
ENDBRANCH  21  30
BRANCH  22  32
ATOM     32  O   UNL     1      69.862  27.974  59.373  1.00  0.00    -0.504 OA
ATOM     33  H   UNL     1      70.555  27.716  58.685  1.00  0.00     0.293 HD
ENDBRANCH  22  32
ENDBRANCH  11  12
BRANCH  10  34
ATOM     34  O   UNL     1      63.800  33.534  60.671  1.00  0.00    -0.507 OA
ATOM     35  H   UNL     1      64.245  32.891  61.313  1.00  0.00     0.293 HD
ENDBRANCH  10  34
BRANCH   9  36
ATOM     36  C   UNL     1      58.415  33.875  57.389  1.00  0.00     0.017 C 
ATOM     37  C   UNL     1      59.022  33.869  55.982  1.00  0.00     0.012 C 
ATOM     38  C   UNL     1      57.684  32.553  57.688  1.00  0.00     0.012 C 
ENDBRANCH   9  36
BRANCH   6  39
ATOM     39  C   UNL     1      62.650  35.937  60.801  1.00  0.00     0.264 C 
ATOM     40  O   UNL     1      62.704  36.021  62.056  1.00  0.00    -0.298 OA
ENDBRANCH   6  39
BRANCH   8  41
ATOM     41  O   UNL     1      57.958  35.913  59.362  1.00  0.00    -0.504 OA
ATOM     42  H   UNL     1      57.169  35.449  59.790  1.00  0.00     0.293 HD
ENDBRANCH   8  41
BRANCH   7  43
ATOM     43  O   UNL     1      60.143  37.125  60.720  1.00  0.00    -0.504 OA
ATOM     44  H   UNL     1      60.903  37.767  60.897  1.00  0.00     0.293 HD
ENDBRANCH   7  43
TORSDOF 11
ENDMDL
MODEL 4
REMARK VINA RESULT:    -5.129      0.495      9.155
REMARK INTER + INTRA:          -8.843
REMARK INTER:                  -7.465
REMARK INTRA:                  -1.378
REMARK UNBOUND:                -1.315
REMARK SMILES Cc1cc2c(C(C)C)c(O)c(O)c(C=O)c2c(O)c1-c1c(C)cc2c(C(C)C)c(O)c(O)c(C=O)c2c1O
REMARK SMILES IDX 1 1 2 2 3 3 4 4 16 5 13 6 11 7 9 8 5 9 17 10 19 11 20 12
REMARK SMILES IDX 37 13 21 14 36 15 23 16 22 17 24 18 33 19 25 20 31 21 29 22
REMARK SMILES IDX 38 23 34 25 35 26 26 27 27 28 28 29 32 30 30 32 18 34 6 36
REMARK SMILES IDX 7 37 8 38 14 39 15 40 10 41 12 43
REMARK H PARENT 38 24 32 31 30 33 18 35 10 42 12 44
REMARK Flexibility Score: inf
ROOT
ATOM      1  C   UNL     1      61.045  22.477  48.880  1.00  0.00     0.045 C 
ATOM      2  C   UNL     1      60.482  22.069  50.220  1.00  0.00    -0.039 A 
ATOM      3  C   UNL     1      60.006  20.768  50.393  1.00  0.00     0.013 A 
ATOM      4  C   UNL     1      59.436  20.335  51.612  1.00  0.00    -0.006 A 
ATOM      5  C   UNL     1      59.407  21.243  52.715  1.00  0.00     0.039 A 
ATOM      6  C   UNL     1      58.838  20.808  53.948  1.00  0.00     0.072 A 
ATOM      7  C   UNL     1      58.494  19.457  54.124  1.00  0.00     0.169 A 
ATOM      8  C   UNL     1      58.627  18.545  53.063  1.00  0.00     0.162 A 
ATOM      9  C   UNL     1      58.935  19.005  51.764  1.00  0.00     0.008 A 
ATOM     10  C   UNL     1      59.987  22.537  52.562  1.00  0.00     0.132 A 
ATOM     11  C   UNL     1      60.495  22.951  51.312  1.00  0.00     0.031 A 
ENDROOT
BRANCH  11  12
ATOM     12  C   UNL     1      61.078  24.310  51.156  1.00  0.00     0.031 A 
ATOM     13  C   UNL     1      60.241  25.413  50.882  1.00  0.00     0.132 A 
ATOM     14  C   UNL     1      62.465  24.494  51.275  1.00  0.00    -0.039 A 
ATOM     15  C   UNL     1      60.800  26.707  50.670  1.00  0.00     0.039 A 
ATOM     16  C   UNL     1      62.998  25.782  51.186  1.00  0.00     0.013 A 
ATOM     17  C   UNL     1      63.388  23.326  51.527  1.00  0.00     0.045 C 
ATOM     18  C   UNL     1      62.181  26.912  50.956  1.00  0.00    -0.006 A 
ATOM     19  C   UNL     1      60.023  27.807  50.205  1.00  0.00     0.072 A 
ATOM     20  C   UNL     1      62.722  28.233  50.978  1.00  0.00     0.008 A 
ATOM     21  C   UNL     1      60.602  29.085  50.094  1.00  0.00     0.169 A 
ATOM     22  C   UNL     1      61.950  29.292  50.450  1.00  0.00     0.162 A 
BRANCH  13  23
ATOM     23  O   UNL     1      58.853  25.231  50.861  1.00  0.00    -0.507 OA
ATOM     24  H   UNL     1      58.215  25.679  51.506  1.00  0.00     0.293 HD
ENDBRANCH  13  23
BRANCH  19  25
ATOM     25  C   UNL     1      58.642  27.631  49.690  1.00  0.00     0.264 C 
ATOM     26  O   UNL     1      57.647  28.031  50.350  1.00  0.00    -0.298 OA
ENDBRANCH  19  25
BRANCH  20  27
ATOM     27  C   UNL     1      64.125  28.517  51.546  1.00  0.00     0.017 C 
ATOM     28  C   UNL     1      65.118  28.834  50.425  1.00  0.00     0.012 C 
ATOM     29  C   UNL     1      64.143  29.606  52.637  1.00  0.00     0.012 C 
ENDBRANCH  20  27
BRANCH  21  30
ATOM     30  O   UNL     1      59.807  30.134  49.612  1.00  0.00    -0.504 OA
ATOM     31  H   UNL     1      58.801  30.112  49.546  1.00  0.00     0.293 HD
ENDBRANCH  21  30
BRANCH  22  32
ATOM     32  O   UNL     1      62.562  30.534  50.253  1.00  0.00    -0.504 OA
ATOM     33  H   UNL     1      63.393  30.854  50.729  1.00  0.00     0.293 HD
ENDBRANCH  22  32
ENDBRANCH  11  12
BRANCH  10  34
ATOM     34  O   UNL     1      60.100  23.394  53.664  1.00  0.00    -0.507 OA
ATOM     35  H   UNL     1      60.347  24.373  53.596  1.00  0.00     0.293 HD
ENDBRANCH  10  34
BRANCH   9  36
ATOM     36  C   UNL     1      58.778  18.053  50.564  1.00  0.00     0.017 C 
ATOM     37  C   UNL     1      59.790  16.906  50.641  1.00  0.00     0.012 C 
ATOM     38  C   UNL     1      57.345  17.522  50.368  1.00  0.00     0.012 C 
ENDBRANCH   9  36
BRANCH   6  39
ATOM     39  C   UNL     1      58.510  21.755  55.041  1.00  0.00     0.264 C 
ATOM     40  O   UNL     1      59.180  21.777  56.107  1.00  0.00    -0.298 OA
ENDBRANCH   6  39
BRANCH   8  41
ATOM     41  O   UNL     1      58.467  17.174  53.281  1.00  0.00    -0.504 OA
ATOM     42  H   UNL     1      58.379  16.754  54.196  1.00  0.00     0.293 HD
ENDBRANCH   8  41
BRANCH   7  43
ATOM     43  O   UNL     1      57.970  19.052  55.358  1.00  0.00    -0.504 OA
ATOM     44  H   UNL     1      58.033  19.598  56.206  1.00  0.00     0.293 HD
ENDBRANCH   7  43
TORSDOF 11
ENDMDL
MODEL 5
REMARK VINA RESULT:    -5.103      7.228      9.717
REMARK INTER + INTRA:          -8.805
REMARK INTER:                  -7.409
REMARK INTRA:                  -1.396
REMARK UNBOUND:                -1.315
REMARK SMILES Cc1cc2c(C(C)C)c(O)c(O)c(C=O)c2c(O)c1-c1c(C)cc2c(C(C)C)c(O)c(O)c(C=O)c2c1O
REMARK SMILES IDX 1 1 2 2 3 3 4 4 16 5 13 6 11 7 9 8 5 9 17 10 19 11 20 12
REMARK SMILES IDX 37 13 21 14 36 15 23 16 22 17 24 18 33 19 25 20 31 21 29 22
REMARK SMILES IDX 38 23 34 25 35 26 26 27 27 28 28 29 32 30 30 32 18 34 6 36
REMARK SMILES IDX 7 37 8 38 14 39 15 40 10 41 12 43
REMARK H PARENT 38 24 32 31 30 33 18 35 10 42 12 44
REMARK Flexibility Score: inf
ROOT
ATOM      1  C   UNL     1      57.794  26.891  54.911  1.00  0.00     0.045 C 
ATOM      2  C   UNL     1      56.968  28.153  54.842  1.00  0.00    -0.039 A 
ATOM      3  C   UNL     1      56.366  28.510  53.635  1.00  0.00     0.013 A 
ATOM      4  C   UNL     1      55.610  29.696  53.498  1.00  0.00    -0.006 A 
ATOM      5  C   UNL     1      55.408  30.516  54.649  1.00  0.00     0.039 A 
ATOM      6  C   UNL     1      54.640  31.711  54.516  1.00  0.00     0.072 A 
ATOM      7  C   UNL     1      53.941  31.966  53.324  1.00  0.00     0.169 A 
ATOM      8  C   UNL     1      54.061  31.095  52.228  1.00  0.00     0.162 A 
ATOM      9  C   UNL     1      55.018  30.056  52.247  1.00  0.00     0.008 A 
ATOM     10  C   UNL     1      55.940  30.093  55.903  1.00  0.00     0.132 A 
ATOM     11  C   UNL     1      56.737  28.932  55.988  1.00  0.00     0.031 A 
ENDROOT
BRANCH  11  12
ATOM     12  C   UNL     1      57.307  28.510  57.295  1.00  0.00     0.031 A 
ATOM     13  C   UNL     1      56.568  27.664  58.150  1.00  0.00     0.132 A 
ATOM     14  C   UNL     1      58.579  28.960  57.682  1.00  0.00    -0.039 A 
ATOM     15  C   UNL     1      57.082  27.307  59.430  1.00  0.00     0.039 A 
ATOM     16  C   UNL     1      59.131  28.513  58.884  1.00  0.00     0.013 A 
ATOM     17  C   UNL     1      59.373  29.899  56.805  1.00  0.00     0.045 C 
ATOM     18  C   UNL     1      58.435  27.631  59.740  1.00  0.00    -0.006 A 
ATOM     19  C   UNL     1      56.299  26.618  60.402  1.00  0.00     0.072 A 
ATOM     20  C   UNL     1      59.052  27.093  60.909  1.00  0.00     0.008 A 
ATOM     21  C   UNL     1      56.879  26.211  61.618  1.00  0.00     0.169 A 
ATOM     22  C   UNL     1      58.238  26.472  61.883  1.00  0.00     0.162 A 
BRANCH  13  23
ATOM     23  O   UNL     1      55.343  27.147  57.711  1.00  0.00    -0.507 OA
ATOM     24  H   UNL     1      55.254  26.439  56.993  1.00  0.00     0.293 HD
ENDBRANCH  13  23
BRANCH  19  25
ATOM     25  C   UNL     1      54.835  26.430  60.241  1.00  0.00     0.264 C 
ATOM     26  O   UNL     1      54.350  25.297  59.987  1.00  0.00    -0.298 OA
ENDBRANCH  19  25
BRANCH  20  27
ATOM     27  C   UNL     1      60.573  27.191  61.132  1.00  0.00     0.017 C 
ATOM     28  C   UNL     1      61.341  26.577  59.959  1.00  0.00     0.012 C 
ATOM     29  C   UNL     1      61.064  28.619  61.439  1.00  0.00     0.012 C 
ENDBRANCH  20  27
BRANCH  21  30
ATOM     30  O   UNL     1      56.067  25.555  62.553  1.00  0.00    -0.504 OA
ATOM     31  H   UNL     1      55.096  25.321  62.411  1.00  0.00     0.293 HD
ENDBRANCH  21  30
BRANCH  22  32
ATOM     32  O   UNL     1      58.800  26.159  63.125  1.00  0.00    -0.504 OA
ATOM     33  H   UNL     1      59.789  26.132  63.325  1.00  0.00     0.293 HD
ENDBRANCH  22  32
ENDBRANCH  11  12
BRANCH  10  34
ATOM     34  O   UNL     1      55.638  30.802  57.073  1.00  0.00    -0.507 OA
ATOM     35  H   UNL     1      55.918  30.507  58.000  1.00  0.00     0.293 HD
ENDBRANCH  10  34
BRANCH   9  36
ATOM     36  C   UNL     1      55.353  29.308  50.943  1.00  0.00     0.017 C 
ATOM     37  C   UNL     1      56.869  29.171  50.766  1.00  0.00     0.012 C 
ATOM     38  C   UNL     1      54.649  27.945  50.804  1.00  0.00     0.012 C 
ENDBRANCH   9  36
BRANCH   6  39
ATOM     39  C   UNL     1      54.616  32.754  55.571  1.00  0.00     0.264 C 
ATOM     40  O   UNL     1      53.601  32.925  56.295  1.00  0.00    -0.298 OA
ENDBRANCH   6  39
BRANCH   8  41
ATOM     41  O   UNL     1      53.231  31.237  51.113  1.00  0.00    -0.504 OA
ATOM     42  H   UNL     1      52.912  30.466  50.544  1.00  0.00     0.293 HD
ENDBRANCH   8  41
BRANCH   7  43
ATOM     43  O   UNL     1      53.167  33.130  53.234  1.00  0.00    -0.504 OA
ATOM     44  H   UNL     1      53.261  33.817  52.499  1.00  0.00     0.293 HD
ENDBRANCH   7  43
TORSDOF 11
ENDMDL
MODEL 6
REMARK VINA RESULT:    -5.094      3.390     10.907
REMARK INTER + INTRA:          -8.791
REMARK INTER:                  -7.280
REMARK INTRA:                  -1.512
REMARK UNBOUND:                -1.315
REMARK SMILES Cc1cc2c(C(C)C)c(O)c(O)c(C=O)c2c(O)c1-c1c(C)cc2c(C(C)C)c(O)c(O)c(C=O)c2c1O
REMARK SMILES IDX 1 1 2 2 3 3 4 4 16 5 13 6 11 7 9 8 5 9 17 10 19 11 20 12
REMARK SMILES IDX 37 13 21 14 36 15 23 16 22 17 24 18 33 19 25 20 31 21 29 22
REMARK SMILES IDX 38 23 34 25 35 26 26 27 27 28 28 29 32 30 30 32 18 34 6 36
REMARK SMILES IDX 7 37 8 38 14 39 15 40 10 41 12 43
REMARK H PARENT 38 24 32 31 30 33 18 35 10 42 12 44
REMARK Flexibility Score: inf
ROOT
ATOM      1  C   UNL     1      65.739  27.468  50.566  1.00  0.00     0.045 C 
ATOM      2  C   UNL     1      64.236  27.494  50.419  1.00  0.00    -0.039 A 
ATOM      3  C   UNL     1      63.502  26.342  50.707  1.00  0.00     0.013 A 
ATOM      4  C   UNL     1      62.097  26.293  50.555  1.00  0.00    -0.006 A 
ATOM      5  C   UNL     1      61.409  27.480  50.157  1.00  0.00     0.039 A 
ATOM      6  C   UNL     1      59.992  27.436  50.009  1.00  0.00     0.072 A 
ATOM      7  C   UNL     1      59.277  26.303  50.435  1.00  0.00     0.169 A 
ATOM      8  C   UNL     1      59.957  25.177  50.927  1.00  0.00     0.162 A 
ATOM      9  C   UNL     1      61.364  25.098  50.834  1.00  0.00     0.008 A 
ATOM     10  C   UNL     1      62.155  28.681  49.964  1.00  0.00     0.132 A 
ATOM     11  C   UNL     1      63.562  28.675  50.069  1.00  0.00     0.031 A 
ENDROOT
BRANCH  11  12
ATOM     12  C   UNL     1      64.333  29.927  49.844  1.00  0.00     0.031 A 
ATOM     13  C   UNL     1      64.541  30.831  50.908  1.00  0.00     0.132 A 
ATOM     14  C   UNL     1      64.849  30.212  48.570  1.00  0.00    -0.039 A 
ATOM     15  C   UNL     1      65.226  32.062  50.684  1.00  0.00     0.039 A 
ATOM     16  C   UNL     1      65.621  31.360  48.382  1.00  0.00     0.013 A 
ATOM     17  C   UNL     1      64.606  29.282  47.406  1.00  0.00     0.045 C 
ATOM     18  C   UNL     1      65.884  32.261  49.436  1.00  0.00    -0.006 A 
ATOM     19  C   UNL     1      65.294  33.087  51.671  1.00  0.00     0.072 A 
ATOM     20  C   UNL     1      66.766  33.371  49.259  1.00  0.00     0.008 A 
ATOM     21  C   UNL     1      66.054  34.248  51.433  1.00  0.00     0.169 A 
ATOM     22  C   UNL     1      66.762  34.402  50.225  1.00  0.00     0.162 A 
BRANCH  13  23
ATOM     23  O   UNL     1      64.104  30.490  52.193  1.00  0.00    -0.507 OA
ATOM     24  H   UNL     1      63.291  30.896  52.639  1.00  0.00     0.293 HD
ENDBRANCH  13  23
BRANCH  19  25
ATOM     25  C   UNL     1      64.469  33.046  52.904  1.00  0.00     0.264 C 
ATOM     26  O   UNL     1      64.988  32.801  54.024  1.00  0.00    -0.298 OA
ENDBRANCH  19  25
BRANCH  20  27
ATOM     27  C   UNL     1      67.699  33.468  48.038  1.00  0.00     0.017 C 
ATOM     28  C   UNL     1      67.220  34.549  47.065  1.00  0.00     0.012 C 
ATOM     29  C   UNL     1      69.183  33.660  48.405  1.00  0.00     0.012 C 
ENDBRANCH  20  27
BRANCH  21  30
ATOM     30  O   UNL     1      66.076  35.240  52.423  1.00  0.00    -0.504 OA
ATOM     31  H   UNL     1      66.824  35.378  53.085  1.00  0.00     0.293 HD
ENDBRANCH  21  30
BRANCH  22  32
ATOM     32  O   UNL     1      67.442  35.590  49.938  1.00  0.00    -0.504 OA
ATOM     33  H   UNL     1      67.217  36.221  49.183  1.00  0.00     0.293 HD
ENDBRANCH  22  32
ENDBRANCH  11  12
BRANCH  10  34
ATOM     34  O   UNL     1      61.493  29.889  49.712  1.00  0.00    -0.507 OA
ATOM     35  H   UNL     1      61.621  30.440  48.872  1.00  0.00     0.293 HD
ENDBRANCH  10  34
BRANCH   9  36
ATOM     36  C   UNL     1      62.069  23.753  51.089  1.00  0.00     0.017 C 
ATOM     37  C   UNL     1      62.071  23.412  52.583  1.00  0.00     0.012 C 
ATOM     38  C   UNL     1      61.513  22.586  50.250  1.00  0.00     0.012 C 
ENDBRANCH   9  36
BRANCH   6  39
ATOM     39  C   UNL     1      59.236  28.520  49.335  1.00  0.00     0.264 C 
ATOM     40  O   UNL     1      58.493  29.299  49.988  1.00  0.00    -0.298 OA
ENDBRANCH   6  39
BRANCH   8  41
ATOM     41  O   UNL     1      59.253  24.127  51.523  1.00  0.00    -0.504 OA
ATOM     42  H   UNL     1      58.957  23.295  51.033  1.00  0.00     0.293 HD
ENDBRANCH   8  41
BRANCH   7  43
ATOM     43  O   UNL     1      57.882  26.302  50.309  1.00  0.00    -0.504 OA
ATOM     44  H   UNL     1      57.273  26.976  50.754  1.00  0.00     0.293 HD
ENDBRANCH   7  43
TORSDOF 11
ENDMDL
MODEL 7
REMARK VINA RESULT:    -5.008      6.393     10.062
REMARK INTER + INTRA:          -8.666
REMARK INTER:                  -7.240
REMARK INTRA:                  -1.426
REMARK UNBOUND:                -1.315
REMARK SMILES Cc1cc2c(C(C)C)c(O)c(O)c(C=O)c2c(O)c1-c1c(C)cc2c(C(C)C)c(O)c(O)c(C=O)c2c1O
REMARK SMILES IDX 1 1 2 2 3 3 4 4 16 5 13 6 11 7 9 8 5 9 17 10 19 11 20 12
REMARK SMILES IDX 37 13 21 14 36 15 23 16 22 17 24 18 33 19 25 20 31 21 29 22
REMARK SMILES IDX 38 23 34 25 35 26 26 27 27 28 28 29 32 30 30 32 18 34 6 36
REMARK SMILES IDX 7 37 8 38 14 39 15 40 10 41 12 43
REMARK H PARENT 38 24 32 31 30 33 18 35 10 42 12 44
REMARK Flexibility Score: inf
ROOT
ATOM      1  C   UNL     1      61.272  28.765  54.174  1.00  0.00     0.045 C 
ATOM      2  C   UNL     1      59.875  29.333  54.107  1.00  0.00    -0.039 A 
ATOM      3  C   UNL     1      59.095  29.095  52.974  1.00  0.00     0.013 A 
ATOM      4  C   UNL     1      57.793  29.628  52.837  1.00  0.00    -0.006 A 
ATOM      5  C   UNL     1      57.242  30.379  53.919  1.00  0.00     0.039 A 
ATOM      6  C   UNL     1      55.927  30.913  53.787  1.00  0.00     0.072 A 
ATOM      7  C   UNL     1      55.125  30.541  52.693  1.00  0.00     0.169 A 
ATOM      8  C   UNL     1      55.642  29.712  51.683  1.00  0.00     0.162 A 
ATOM      9  C   UNL     1      57.017  29.390  51.660  1.00  0.00     0.008 A 
ATOM     10  C   UNL     1      58.005  30.532  55.115  1.00  0.00     0.132 A 
ATOM     11  C   UNL     1      59.323  30.034  55.192  1.00  0.00     0.031 A 
ENDROOT
BRANCH  11  12
ATOM     12  C   UNL     1      60.120  30.218  56.434  1.00  0.00     0.031 A 
ATOM     13  C   UNL     1      60.055  29.257  57.466  1.00  0.00     0.132 A 
ATOM     14  C   UNL     1      60.932  31.353  56.583  1.00  0.00    -0.039 A 
ATOM     15  C   UNL     1      60.768  29.458  58.684  1.00  0.00     0.039 A 
ATOM     16  C   UNL     1      61.722  31.489  57.726  1.00  0.00     0.013 A 
ATOM     17  C   UNL     1      60.989  32.416  55.512  1.00  0.00     0.045 C 
ATOM     18  C   UNL     1      61.713  30.522  58.757  1.00  0.00    -0.006 A 
ATOM     19  C   UNL     1      60.586  28.621  59.822  1.00  0.00     0.072 A 
ATOM     20  C   UNL     1      62.605  30.616  59.867  1.00  0.00     0.008 A 
ATOM     21  C   UNL     1      61.376  28.808  60.972  1.00  0.00     0.169 A 
ATOM     22  C   UNL     1      62.359  29.817  61.006  1.00  0.00     0.162 A 
BRANCH  13  23
ATOM     23  O   UNL     1      59.316  28.085  57.266  1.00  0.00    -0.507 OA
ATOM     24  H   UNL     1      58.318  28.014  57.419  1.00  0.00     0.293 HD
ENDBRANCH  13  23
BRANCH  19  25
ATOM     25  C   UNL     1      59.482  27.630  59.900  1.00  0.00     0.264 C 
ATOM     26  O   UNL     1      59.712  26.395  59.819  1.00  0.00    -0.298 OA
ENDBRANCH  19  25
BRANCH  20  27
ATOM     27  C   UNL     1      63.811  31.575  59.851  1.00  0.00     0.017 C 
ATOM     28  C   UNL     1      64.664  31.362  58.597  1.00  0.00     0.012 C 
ATOM     29  C   UNL     1      63.427  33.057  60.024  1.00  0.00     0.012 C 
ENDBRANCH  20  27
BRANCH  21  30
ATOM     30  O   UNL     1      61.148  27.975  62.075  1.00  0.00    -0.504 OA
ATOM     31  H   UNL     1      60.904  26.998  62.021  1.00  0.00     0.293 HD
ENDBRANCH  21  30
BRANCH  22  32
ATOM     32  O   UNL     1      63.083  30.074  62.174  1.00  0.00    -0.504 OA
ATOM     33  H   UNL     1      63.677  30.877  62.325  1.00  0.00     0.293 HD
ENDBRANCH  22  32
ENDBRANCH  11  12
BRANCH  10  34
ATOM     34  O   UNL     1      57.437  31.140  56.242  1.00  0.00    -0.507 OA
ATOM     35  H   UNL     1      57.300  32.139  56.336  1.00  0.00     0.293 HD
ENDBRANCH  10  34
BRANCH   9  36
ATOM     36  C   UNL     1      57.626  28.747  50.400  1.00  0.00     0.017 C 
ATOM     37  C   UNL     1      58.705  29.649  49.792  1.00  0.00     0.012 C 
ATOM     38  C   UNL     1      58.153  27.316  50.621  1.00  0.00     0.012 C 
ENDBRANCH   9  36
BRANCH   6  39
ATOM     39  C   UNL     1      55.390  31.928  54.725  1.00  0.00     0.264 C 
ATOM     40  O   UNL     1      54.515  31.628  55.579  1.00  0.00    -0.298 OA
ENDBRANCH   6  39
BRANCH   8  41
ATOM     41  O   UNL     1      54.802  29.188  50.697  1.00  0.00    -0.504 OA
ATOM     42  H   UNL     1      55.090  29.014  49.744  1.00  0.00     0.293 HD
ENDBRANCH   8  41
BRANCH   7  43
ATOM     43  O   UNL     1      53.825  31.053  52.607  1.00  0.00    -0.504 OA
ATOM     44  H   UNL     1      53.573  31.867  52.064  1.00  0.00     0.293 HD
ENDBRANCH   7  43
TORSDOF 11
ENDMDL
MODEL 8
REMARK VINA RESULT:    -4.994      6.233      7.776
REMARK INTER + INTRA:          -8.645
REMARK INTER:                  -7.503
REMARK INTRA:                  -1.142
REMARK UNBOUND:                -1.315
REMARK SMILES Cc1cc2c(C(C)C)c(O)c(O)c(C=O)c2c(O)c1-c1c(C)cc2c(C(C)C)c(O)c(O)c(C=O)c2c1O
REMARK SMILES IDX 1 1 2 2 3 3 4 4 16 5 13 6 11 7 9 8 5 9 17 10 19 11 20 12
REMARK SMILES IDX 37 13 21 14 36 15 23 16 22 17 24 18 33 19 25 20 31 21 29 22
REMARK SMILES IDX 38 23 34 25 35 26 26 27 27 28 28 29 32 30 30 32 18 34 6 36
REMARK SMILES IDX 7 37 8 38 14 39 15 40 10 41 12 43
REMARK H PARENT 38 24 32 31 30 33 18 35 10 42 12 44
REMARK Flexibility Score: inf
ROOT
ATOM      1  C   UNL     1      61.095  27.336  52.819  1.00  0.00     0.045 C 
ATOM      2  C   UNL     1      61.674  28.449  51.978  1.00  0.00    -0.039 A 
ATOM      3  C   UNL     1      63.053  28.499  51.769  1.00  0.00     0.013 A 
ATOM      4  C   UNL     1      63.658  29.535  51.021  1.00  0.00    -0.006 A 
ATOM      5  C   UNL     1      62.822  30.519  50.411  1.00  0.00     0.039 A 
ATOM      6  C   UNL     1      63.428  31.561  49.650  1.00  0.00     0.072 A 
ATOM      7  C   UNL     1      64.801  31.503  49.350  1.00  0.00     0.169 A 
ATOM      8  C   UNL     1      65.599  30.469  49.868  1.00  0.00     0.162 A 
ATOM      9  C   UNL     1      65.075  29.582  50.834  1.00  0.00     0.008 A 
ATOM     10  C   UNL     1      61.406  30.403  50.543  1.00  0.00     0.132 A 
ATOM     11  C   UNL     1      60.843  29.388  51.346  1.00  0.00     0.031 A 
ENDROOT
BRANCH  11  12
ATOM     12  C   UNL     1      59.367  29.288  51.497  1.00  0.00     0.031 A 
ATOM     13  C   UNL     1      58.707  30.022  52.506  1.00  0.00     0.132 A 
ATOM     14  C   UNL     1      58.630  28.456  50.638  1.00  0.00    -0.039 A 
ATOM     15  C   UNL     1      57.301  29.882  52.695  1.00  0.00     0.039 A 
ATOM     16  C   UNL     1      57.239  28.413  50.749  1.00  0.00     0.013 A 
ATOM     17  C   UNL     1      59.316  27.628  49.578  1.00  0.00     0.045 C 
ATOM     18  C   UNL     1      56.545  29.170  51.719  1.00  0.00    -0.006 A 
ATOM     19  C   UNL     1      56.621  30.449  53.812  1.00  0.00     0.072 A 
ATOM     20  C   UNL     1      55.119  29.204  51.750  1.00  0.00     0.008 A 
ATOM     21  C   UNL     1      55.220  30.357  53.909  1.00  0.00     0.169 A 
ATOM     22  C   UNL     1      54.476  29.714  52.900  1.00  0.00     0.162 A 
BRANCH  13  23
ATOM     23  O   UNL     1      59.440  30.918  53.292  1.00  0.00    -0.507 OA
ATOM     24  H   UNL     1      59.612  30.792  54.281  1.00  0.00     0.293 HD
ENDBRANCH  13  23
BRANCH  19  25
ATOM     25  C   UNL     1      57.355  31.021  54.969  1.00  0.00     0.264 C 
ATOM     26  O   UNL     1      57.405  32.265  55.155  1.00  0.00    -0.298 OA
ENDBRANCH  19  25
BRANCH  20  27
ATOM     27  C   UNL     1      54.277  28.684  50.569  1.00  0.00     0.017 C 
ATOM     28  C   UNL     1      53.892  27.216  50.773  1.00  0.00     0.012 C 
ATOM     29  C   UNL     1      53.041  29.551  50.260  1.00  0.00     0.012 C 
ENDBRANCH  20  27
BRANCH  21  30
ATOM     30  O   UNL     1      54.596  30.910  55.035  1.00  0.00    -0.504 OA
ATOM     31  H   UNL     1      54.498  31.898  55.214  1.00  0.00     0.293 HD
ENDBRANCH  21  30
BRANCH  22  32
ATOM     32  O   UNL     1      53.095  29.532  53.032  1.00  0.00    -0.504 OA
ATOM     33  H   UNL     1      52.523  29.936  53.759  1.00  0.00     0.293 HD
ENDBRANCH  22  32
ENDBRANCH  11  12
BRANCH  10  34
ATOM     34  O   UNL     1      60.558  31.268  49.841  1.00  0.00    -0.507 OA
ATOM     35  H   UNL     1      60.833  32.186  49.512  1.00  0.00     0.293 HD
ENDBRANCH  10  34
BRANCH   9  36
ATOM     36  C   UNL     1      66.029  28.657  51.614  1.00  0.00     0.017 C 
ATOM     37  C   UNL     1      66.571  27.545  50.710  1.00  0.00     0.012 C 
ATOM     38  C   UNL     1      67.172  29.400  52.332  1.00  0.00     0.012 C 
ENDBRANCH   9  36
BRANCH   6  39
ATOM     39  C   UNL     1      62.677  32.767  49.226  1.00  0.00     0.264 C 
ATOM     40  O   UNL     1      62.401  33.684  50.043  1.00  0.00    -0.298 OA
ENDBRANCH   6  39
BRANCH   8  41
ATOM     41  O   UNL     1      66.914  30.299  49.427  1.00  0.00    -0.504 OA
ATOM     42  H   UNL     1      67.318  29.404  49.188  1.00  0.00     0.293 HD
ENDBRANCH   8  41
BRANCH   7  43
ATOM     43  O   UNL     1      65.362  32.523  48.572  1.00  0.00    -0.504 OA
ATOM     44  H   UNL     1      66.108  32.380  47.905  1.00  0.00     0.293 HD
ENDBRANCH   7  43
TORSDOF 11
ENDMDL
MODEL 9
REMARK VINA RESULT:    -4.949      5.544     10.004
REMARK INTER + INTRA:          -8.579
REMARK INTER:                  -7.305
REMARK INTRA:                  -1.274
REMARK UNBOUND:                -1.315
REMARK SMILES Cc1cc2c(C(C)C)c(O)c(O)c(C=O)c2c(O)c1-c1c(C)cc2c(C(C)C)c(O)c(O)c(C=O)c2c1O
REMARK SMILES IDX 1 1 2 2 3 3 4 4 16 5 13 6 11 7 9 8 5 9 17 10 19 11 20 12
REMARK SMILES IDX 37 13 21 14 36 15 23 16 22 17 24 18 33 19 25 20 31 21 29 22
REMARK SMILES IDX 38 23 34 25 35 26 26 27 27 28 28 29 32 30 30 32 18 34 6 36
REMARK SMILES IDX 7 37 8 38 14 39 15 40 10 41 12 43
REMARK H PARENT 38 24 32 31 30 33 18 35 10 42 12 44
REMARK Flexibility Score: inf
ROOT
ATOM      1  C   UNL     1      58.502  29.633  48.888  1.00  0.00     0.045 C 
ATOM      2  C   UNL     1      58.294  29.331  50.353  1.00  0.00    -0.039 A 
ATOM      3  C   UNL     1      56.997  29.136  50.832  1.00  0.00     0.013 A 
ATOM      4  C   UNL     1      56.733  28.886  52.198  1.00  0.00    -0.006 A 
ATOM      5  C   UNL     1      57.836  28.766  53.097  1.00  0.00     0.039 A 
ATOM      6  C   UNL     1      57.575  28.506  54.475  1.00  0.00     0.072 A 
ATOM      7  C   UNL     1      56.272  28.184  54.893  1.00  0.00     0.169 A 
ATOM      8  C   UNL     1      55.207  28.200  53.977  1.00  0.00     0.162 A 
ATOM      9  C   UNL     1      55.397  28.710  52.673  1.00  0.00     0.008 A 
ATOM     10  C   UNL     1      59.163  28.864  52.583  1.00  0.00     0.132 A 
ATOM     11  C   UNL     1      59.384  29.171  51.224  1.00  0.00     0.031 A 
ENDROOT
BRANCH  11  12
ATOM     12  C   UNL     1      60.771  29.294  50.701  1.00  0.00     0.031 A 
ATOM     13  C   UNL     1      61.401  30.556  50.654  1.00  0.00     0.132 A 
ATOM     14  C   UNL     1      61.450  28.153  50.246  1.00  0.00    -0.039 A 
ATOM     15  C   UNL     1      62.707  30.689  50.097  1.00  0.00     0.039 A 
ATOM     16  C   UNL     1      62.772  28.267  49.812  1.00  0.00     0.013 A 
ATOM     17  C   UNL     1      60.784  26.798  50.246  1.00  0.00     0.045 C 
ATOM     18  C   UNL     1      63.446  29.509  49.795  1.00  0.00    -0.006 A 
ATOM     19  C   UNL     1      63.306  31.958  49.853  1.00  0.00     0.072 A 
ATOM     20  C   UNL     1      64.830  29.596  49.455  1.00  0.00     0.008 A 
ATOM     21  C   UNL     1      64.630  32.036  49.382  1.00  0.00     0.169 A 
ATOM     22  C   UNL     1      65.378  30.863  49.157  1.00  0.00     0.162 A 
BRANCH  13  23
ATOM     23  O   UNL     1      60.748  31.669  51.198  1.00  0.00    -0.507 OA
ATOM     24  H   UNL     1      59.742  31.769  51.237  1.00  0.00     0.293 HD
ENDBRANCH  13  23
BRANCH  19  25
ATOM     25  C   UNL     1      62.533  33.222  49.943  1.00  0.00     0.264 C 
ATOM     26  O   UNL     1      61.949  33.700  48.935  1.00  0.00    -0.298 OA
ENDBRANCH  19  25
BRANCH  20  27
ATOM     27  C   UNL     1      65.722  28.342  49.394  1.00  0.00     0.017 C 
ATOM     28  C   UNL     1      66.037  27.962  47.944  1.00  0.00     0.012 C 
ATOM     29  C   UNL     1      67.007  28.453  50.237  1.00  0.00     0.012 C 
ENDBRANCH  20  27
BRANCH  21  30
ATOM     30  O   UNL     1      65.173  33.305  49.136  1.00  0.00    -0.504 OA
ATOM     31  H   UNL     1      64.803  34.171  49.498  1.00  0.00     0.293 HD
ENDBRANCH  21  30
BRANCH  22  32
ATOM     32  O   UNL     1      66.659  30.925  48.599  1.00  0.00    -0.504 OA
ATOM     33  H   UNL     1      67.359  30.200  48.669  1.00  0.00     0.293 HD
ENDBRANCH  22  32
ENDBRANCH  11  12
BRANCH  10  34
ATOM     34  O   UNL     1      60.262  28.610  53.413  1.00  0.00    -0.507 OA
ATOM     35  H   UNL     1      60.828  29.333  53.840  1.00  0.00     0.293 HD
ENDBRANCH  10  34
BRANCH   9  36
ATOM     36  C   UNL     1      54.173  29.006  51.787  1.00  0.00     0.017 C 
ATOM     37  C   UNL     1      54.052  30.507  51.506  1.00  0.00     0.012 C 
ATOM     38  C   UNL     1      54.132  28.188  50.482  1.00  0.00     0.012 C 
ENDBRANCH   9  36
BRANCH   6  39
ATOM     39  C   UNL     1      58.622  28.647  55.516  1.00  0.00     0.264 C 
ATOM     40  O   UNL     1      59.119  27.637  56.080  1.00  0.00    -0.298 OA
ENDBRANCH   6  39
BRANCH   8  41
ATOM     41  O   UNL     1      53.952  27.704  54.339  1.00  0.00    -0.504 OA
ATOM     42  H   UNL     1      53.083  28.005  53.920  1.00  0.00     0.293 HD
ENDBRANCH   8  41
BRANCH   7  43
ATOM     43  O   UNL     1      56.051  27.900  56.246  1.00  0.00    -0.504 OA
ATOM     44  H   UNL     1      56.209  28.559  56.996  1.00  0.00     0.293 HD
ENDBRANCH   7  43
TORSDOF 11
ENDMDL
