MODEL 1
REMARK VINA RESULT:    -2.124      0.000      0.000
REMARK INTER + INTRA:          -1.748
REMARK INTER:                  -2.620
REMARK INTRA:                   0.872
REMARK UNBOUND:                 0.872
REMARK SMILES CC1=CC=CC(C)(C)CC1=O
REMARK SMILES IDX 1 1 2 2 3 3 10 4 11 5 9 6 4 8 5 9 6 10 7 11 8 12
REMARK H PARENT
REMARK Flexibility Score: 80.00
ROOT
ATOM      1  C   UNL     1       7.632  17.556   2.122  1.00  0.00     0.048 C 
ATOM      2  C   UNL     1       8.887  16.721   2.006  1.00  0.00    -0.008 C 
ATOM      3  C   UNL     1      10.068  17.370   1.912  1.00  0.00     0.007 C 
ENDROOT
BRANCH   2   4
ATOM      4  C   UNL     1       8.716  15.245   2.063  1.00  0.00     0.159 C 
ATOM      5  O   UNL     1       7.545  14.775   2.101  1.00  0.00    -0.295 OA
BRANCH   4   6
ATOM      6  C   UNL     1       9.853  14.269   2.116  1.00  0.00     0.091 CG0
ATOM      7  G   UNL     1      10.889  14.450   0.985  1.00  0.00     0.000 G0
ENDBRANCH   4   6
ENDBRANCH   2   4
BRANCH   3   8
ATOM      8  C   UNL     1      11.439  16.825   1.778  1.00  0.00    -0.003 C 
ATOM      9  C   UNL     1      11.817  15.607   1.372  1.00  0.00    -0.020 C 
BRANCH   9  10
ATOM     10  C   UNL     1      10.899  14.463   1.016  1.00  0.00    -0.010 CG0
ATOM     11  C   UNL     1      11.748  13.175   0.917  1.00  0.00     0.016 C 
ATOM     12  C   UNL     1      10.246  14.707  -0.363  1.00  0.00     0.016 C 
ATOM     13  G   UNL     1       9.860  14.268   2.143  1.00  0.00     0.000 G0
ENDBRANCH   9  10
ENDBRANCH   3   8
TORSDOF 0
ENDMDL
MODEL 2
REMARK VINA RESULT:     0.440      1.623      2.306
REMARK INTER + INTRA:           1.414
REMARK INTER:                   0.568
REMARK INTRA:                   0.847
REMARK UNBOUND:                 0.872
REMARK SMILES CC1=CC=CC(C)(C)CC1=O
REMARK SMILES IDX 1 1 2 2 3 3 10 4 11 5 9 6 4 8 5 9 6 10 7 11 8 12
REMARK H PARENT
REMARK Flexibility Score: 80.00
ROOT
ATOM      1  C   UNL     1      11.535  18.211   2.125  1.00  0.00     0.048 C 
ATOM      2  C   UNL     1      11.317  16.757   1.774  1.00  0.00    -0.008 C 
ATOM      3  C   UNL     1      12.280  15.875   2.117  1.00  0.00     0.007 C 
ENDROOT
BRANCH   2   4
ATOM      4  C   UNL     1      10.024  16.412   1.125  1.00  0.00     0.159 C 
ATOM      5  O   UNL     1       9.193  17.338   0.908  1.00  0.00    -0.295 OA
BRANCH   4   6
ATOM      6  C   UNL     1       9.621  15.020   0.741  1.00  0.00     0.091 CG0
ATOM      7  G   UNL     1      10.722  14.231  -0.003  1.00  0.00     0.000 G0
ENDBRANCH   4   6
ENDBRANCH   2   4
BRANCH   3   8
ATOM      8  C   UNL     1      12.346  14.412   1.896  1.00  0.00    -0.003 C 
ATOM      9  C   UNL     1      11.710  13.677   0.976  1.00  0.00    -0.020 C 
BRANCH   9  10
ATOM     10  C   UNL     1      10.701  14.184  -0.026  1.00  0.00    -0.010 CG0
ATOM     11  C   UNL     1      10.003  12.964  -0.669  1.00  0.00     0.016 C 
ATOM     12  C   UNL     1      11.411  14.972  -1.151  1.00  0.00     0.016 C 
ATOM     13  G   UNL     1       9.628  15.023   0.704  1.00  0.00     0.000 G0
ENDBRANCH   9  10
ENDBRANCH   3   8
TORSDOF 0
ENDMDL
