MODEL 1
REMARK VINA RESULT:    -2.942      0.000      0.000
REMARK INTER + INTRA:          -4.496
REMARK INTER:                  -3.974
REMARK INTRA:                  -0.521
REMARK UNBOUND:                -0.521
REMARK SMILES CCCCCCCC(=O)[O-]
REMARK SMILES IDX 5 1 6 2 7 3 8 4 9 5 10 6 4 7 3 8 2 9 1 10
REMARK H PARENT
REMARK Flexibility Score: inf
ROOT
ATOM      1  C   UNL     1      -2.429   9.039  38.835  1.00  0.00     0.000 C 
ENDROOT
BRANCH   1   2
ATOM      2  C   UNL     1      -1.842   8.593  37.491  1.00  0.00     0.006 C 
BRANCH   2   3
ATOM      3  C   UNL     1      -1.130   7.244  37.623  1.00  0.00     0.053 C 
BRANCH   3   4
ATOM      4  C   UNL     1      -1.965   6.150  37.035  1.00  0.00     0.041 C 
ATOM      5  O   UNL     1      -2.282   5.150  37.732  1.00  0.00    -0.550 OA
ATOM      6  O   UNL     1      -2.352   6.211  35.703  1.00  0.00    -0.550 OA
ENDBRANCH   3   4
ENDBRANCH   2   3
ENDBRANCH   1   2
BRANCH   1   7
ATOM      7  C   UNL     1      -1.579   8.523  40.005  1.00  0.00     0.000 C 
BRANCH   7   8
ATOM      8  C   UNL     1      -2.421   7.834  41.091  1.00  0.00    -0.000 C 
BRANCH   8   9
ATOM      9  C   UNL     1      -3.862   7.559  40.636  1.00  0.00    -0.003 C 
ATOM     10  C   UNL     1      -4.116   6.061  40.491  1.00  0.00     0.004 C 
ENDBRANCH   8   9
ENDBRANCH   7   8
ENDBRANCH   1   7
TORSDOF 6
ENDMDL
MODEL 2
REMARK VINA RESULT:    -2.864      1.454      3.694
REMARK INTER + INTRA:          -4.390
REMARK INTER:                  -3.906
REMARK INTRA:                  -0.484
REMARK UNBOUND:                -0.521
REMARK SMILES CCCCCCCC(=O)[O-]
REMARK SMILES IDX 5 1 6 2 7 3 8 4 9 5 10 6 4 7 3 8 2 9 1 10
REMARK H PARENT
REMARK Flexibility Score: inf
ROOT
ATOM      1  C   UNL     1      -1.732   8.435  39.989  1.00  0.00     0.000 C 
ENDROOT
BRANCH   1   2
ATOM      2  C   UNL     1      -2.579   7.863  41.132  1.00  0.00     0.006 C 
BRANCH   2   3
ATOM      3  C   UNL     1      -3.910   7.315  40.610  1.00  0.00     0.053 C 
BRANCH   3   4
ATOM      4  C   UNL     1      -3.815   5.840  40.378  1.00  0.00     0.041 C 
ATOM      5  O   UNL     1      -4.169   5.033  41.277  1.00  0.00    -0.550 OA
ATOM      6  O   UNL     1      -3.290   5.357  39.186  1.00  0.00    -0.550 OA
ENDBRANCH   3   4
ENDBRANCH   2   3
ENDBRANCH   1   2
BRANCH   1   7
ATOM      7  C   UNL     1      -2.622   9.071  38.911  1.00  0.00     0.000 C 
BRANCH   7   8
ATOM      8  C   UNL     1      -2.011   8.971  37.504  1.00  0.00    -0.000 C 
BRANCH   8   9
ATOM      9  C   UNL     1      -1.208   7.678  37.298  1.00  0.00    -0.003 C 
ATOM     10  C   UNL     1      -1.863   6.786  36.247  1.00  0.00     0.004 C 
ENDBRANCH   8   9
ENDBRANCH   7   8
ENDBRANCH   1   7
TORSDOF 6
ENDMDL
MODEL 3
REMARK VINA RESULT:    -2.783      2.779      4.238
REMARK INTER + INTRA:          -4.280
REMARK INTER:                  -3.846
REMARK INTRA:                  -0.434
REMARK UNBOUND:                -0.521
REMARK SMILES CCCCCCCC(=O)[O-]
REMARK SMILES IDX 5 1 6 2 7 3 8 4 9 5 10 6 4 7 3 8 2 9 1 10
REMARK H PARENT
REMARK Flexibility Score: inf
ROOT
ATOM      1  C   UNL     1      -2.580   9.125  38.761  1.00  0.00     0.000 C 
ENDROOT
BRANCH   1   2
ATOM      2  C   UNL     1      -2.319   8.275  40.010  1.00  0.00     0.006 C 
BRANCH   2   3
ATOM      3  C   UNL     1      -3.617   7.659  40.538  1.00  0.00     0.053 C 
BRANCH   3   4
ATOM      4  C   UNL     1      -3.453   7.230  41.962  1.00  0.00     0.041 C 
ATOM      5  O   UNL     1      -2.834   7.964  42.778  1.00  0.00    -0.550 OA
ATOM      6  O   UNL     1      -3.940   5.999  42.377  1.00  0.00    -0.550 OA
ENDBRANCH   3   4
ENDBRANCH   2   3
ENDBRANCH   1   2
BRANCH   1   7
ATOM      7  C   UNL     1      -1.634   8.728  37.618  1.00  0.00     0.000 C 
BRANCH   7   8
ATOM      8  C   UNL     1      -1.053   7.316  37.792  1.00  0.00    -0.000 C 
BRANCH   8   9
ATOM      9  C   UNL     1      -1.801   6.262  36.962  1.00  0.00    -0.003 C 
ATOM     10  C   UNL     1      -2.270   5.105  37.839  1.00  0.00     0.004 C 
ENDBRANCH   8   9
ENDBRANCH   7   8
ENDBRANCH   1   7
TORSDOF 6
ENDMDL
MODEL 4
REMARK VINA RESULT:    -2.767      2.049      2.320
REMARK INTER + INTRA:          -4.259
REMARK INTER:                  -3.751
REMARK INTRA:                  -0.507
REMARK UNBOUND:                -0.521
REMARK SMILES CCCCCCCC(=O)[O-]
REMARK SMILES IDX 5 1 6 2 7 3 8 4 9 5 10 6 4 7 3 8 2 9 1 10
REMARK H PARENT
REMARK Flexibility Score: inf
ROOT
ATOM      1  C   UNL     1      -2.749   8.917  39.002  1.00  0.00     0.000 C 
ENDROOT
BRANCH   1   2
ATOM      2  C   UNL     1      -1.395   9.125  38.313  1.00  0.00     0.006 C 
BRANCH   2   3
ATOM      3  C   UNL     1      -0.967   7.869  37.550  1.00  0.00     0.053 C 
BRANCH   3   4
ATOM      4  C   UNL     1       0.389   7.421  37.996  1.00  0.00     0.041 C 
ATOM      5  O   UNL     1       0.737   7.554  39.199  1.00  0.00    -0.550 OA
ATOM      6  O   UNL     1       1.287   6.901  37.073  1.00  0.00    -0.550 OA
ENDBRANCH   3   4
ENDBRANCH   2   3
ENDBRANCH   1   2
BRANCH   1   7
ATOM      7  C   UNL     1      -2.599   8.044  40.257  1.00  0.00     0.000 C 
BRANCH   7   8
ATOM      8  C   UNL     1      -3.875   7.251  40.583  1.00  0.00    -0.000 C 
BRANCH   8   9
ATOM      9  C   UNL     1      -3.793   5.786  40.130  1.00  0.00    -0.003 C 
ATOM     10  C   UNL     1      -2.342   5.345  39.955  1.00  0.00     0.004 C 
ENDBRANCH   8   9
ENDBRANCH   7   8
ENDBRANCH   1   7
TORSDOF 6
ENDMDL
MODEL 5
REMARK VINA RESULT:    -2.747      2.043      2.294
REMARK INTER + INTRA:          -4.232
REMARK INTER:                  -3.892
REMARK INTRA:                  -0.340
REMARK UNBOUND:                -0.521
REMARK SMILES CCCCCCCC(=O)[O-]
REMARK SMILES IDX 5 1 6 2 7 3 8 4 9 5 10 6 4 7 3 8 2 9 1 10
REMARK H PARENT
REMARK Flexibility Score: inf
ROOT
ATOM      1  C   UNL     1      -1.685   8.207  37.792  1.00  0.00     0.000 C 
ENDROOT
BRANCH   1   2
ATOM      2  C   UNL     1      -0.599   7.265  38.323  1.00  0.00     0.006 C 
BRANCH   2   3
ATOM      3  C   UNL     1       0.768   7.609  37.726  1.00  0.00     0.053 C 
BRANCH   3   4
ATOM      4  C   UNL     1       1.223   6.526  36.799  1.00  0.00     0.041 C 
ATOM      5  O   UNL     1       2.115   5.714  37.162  1.00  0.00    -0.550 OA
ATOM      6  O   UNL     1       0.698   6.444  35.517  1.00  0.00    -0.550 OA
ENDBRANCH   3   4
ENDBRANCH   2   3
ENDBRANCH   1   2
BRANCH   1   7
ATOM      7  C   UNL     1      -2.409   8.918  38.945  1.00  0.00     0.000 C 
BRANCH   7   8
ATOM      8  C   UNL     1      -2.460   8.069  40.225  1.00  0.00    -0.000 C 
BRANCH   8   9
ATOM      9  C   UNL     1      -3.875   7.567  40.546  1.00  0.00    -0.003 C 
ATOM     10  C   UNL     1      -3.951   6.045  40.460  1.00  0.00     0.004 C 
ENDBRANCH   8   9
ENDBRANCH   7   8
ENDBRANCH   1   7
TORSDOF 6
ENDMDL
MODEL 6
REMARK VINA RESULT:    -2.725      2.604      4.388
REMARK INTER + INTRA:          -4.202
REMARK INTER:                  -3.725
REMARK INTRA:                  -0.477
REMARK UNBOUND:                -0.521
REMARK SMILES CCCCCCCC(=O)[O-]
REMARK SMILES IDX 5 1 6 2 7 3 8 4 9 5 10 6 4 7 3 8 2 9 1 10
REMARK H PARENT
REMARK Flexibility Score: inf
ROOT
ATOM      1  C   UNL     1      -1.807   8.192  37.804  1.00  0.00     0.000 C 
ENDROOT
BRANCH   1   2
ATOM      2  C   UNL     1      -2.367   8.873  39.059  1.00  0.00     0.006 C 
BRANCH   2   3
ATOM      3  C   UNL     1      -1.919   8.142  40.328  1.00  0.00     0.053 C 
BRANCH   3   4
ATOM      4  C   UNL     1      -3.104   7.735  41.144  1.00  0.00     0.041 C 
ATOM      5  O   UNL     1      -3.104   7.909  42.392  1.00  0.00    -0.550 OA
ATOM      6  O   UNL     1      -4.189   7.120  40.535  1.00  0.00    -0.550 OA
ENDBRANCH   3   4
ENDBRANCH   2   3
ENDBRANCH   1   2
BRANCH   1   7
ATOM      7  C   UNL     1      -0.843   9.125  37.056  1.00  0.00     0.000 C 
BRANCH   7   8
ATOM      8  C   UNL     1       0.620   8.934  37.486  1.00  0.00    -0.000 C 
BRANCH   8   9
ATOM      9  C   UNL     1       0.986   7.458  37.697  1.00  0.00    -0.003 C 
ATOM     10  C   UNL     1       1.543   7.225  39.099  1.00  0.00     0.004 C 
ENDBRANCH   8   9
ENDBRANCH   7   8
ENDBRANCH   1   7
TORSDOF 6
ENDMDL
MODEL 7
REMARK VINA RESULT:    -2.641     10.076     12.107
REMARK INTER + INTRA:          -4.089
REMARK INTER:                  -3.765
REMARK INTRA:                  -0.324
REMARK UNBOUND:                -0.521
REMARK SMILES CCCCCCCC(=O)[O-]
REMARK SMILES IDX 5 1 6 2 7 3 8 4 9 5 10 6 4 7 3 8 2 9 1 10
REMARK H PARENT
REMARK Flexibility Score: inf
ROOT
ATOM      1  C   UNL     1       2.866   9.109  28.087  1.00  0.00     0.000 C 
ENDROOT
BRANCH   1   2
ATOM      2  C   UNL     1       1.422   8.736  28.442  1.00  0.00     0.006 C 
BRANCH   2   3
ATOM      3  C   UNL     1       1.144   8.968  29.930  1.00  0.00     0.053 C 
BRANCH   3   4
ATOM      4  C   UNL     1       1.107   7.666  30.666  1.00  0.00     0.041 C 
ATOM      5  O   UNL     1       0.799   7.637  31.887  1.00  0.00    -0.550 OA
ATOM      6  O   UNL     1       1.462   6.491  30.017  1.00  0.00    -0.550 OA
ENDBRANCH   3   4
ENDBRANCH   2   3
ENDBRANCH   1   2
BRANCH   1   7
ATOM      7  C   UNL     1       3.254   8.552  26.709  1.00  0.00     0.000 C 
BRANCH   7   8
ATOM      8  C   UNL     1       2.391   9.123  25.574  1.00  0.00    -0.000 C 
BRANCH   8   9
ATOM      9  C   UNL     1       1.710   8.028  24.740  1.00  0.00    -0.003 C 
ATOM     10  C   UNL     1       0.200   8.025  24.965  1.00  0.00     0.004 C 
ENDBRANCH   8   9
ENDBRANCH   7   8
ENDBRANCH   1   7
TORSDOF 6
ENDMDL
MODEL 8
REMARK VINA RESULT:    -2.632      3.291      4.814
REMARK INTER + INTRA:          -4.077
REMARK INTER:                  -3.526
REMARK INTRA:                  -0.551
REMARK UNBOUND:                -0.521
REMARK SMILES CCCCCCCC(=O)[O-]
REMARK SMILES IDX 5 1 6 2 7 3 8 4 9 5 10 6 4 7 3 8 2 9 1 10
REMARK H PARENT
REMARK Flexibility Score: inf
ROOT
ATOM      1  C   UNL     1      -2.734   5.803  39.387  1.00  0.00     0.000 C 
ENDROOT
BRANCH   1   2
ATOM      2  C   UNL     1      -3.706   5.943  40.565  1.00  0.00     0.006 C 
BRANCH   2   3
ATOM      3  C   UNL     1      -3.902   7.414  40.943  1.00  0.00     0.053 C 
BRANCH   3   4
ATOM      4  C   UNL     1      -3.707   7.608  42.414  1.00  0.00     0.041 C 
ATOM      5  O   UNL     1      -4.643   8.065  43.123  1.00  0.00    -0.550 OA
ATOM      6  O   UNL     1      -2.477   7.329  42.994  1.00  0.00    -0.550 OA
ENDBRANCH   3   4
ENDBRANCH   2   3
ENDBRANCH   1   2
BRANCH   1   7
ATOM      7  C   UNL     1      -2.101   7.156  39.032  1.00  0.00     0.000 C 
BRANCH   7   8
ATOM      8  C   UNL     1      -0.565   7.120  39.067  1.00  0.00    -0.000 C 
BRANCH   8   9
ATOM      9  C   UNL     1      -0.003   7.258  40.490  1.00  0.00    -0.003 C 
ATOM     10  C   UNL     1       0.028   8.719  40.929  1.00  0.00     0.004 C 
ENDBRANCH   8   9
ENDBRANCH   7   8
ENDBRANCH   1   7
TORSDOF 6
ENDMDL
