MODEL 1
REMARK VINA RESULT:    -4.947      0.000      0.000
REMARK INTER + INTRA:          -7.330
REMARK INTER:                  -7.550
REMARK INTRA:                   0.220
REMARK UNBOUND:                 0.220
REMARK SMILES CC1=CCC[C@H](C)C(=O)C[C@@H](C(C)C)C(=O)C1
REMARK SMILES IDX 8 1 9 2 6 3 7 4 5 5 4 6 3 7 2 8 1 9 10 11 11 12 15 13 16 14
REMARK SMILES IDX 17 15 12 17 13 18 14 19
REMARK H PARENT
REMARK Flexibility Score: 70.00
ROOT
ATOM      1  C   UNL     1     -12.570 -33.855  29.316  1.00  0.00     0.136 C 
ATOM      2  O   UNL     1     -11.456 -33.368  29.448  1.00  0.00    -0.299 OA
ENDROOT
BRANCH   1   3
ATOM      3  C   UNL     1     -12.885 -34.708  28.104  1.00  0.00     0.053 C 
ATOM      4  C   UNL     1     -12.150 -34.143  26.885  1.00  0.00     0.016 C 
BRANCH   3   5
ATOM      5  C   UNL     1     -12.517 -36.198  28.307  1.00  0.00     0.015 C 
BRANCH   5   6
ATOM      6  C   UNL     1     -13.634 -37.029  28.964  1.00  0.00     0.028 C 
BRANCH   6   7
ATOM      7  C   UNL     1     -13.087 -37.943  30.034  1.00  0.00    -0.028 C 
ATOM      8  C   UNL     1     -13.077 -37.682  31.361  1.00  0.00    -0.070 CG0
ATOM      9  C   UNL     1     -12.491 -38.723  32.283  1.00  0.00     0.039 C 
ATOM     10  G   UNL     1     -13.620 -36.397  31.955  1.00  0.00     0.000 G0
ENDBRANCH   6   7
ENDBRANCH   5   6
ENDBRANCH   3   5
ENDBRANCH   1   3
BRANCH   1  11
ATOM     11  C   UNL     1     -13.639 -33.536  30.334  1.00  0.00     0.087 C 
BRANCH  11  12
ATOM     12  C   UNL     1     -13.155 -33.798  31.778  1.00  0.00     0.066 C 
BRANCH  12  13
ATOM     13  C   UNL     1     -12.670 -35.233  31.933  1.00  0.00     0.140 C 
ATOM     14  O   UNL     1     -11.472 -35.463  32.016  1.00  0.00    -0.299 OA
BRANCH  13  15
ATOM     15  C   UNL     1     -13.635 -36.392  31.970  1.00  0.00     0.106 CG0
ATOM     16  G   UNL     1     -13.052 -37.649  31.353  1.00  0.00     0.000 G0
ENDBRANCH  13  15
ENDBRANCH  12  13
BRANCH  12  17
ATOM     17  C   UNL     1     -14.227 -33.402  32.839  1.00  0.00    -0.006 C 
ATOM     18  C   UNL     1     -15.262 -32.431  32.251  1.00  0.00     0.008 C 
ATOM     19  C   UNL     1     -13.646 -32.824  34.141  1.00  0.00     0.008 C 
ENDBRANCH  12  17
ENDBRANCH  11  12
ENDBRANCH   1  11
TORSDOF 1
ENDMDL
MODEL 2
REMARK VINA RESULT:    -4.205      1.723      3.971
REMARK INTER + INTRA:          -6.197
REMARK INTER:                  -5.943
REMARK INTRA:                  -0.254
REMARK UNBOUND:                 0.220
REMARK SMILES CC1=CCC[C@H](C)C(=O)C[C@@H](C(C)C)C(=O)C1
REMARK SMILES IDX 8 1 9 2 6 3 7 4 5 5 4 6 3 7 2 8 1 9 10 11 11 12 15 13 16 14
REMARK SMILES IDX 17 15 12 17 13 18 14 19
REMARK H PARENT
REMARK Flexibility Score: 70.00
ROOT
ATOM      1  C   UNL     1     -10.887 -34.131  29.946  1.00  0.00     0.136 C 
ATOM      2  O   UNL     1     -10.387 -33.133  29.449  1.00  0.00    -0.299 OA
ENDROOT
BRANCH   1   3
ATOM      3  C   UNL     1     -11.139 -34.188  31.439  1.00  0.00     0.053 C 
ATOM      4  C   UNL     1      -9.998 -33.476  32.171  1.00  0.00     0.016 C 
BRANCH   3   5
ATOM      5  C   UNL     1     -12.500 -33.571  31.843  1.00  0.00     0.015 C 
BRANCH   5   6
ATOM      6  C   UNL     1     -13.602 -34.614  32.104  1.00  0.00     0.028 C 
BRANCH   6   7
ATOM      7  C   UNL     1     -13.020 -35.988  32.334  1.00  0.00    -0.028 C 
ATOM      8  C   UNL     1     -13.209 -37.065  31.537  1.00  0.00    -0.070 CG0
ATOM      9  C   UNL     1     -12.538 -38.360  31.925  1.00  0.00     0.039 C 
ATOM     10  G   UNL     1     -14.061 -37.027  30.282  1.00  0.00     0.000 G0
ENDBRANCH   6   7
ENDBRANCH   5   6
ENDBRANCH   3   5
ENDBRANCH   1   3
BRANCH   1  11
ATOM     11  C   UNL     1     -11.184 -35.324  29.067  1.00  0.00     0.087 C 
BRANCH  11  12
ATOM     12  C   UNL     1     -12.683 -35.414  28.704  1.00  0.00     0.066 C 
BRANCH  12  13
ATOM     13  C   UNL     1     -13.235 -36.793  29.033  1.00  0.00     0.140 C 
ATOM     14  O   UNL     1     -13.035 -37.726  28.268  1.00  0.00    -0.299 OA
BRANCH  13  15
ATOM     15  C   UNL     1     -14.046 -37.041  30.281  1.00  0.00     0.106 CG0
ATOM     16  G   UNL     1     -13.188 -37.057  31.532  1.00  0.00     0.000 G0
ENDBRANCH  13  15
ENDBRANCH  12  13
BRANCH  12  17
ATOM     17  C   UNL     1     -12.958 -34.985  27.231  1.00  0.00    -0.006 C 
ATOM     18  C   UNL     1     -11.665 -34.975  26.402  1.00  0.00     0.008 C 
ATOM     19  C   UNL     1     -13.682 -33.635  27.089  1.00  0.00     0.008 C 
ENDBRANCH  12  17
ENDBRANCH  11  12
ENDBRANCH   1  11
TORSDOF 1
ENDMDL
MODEL 3
REMARK VINA RESULT:    -4.140      1.981      4.660
REMARK INTER + INTRA:          -6.099
REMARK INTER:                  -6.283
REMARK INTRA:                   0.184
REMARK UNBOUND:                 0.220
REMARK SMILES CC1=CCC[C@H](C)C(=O)C[C@@H](C(C)C)C(=O)C1
REMARK SMILES IDX 8 1 9 2 6 3 7 4 5 5 4 6 3 7 2 8 1 9 10 11 11 12 15 13 16 14
REMARK SMILES IDX 17 15 12 17 13 18 14 19
REMARK H PARENT
REMARK Flexibility Score: 70.00
ROOT
ATOM      1  C   UNL     1     -13.112 -37.141  29.350  1.00  0.00     0.136 C 
ATOM      2  O   UNL     1     -13.256 -38.211  28.779  1.00  0.00    -0.299 OA
ENDROOT
BRANCH   1   3
ATOM      3  C   UNL     1     -12.464 -37.094  30.719  1.00  0.00     0.053 C 
ATOM      4  C   UNL     1     -12.777 -38.392  31.470  1.00  0.00     0.016 C 
BRANCH   3   5
ATOM      5  C   UNL     1     -10.934 -36.870  30.651  1.00  0.00     0.015 C 
BRANCH   5   6
ATOM      6  C   UNL     1     -10.419 -35.800  31.631  1.00  0.00     0.028 C 
BRANCH   6   7
ATOM      7  C   UNL     1     -11.553 -35.147  32.385  1.00  0.00    -0.028 C 
ATOM      8  C   UNL     1     -12.230 -34.046  31.987  1.00  0.00    -0.070 CG0
ATOM      9  C   UNL     1     -13.342 -33.541  32.873  1.00  0.00     0.039 C 
ATOM     10  G   UNL     1     -11.918 -33.302  30.703  1.00  0.00     0.000 G0
ENDBRANCH   6   7
ENDBRANCH   5   6
ENDBRANCH   3   5
ENDBRANCH   1   3
BRANCH   1  11
ATOM     11  C   UNL     1     -13.650 -35.884  28.707  1.00  0.00     0.087 C 
BRANCH  11  12
ATOM     12  C   UNL     1     -12.570 -34.783  28.602  1.00  0.00     0.066 C 
BRANCH  12  13
ATOM     13  C   UNL     1     -12.859 -33.650  29.576  1.00  0.00     0.140 C 
ATOM     14  O   UNL     1     -13.877 -32.984  29.447  1.00  0.00    -0.299 OA
BRANCH  13  15
ATOM     15  C   UNL     1     -11.908 -33.311  30.697  1.00  0.00     0.106 CG0
ATOM     16  G   UNL     1     -12.241 -34.049  31.979  1.00  0.00     0.000 G0
ENDBRANCH  13  15
ENDBRANCH  12  13
BRANCH  12  17
ATOM     17  C   UNL     1     -12.373 -34.290  27.136  1.00  0.00    -0.006 C 
ATOM     18  C   UNL     1     -13.709 -34.245  26.379  1.00  0.00     0.008 C 
ATOM     19  C   UNL     1     -11.340 -35.096  26.330  1.00  0.00     0.008 C 
ENDBRANCH  12  17
ENDBRANCH  11  12
ENDBRANCH   1  11
TORSDOF 1
ENDMDL
MODEL 4
REMARK VINA RESULT:    -4.115      1.802      2.842
REMARK INTER + INTRA:          -6.061
REMARK INTER:                  -6.674
REMARK INTRA:                   0.613
REMARK UNBOUND:                 0.220
REMARK SMILES CC1=CCC[C@H](C)C(=O)C[C@@H](C(C)C)C(=O)C1
REMARK SMILES IDX 8 1 9 2 6 3 7 4 5 5 4 6 3 7 2 8 1 9 10 11 11 12 15 13 16 14
REMARK SMILES IDX 17 15 12 17 13 18 14 19
REMARK H PARENT
REMARK Flexibility Score: 70.00
ROOT
ATOM      1  C   UNL     1     -13.999 -33.183  30.656  1.00  0.00     0.136 C 
ATOM      2  O   UNL     1     -14.621 -32.216  31.071  1.00  0.00    -0.299 OA
ENDROOT
BRANCH   1   3
ATOM      3  C   UNL     1     -13.675 -33.299  29.180  1.00  0.00     0.053 C 
ATOM      4  C   UNL     1     -14.264 -32.095  28.439  1.00  0.00     0.016 C 
BRANCH   3   5
ATOM      5  C   UNL     1     -12.156 -33.407  28.905  1.00  0.00     0.015 C 
BRANCH   5   6
ATOM      6  C   UNL     1     -11.764 -34.623  28.046  1.00  0.00     0.028 C 
BRANCH   6   7
ATOM      7  C   UNL     1     -12.815 -35.706  28.108  1.00  0.00    -0.028 C 
ATOM      8  C   UNL     1     -12.824 -36.742  28.977  1.00  0.00    -0.070 CG0
ATOM      9  C   UNL     1     -13.965 -37.726  28.893  1.00  0.00     0.039 C 
ATOM     10  G   UNL     1     -11.744 -36.958  30.020  1.00  0.00     0.000 G0
ENDBRANCH   6   7
ENDBRANCH   5   6
ENDBRANCH   3   5
ENDBRANCH   1   3
BRANCH   1  11
ATOM     11  C   UNL     1     -13.622 -34.286  31.618  1.00  0.00     0.087 C 
BRANCH  11  12
ATOM     12  C   UNL     1     -12.159 -34.743  31.426  1.00  0.00     0.066 C 
BRANCH  12  13
ATOM     13  C   UNL     1     -12.076 -36.260  31.332  1.00  0.00     0.140 C 
ATOM     14  O   UNL     1     -12.271 -36.941  32.329  1.00  0.00    -0.299 OA
BRANCH  13  15
ATOM     15  C   UNL     1     -11.741 -36.953  30.034  1.00  0.00     0.106 CG0
ATOM     16  G   UNL     1     -12.819 -36.762  28.984  1.00  0.00     0.000 G0
ENDBRANCH  13  15
ENDBRANCH  12  13
BRANCH  12  17
ATOM     17  C   UNL     1     -11.210 -34.149  32.511  1.00  0.00    -0.006 C 
ATOM     18  C   UNL     1     -11.973 -33.231  33.478  1.00  0.00     0.008 C 
ATOM     19  C   UNL     1      -9.984 -33.412  31.944  1.00  0.00     0.008 C 
ENDBRANCH  12  17
ENDBRANCH  11  12
ENDBRANCH   1  11
TORSDOF 1
ENDMDL
MODEL 5
REMARK VINA RESULT:    -4.057      2.097      3.633
REMARK INTER + INTRA:          -5.972
REMARK INTER:                  -7.159
REMARK INTRA:                   1.187
REMARK UNBOUND:                 0.220
REMARK SMILES CC1=CCC[C@H](C)C(=O)C[C@@H](C(C)C)C(=O)C1
REMARK SMILES IDX 8 1 9 2 6 3 7 4 5 5 4 6 3 7 2 8 1 9 10 11 11 12 15 13 16 14
REMARK SMILES IDX 17 15 12 17 13 18 14 19
REMARK H PARENT
REMARK Flexibility Score: 70.00
ROOT
ATOM      1  C   UNL     1     -13.053 -37.513  30.530  1.00  0.00     0.136 C 
ATOM      2  O   UNL     1     -12.493 -38.503  30.975  1.00  0.00    -0.299 OA
ENDROOT
BRANCH   1   3
ATOM      3  C   UNL     1     -13.221 -37.345  29.033  1.00  0.00     0.053 C 
ATOM      4  C   UNL     1     -14.476 -38.096  28.580  1.00  0.00     0.016 C 
BRANCH   3   5
ATOM      5  C   UNL     1     -13.299 -35.862  28.600  1.00  0.00     0.015 C 
BRANCH   5   6
ATOM      6  C   UNL     1     -12.102 -35.398  27.750  1.00  0.00     0.028 C 
BRANCH   6   7
ATOM      7  C   UNL     1     -11.428 -34.190  28.355  1.00  0.00    -0.028 C 
ATOM      8  C   UNL     1     -10.604 -34.206  29.428  1.00  0.00    -0.070 CG0
ATOM      9  C   UNL     1     -10.015 -32.894  29.887  1.00  0.00     0.039 C 
ATOM     10  G   UNL     1     -10.252 -35.473  30.183  1.00  0.00     0.000 G0
ENDBRANCH   6   7
ENDBRANCH   5   6
ENDBRANCH   3   5
ENDBRANCH   1   3
BRANCH   1  11
ATOM     11  C   UNL     1     -13.508 -36.433  31.483  1.00  0.00     0.087 C 
BRANCH  11  12
ATOM     12  C   UNL     1     -12.550 -35.221  31.482  1.00  0.00     0.066 C 
BRANCH  12  13
ATOM     13  C   UNL     1     -11.100 -35.680  31.431  1.00  0.00     0.140 C 
ATOM     14  O   UNL     1     -10.599 -36.219  32.408  1.00  0.00    -0.299 OA
BRANCH  13  15
ATOM     15  C   UNL     1     -10.249 -35.472  30.202  1.00  0.00     0.106 CG0
ATOM     16  G   UNL     1     -10.626 -34.212  29.446  1.00  0.00     0.000 G0
ENDBRANCH  13  15
ENDBRANCH  12  13
BRANCH  12  17
ATOM     17  C   UNL     1     -12.837 -34.243  32.661  1.00  0.00    -0.006 C 
ATOM     18  C   UNL     1     -13.986 -33.282  32.323  1.00  0.00     0.008 C 
ATOM     19  C   UNL     1     -11.609 -33.446  33.136  1.00  0.00     0.008 C 
ENDBRANCH  12  17
ENDBRANCH  11  12
ENDBRANCH   1  11
TORSDOF 1
ENDMDL
MODEL 6
REMARK VINA RESULT:    -3.992      1.763      3.909
REMARK INTER + INTRA:          -5.873
REMARK INTER:                  -6.063
REMARK INTRA:                   0.190
REMARK UNBOUND:                 0.220
REMARK SMILES CC1=CCC[C@H](C)C(=O)C[C@@H](C(C)C)C(=O)C1
REMARK SMILES IDX 8 1 9 2 6 3 7 4 5 5 4 6 3 7 2 8 1 9 10 11 11 12 15 13 16 14
REMARK SMILES IDX 17 15 12 17 13 18 14 19
REMARK H PARENT
REMARK Flexibility Score: 70.00
ROOT
ATOM      1  C   UNL     1     -13.350 -36.533  31.795  1.00  0.00     0.136 C 
ATOM      2  O   UNL     1     -14.390 -36.797  32.380  1.00  0.00    -0.299 OA
ENDROOT
BRANCH   1   3
ATOM      3  C   UNL     1     -12.610 -37.618  31.038  1.00  0.00     0.053 C 
ATOM      4  C   UNL     1     -12.503 -38.865  31.921  1.00  0.00     0.016 C 
BRANCH   3   5
ATOM      5  C   UNL     1     -13.281 -37.973  29.689  1.00  0.00     0.015 C 
BRANCH   5   6
ATOM      6  C   UNL     1     -13.817 -36.751  28.921  1.00  0.00     0.028 C 
BRANCH   6   7
ATOM      7  C   UNL     1     -12.814 -36.250  27.910  1.00  0.00    -0.028 C 
ATOM      8  C   UNL     1     -12.521 -34.951  27.672  1.00  0.00    -0.070 CG0
ATOM      9  C   UNL     1     -11.480 -34.640  26.624  1.00  0.00     0.039 C 
ATOM     10  G   UNL     1     -13.190 -33.804  28.405  1.00  0.00     0.000 G0
ENDBRANCH   6   7
ENDBRANCH   5   6
ENDBRANCH   3   5
ENDBRANCH   1   3
BRANCH   1  11
ATOM     11  C   UNL     1     -12.781 -35.137  31.896  1.00  0.00     0.087 C 
BRANCH  11  12
ATOM     12  C   UNL     1     -13.554 -34.135  31.010  1.00  0.00     0.066 C 
BRANCH  12  13
ATOM     13  C   UNL     1     -12.696 -33.678  29.838  1.00  0.00     0.140 C 
ATOM     14  O   UNL     1     -11.592 -33.195  30.046  1.00  0.00    -0.299 OA
BRANCH  13  15
ATOM     15  C   UNL     1     -13.182 -33.791  28.414  1.00  0.00     0.106 CG0
ATOM     16  G   UNL     1     -12.543 -34.951  27.677  1.00  0.00     0.000 G0
ENDBRANCH  13  15
ENDBRANCH  12  13
BRANCH  12  17
ATOM     17  C   UNL     1     -14.136 -32.947  31.836  1.00  0.00    -0.006 C 
ATOM     18  C   UNL     1     -14.781 -33.438  33.140  1.00  0.00     0.008 C 
ATOM     19  C   UNL     1     -15.128 -32.063  31.060  1.00  0.00     0.008 C 
ENDBRANCH  12  17
ENDBRANCH  11  12
ENDBRANCH   1  11
TORSDOF 1
ENDMDL
MODEL 7
REMARK VINA RESULT:    -3.787      1.576      3.692
REMARK INTER + INTRA:          -5.559
REMARK INTER:                  -6.167
REMARK INTRA:                   0.609
REMARK UNBOUND:                 0.220
REMARK SMILES CC1=CCC[C@H](C)C(=O)C[C@@H](C(C)C)C(=O)C1
REMARK SMILES IDX 8 1 9 2 6 3 7 4 5 5 4 6 3 7 2 8 1 9 10 11 11 12 15 13 16 14
REMARK SMILES IDX 17 15 12 17 13 18 14 19
REMARK H PARENT
REMARK Flexibility Score: 70.00
ROOT
ATOM      1  C   UNL     1     -10.752 -34.631  28.748  1.00  0.00     0.136 C 
ATOM      2  O   UNL     1      -9.879 -33.929  29.237  1.00  0.00    -0.299 OA
ENDROOT
BRANCH   1   3
ATOM      3  C   UNL     1     -11.704 -34.052  27.723  1.00  0.00     0.053 C 
ATOM      4  C   UNL     1     -11.791 -35.000  26.523  1.00  0.00     0.016 C 
BRANCH   3   5
ATOM      5  C   UNL     1     -13.116 -33.785  28.298  1.00  0.00     0.015 C 
BRANCH   5   6
ATOM      6  C   UNL     1     -13.138 -32.752  29.439  1.00  0.00     0.028 C 
BRANCH   6   7
ATOM      7  C   UNL     1     -14.008 -33.211  30.585  1.00  0.00    -0.028 C 
ATOM      8  C   UNL     1     -13.575 -33.866  31.686  1.00  0.00    -0.070 CG0
ATOM      9  C   UNL     1     -14.594 -34.240  32.734  1.00  0.00     0.039 C 
ATOM     10  G   UNL     1     -12.122 -34.242  31.908  1.00  0.00     0.000 G0
ENDBRANCH   6   7
ENDBRANCH   5   6
ENDBRANCH   3   5
ENDBRANCH   1   3
BRANCH   1  11
ATOM     11  C   UNL     1     -10.908 -36.054  29.230  1.00  0.00     0.087 C 
BRANCH  11  12
ATOM     12  C   UNL     1     -12.123 -36.214  30.171  1.00  0.00     0.066 C 
BRANCH  12  13
ATOM     13  C   UNL     1     -11.806 -35.670  31.557  1.00  0.00     0.140 C 
ATOM     14  O   UNL     1     -11.303 -36.404  32.397  1.00  0.00    -0.299 OA
BRANCH  13  15
ATOM     15  C   UNL     1     -12.114 -34.242  31.933  1.00  0.00     0.106 CG0
ATOM     16  G   UNL     1     -13.571 -33.887  31.708  1.00  0.00     0.000 G0
ENDBRANCH  13  15
ENDBRANCH  12  13
BRANCH  12  17
ATOM     17  C   UNL     1     -12.656 -37.679  30.201  1.00  0.00    -0.006 C 
ATOM     18  C   UNL     1     -13.611 -37.949  29.029  1.00  0.00     0.008 C 
ATOM     19  C   UNL     1     -13.324 -38.083  31.527  1.00  0.00     0.008 C 
ENDBRANCH  12  17
ENDBRANCH  11  12
ENDBRANCH   1  11
TORSDOF 1
ENDMDL
MODEL 8
REMARK VINA RESULT:    -3.603      2.159      4.530
REMARK INTER + INTRA:          -5.279
REMARK INTER:                  -5.236
REMARK INTRA:                  -0.043
REMARK UNBOUND:                 0.220
REMARK SMILES CC1=CCC[C@H](C)C(=O)C[C@@H](C(C)C)C(=O)C1
REMARK SMILES IDX 8 1 9 2 6 3 7 4 5 5 4 6 3 7 2 8 1 9 10 11 11 12 15 13 16 14
REMARK SMILES IDX 17 15 12 17 13 18 14 19
REMARK H PARENT
REMARK Flexibility Score: 70.00
ROOT
ATOM      1  C   UNL     1     -13.730 -34.373  31.972  1.00  0.00     0.136 C 
ATOM      2  O   UNL     1     -13.280 -34.051  33.062  1.00  0.00    -0.299 OA
ENDROOT
BRANCH   1   3
ATOM      3  C   UNL     1     -14.406 -33.339  31.096  1.00  0.00     0.053 C 
ATOM      4  C   UNL     1     -15.088 -32.294  31.985  1.00  0.00     0.016 C 
BRANCH   3   5
ATOM      5  C   UNL     1     -13.428 -32.650  30.115  1.00  0.00     0.015 C 
BRANCH   5   6
ATOM      6  C   UNL     1     -13.807 -32.825  28.633  1.00  0.00     0.028 C 
BRANCH   6   7
ATOM      7  C   UNL     1     -12.703 -33.503  27.856  1.00  0.00    -0.028 C 
ATOM      8  C   UNL     1     -12.629 -34.826  27.588  1.00  0.00    -0.070 CG0
ATOM      9  C   UNL     1     -11.450 -35.321  26.788  1.00  0.00     0.039 C 
ATOM     10  G   UNL     1     -13.670 -35.825  28.057  1.00  0.00     0.000 G0
ENDBRANCH   6   7
ENDBRANCH   5   6
ENDBRANCH   3   5
ENDBRANCH   1   3
BRANCH   1  11
ATOM     11  C   UNL     1     -13.664 -35.821  31.547  1.00  0.00     0.087 C 
BRANCH  11  12
ATOM     12  C   UNL     1     -12.598 -36.052  30.452  1.00  0.00     0.066 C 
BRANCH  12  13
ATOM     13  C   UNL     1     -13.223 -36.679  29.215  1.00  0.00     0.140 C 
ATOM     14  O   UNL     1     -13.348 -37.894  29.147  1.00  0.00    -0.299 OA
BRANCH  13  15
ATOM     15  C   UNL     1     -13.684 -35.837  28.050  1.00  0.00     0.106 CG0
ATOM     16  G   UNL     1     -12.632 -34.838  27.609  1.00  0.00     0.000 G0
ENDBRANCH  13  15
ENDBRANCH  12  13
BRANCH  12  17
ATOM     17  C   UNL     1     -11.371 -36.852  30.985  1.00  0.00    -0.006 C 
ATOM     18  C   UNL     1     -11.737 -37.671  32.232  1.00  0.00     0.008 C 
ATOM     19  C   UNL     1     -10.128 -35.991  31.269  1.00  0.00     0.008 C 
ENDBRANCH  12  17
ENDBRANCH  11  12
ENDBRANCH   1  11
TORSDOF 1
ENDMDL
MODEL 9
REMARK VINA RESULT:    -3.435      2.407      4.686
REMARK INTER + INTRA:          -5.023
REMARK INTER:                  -5.758
REMARK INTRA:                   0.736
REMARK UNBOUND:                 0.220
REMARK SMILES CC1=CCC[C@H](C)C(=O)C[C@@H](C(C)C)C(=O)C1
REMARK SMILES IDX 8 1 9 2 6 3 7 4 5 5 4 6 3 7 2 8 1 9 10 11 11 12 15 13 16 14
REMARK SMILES IDX 17 15 12 17 13 18 14 19
REMARK H PARENT
REMARK Flexibility Score: 70.00
ROOT
ATOM      1  C   UNL     1     -10.280 -35.557  31.749  1.00  0.00     0.136 C 
ATOM      2  O   UNL     1      -9.917 -36.115  32.774  1.00  0.00    -0.299 OA
ENDROOT
BRANCH   1   3
ATOM      3  C   UNL     1     -10.653 -34.089  31.777  1.00  0.00     0.053 C 
ATOM      4  C   UNL     1     -10.245 -33.491  33.127  1.00  0.00     0.016 C 
BRANCH   3   5
ATOM      5  C   UNL     1     -10.013 -33.285  30.620  1.00  0.00     0.015 C 
BRANCH   5   6
ATOM      6  C   UNL     1     -11.034 -32.722  29.614  1.00  0.00     0.028 C 
BRANCH   6   7
ATOM      7  C   UNL     1     -11.066 -33.537  28.343  1.00  0.00    -0.028 C 
ATOM      8  C   UNL     1     -11.850 -34.617  28.121  1.00  0.00    -0.070 CG0
ATOM      9  C   UNL     1     -11.748 -35.302  26.781  1.00  0.00     0.039 C 
ATOM     10  G   UNL     1     -12.816 -35.164  29.155  1.00  0.00     0.000 G0
ENDBRANCH   6   7
ENDBRANCH   5   6
ENDBRANCH   3   5
ENDBRANCH   1   3
BRANCH   1  11
ATOM     11  C   UNL     1     -10.419 -36.365  30.480  1.00  0.00     0.087 C 
BRANCH  11  12
ATOM     12  C   UNL     1     -11.731 -37.180  30.456  1.00  0.00     0.066 C 
BRANCH  12  13
ATOM     13  C   UNL     1     -12.682 -36.640  29.398  1.00  0.00     0.140 C 
ATOM     14  O   UNL     1     -13.333 -37.417  28.714  1.00  0.00    -0.299 OA
BRANCH  13  15
ATOM     15  C   UNL     1     -12.834 -35.159  29.156  1.00  0.00     0.106 CG0
ATOM     16  G   UNL     1     -11.852 -34.639  28.124  1.00  0.00     0.000 G0
ENDBRANCH  13  15
ENDBRANCH  12  13
BRANCH  12  17
ATOM     17  C   UNL     1     -12.386 -37.282  31.867  1.00  0.00    -0.006 C 
ATOM     18  C   UNL     1     -12.708 -38.739  32.230  1.00  0.00     0.008 C 
ATOM     19  C   UNL     1     -13.639 -36.408  32.048  1.00  0.00     0.008 C 
ENDBRANCH  12  17
ENDBRANCH  11  12
ENDBRANCH   1  11
TORSDOF 1
ENDMDL
