MODEL 1
REMARK VINA RESULT:    -5.173      0.000      0.000
REMARK INTER + INTRA:          -7.877
REMARK INTER:                  -7.895
REMARK INTRA:                   0.018
REMARK UNBOUND:                 0.018
REMARK SMILES CC1=CCC[C@H](C)C(=O)C[C@H](C(C)C)C(=O)C1
REMARK SMILES IDX 8 1 9 2 6 3 7 4 5 5 4 6 3 7 2 8 1 9 10 11 11 12 15 13 16 14
REMARK SMILES IDX 17 15 12 17 13 18 14 19
REMARK H PARENT
REMARK Flexibility Score: 70.00
ROOT
ATOM      1  C   UNL     1      -8.079  33.908  24.054  1.00  0.00     0.136 C 
ATOM      2  O   UNL     1      -7.838  34.856  23.322  1.00  0.00    -0.299 OA
ENDROOT
BRANCH   1   3
ATOM      3  C   UNL     1      -7.689  34.001  25.519  1.00  0.00     0.053 C 
ATOM      4  C   UNL     1      -7.882  35.426  26.051  1.00  0.00     0.016 C 
BRANCH   3   5
ATOM      5  C   UNL     1      -8.461  32.978  26.373  1.00  0.00     0.015 C 
BRANCH   5   6
ATOM      6  C   UNL     1      -7.569  31.801  26.805  1.00  0.00     0.028 C 
BRANCH   6   7
ATOM      7  C   UNL     1      -8.251  30.481  26.556  1.00  0.00    -0.028 C 
ATOM      8  C   UNL     1      -8.069  29.718  25.453  1.00  0.00    -0.070 CG0
ATOM      9  C   UNL     1      -8.862  28.442  25.335  1.00  0.00     0.039 C 
ATOM     10  G   UNL     1      -7.101  30.089  24.339  1.00  0.00     0.000 G0
ENDBRANCH   6   7
ENDBRANCH   5   6
ENDBRANCH   3   5
ENDBRANCH   1   3
BRANCH   1  11
ATOM     11  C   UNL     1      -8.782  32.701  23.471  1.00  0.00     0.087 C 
BRANCH  11  12
ATOM     12  C   UNL     1      -7.849  31.860  22.558  1.00  0.00     0.066 C 
BRANCH  12  13
ATOM     13  C   UNL     1      -7.801  30.429  23.071  1.00  0.00     0.140 C 
ATOM     14  O   UNL     1      -8.259  29.528  22.380  1.00  0.00    -0.299 OA
BRANCH  13  15
ATOM     15  C   UNL     1      -7.096  30.090  24.360  1.00  0.00     0.106 CG0
ATOM     16  G   UNL     1      -8.070  29.714  25.467  1.00  0.00     0.000 G0
ENDBRANCH  13  15
ENDBRANCH  12  13
BRANCH  12  17
ATOM     17  C   UNL     1      -8.293  31.890  21.056  1.00  0.00    -0.006 C 
ATOM     18  C   UNL     1      -9.790  32.224  20.898  1.00  0.00     0.008 C 
ATOM     19  C   UNL     1      -7.476  32.919  20.249  1.00  0.00     0.008 C 
ENDBRANCH  12  17
ENDBRANCH  11  12
ENDBRANCH   1  11
TORSDOF 1
ENDMDL
MODEL 2
REMARK VINA RESULT:    -5.128      1.607      3.966
REMARK INTER + INTRA:          -7.809
REMARK INTER:                  -7.392
REMARK INTRA:                  -0.416
REMARK UNBOUND:                 0.018
REMARK SMILES CC1=CCC[C@H](C)C(=O)C[C@H](C(C)C)C(=O)C1
REMARK SMILES IDX 8 1 9 2 6 3 7 4 5 5 4 6 3 7 2 8 1 9 10 11 11 12 15 13 16 14
REMARK SMILES IDX 17 15 12 17 13 18 14 19
REMARK H PARENT
REMARK Flexibility Score: 70.00
ROOT
ATOM      1  C   UNL     1      -7.388  29.867  23.188  1.00  0.00     0.136 C 
ATOM      2  O   UNL     1      -6.382  29.300  22.789  1.00  0.00    -0.299 OA
ENDROOT
BRANCH   1   3
ATOM      3  C   UNL     1      -8.627  29.037  23.475  1.00  0.00     0.053 C 
ATOM      4  C   UNL     1      -8.815  27.943  22.417  1.00  0.00     0.016 C 
BRANCH   3   5
ATOM      5  C   UNL     1      -8.589  28.439  24.894  1.00  0.00     0.015 C 
BRANCH   5   6
ATOM      6  C   UNL     1      -9.417  29.270  25.890  1.00  0.00     0.028 C 
BRANCH   6   7
ATOM      7  C   UNL     1      -8.529  30.136  26.747  1.00  0.00    -0.028 C 
ATOM      8  C   UNL     1      -8.552  31.488  26.756  1.00  0.00    -0.070 CG0
ATOM      9  C   UNL     1      -7.566  32.208  27.640  1.00  0.00     0.039 C 
ATOM     10  G   UNL     1      -9.529  32.306  25.924  1.00  0.00     0.000 G0
ENDBRANCH   6   7
ENDBRANCH   5   6
ENDBRANCH   3   5
ENDBRANCH   1   3
BRANCH   1  11
ATOM     11  C   UNL     1      -7.339  31.364  23.408  1.00  0.00     0.087 C 
BRANCH  11  12
ATOM     12  C   UNL     1      -8.754  32.004  23.419  1.00  0.00     0.066 C 
BRANCH  12  13
ATOM     13  C   UNL     1      -8.906  32.864  24.664  1.00  0.00     0.140 C 
ATOM     14  O   UNL     1      -8.604  34.049  24.616  1.00  0.00    -0.299 OA
BRANCH  13  15
ATOM     15  C   UNL     1      -9.531  32.309  25.919  1.00  0.00     0.106 CG0
ATOM     16  G   UNL     1      -8.543  31.497  26.744  1.00  0.00     0.000 G0
ENDBRANCH  13  15
ENDBRANCH  12  13
BRANCH  12  17
ATOM     17  C   UNL     1      -9.040  32.847  22.131  1.00  0.00    -0.006 C 
ATOM     18  C   UNL     1      -7.757  33.139  21.327  1.00  0.00     0.008 C 
ATOM     19  C   UNL     1     -10.045  32.134  21.204  1.00  0.00     0.008 C 
ENDBRANCH  12  17
ENDBRANCH  11  12
ENDBRANCH   1  11
TORSDOF 1
ENDMDL
MODEL 3
REMARK VINA RESULT:    -4.911      1.669      4.086
REMARK INTER + INTRA:          -7.476
REMARK INTER:                  -7.454
REMARK INTRA:                  -0.022
REMARK UNBOUND:                 0.018
REMARK SMILES CC1=CCC[C@H](C)C(=O)C[C@H](C(C)C)C(=O)C1
REMARK SMILES IDX 8 1 9 2 6 3 7 4 5 5 4 6 3 7 2 8 1 9 10 11 11 12 15 13 16 14
REMARK SMILES IDX 17 15 12 17 13 18 14 19
REMARK H PARENT
REMARK Flexibility Score: 70.00
ROOT
ATOM      1  C   UNL     1      -7.656  30.316  23.365  1.00  0.00     0.136 C 
ATOM      2  O   UNL     1      -7.158  29.322  22.858  1.00  0.00    -0.299 OA
ENDROOT
BRANCH   1   3
ATOM      3  C   UNL     1      -8.553  30.144  24.578  1.00  0.00     0.053 C 
ATOM      4  C   UNL     1      -8.907  28.668  24.796  1.00  0.00     0.016 C 
BRANCH   3   5
ATOM      5  C   UNL     1      -7.918  30.757  25.840  1.00  0.00     0.015 C 
BRANCH   5   6
ATOM      6  C   UNL     1      -8.740  31.943  26.378  1.00  0.00     0.028 C 
BRANCH   6   7
ATOM      7  C   UNL     1      -7.909  33.198  26.437  1.00  0.00    -0.028 C 
ATOM      8  C   UNL     1      -8.004  34.225  25.561  1.00  0.00    -0.070 CG0
ATOM      9  C   UNL     1      -7.068  35.394  25.734  1.00  0.00     0.039 C 
ATOM     10  G   UNL     1      -9.014  34.252  24.423  1.00  0.00     0.000 G0
ENDBRANCH   6   7
ENDBRANCH   5   6
ENDBRANCH   3   5
ENDBRANCH   1   3
BRANCH   1  11
ATOM     11  C   UNL     1      -7.327  31.672  22.778  1.00  0.00     0.087 C 
BRANCH  11  12
ATOM     12  C   UNL     1      -8.601  32.514  22.492  1.00  0.00     0.066 C 
BRANCH  12  13
ATOM     13  C   UNL     1      -8.421  33.908  23.072  1.00  0.00     0.140 C 
ATOM     14  O   UNL     1      -7.866  34.770  22.402  1.00  0.00    -0.299 OA
BRANCH  13  15
ATOM     15  C   UNL     1      -9.016  34.277  24.407  1.00  0.00     0.106 CG0
ATOM     16  G   UNL     1      -7.992  34.215  25.531  1.00  0.00     0.000 G0
ENDBRANCH  13  15
ENDBRANCH  12  13
BRANCH  12  17
ATOM     17  C   UNL     1      -8.937  32.593  20.965  1.00  0.00    -0.006 C 
ATOM     18  C   UNL     1      -7.684  32.848  20.104  1.00  0.00     0.008 C 
ATOM     19  C   UNL     1      -9.613  31.298  20.470  1.00  0.00     0.008 C 
ENDBRANCH  12  17
ENDBRANCH  11  12
ENDBRANCH   1  11
TORSDOF 1
ENDMDL
MODEL 4
REMARK VINA RESULT:    -4.821      2.128      4.565
REMARK INTER + INTRA:          -7.340
REMARK INTER:                  -7.262
REMARK INTRA:                  -0.078
REMARK UNBOUND:                 0.018
REMARK SMILES CC1=CCC[C@H](C)C(=O)C[C@H](C(C)C)C(=O)C1
REMARK SMILES IDX 8 1 9 2 6 3 7 4 5 5 4 6 3 7 2 8 1 9 10 11 11 12 15 13 16 14
REMARK SMILES IDX 17 15 12 17 13 18 14 19
REMARK H PARENT
REMARK Flexibility Score: 70.00
ROOT
ATOM      1  C   UNL     1      -9.051  31.916  21.439  1.00  0.00     0.136 C 
ATOM      2  O   UNL     1      -9.754  31.615  20.486  1.00  0.00    -0.299 OA
ENDROOT
BRANCH   1   3
ATOM      3  C   UNL     1      -7.889  32.867  21.216  1.00  0.00     0.053 C 
ATOM      4  C   UNL     1      -7.512  32.937  19.731  1.00  0.00     0.016 C 
BRANCH   3   5
ATOM      5  C   UNL     1      -8.190  34.268  21.781  1.00  0.00     0.015 C 
BRANCH   5   6
ATOM      6  C   UNL     1      -7.133  34.712  22.809  1.00  0.00     0.028 C 
BRANCH   6   7
ATOM      7  C   UNL     1      -7.777  35.377  23.998  1.00  0.00    -0.028 C 
ATOM      8  C   UNL     1      -8.012  34.770  25.184  1.00  0.00    -0.070 CG0
ATOM      9  C   UNL     1      -8.705  35.564  26.261  1.00  0.00     0.039 C 
ATOM     10  G   UNL     1      -7.601  33.334  25.476  1.00  0.00     0.000 G0
ENDBRANCH   6   7
ENDBRANCH   5   6
ENDBRANCH   3   5
ENDBRANCH   1   3
BRANCH   1  11
ATOM     11  C   UNL     1      -9.394  31.351  22.801  1.00  0.00     0.087 C 
BRANCH  11  12
ATOM     12  C   UNL     1      -8.198  31.430  23.789  1.00  0.00     0.066 C 
BRANCH  12  13
ATOM     13  C   UNL     1      -8.572  32.324  24.961  1.00  0.00     0.140 C 
ATOM     14  O   UNL     1      -9.643  32.153  25.528  1.00  0.00    -0.299 OA
BRANCH  13  15
ATOM     15  C   UNL     1      -7.599  33.338  25.505  1.00  0.00     0.106 CG0
ATOM     16  G   UNL     1      -8.022  34.767  25.198  1.00  0.00     0.000 G0
ENDBRANCH  13  15
ENDBRANCH  12  13
BRANCH  12  17
ATOM     17  C   UNL     1      -7.747  30.019  24.297  1.00  0.00    -0.006 C 
ATOM     18  C   UNL     1      -8.681  28.895  23.806  1.00  0.00     0.008 C 
ATOM     19  C   UNL     1      -6.309  29.692  23.844  1.00  0.00     0.008 C 
ENDBRANCH  12  17
ENDBRANCH  11  12
ENDBRANCH   1  11
TORSDOF 1
ENDMDL
MODEL 5
REMARK VINA RESULT:    -4.716      1.591      3.892
REMARK INTER + INTRA:          -7.179
REMARK INTER:                  -7.343
REMARK INTRA:                   0.164
REMARK UNBOUND:                 0.018
REMARK SMILES CC1=CCC[C@H](C)C(=O)C[C@H](C(C)C)C(=O)C1
REMARK SMILES IDX 8 1 9 2 6 3 7 4 5 5 4 6 3 7 2 8 1 9 10 11 11 12 15 13 16 14
REMARK SMILES IDX 17 15 12 17 13 18 14 19
REMARK H PARENT
REMARK Flexibility Score: 70.00
ROOT
ATOM      1  C   UNL     1      -8.053  32.947  22.520  1.00  0.00     0.136 C 
ATOM      2  O   UNL     1      -7.871  33.861  21.730  1.00  0.00    -0.299 OA
ENDROOT
BRANCH   1   3
ATOM      3  C   UNL     1      -8.715  31.674  22.021  1.00  0.00     0.053 C 
ATOM      4  C   UNL     1      -9.669  31.968  20.857  1.00  0.00     0.016 C 
BRANCH   3   5
ATOM      5  C   UNL     1      -7.670  30.612  21.630  1.00  0.00     0.015 C 
BRANCH   5   6
ATOM      6  C   UNL     1      -7.085  29.900  22.863  1.00  0.00     0.028 C 
BRANCH   6   7
ATOM      7  C   UNL     1      -8.172  29.266  23.691  1.00  0.00    -0.028 C 
ATOM      8  C   UNL     1      -8.532  29.674  24.930  1.00  0.00    -0.070 CG0
ATOM      9  C   UNL     1      -9.612  28.904  25.645  1.00  0.00     0.039 C 
ATOM     10  G   UNL     1      -7.901  30.873  25.623  1.00  0.00     0.000 G0
ENDBRANCH   6   7
ENDBRANCH   5   6
ENDBRANCH   3   5
ENDBRANCH   1   3
BRANCH   1  11
ATOM     11  C   UNL     1      -7.583  33.117  23.948  1.00  0.00     0.087 C 
BRANCH  11  12
ATOM     12  C   UNL     1      -8.766  33.276  24.943  1.00  0.00     0.066 C 
BRANCH  12  13
ATOM     13  C   UNL     1      -8.874  32.024  25.799  1.00  0.00     0.140 C 
ATOM     14  O   UNL     1      -9.818  31.902  26.567  1.00  0.00    -0.299 OA
BRANCH  13  15
ATOM     15  C   UNL     1      -7.901  30.883  25.632  1.00  0.00     0.106 CG0
ATOM     16  G   UNL     1      -8.532  29.685  24.939  1.00  0.00     0.000 G0
ENDBRANCH  13  15
ENDBRANCH  12  13
BRANCH  12  17
ATOM     17  C   UNL     1      -8.623  34.547  25.845  1.00  0.00    -0.006 C 
ATOM     18  C   UNL     1      -7.450  34.429  26.839  1.00  0.00     0.008 C 
ATOM     19  C   UNL     1      -8.417  35.819  24.997  1.00  0.00     0.008 C 
ENDBRANCH  12  17
ENDBRANCH  11  12
ENDBRANCH   1  11
TORSDOF 1
ENDMDL
MODEL 6
REMARK VINA RESULT:    -4.716      2.109      4.159
REMARK INTER + INTRA:          -7.179
REMARK INTER:                  -7.394
REMARK INTRA:                   0.215
REMARK UNBOUND:                 0.018
REMARK SMILES CC1=CCC[C@H](C)C(=O)C[C@H](C(C)C)C(=O)C1
REMARK SMILES IDX 8 1 9 2 6 3 7 4 5 5 4 6 3 7 2 8 1 9 10 11 11 12 15 13 16 14
REMARK SMILES IDX 17 15 12 17 13 18 14 19
REMARK H PARENT
REMARK Flexibility Score: 70.00
ROOT
ATOM      1  C   UNL     1      -8.555  31.258  23.361  1.00  0.00     0.136 C 
ATOM      2  O   UNL     1      -9.547  31.693  22.796  1.00  0.00    -0.299 OA
ENDROOT
BRANCH   1   3
ATOM      3  C   UNL     1      -8.295  29.762  23.329  1.00  0.00     0.053 C 
ATOM      4  C   UNL     1      -7.154  29.422  22.363  1.00  0.00     0.016 C 
BRANCH   3   5
ATOM      5  C   UNL     1      -8.015  29.208  24.739  1.00  0.00     0.015 C 
BRANCH   5   6
ATOM      6  C   UNL     1      -9.296  29.129  25.589  1.00  0.00     0.028 C 
BRANCH   6   7
ATOM      7  C   UNL     1      -9.028  29.534  27.016  1.00  0.00    -0.028 C 
ATOM      8  C   UNL     1      -9.160  30.793  27.495  1.00  0.00    -0.070 CG0
ATOM      9  C   UNL     1      -8.809  31.041  28.940  1.00  0.00     0.039 C 
ATOM     10  G   UNL     1      -9.649  31.956  26.645  1.00  0.00     0.000 G0
ENDBRANCH   6   7
ENDBRANCH   5   6
ENDBRANCH   3   5
ENDBRANCH   1   3
BRANCH   1  11
ATOM     11  C   UNL     1      -7.619  32.235  24.038  1.00  0.00     0.087 C 
BRANCH  11  12
ATOM     12  C   UNL     1      -8.383  33.346  24.809  1.00  0.00     0.066 C 
BRANCH  12  13
ATOM     13  C   UNL     1      -8.567  32.917  26.256  1.00  0.00     0.140 C 
ATOM     14  O   UNL     1      -7.868  33.421  27.126  1.00  0.00    -0.299 OA
BRANCH  13  15
ATOM     15  C   UNL     1      -9.671  31.968  26.650  1.00  0.00     0.106 CG0
ATOM     16  G   UNL     1      -9.160  30.808  27.492  1.00  0.00     0.000 G0
ENDBRANCH  13  15
ENDBRANCH  12  13
BRANCH  12  17
ATOM     17  C   UNL     1      -7.660  34.733  24.736  1.00  0.00    -0.006 C 
ATOM     18  C   UNL     1      -6.988  34.969  23.368  1.00  0.00     0.008 C 
ATOM     19  C   UNL     1      -8.640  35.893  25.004  1.00  0.00     0.008 C 
ENDBRANCH  12  17
ENDBRANCH  11  12
ENDBRANCH   1  11
TORSDOF 1
ENDMDL
MODEL 7
REMARK VINA RESULT:    -4.659      1.943      4.643
REMARK INTER + INTRA:          -7.093
REMARK INTER:                  -7.541
REMARK INTRA:                   0.448
REMARK UNBOUND:                 0.018
REMARK SMILES CC1=CCC[C@H](C)C(=O)C[C@H](C(C)C)C(=O)C1
REMARK SMILES IDX 8 1 9 2 6 3 7 4 5 5 4 6 3 7 2 8 1 9 10 11 11 12 15 13 16 14
REMARK SMILES IDX 17 15 12 17 13 18 14 19
REMARK H PARENT
REMARK Flexibility Score: 70.00
ROOT
ATOM      1  C   UNL     1      -7.947  31.733  26.144  1.00  0.00     0.136 C 
ATOM      2  O   UNL     1      -7.339  31.943  27.183  1.00  0.00    -0.299 OA
ENDROOT
BRANCH   1   3
ATOM      3  C   UNL     1      -7.991  30.316  25.600  1.00  0.00     0.053 C 
ATOM      4  C   UNL     1      -9.432  29.795  25.534  1.00  0.00     0.016 C 
BRANCH   3   5
ATOM      5  C   UNL     1      -7.301  30.218  24.226  1.00  0.00     0.015 C 
BRANCH   5   6
ATOM      6  C   UNL     1      -8.308  29.934  23.097  1.00  0.00     0.028 C 
BRANCH   6   7
ATOM      7  C   UNL     1      -7.936  30.674  21.837  1.00  0.00    -0.028 C 
ATOM      8  C   UNL     1      -8.198  31.981  21.609  1.00  0.00    -0.070 CG0
ATOM      9  C   UNL     1      -7.799  32.562  20.276  1.00  0.00     0.039 C 
ATOM     10  G   UNL     1      -8.866  32.884  22.635  1.00  0.00     0.000 G0
ENDBRANCH   6   7
ENDBRANCH   5   6
ENDBRANCH   3   5
ENDBRANCH   1   3
BRANCH   1  11
ATOM     11  C   UNL     1      -8.652  32.890  25.469  1.00  0.00     0.087 C 
BRANCH  11  12
ATOM     12  C   UNL     1      -7.659  33.859  24.772  1.00  0.00     0.066 C 
BRANCH  12  13
ATOM     13  C   UNL     1      -7.941  33.878  23.278  1.00  0.00     0.140 C 
ATOM     14  O   UNL     1      -7.324  34.654  22.560  1.00  0.00    -0.299 OA
BRANCH  13  15
ATOM     15  C   UNL     1      -8.882  32.879  22.652  1.00  0.00     0.106 CG0
ATOM     16  G   UNL     1      -8.188  31.998  21.624  1.00  0.00     0.000 G0
ENDBRANCH  13  15
ENDBRANCH  12  13
BRANCH  12  17
ATOM     17  C   UNL     1      -7.723  35.308  25.361  1.00  0.00    -0.006 C 
ATOM     18  C   UNL     1      -8.918  36.111  24.807  1.00  0.00     0.008 C 
ATOM     19  C   UNL     1      -7.822  35.286  26.900  1.00  0.00     0.008 C 
ENDBRANCH  12  17
ENDBRANCH  11  12
ENDBRANCH   1  11
TORSDOF 1
ENDMDL
MODEL 8
REMARK VINA RESULT:    -4.645      1.928      3.238
REMARK INTER + INTRA:          -7.071
REMARK INTER:                  -7.046
REMARK INTRA:                  -0.025
REMARK UNBOUND:                 0.018
REMARK SMILES CC1=CCC[C@H](C)C(=O)C[C@H](C(C)C)C(=O)C1
REMARK SMILES IDX 8 1 9 2 6 3 7 4 5 5 4 6 3 7 2 8 1 9 10 11 11 12 15 13 16 14
REMARK SMILES IDX 17 15 12 17 13 18 14 19
REMARK H PARENT
REMARK Flexibility Score: 70.00
ROOT
ATOM      1  C   UNL     1      -9.244  31.821  25.910  1.00  0.00     0.136 C 
ATOM      2  O   UNL     1     -10.125  31.490  26.689  1.00  0.00    -0.299 OA
ENDROOT
BRANCH   1   3
ATOM      3  C   UNL     1      -7.796  31.596  26.308  1.00  0.00     0.053 C 
ATOM      4  C   UNL     1      -7.565  31.967  27.778  1.00  0.00     0.016 C 
BRANCH   3   5
ATOM      5  C   UNL     1      -7.351  30.150  26.022  1.00  0.00     0.015 C 
BRANCH   5   6
ATOM      6  C   UNL     1      -6.673  30.019  24.646  1.00  0.00     0.028 C 
BRANCH   6   7
ATOM      7  C   UNL     1      -7.528  29.227  23.691  1.00  0.00    -0.028 C 
ATOM      8  C   UNL     1      -7.952  29.675  22.486  1.00  0.00    -0.070 CG0
ATOM      9  C   UNL     1      -8.840  28.775  21.667  1.00  0.00     0.039 C 
ATOM     10  G   UNL     1      -7.565  31.036  21.926  1.00  0.00     0.000 G0
ENDBRANCH   6   7
ENDBRANCH   5   6
ENDBRANCH   3   5
ENDBRANCH   1   3
BRANCH   1  11
ATOM     11  C   UNL     1      -9.641  32.409  24.573  1.00  0.00     0.087 C 
BRANCH  11  12
ATOM     12  C   UNL     1      -8.408  32.789  23.707  1.00  0.00     0.066 C 
BRANCH  12  13
ATOM     13  C   UNL     1      -8.529  32.128  22.344  1.00  0.00     0.140 C 
ATOM     14  O   UNL     1      -9.356  32.547  21.544  1.00  0.00    -0.299 OA
BRANCH  13  15
ATOM     15  C   UNL     1      -7.572  31.042  21.919  1.00  0.00     0.106 CG0
ATOM     16  G   UNL     1      -7.951  29.684  22.492  1.00  0.00     0.000 G0
ENDBRANCH  13  15
ENDBRANCH  12  13
BRANCH  12  17
ATOM     17  C   UNL     1      -8.239  34.338  23.553  1.00  0.00    -0.006 C 
ATOM     18  C   UNL     1      -7.725  35.001  24.846  1.00  0.00     0.008 C 
ATOM     19  C   UNL     1      -7.266  34.686  22.407  1.00  0.00     0.008 C 
ENDBRANCH  12  17
ENDBRANCH  11  12
ENDBRANCH   1  11
TORSDOF 1
ENDMDL
MODEL 9
REMARK VINA RESULT:    -4.520      1.538      2.200
REMARK INTER + INTRA:          -6.881
REMARK INTER:                  -6.706
REMARK INTRA:                  -0.175
REMARK UNBOUND:                 0.018
REMARK SMILES CC1=CCC[C@H](C)C(=O)C[C@H](C(C)C)C(=O)C1
REMARK SMILES IDX 8 1 9 2 6 3 7 4 5 5 4 6 3 7 2 8 1 9 10 11 11 12 15 13 16 14
REMARK SMILES IDX 17 15 12 17 13 18 14 19
REMARK H PARENT
REMARK Flexibility Score: 70.00
ROOT
ATOM      1  C   UNL     1      -8.922  33.129  24.336  1.00  0.00     0.136 C 
ATOM      2  O   UNL     1      -9.540  33.946  23.670  1.00  0.00    -0.299 OA
ENDROOT
BRANCH   1   3
ATOM      3  C   UNL     1      -7.740  33.606  25.162  1.00  0.00     0.053 C 
ATOM      4  C   UNL     1      -7.131  34.881  24.567  1.00  0.00     0.016 C 
BRANCH   3   5
ATOM      5  C   UNL     1      -8.129  33.811  26.638  1.00  0.00     0.015 C 
BRANCH   5   6
ATOM      6  C   UNL     1      -7.481  32.758  27.554  1.00  0.00     0.028 C 
BRANCH   6   7
ATOM      7  C   UNL     1      -8.497  31.751  28.029  1.00  0.00    -0.028 C 
ATOM      8  C   UNL     1      -8.580  30.475  27.584  1.00  0.00    -0.070 CG0
ATOM      9  C   UNL     1      -9.683  29.605  28.129  1.00  0.00     0.039 C 
ATOM     10  G   UNL     1      -7.609  29.886  26.572  1.00  0.00     0.000 G0
ENDBRANCH   6   7
ENDBRANCH   5   6
ENDBRANCH   3   5
ENDBRANCH   1   3
BRANCH   1  11
ATOM     11  C   UNL     1      -9.385  31.688  24.330  1.00  0.00     0.087 C 
BRANCH  11  12
ATOM     12  C   UNL     1      -8.209  30.693  24.134  1.00  0.00     0.066 C 
BRANCH  12  13
ATOM     13  C   UNL     1      -8.259  29.636  25.227  1.00  0.00     0.140 C 
ATOM     14  O   UNL     1      -8.748  28.541  24.981  1.00  0.00    -0.299 OA
BRANCH  13  15
ATOM     15  C   UNL     1      -7.613  29.876  26.568  1.00  0.00     0.106 CG0
ATOM     16  G   UNL     1      -8.583  30.475  27.576  1.00  0.00     0.000 G0
ENDBRANCH  13  15
ENDBRANCH  12  13
BRANCH  12  17
ATOM     17  C   UNL     1      -8.222  30.021  22.720  1.00  0.00    -0.006 C 
ATOM     18  C   UNL     1      -8.630  31.008  21.608  1.00  0.00     0.008 C 
ATOM     19  C   UNL     1      -6.841  29.431  22.366  1.00  0.00     0.008 C 
ENDBRANCH  12  17
ENDBRANCH  11  12
ENDBRANCH   1  11
TORSDOF 1
ENDMDL
