MODEL 1
REMARK VINA RESULT:    -3.421      0.000      0.000
REMARK INTER + INTRA:          -3.998
REMARK INTER:                  -4.021
REMARK INTRA:                   0.022
REMARK UNBOUND:                 0.022
REMARK SMILES O=C([O-])CCC(=O)[O-]
REMARK SMILES IDX 4 1 2 2 1 3 3 4 5 5 6 6 7 7 8 8
REMARK H PARENT
REMARK Flexibility Score: inf
ROOT
ATOM      1  C   UNL     1      31.583  -6.700  33.096  1.00  0.00     0.059 C 
ENDROOT
BRANCH   1   2
ATOM      2  C   UNL     1      32.037  -7.679  34.135  1.00  0.00     0.042 C 
ATOM      3  O   UNL     1      31.475  -8.801  34.239  1.00  0.00    -0.550 OA
ATOM      4  O   UNL     1      33.110  -7.367  34.963  1.00  0.00    -0.550 OA
ENDBRANCH   1   2
BRANCH   1   5
ATOM      5  C   UNL     1      30.835  -7.395  31.954  1.00  0.00     0.059 C 
BRANCH   5   6
ATOM      6  C   UNL     1      31.748  -8.268  31.147  1.00  0.00     0.042 C 
ATOM      7  O   UNL     1      32.776  -7.782  30.607  1.00  0.00    -0.550 OA
ATOM      8  O   UNL     1      31.440  -9.609  30.960  1.00  0.00    -0.550 OA
ENDBRANCH   5   6
ENDBRANCH   1   5
TORSDOF 3
ENDMDL
MODEL 2
REMARK VINA RESULT:    -3.410      0.165      3.599
REMARK INTER + INTRA:          -3.985
REMARK INTER:                  -4.024
REMARK INTRA:                   0.039
REMARK UNBOUND:                 0.022
REMARK SMILES O=C([O-])CCC(=O)[O-]
REMARK SMILES IDX 4 1 2 2 1 3 3 4 5 5 6 6 7 7 8 8
REMARK H PARENT
REMARK Flexibility Score: inf
ROOT
ATOM      1  C   UNL     1      30.695  -7.331  32.037  1.00  0.00     0.059 C 
ENDROOT
BRANCH   1   2
ATOM      2  C   UNL     1      31.540  -8.175  31.134  1.00  0.00     0.042 C 
ATOM      3  O   UNL     1      32.596  -7.707  30.632  1.00  0.00    -0.550 OA
ATOM      4  O   UNL     1      31.183  -9.494  30.878  1.00  0.00    -0.550 OA
ENDBRANCH   1   2
BRANCH   1   5
ATOM      5  C   UNL     1      31.529  -6.671  33.139  1.00  0.00     0.059 C 
BRANCH   5   6
ATOM      6  C   UNL     1      32.030  -7.678  34.129  1.00  0.00     0.042 C 
ATOM      7  O   UNL     1      31.494  -8.815  34.204  1.00  0.00    -0.550 OA
ATOM      8  O   UNL     1      33.061  -7.345  34.997  1.00  0.00    -0.550 OA
ENDBRANCH   5   6
ENDBRANCH   1   5
TORSDOF 3
ENDMDL
MODEL 3
REMARK VINA RESULT:    -3.257     14.682     15.522
REMARK INTER + INTRA:          -3.806
REMARK INTER:                  -3.686
REMARK INTRA:                  -0.120
REMARK UNBOUND:                 0.022
REMARK SMILES O=C([O-])CCC(=O)[O-]
REMARK SMILES IDX 4 1 2 2 1 3 3 4 5 5 6 6 7 7 8 8
REMARK H PARENT
REMARK Flexibility Score: inf
ROOT
ATOM      1  C   UNL     1      21.148  -2.224  42.407  1.00  0.00     0.059 C 
ENDROOT
BRANCH   1   2
ATOM      2  C   UNL     1      20.718  -1.274  43.482  1.00  0.00     0.042 C 
ATOM      3  O   UNL     1      20.143  -0.195  43.181  1.00  0.00    -0.550 OA
ATOM      4  O   UNL     1      20.916  -1.600  44.818  1.00  0.00    -0.550 OA
ENDBRANCH   1   2
BRANCH   1   5
ATOM      5  C   UNL     1      22.559  -1.905  41.902  1.00  0.00     0.059 C 
BRANCH   5   6
ATOM      6  C   UNL     1      22.534  -1.342  40.514  1.00  0.00     0.042 C 
ATOM      7  O   UNL     1      22.995  -2.009  39.550  1.00  0.00    -0.550 OA
ATOM      8  O   UNL     1      22.037  -0.064  40.292  1.00  0.00    -0.550 OA
ENDBRANCH   5   6
ENDBRANCH   1   5
TORSDOF 3
ENDMDL
MODEL 4
REMARK VINA RESULT:    -3.251      1.318      3.692
REMARK INTER + INTRA:          -3.799
REMARK INTER:                  -3.685
REMARK INTRA:                  -0.114
REMARK UNBOUND:                 0.022
REMARK SMILES O=C([O-])CCC(=O)[O-]
REMARK SMILES IDX 4 1 2 2 1 3 3 4 5 5 6 6 7 7 8 8
REMARK H PARENT
REMARK Flexibility Score: inf
ROOT
ATOM      1  C   UNL     1      31.152  -8.816  31.764  1.00  0.00     0.059 C 
ENDROOT
BRANCH   1   2
ATOM      2  C   UNL     1      32.345  -8.980  30.874  1.00  0.00     0.042 C 
ATOM      3  O   UNL     1      33.000  -7.971  30.499  1.00  0.00    -0.550 OA
ATOM      4  O   UNL     1      32.759 -10.250  30.491  1.00  0.00    -0.550 OA
ENDBRANCH   1   2
BRANCH   1   5
ATOM      5  C   UNL     1      31.534  -8.910  33.244  1.00  0.00     0.059 C 
BRANCH   5   6
ATOM      6  C   UNL     1      31.976  -7.584  33.785  1.00  0.00     0.042 C 
ATOM      7  O   UNL     1      32.738  -7.528  34.785  1.00  0.00    -0.550 OA
ATOM      8  O   UNL     1      31.511  -6.409  33.207  1.00  0.00    -0.550 OA
ENDBRANCH   5   6
ENDBRANCH   1   5
TORSDOF 3
ENDMDL
MODEL 5
REMARK VINA RESULT:    -3.250     14.340     15.473
REMARK INTER + INTRA:          -3.798
REMARK INTER:                  -3.677
REMARK INTRA:                  -0.121
REMARK UNBOUND:                 0.022
REMARK SMILES O=C([O-])CCC(=O)[O-]
REMARK SMILES IDX 4 1 2 2 1 3 3 4 5 5 6 6 7 7 8 8
REMARK H PARENT
REMARK Flexibility Score: inf
ROOT
ATOM      1  C   UNL     1      22.810  -2.006  41.735  1.00  0.00     0.059 C 
ENDROOT
BRANCH   1   2
ATOM      2  C   UNL     1      22.717  -1.619  40.292  1.00  0.00     0.042 C 
ATOM      3  O   UNL     1      23.224  -2.353  39.404  1.00  0.00    -0.550 OA
ATOM      4  O   UNL     1      22.035  -0.465  39.923  1.00  0.00    -0.550 OA
ENDBRANCH   1   2
BRANCH   1   5
ATOM      5  C   UNL     1      21.444  -2.409  42.301  1.00  0.00     0.059 C 
BRANCH   5   6
ATOM      6  C   UNL     1      20.942  -1.406  43.295  1.00  0.00     0.042 C 
ATOM      7  O   UNL     1      20.512  -0.288  42.907  1.00  0.00    -0.550 OA
ATOM      8  O   UNL     1      20.988  -1.693  44.653  1.00  0.00    -0.550 OA
ENDBRANCH   5   6
ENDBRANCH   1   5
TORSDOF 3
ENDMDL
MODEL 6
REMARK VINA RESULT:    -3.142     14.184     15.343
REMARK INTER + INTRA:          -3.670
REMARK INTER:                  -3.581
REMARK INTRA:                  -0.089
REMARK UNBOUND:                 0.022
REMARK SMILES O=C([O-])CCC(=O)[O-]
REMARK SMILES IDX 4 1 2 2 1 3 3 4 5 5 6 6 7 7 8 8
REMARK H PARENT
REMARK Flexibility Score: inf
ROOT
ATOM      1  C   UNL     1      21.320  -2.041  41.683  1.00  0.00     0.059 C 
ENDROOT
BRANCH   1   2
ATOM      2  C   UNL     1      22.140  -1.025  40.949  1.00  0.00     0.042 C 
ATOM      3  O   UNL     1      22.753  -1.345  39.896  1.00  0.00    -0.550 OA
ATOM      4  O   UNL     1      22.194   0.286  41.405  1.00  0.00    -0.550 OA
ENDBRANCH   1   2
BRANCH   1   5
ATOM      5  C   UNL     1      21.432  -1.868  43.201  1.00  0.00     0.059 C 
BRANCH   5   6
ATOM      6  C   UNL     1      22.507  -2.738  43.777  1.00  0.00     0.042 C 
ATOM      7  O   UNL     1      23.044  -3.634  43.074  1.00  0.00    -0.550 OA
ATOM      8  O   UNL     1      22.887  -2.586  45.105  1.00  0.00    -0.550 OA
ENDBRANCH   5   6
ENDBRANCH   1   5
TORSDOF 3
ENDMDL
MODEL 7
REMARK VINA RESULT:    -3.133     14.791     15.621
REMARK INTER + INTRA:          -3.660
REMARK INTER:                  -3.608
REMARK INTRA:                  -0.052
REMARK UNBOUND:                 0.022
REMARK SMILES O=C([O-])CCC(=O)[O-]
REMARK SMILES IDX 4 1 2 2 1 3 3 4 5 5 6 6 7 7 8 8
REMARK H PARENT
REMARK Flexibility Score: inf
ROOT
ATOM      1  C   UNL     1      21.038  -2.003  42.720  1.00  0.00     0.059 C 
ENDROOT
BRANCH   1   2
ATOM      2  C   UNL     1      21.030  -1.601  44.162  1.00  0.00     0.042 C 
ATOM      3  O   UNL     1      20.191  -0.762  44.583  1.00  0.00    -0.550 OA
ATOM      4  O   UNL     1      21.925  -2.185  45.052  1.00  0.00    -0.550 OA
ENDBRANCH   1   2
BRANCH   1   5
ATOM      5  C   UNL     1      22.455  -2.000  42.139  1.00  0.00     0.059 C 
BRANCH   5   6
ATOM      6  C   UNL     1      22.516  -1.261  40.837  1.00  0.00     0.042 C 
ATOM      7  O   UNL     1      22.133  -0.064  40.768  1.00  0.00    -0.550 OA
ATOM      8  O   UNL     1      22.957  -1.909  39.691  1.00  0.00    -0.550 OA
ENDBRANCH   5   6
ENDBRANCH   1   5
TORSDOF 3
ENDMDL
MODEL 8
REMARK VINA RESULT:    -3.129      1.859      2.659
REMARK INTER + INTRA:          -3.655
REMARK INTER:                  -3.487
REMARK INTRA:                  -0.168
REMARK UNBOUND:                 0.022
REMARK SMILES O=C([O-])CCC(=O)[O-]
REMARK SMILES IDX 4 1 2 2 1 3 3 4 5 5 6 6 7 7 8 8
REMARK H PARENT
REMARK Flexibility Score: inf
ROOT
ATOM      1  C   UNL     1      31.557  -7.996  31.432  1.00  0.00     0.059 C 
ENDROOT
BRANCH   1   2
ATOM      2  C   UNL     1      30.998  -7.633  32.773  1.00  0.00     0.042 C 
ATOM      3  O   UNL     1      30.001  -6.868  32.858  1.00  0.00    -0.550 OA
ATOM      4  O   UNL     1      31.554  -8.170  33.927  1.00  0.00    -0.550 OA
ENDBRANCH   1   2
BRANCH   1   5
ATOM      5  C   UNL     1      31.612  -9.514  31.235  1.00  0.00     0.059 C 
BRANCH   5   6
ATOM      6  C   UNL     1      30.242 -10.121  31.236  1.00  0.00     0.042 C 
ATOM      7  O   UNL     1      30.014 -11.171  31.892  1.00  0.00    -0.550 OA
ATOM      8  O   UNL     1      29.229  -9.547  30.480  1.00  0.00    -0.550 OA
ENDBRANCH   5   6
ENDBRANCH   1   5
TORSDOF 3
ENDMDL
MODEL 9
REMARK VINA RESULT:    -3.122      1.862      3.719
REMARK INTER + INTRA:          -3.647
REMARK INTER:                  -3.487
REMARK INTRA:                  -0.160
REMARK UNBOUND:                 0.022
REMARK SMILES O=C([O-])CCC(=O)[O-]
REMARK SMILES IDX 4 1 2 2 1 3 3 4 5 5 6 6 7 7 8 8
REMARK H PARENT
REMARK Flexibility Score: inf
ROOT
ATOM      1  C   UNL     1      31.627  -9.417  31.277  1.00  0.00     0.059 C 
ENDROOT
BRANCH   1   2
ATOM      2  C   UNL     1      30.293 -10.095  31.246  1.00  0.00     0.042 C 
ATOM      3  O   UNL     1      30.100 -11.148  31.910  1.00  0.00    -0.550 OA
ATOM      4  O   UNL     1      29.248  -9.543  30.515  1.00  0.00    -0.550 OA
ENDBRANCH   1   2
BRANCH   1   5
ATOM      5  C   UNL     1      31.487  -7.902  31.453  1.00  0.00     0.059 C 
BRANCH   5   6
ATOM      6  C   UNL     1      30.933  -7.553  32.801  1.00  0.00     0.042 C 
ATOM      7  O   UNL     1      29.944  -6.779  32.899  1.00  0.00    -0.550 OA
ATOM      8  O   UNL     1      31.534  -8.051  33.949  1.00  0.00    -0.550 OA
ENDBRANCH   5   6
ENDBRANCH   1   5
TORSDOF 3
ENDMDL
