MODEL 1
REMARK VINA RESULT:    -4.748      0.000      0.000
REMARK INTER + INTRA:         -10.258
REMARK INTER:                  -8.911
REMARK INTRA:                  -1.347
REMARK UNBOUND:                -1.347
REMARK SMILES O=C([O-])CCCCCCCCCCCCCCC(=O)[O-]
REMARK SMILES IDX 10 1 9 2 8 3 7 4 6 5 5 6 4 7 2 8 1 9 3 10 11 11 12 12 13 13
REMARK SMILES IDX 14 14 15 15 16 16 17 17 18 18 19 19 20 20
REMARK H PARENT
REMARK Flexibility Score: inf
ROOT
ATOM      1  C   UNL     1      -3.874   0.808  11.089  1.00  0.00     0.000 C 
ENDROOT
BRANCH   1   2
ATOM      2  C   UNL     1      -2.358   0.561  11.098  1.00  0.00     0.000 C 
BRANCH   2   3
ATOM      3  C   UNL     1      -1.890  -0.248  12.321  1.00  0.00     0.000 C 
BRANCH   3   4
ATOM      4  C   UNL     1      -0.776  -1.277  12.038  1.00  0.00     0.000 C 
BRANCH   4   5
ATOM      5  C   UNL     1      -1.210  -2.751  12.126  1.00  0.00     0.000 C 
BRANCH   5   6
ATOM      6  C   UNL     1      -2.168  -3.160  10.995  1.00  0.00     0.006 C 
BRANCH   6   7
ATOM      7  C   UNL     1      -3.472  -3.765  11.533  1.00  0.00     0.053 C 
BRANCH   7   8
ATOM      8  C   UNL     1      -4.221  -4.513  10.471  1.00  0.00     0.041 C 
ATOM      9  O   UNL     1      -5.048  -5.407  10.791  1.00  0.00    -0.550 OA
ATOM     10  O   UNL     1      -4.028  -4.200   9.132  1.00  0.00    -0.550 OA
ENDBRANCH   7   8
ENDBRANCH   6   7
ENDBRANCH   5   6
ENDBRANCH   4   5
ENDBRANCH   3   4
ENDBRANCH   2   3
ENDBRANCH   1   2
BRANCH   1  11
ATOM     11  C   UNL     1      -4.525   0.263  12.369  1.00  0.00     0.000 C 
BRANCH  11  12
ATOM     12  C   UNL     1      -5.617   1.193  12.921  1.00  0.00     0.000 C 
BRANCH  12  13
ATOM     13  C   UNL     1      -5.042   2.454  13.582  1.00  0.00     0.000 C 
BRANCH  13  14
ATOM     14  C   UNL     1      -4.454   2.133  14.961  1.00  0.00     0.000 C 
BRANCH  14  15
ATOM     15  C   UNL     1      -5.096   3.004  16.050  1.00  0.00     0.000 C 
BRANCH  15  16
ATOM     16  C   UNL     1      -6.591   2.702  16.262  1.00  0.00     0.006 C 
BRANCH  16  17
ATOM     17  C   UNL     1      -7.475   3.959  16.351  1.00  0.00     0.053 C 
BRANCH  17  18
ATOM     18  C   UNL     1      -7.990   4.402  15.016  1.00  0.00     0.041 C 
ATOM     19  O   UNL     1      -9.101   3.985  14.592  1.00  0.00    -0.550 OA
ATOM     20  O   UNL     1      -7.229   5.253  14.224  1.00  0.00    -0.550 OA
ENDBRANCH  17  18
ENDBRANCH  16  17
ENDBRANCH  15  16
ENDBRANCH  14  15
ENDBRANCH  13  14
ENDBRANCH  12  13
ENDBRANCH  11  12
ENDBRANCH   1  11
TORSDOF 15
ENDMDL
MODEL 2
REMARK VINA RESULT:    -4.645      2.010      8.188
REMARK INTER + INTRA:         -10.065
REMARK INTER:                  -8.707
REMARK INTRA:                  -1.358
REMARK UNBOUND:                -1.347
REMARK SMILES O=C([O-])CCCCCCCCCCCCCCC(=O)[O-]
REMARK SMILES IDX 10 1 9 2 8 3 7 4 6 5 5 6 4 7 2 8 1 9 3 10 11 11 12 12 13 13
REMARK SMILES IDX 14 14 15 15 16 16 17 17 18 18 19 19 20 20
REMARK H PARENT
REMARK Flexibility Score: inf
ROOT
ATOM      1  C   UNL     1      -2.982   3.525  10.615  1.00  0.00     0.000 C 
ENDROOT
BRANCH   1   2
ATOM      2  C   UNL     1      -3.083   3.794  12.123  1.00  0.00     0.000 C 
BRANCH   2   3
ATOM      3  C   UNL     1      -4.007   4.978  12.459  1.00  0.00     0.000 C 
BRANCH   3   4
ATOM      4  C   UNL     1      -4.936   4.760  13.672  1.00  0.00     0.000 C 
BRANCH   4   5
ATOM      5  C   UNL     1      -4.622   3.514  14.520  1.00  0.00     0.000 C 
BRANCH   5   6
ATOM      6  C   UNL     1      -5.867   2.659  14.810  1.00  0.00     0.006 C 
BRANCH   6   7
ATOM      7  C   UNL     1      -6.411   2.892  16.226  1.00  0.00     0.053 C 
BRANCH   7   8
ATOM      8  C   UNL     1      -7.480   3.943  16.249  1.00  0.00     0.041 C 
ATOM      9  O   UNL     1      -7.268   5.049  16.811  1.00  0.00    -0.550 OA
ATOM     10  O   UNL     1      -8.697   3.711  15.623  1.00  0.00    -0.550 OA
ENDBRANCH   7   8
ENDBRANCH   6   7
ENDBRANCH   5   6
ENDBRANCH   4   5
ENDBRANCH   3   4
ENDBRANCH   2   3
ENDBRANCH   1   2
BRANCH   1  11
ATOM     11  C   UNL     1      -4.025   2.488  10.172  1.00  0.00     0.000 C 
BRANCH  11  12
ATOM     12  C   UNL     1      -4.385   1.495  11.288  1.00  0.00     0.000 C 
BRANCH  12  13
ATOM     13  C   UNL     1      -3.926   0.063  10.977  1.00  0.00     0.000 C 
BRANCH  13  14
ATOM     14  C   UNL     1      -3.554  -0.086   9.496  1.00  0.00     0.000 C 
BRANCH  14  15
ATOM     15  C   UNL     1      -4.304  -1.262   8.855  1.00  0.00     0.000 C 
BRANCH  15  16
ATOM     16  C   UNL     1      -3.463  -2.552   8.795  1.00  0.00     0.006 C 
BRANCH  16  17
ATOM     17  C   UNL     1      -4.073  -3.731   9.573  1.00  0.00     0.053 C 
BRANCH  17  18
ATOM     18  C   UNL     1      -3.645  -3.762  11.008  1.00  0.00     0.041 C 
ATOM     19  O   UNL     1      -4.411  -4.230  11.891  1.00  0.00    -0.550 OA
ATOM     20  O   UNL     1      -2.409  -3.244  11.376  1.00  0.00    -0.550 OA
ENDBRANCH  17  18
ENDBRANCH  16  17
ENDBRANCH  15  16
ENDBRANCH  14  15
ENDBRANCH  13  14
ENDBRANCH  12  13
ENDBRANCH  11  12
ENDBRANCH   1  11
TORSDOF 15
ENDMDL
MODEL 3
REMARK VINA RESULT:    -4.608      1.189      8.196
REMARK INTER + INTRA:          -9.996
REMARK INTER:                  -8.639
REMARK INTRA:                  -1.357
REMARK UNBOUND:                -1.347
REMARK SMILES O=C([O-])CCCCCCCCCCCCCCC(=O)[O-]
REMARK SMILES IDX 10 1 9 2 8 3 7 4 6 5 5 6 4 7 2 8 1 9 3 10 11 11 12 12 13 13
REMARK SMILES IDX 14 14 15 15 16 16 17 17 18 18 19 19 20 20
REMARK H PARENT
REMARK Flexibility Score: inf
ROOT
ATOM      1  C   UNL     1      -3.660   1.981  10.412  1.00  0.00     0.000 C 
ENDROOT
BRANCH   1   2
ATOM      2  C   UNL     1      -4.145   2.466  11.785  1.00  0.00     0.000 C 
BRANCH   2   3
ATOM      3  C   UNL     1      -4.765   1.341  12.633  1.00  0.00     0.000 C 
BRANCH   3   4
ATOM      4  C   UNL     1      -4.808   1.614  14.151  1.00  0.00     0.000 C 
BRANCH   4   5
ATOM      5  C   UNL     1      -5.085   3.076  14.545  1.00  0.00     0.000 C 
BRANCH   5   6
ATOM      6  C   UNL     1      -5.487   3.232  16.021  1.00  0.00     0.006 C 
BRANCH   6   7
ATOM      7  C   UNL     1      -6.964   2.888  16.257  1.00  0.00     0.053 C 
BRANCH   7   8
ATOM      8  C   UNL     1      -7.859   4.065  16.008  1.00  0.00     0.041 C 
ATOM      9  O   UNL     1      -8.745   4.007  15.115  1.00  0.00    -0.550 OA
ATOM     10  O   UNL     1      -7.733   5.211  16.781  1.00  0.00    -0.550 OA
ENDBRANCH   7   8
ENDBRANCH   6   7
ENDBRANCH   5   6
ENDBRANCH   4   5
ENDBRANCH   3   4
ENDBRANCH   2   3
ENDBRANCH   1   2
BRANCH   1  11
ATOM     11  C   UNL     1      -4.012   0.502  10.197  1.00  0.00     0.000 C 
BRANCH  11  12
ATOM     12  C   UNL     1      -2.833  -0.315   9.646  1.00  0.00     0.000 C 
BRANCH  12  13
ATOM     13  C   UNL     1      -1.623  -0.321  10.591  1.00  0.00     0.000 C 
BRANCH  13  14
ATOM     14  C   UNL     1      -1.926  -1.117  11.866  1.00  0.00     0.000 C 
BRANCH  14  15
ATOM     15  C   UNL     1      -1.153  -2.444  11.884  1.00  0.00     0.000 C 
BRANCH  15  16
ATOM     16  C   UNL     1      -2.068  -3.673  12.044  1.00  0.00     0.006 C 
BRANCH  16  17
ATOM     17  C   UNL     1      -3.481  -3.478  11.467  1.00  0.00     0.053 C 
BRANCH  17  18
ATOM     18  C   UNL     1      -3.656  -4.130  10.130  1.00  0.00     0.041 C 
ATOM     19  O   UNL     1      -4.743  -4.695   9.834  1.00  0.00    -0.550 OA
ATOM     20  O   UNL     1      -2.606  -4.142   9.219  1.00  0.00    -0.550 OA
ENDBRANCH  17  18
ENDBRANCH  16  17
ENDBRANCH  15  16
ENDBRANCH  14  15
ENDBRANCH  13  14
ENDBRANCH  12  13
ENDBRANCH  11  12
ENDBRANCH   1  11
TORSDOF 15
ENDMDL
MODEL 4
REMARK VINA RESULT:    -4.605      1.549      7.794
REMARK INTER + INTRA:          -9.990
REMARK INTER:                  -8.450
REMARK INTRA:                  -1.539
REMARK UNBOUND:                -1.347
REMARK SMILES O=C([O-])CCCCCCCCCCCCCCC(=O)[O-]
REMARK SMILES IDX 10 1 9 2 8 3 7 4 6 5 5 6 4 7 2 8 1 9 3 10 11 11 12 12 13 13
REMARK SMILES IDX 14 14 15 15 16 16 17 17 18 18 19 19 20 20
REMARK H PARENT
REMARK Flexibility Score: inf
ROOT
ATOM      1  C   UNL     1      -2.439  -0.257   9.071  1.00  0.00     0.000 C 
ENDROOT
BRANCH   1   2
ATOM      2  C   UNL     1      -3.820   0.118   9.627  1.00  0.00     0.000 C 
BRANCH   2   3
ATOM      3  C   UNL     1      -3.747   1.152  10.765  1.00  0.00     0.000 C 
BRANCH   3   4
ATOM      4  C   UNL     1      -3.869   0.568  12.188  1.00  0.00     0.000 C 
BRANCH   4   5
ATOM      5  C   UNL     1      -5.223   0.808  12.880  1.00  0.00     0.000 C 
BRANCH   5   6
ATOM      6  C   UNL     1      -5.263   2.123  13.675  1.00  0.00     0.006 C 
BRANCH   6   7
ATOM      7  C   UNL     1      -4.926   1.914  15.157  1.00  0.00     0.053 C 
BRANCH   7   8
ATOM      8  C   UNL     1      -5.678   2.863  16.041  1.00  0.00     0.041 C 
ATOM      9  O   UNL     1      -5.402   4.092  16.028  1.00  0.00    -0.550 OA
ATOM     10  O   UNL     1      -6.701   2.396  16.855  1.00  0.00    -0.550 OA
ENDBRANCH   7   8
ENDBRANCH   6   7
ENDBRANCH   5   6
ENDBRANCH   4   5
ENDBRANCH   3   4
ENDBRANCH   2   3
ENDBRANCH   1   2
BRANCH   1  11
ATOM     11  C   UNL     1      -1.348   0.653   9.655  1.00  0.00     0.000 C 
BRANCH  11  12
ATOM     12  C   UNL     1      -0.213  -0.138  10.323  1.00  0.00     0.000 C 
BRANCH  12  13
ATOM     13  C   UNL     1      -0.544  -1.628  10.485  1.00  0.00     0.000 C 
BRANCH  13  14
ATOM     14  C   UNL     1      -0.995  -1.938  11.918  1.00  0.00     0.000 C 
BRANCH  14  15
ATOM     15  C   UNL     1      -1.815  -3.235  11.969  1.00  0.00     0.000 C 
BRANCH  15  16
ATOM     16  C   UNL     1      -3.255  -3.059  11.452  1.00  0.00     0.006 C 
BRANCH  16  17
ATOM     17  C   UNL     1      -4.070  -4.365  11.417  1.00  0.00     0.053 C 
BRANCH  17  18
ATOM     18  C   UNL     1      -4.630  -4.663  10.060  1.00  0.00     0.041 C 
ATOM     19  O   UNL     1      -5.665  -5.371   9.940  1.00  0.00    -0.550 OA
ATOM     20  O   UNL     1      -3.990  -4.184   8.923  1.00  0.00    -0.550 OA
ENDBRANCH  17  18
ENDBRANCH  16  17
ENDBRANCH  15  16
ENDBRANCH  14  15
ENDBRANCH  13  14
ENDBRANCH  12  13
ENDBRANCH  11  12
ENDBRANCH   1  11
TORSDOF 15
ENDMDL
MODEL 5
REMARK VINA RESULT:    -4.567      1.796      2.166
REMARK INTER + INTRA:          -9.918
REMARK INTER:                  -8.807
REMARK INTRA:                  -1.110
REMARK UNBOUND:                -1.347
REMARK SMILES O=C([O-])CCCCCCCCCCCCCCC(=O)[O-]
REMARK SMILES IDX 10 1 9 2 8 3 7 4 6 5 5 6 4 7 2 8 1 9 3 10 11 11 12 12 13 13
REMARK SMILES IDX 14 14 15 15 16 16 17 17 18 18 19 19 20 20
REMARK H PARENT
REMARK Flexibility Score: inf
ROOT
ATOM      1  C   UNL     1      -4.002  -0.051  11.071  1.00  0.00     0.000 C 
ENDROOT
BRANCH   1   2
ATOM      2  C   UNL     1      -3.449   0.906  10.006  1.00  0.00     0.000 C 
BRANCH   2   3
ATOM      3  C   UNL     1      -2.655   0.181   8.903  1.00  0.00     0.000 C 
BRANCH   3   4
ATOM      4  C   UNL     1      -3.145  -1.245   8.575  1.00  0.00     0.000 C 
BRANCH   4   5
ATOM      5  C   UNL     1      -2.090  -2.353   8.745  1.00  0.00     0.000 C 
BRANCH   5   6
ATOM      6  C   UNL     1      -2.701  -3.765   8.735  1.00  0.00     0.006 C 
BRANCH   6   7
ATOM      7  C   UNL     1      -4.091  -3.798   9.383  1.00  0.00     0.053 C 
BRANCH   7   8
ATOM      8  C   UNL     1      -4.042  -4.327  10.784  1.00  0.00     0.041 C 
ATOM      9  O   UNL     1      -3.402  -3.706  11.673  1.00  0.00    -0.550 OA
ATOM     10  O   UNL     1      -4.727  -5.489  11.114  1.00  0.00    -0.550 OA
ENDBRANCH   7   8
ENDBRANCH   6   7
ENDBRANCH   5   6
ENDBRANCH   4   5
ENDBRANCH   3   4
ENDBRANCH   2   3
ENDBRANCH   1   2
BRANCH   1  11
ATOM     11  C   UNL     1      -4.553   0.728  12.275  1.00  0.00     0.000 C 
BRANCH  11  12
ATOM     12  C   UNL     1      -3.933   2.128  12.409  1.00  0.00     0.000 C 
BRANCH  12  13
ATOM     13  C   UNL     1      -4.626   2.984  13.479  1.00  0.00     0.000 C 
BRANCH  13  14
ATOM     14  C   UNL     1      -5.450   2.109  14.432  1.00  0.00     0.000 C 
BRANCH  14  15
ATOM     15  C   UNL     1      -5.443   2.688  15.854  1.00  0.00     0.000 C 
BRANCH  15  16
ATOM     16  C   UNL     1      -6.852   2.793  16.469  1.00  0.00     0.006 C 
BRANCH  16  17
ATOM     17  C   UNL     1      -7.717   3.912  15.861  1.00  0.00     0.053 C 
BRANCH  17  18
ATOM     18  C   UNL     1      -7.136   5.276  16.077  1.00  0.00     0.041 C 
ATOM     19  O   UNL     1      -7.165   5.806  17.219  1.00  0.00    -0.550 OA
ATOM     20  O   UNL     1      -6.588   5.976  15.009  1.00  0.00    -0.550 OA
ENDBRANCH  17  18
ENDBRANCH  16  17
ENDBRANCH  15  16
ENDBRANCH  14  15
ENDBRANCH  13  14
ENDBRANCH  12  13
ENDBRANCH  11  12
ENDBRANCH   1  11
TORSDOF 15
ENDMDL
MODEL 6
REMARK VINA RESULT:    -4.566      1.941      7.551
REMARK INTER + INTRA:          -9.917
REMARK INTER:                  -7.888
REMARK INTRA:                  -2.029
REMARK UNBOUND:                -1.347
REMARK SMILES O=C([O-])CCCCCCCCCCCCCCC(=O)[O-]
REMARK SMILES IDX 10 1 9 2 8 3 7 4 6 5 5 6 4 7 2 8 1 9 3 10 11 11 12 12 13 13
REMARK SMILES IDX 14 14 15 15 16 16 17 17 18 18 19 19 20 20
REMARK H PARENT
REMARK Flexibility Score: inf
ROOT
ATOM      1  C   UNL     1      -3.581   3.977  11.290  1.00  0.00     0.000 C 
ENDROOT
BRANCH   1   2
ATOM      2  C   UNL     1      -2.249   3.534  11.912  1.00  0.00     0.000 C 
BRANCH   2   3
ATOM      3  C   UNL     1      -2.326   3.371  13.441  1.00  0.00     0.000 C 
BRANCH   3   4
ATOM      4  C   UNL     1      -2.528   1.924  13.936  1.00  0.00     0.000 C 
BRANCH   4   5
ATOM      5  C   UNL     1      -3.764   1.703  14.826  1.00  0.00     0.000 C 
BRANCH   5   6
ATOM      6  C   UNL     1      -5.086   1.791  14.044  1.00  0.00     0.006 C 
BRANCH   6   7
ATOM      7  C   UNL     1      -5.887   3.049  14.403  1.00  0.00     0.053 C 
BRANCH   7   8
ATOM      8  C   UNL     1      -5.973   3.253  15.886  1.00  0.00     0.041 C 
ATOM      9  O   UNL     1      -6.649   2.462  16.595  1.00  0.00    -0.550 OA
ATOM     10  O   UNL     1      -5.282   4.298  16.486  1.00  0.00    -0.550 OA
ENDBRANCH   7   8
ENDBRANCH   6   7
ENDBRANCH   5   6
ENDBRANCH   4   5
ENDBRANCH   3   4
ENDBRANCH   2   3
ENDBRANCH   1   2
BRANCH   1  11
ATOM     11  C   UNL     1      -4.063   2.958  10.246  1.00  0.00     0.000 C 
BRANCH  11  12
ATOM     12  C   UNL     1      -3.158   1.720  10.163  1.00  0.00     0.000 C 
BRANCH  12  13
ATOM     13  C   UNL     1      -3.952   0.407  10.120  1.00  0.00     0.000 C 
BRANCH  13  14
ATOM     14  C   UNL     1      -3.738  -0.408  11.401  1.00  0.00     0.000 C 
BRANCH  14  15
ATOM     15  C   UNL     1      -2.284  -0.888  11.512  1.00  0.00     0.000 C 
BRANCH  15  16
ATOM     16  C   UNL     1      -2.149  -2.422  11.454  1.00  0.00     0.006 C 
BRANCH  16  17
ATOM     17  C   UNL     1      -3.486  -3.159  11.262  1.00  0.00     0.053 C 
BRANCH  17  18
ATOM     18  C   UNL     1      -3.553  -3.910   9.967  1.00  0.00     0.041 C 
ATOM     19  O   UNL     1      -4.657  -4.335   9.534  1.00  0.00    -0.550 OA
ATOM     20  O   UNL     1      -2.390  -4.168   9.252  1.00  0.00    -0.550 OA
ENDBRANCH  17  18
ENDBRANCH  16  17
ENDBRANCH  15  16
ENDBRANCH  14  15
ENDBRANCH  13  14
ENDBRANCH  12  13
ENDBRANCH  11  12
ENDBRANCH   1  11
TORSDOF 15
ENDMDL
MODEL 7
REMARK VINA RESULT:    -4.552      2.245      8.388
REMARK INTER + INTRA:          -9.890
REMARK INTER:                  -8.597
REMARK INTRA:                  -1.293
REMARK UNBOUND:                -1.347
REMARK SMILES O=C([O-])CCCCCCCCCCCCCCC(=O)[O-]
REMARK SMILES IDX 10 1 9 2 8 3 7 4 6 5 5 6 4 7 2 8 1 9 3 10 11 11 12 12 13 13
REMARK SMILES IDX 14 14 15 15 16 16 17 17 18 18 19 19 20 20
REMARK H PARENT
REMARK Flexibility Score: inf
ROOT
ATOM      1  C   UNL     1      -3.849   1.391  10.446  1.00  0.00     0.000 C 
ENDROOT
BRANCH   1   2
ATOM      2  C   UNL     1      -3.665   0.923  11.897  1.00  0.00     0.000 C 
BRANCH   2   3
ATOM      3  C   UNL     1      -5.000   0.652  12.613  1.00  0.00     0.000 C 
BRANCH   3   4
ATOM      4  C   UNL     1      -5.478   1.779  13.554  1.00  0.00     0.000 C 
BRANCH   4   5
ATOM      5  C   UNL     1      -4.652   1.949  14.842  1.00  0.00     0.000 C 
BRANCH   5   6
ATOM      6  C   UNL     1      -5.120   3.138  15.698  1.00  0.00     0.006 C 
BRANCH   6   7
ATOM      7  C   UNL     1      -6.468   2.865  16.379  1.00  0.00     0.053 C 
BRANCH   7   8
ATOM      8  C   UNL     1      -7.450   3.972  16.138  1.00  0.00     0.041 C 
ATOM      9  O   UNL     1      -7.387   5.032  16.814  1.00  0.00    -0.550 OA
ATOM     10  O   UNL     1      -8.413   3.844  15.146  1.00  0.00    -0.550 OA
ENDBRANCH   7   8
ENDBRANCH   6   7
ENDBRANCH   5   6
ENDBRANCH   4   5
ENDBRANCH   3   4
ENDBRANCH   2   3
ENDBRANCH   1   2
BRANCH   1  11
ATOM     11  C   UNL     1      -3.202   0.402   9.465  1.00  0.00     0.000 C 
BRANCH  11  12
ATOM     12  C   UNL     1      -4.062  -0.851   9.234  1.00  0.00     0.000 C 
BRANCH  12  13
ATOM     13  C   UNL     1      -3.275  -1.998   8.583  1.00  0.00     0.000 C 
BRANCH  13  14
ATOM     14  C   UNL     1      -3.483  -3.311   9.347  1.00  0.00     0.000 C 
BRANCH  14  15
ATOM     15  C   UNL     1      -3.662  -3.051  10.850  1.00  0.00     0.000 C 
BRANCH  15  16
ATOM     16  C   UNL     1      -2.408  -3.397  11.675  1.00  0.00     0.006 C 
BRANCH  16  17
ATOM     17  C   UNL     1      -1.438  -2.216  11.862  1.00  0.00     0.053 C 
BRANCH  17  18
ATOM     18  C   UNL     1      -0.012  -2.653  11.996  1.00  0.00     0.041 C 
ATOM     19  O   UNL     1       0.866  -1.845  12.401  1.00  0.00    -0.550 OA
ATOM     20  O   UNL     1       0.356  -3.946  11.644  1.00  0.00    -0.550 OA
ENDBRANCH  17  18
ENDBRANCH  16  17
ENDBRANCH  15  16
ENDBRANCH  14  15
ENDBRANCH  13  14
ENDBRANCH  12  13
ENDBRANCH  11  12
ENDBRANCH   1  11
TORSDOF 15
ENDMDL
MODEL 8
REMARK VINA RESULT:    -4.468      1.874      8.073
REMARK INTER + INTRA:          -9.732
REMARK INTER:                  -7.895
REMARK INTRA:                  -1.837
REMARK UNBOUND:                -1.347
REMARK SMILES O=C([O-])CCCCCCCCCCCCCCC(=O)[O-]
REMARK SMILES IDX 10 1 9 2 8 3 7 4 6 5 5 6 4 7 2 8 1 9 3 10 11 11 12 12 13 13
REMARK SMILES IDX 14 14 15 15 16 16 17 17 18 18 19 19 20 20
REMARK H PARENT
REMARK Flexibility Score: inf
ROOT
ATOM      1  C   UNL     1      -2.728   2.689  15.137  1.00  0.00     0.000 C 
ENDROOT
BRANCH   1   2
ATOM      2  C   UNL     1      -3.835   3.398  15.930  1.00  0.00     0.000 C 
BRANCH   2   3
ATOM      3  C   UNL     1      -3.819   4.926  15.745  1.00  0.00     0.000 C 
BRANCH   3   4
ATOM      4  C   UNL     1      -3.840   5.407  14.279  1.00  0.00     0.000 C 
BRANCH   4   5
ATOM      5  C   UNL     1      -5.138   5.104  13.510  1.00  0.00     0.000 C 
BRANCH   5   6
ATOM      6  C   UNL     1      -6.402   5.516  14.283  1.00  0.00     0.006 C 
BRANCH   6   7
ATOM      7  C   UNL     1      -7.325   4.322  14.559  1.00  0.00     0.053 C 
BRANCH   7   8
ATOM      8  C   UNL     1      -7.488   4.069  16.028  1.00  0.00     0.041 C 
ATOM      9  O   UNL     1      -7.351   2.905  16.488  1.00  0.00    -0.550 OA
ATOM     10  O   UNL     1      -7.760   5.123  16.890  1.00  0.00    -0.550 OA
ENDBRANCH   7   8
ENDBRANCH   6   7
ENDBRANCH   5   6
ENDBRANCH   4   5
ENDBRANCH   3   4
ENDBRANCH   2   3
ENDBRANCH   1   2
BRANCH   1  11
ATOM     11  C   UNL     1      -3.252   1.389  14.508  1.00  0.00     0.000 C 
BRANCH  11  12
ATOM     12  C   UNL     1      -4.752   1.452  14.179  1.00  0.00     0.000 C 
BRANCH  12  13
ATOM     13  C   UNL     1      -5.031   1.394  12.670  1.00  0.00     0.000 C 
BRANCH  13  14
ATOM     14  C   UNL     1      -3.727   1.255  11.875  1.00  0.00     0.000 C 
BRANCH  14  15
ATOM     15  C   UNL     1      -4.012   1.027  10.384  1.00  0.00     0.000 C 
BRANCH  15  16
ATOM     16  C   UNL     1      -3.990  -0.461   9.986  1.00  0.00     0.006 C 
BRANCH  16  17
ATOM     17  C   UNL     1      -3.448  -1.392  11.085  1.00  0.00     0.053 C 
BRANCH  17  18
ATOM     18  C   UNL     1      -3.426  -2.830  10.667  1.00  0.00     0.041 C 
ATOM     19  O   UNL     1      -3.431  -3.745  11.532  1.00  0.00    -0.550 OA
ATOM     20  O   UNL     1      -3.368  -3.162   9.318  1.00  0.00    -0.550 OA
ENDBRANCH  17  18
ENDBRANCH  16  17
ENDBRANCH  15  16
ENDBRANCH  14  15
ENDBRANCH  13  14
ENDBRANCH  12  13
ENDBRANCH  11  12
ENDBRANCH   1  11
TORSDOF 15
ENDMDL
MODEL 9
REMARK VINA RESULT:    -4.463      2.505      8.155
REMARK INTER + INTRA:          -9.723
REMARK INTER:                  -7.804
REMARK INTRA:                  -1.919
REMARK UNBOUND:                -1.347
REMARK SMILES O=C([O-])CCCCCCCCCCCCCCC(=O)[O-]
REMARK SMILES IDX 10 1 9 2 8 3 7 4 6 5 5 6 4 7 2 8 1 9 3 10 11 11 12 12 13 13
REMARK SMILES IDX 14 14 15 15 16 16 17 17 18 18 19 19 20 20
REMARK H PARENT
REMARK Flexibility Score: inf
ROOT
ATOM      1  C   UNL     1      -4.399  -1.288   9.291  1.00  0.00     0.000 C 
ENDROOT
BRANCH   1   2
ATOM      2  C   UNL     1      -3.468  -0.068   9.255  1.00  0.00     0.000 C 
BRANCH   2   3
ATOM      3  C   UNL     1      -3.754   0.937  10.386  1.00  0.00     0.000 C 
BRANCH   3   4
ATOM      4  C   UNL     1      -4.014   0.307  11.770  1.00  0.00     0.000 C 
BRANCH   4   5
ATOM      5  C   UNL     1      -5.166   0.939  12.571  1.00  0.00     0.000 C 
BRANCH   5   6
ATOM      6  C   UNL     1      -4.721   1.464  13.946  1.00  0.00     0.006 C 
BRANCH   6   7
ATOM      7  C   UNL     1      -5.125   2.929  14.163  1.00  0.00     0.053 C 
BRANCH   7   8
ATOM      8  C   UNL     1      -6.269   3.056  15.124  1.00  0.00     0.041 C 
ATOM      9  O   UNL     1      -7.346   3.595  14.757  1.00  0.00    -0.550 OA
ATOM     10  O   UNL     1      -6.154   2.553  16.413  1.00  0.00    -0.550 OA
ENDBRANCH   7   8
ENDBRANCH   6   7
ENDBRANCH   5   6
ENDBRANCH   4   5
ENDBRANCH   3   4
ENDBRANCH   2   3
ENDBRANCH   1   2
BRANCH   1  11
ATOM     11  C   UNL     1      -3.662  -2.553   8.826  1.00  0.00     0.000 C 
BRANCH  11  12
ATOM     12  C   UNL     1      -3.790  -3.714   9.824  1.00  0.00     0.000 C 
BRANCH  12  13
ATOM     13  C   UNL     1      -3.451  -3.299  11.263  1.00  0.00     0.000 C 
BRANCH  13  14
ATOM     14  C   UNL     1      -1.948  -3.432  11.535  1.00  0.00     0.000 C 
BRANCH  14  15
ATOM     15  C   UNL     1      -1.337  -2.081  11.931  1.00  0.00     0.000 C 
BRANCH  15  16
ATOM     16  C   UNL     1      -0.521  -1.432  10.797  1.00  0.00     0.006 C 
BRANCH  16  17
ATOM     17  C   UNL     1      -0.204  -2.386   9.632  1.00  0.00     0.053 C 
BRANCH  17  18
ATOM     18  C   UNL     1       0.207  -1.662   8.386  1.00  0.00     0.041 C 
ATOM     19  O   UNL     1       1.346  -1.131   8.305  1.00  0.00    -0.550 OA
ATOM     20  O   UNL     1      -0.681  -1.546   7.324  1.00  0.00    -0.550 OA
ENDBRANCH  17  18
ENDBRANCH  16  17
ENDBRANCH  15  16
ENDBRANCH  14  15
ENDBRANCH  13  14
ENDBRANCH  12  13
ENDBRANCH  11  12
ENDBRANCH   1  11
TORSDOF 15
ENDMDL
