MODEL 1
REMARK VINA RESULT:    -3.968      0.000      0.000
REMARK INTER + INTRA:          -8.100
REMARK INTER:                  -6.752
REMARK INTRA:                  -1.348
REMARK UNBOUND:                -1.348
REMARK SMILES CCCCCCCCCCCCCC(=O)[O-]
REMARK SMILES IDX 8 1 9 2 10 3 11 4 12 5 13 6 14 7 15 8 16 9 7 10 6 11 5 12
REMARK SMILES IDX 4 13 3 14 2 15 1 16
REMARK H PARENT
REMARK Flexibility Score: inf
ROOT
ATOM      1  C   UNL     1      12.390 -13.992 -44.203  1.00  0.00     0.000 C 
ENDROOT
BRANCH   1   2
ATOM      2  C   UNL     1      11.332 -13.631 -43.150  1.00  0.00     0.000 C 
BRANCH   2   3
ATOM      3  C   UNL     1       9.958 -13.315 -43.767  1.00  0.00     0.000 C 
BRANCH   3   4
ATOM      4  C   UNL     1       9.965 -13.078 -45.291  1.00  0.00     0.000 C 
BRANCH   4   5
ATOM      5  C   UNL     1       9.634 -11.638 -45.731  1.00  0.00     0.006 C 
BRANCH   5   6
ATOM      6  C   UNL     1       8.130 -11.335 -45.830  1.00  0.00     0.053 C 
BRANCH   6   7
ATOM      7  C   UNL     1       7.365 -12.489 -46.399  1.00  0.00     0.041 C 
ATOM      8  O   UNL     1       6.575 -13.148 -45.672  1.00  0.00    -0.550 OA
ATOM      9  O   UNL     1       7.549 -12.860 -47.725  1.00  0.00    -0.550 OA
ENDBRANCH   6   7
ENDBRANCH   5   6
ENDBRANCH   4   5
ENDBRANCH   3   4
ENDBRANCH   2   3
ENDBRANCH   1   2
BRANCH   1  10
ATOM     10  C   UNL     1      13.677 -13.188 -43.985  1.00  0.00     0.000 C 
BRANCH  10  11
ATOM     11  C   UNL     1      13.390 -11.874 -43.249  1.00  0.00    -0.000 C 
BRANCH  11  12
ATOM     12  C   UNL     1      12.971 -10.772 -44.234  1.00  0.00    -0.000 C 
BRANCH  12  13
ATOM     13  C   UNL     1      11.799  -9.923 -43.716  1.00  0.00    -0.000 C 
BRANCH  13  14
ATOM     14  C   UNL     1      11.506  -8.708 -44.614  1.00  0.00    -0.000 C 
BRANCH  14  15
ATOM     15  C   UNL     1      10.427  -7.788 -44.025  1.00  0.00    -0.003 C 
ATOM     16  C   UNL     1      10.179  -8.039 -42.537  1.00  0.00     0.004 C 
ENDBRANCH  14  15
ENDBRANCH  13  14
ENDBRANCH  12  13
ENDBRANCH  11  12
ENDBRANCH  10  11
ENDBRANCH   1  10
TORSDOF 12
ENDMDL
MODEL 2
REMARK VINA RESULT:    -3.854     11.260     13.429
REMARK INTER + INTRA:          -7.905
REMARK INTER:                  -6.595
REMARK INTRA:                  -1.310
REMARK UNBOUND:                -1.348
REMARK SMILES CCCCCCCCCCCCCC(=O)[O-]
REMARK SMILES IDX 8 1 9 2 10 3 11 4 12 5 13 6 14 7 15 8 16 9 7 10 6 11 5 12
REMARK SMILES IDX 4 13 3 14 2 15 1 16
REMARK H PARENT
REMARK Flexibility Score: inf
ROOT
ATOM      1  C   UNL     1       8.594 -19.370 -37.461  1.00  0.00     0.000 C 
ENDROOT
BRANCH   1   2
ATOM      2  C   UNL     1       7.240 -19.741 -38.083  1.00  0.00     0.000 C 
BRANCH   2   3
ATOM      3  C   UNL     1       6.057 -19.492 -37.132  1.00  0.00     0.000 C 
BRANCH   3   4
ATOM      4  C   UNL     1       6.412 -18.747 -35.828  1.00  0.00     0.000 C 
BRANCH   4   5
ATOM      5  C   UNL     1       5.714 -17.385 -35.642  1.00  0.00     0.006 C 
BRANCH   5   6
ATOM      6  C   UNL     1       5.266 -17.094 -34.201  1.00  0.00     0.053 C 
BRANCH   6   7
ATOM      7  C   UNL     1       5.272 -15.628 -33.900  1.00  0.00     0.041 C 
ATOM      8  O   UNL     1       5.662 -14.803 -34.769  1.00  0.00    -0.550 OA
ATOM      9  O   UNL     1       4.880 -15.172 -32.648  1.00  0.00    -0.550 OA
ENDBRANCH   6   7
ENDBRANCH   5   6
ENDBRANCH   4   5
ENDBRANCH   3   4
ENDBRANCH   2   3
ENDBRANCH   1   2
BRANCH   1  10
ATOM     10  C   UNL     1       9.563 -20.558 -37.507  1.00  0.00     0.000 C 
BRANCH  10  11
ATOM     11  C   UNL     1      10.129 -20.863 -36.115  1.00  0.00    -0.000 C 
BRANCH  11  12
ATOM     12  C   UNL     1       9.000 -21.119 -35.106  1.00  0.00    -0.000 C 
BRANCH  12  13
ATOM     13  C   UNL     1       8.266 -22.447 -35.357  1.00  0.00    -0.000 C 
BRANCH  13  14
ATOM     14  C   UNL     1       9.213 -23.660 -35.325  1.00  0.00    -0.000 C 
BRANCH  14  15
ATOM     15  C   UNL     1       9.371 -24.319 -36.704  1.00  0.00    -0.003 C 
ATOM     16  C   UNL     1       8.229 -23.974 -37.662  1.00  0.00     0.004 C 
ENDBRANCH  14  15
ENDBRANCH  13  14
ENDBRANCH  12  13
ENDBRANCH  11  12
ENDBRANCH  10  11
ENDBRANCH   1  10
TORSDOF 12
ENDMDL
MODEL 3
REMARK VINA RESULT:    -3.841      2.745      4.576
REMARK INTER + INTRA:          -7.884
REMARK INTER:                  -6.461
REMARK INTRA:                  -1.423
REMARK UNBOUND:                -1.348
REMARK SMILES CCCCCCCCCCCCCC(=O)[O-]
REMARK SMILES IDX 8 1 9 2 10 3 11 4 12 5 13 6 14 7 15 8 16 9 7 10 6 11 5 12
REMARK SMILES IDX 4 13 3 14 2 15 1 16
REMARK H PARENT
REMARK Flexibility Score: inf
ROOT
ATOM      1  C   UNL     1      14.922 -13.435 -45.586  1.00  0.00     0.000 C 
ENDROOT
BRANCH   1   2
ATOM      2  C   UNL     1      14.663 -13.449 -44.073  1.00  0.00     0.000 C 
BRANCH   2   3
ATOM      3  C   UNL     1      14.364 -12.051 -43.505  1.00  0.00     0.000 C 
BRANCH   3   4
ATOM      4  C   UNL     1      12.873 -11.762 -43.230  1.00  0.00     0.000 C 
BRANCH   4   5
ATOM      5  C   UNL     1      12.274 -10.590 -44.032  1.00  0.00     0.006 C 
BRANCH   5   6
ATOM      6  C   UNL     1      11.076  -9.906 -43.356  1.00  0.00     0.053 C 
BRANCH   6   7
ATOM      7  C   UNL     1      10.863  -8.516 -43.871  1.00  0.00     0.041 C 
ATOM      8  O   UNL     1      10.104  -7.721 -43.257  1.00  0.00    -0.550 OA
ATOM      9  O   UNL     1      11.477  -8.109 -45.049  1.00  0.00    -0.550 OA
ENDBRANCH   6   7
ENDBRANCH   5   6
ENDBRANCH   4   5
ENDBRANCH   3   4
ENDBRANCH   2   3
ENDBRANCH   1   2
BRANCH   1  10
ATOM     10  C   UNL     1      14.084 -14.504 -46.297  1.00  0.00     0.000 C 
BRANCH  10  11
ATOM     11  C   UNL     1      12.616 -14.436 -45.858  1.00  0.00    -0.000 C 
BRANCH  11  12
ATOM     12  C   UNL     1      11.812 -13.495 -46.767  1.00  0.00    -0.000 C 
BRANCH  12  13
ATOM     13  C   UNL     1      10.293 -13.670 -46.612  1.00  0.00    -0.000 C 
BRANCH  13  14
ATOM     14  C   UNL     1       9.689 -12.700 -45.581  1.00  0.00    -0.000 C 
BRANCH  14  15
ATOM     15  C   UNL     1       9.309 -11.346 -46.199  1.00  0.00    -0.003 C 
ATOM     16  C   UNL     1       7.905 -10.885 -45.804  1.00  0.00     0.004 C 
ENDBRANCH  14  15
ENDBRANCH  13  14
ENDBRANCH  12  13
ENDBRANCH  11  12
ENDBRANCH  10  11
ENDBRANCH   1  10
TORSDOF 12
ENDMDL
MODEL 4
REMARK VINA RESULT:    -3.813     11.071     12.822
REMARK INTER + INTRA:          -7.836
REMARK INTER:                  -6.037
REMARK INTRA:                  -1.799
REMARK UNBOUND:                -1.348
REMARK SMILES CCCCCCCCCCCCCC(=O)[O-]
REMARK SMILES IDX 8 1 9 2 10 3 11 4 12 5 13 6 14 7 15 8 16 9 7 10 6 11 5 12
REMARK SMILES IDX 4 13 3 14 2 15 1 16
REMARK H PARENT
REMARK Flexibility Score: inf
ROOT
ATOM      1  C   UNL     1       6.979 -22.320 -37.048  1.00  0.00     0.000 C 
ENDROOT
BRANCH   1   2
ATOM      2  C   UNL     1       6.282 -21.035 -37.517  1.00  0.00     0.000 C 
BRANCH   2   3
ATOM      3  C   UNL     1       7.271 -19.967 -38.015  1.00  0.00     0.000 C 
BRANCH   3   4
ATOM      4  C   UNL     1       7.264 -18.646 -37.219  1.00  0.00     0.000 C 
BRANCH   4   5
ATOM      5  C   UNL     1       6.331 -18.627 -35.991  1.00  0.00     0.006 C 
BRANCH   5   6
ATOM      6  C   UNL     1       5.275 -17.510 -36.014  1.00  0.00     0.053 C 
BRANCH   6   7
ATOM      7  C   UNL     1       5.773 -16.258 -35.363  1.00  0.00     0.041 C 
ATOM      8  O   UNL     1       6.446 -15.423 -36.024  1.00  0.00    -0.550 OA
ATOM      9  O   UNL     1       5.523 -16.027 -34.016  1.00  0.00    -0.550 OA
ENDBRANCH   6   7
ENDBRANCH   5   6
ENDBRANCH   4   5
ENDBRANCH   3   4
ENDBRANCH   2   3
ENDBRANCH   1   2
BRANCH   1  10
ATOM     10  C   UNL     1       7.439 -22.195 -35.591  1.00  0.00     0.000 C 
BRANCH  10  11
ATOM     11  C   UNL     1       8.664 -23.077 -35.322  1.00  0.00    -0.000 C 
BRANCH  11  12
ATOM     12  C   UNL     1       9.902 -22.221 -35.015  1.00  0.00    -0.000 C 
BRANCH  12  13
ATOM     13  C   UNL     1       9.683 -20.728 -35.310  1.00  0.00    -0.000 C 
BRANCH  13  14
ATOM     14  C   UNL     1      10.661 -20.185 -36.366  1.00  0.00    -0.000 C 
BRANCH  14  15
ATOM     15  C   UNL     1      11.232 -21.293 -37.265  1.00  0.00    -0.003 C 
ATOM     16  C   UNL     1      10.430 -21.484 -38.553  1.00  0.00     0.004 C 
ENDBRANCH  14  15
ENDBRANCH  13  14
ENDBRANCH  12  13
ENDBRANCH  11  12
ENDBRANCH  10  11
ENDBRANCH   1  10
TORSDOF 12
ENDMDL
MODEL 5
REMARK VINA RESULT:    -3.770     11.707     13.610
REMARK INTER + INTRA:          -7.762
REMARK INTER:                  -5.829
REMARK INTRA:                  -1.934
REMARK UNBOUND:                -1.348
REMARK SMILES CCCCCCCCCCCCCC(=O)[O-]
REMARK SMILES IDX 8 1 9 2 10 3 11 4 12 5 13 6 14 7 15 8 16 9 7 10 6 11 5 12
REMARK SMILES IDX 4 13 3 14 2 15 1 16
REMARK H PARENT
REMARK Flexibility Score: inf
ROOT
ATOM      1  C   UNL     1      10.584 -22.624 -38.366  1.00  0.00     0.000 C 
ENDROOT
BRANCH   1   2
ATOM      2  C   UNL     1      10.657 -21.099 -38.205  1.00  0.00     0.000 C 
BRANCH   2   3
ATOM      3  C   UNL     1      11.598 -20.663 -37.068  1.00  0.00     0.000 C 
BRANCH   3   4
ATOM      4  C   UNL     1      12.955 -20.089 -37.526  1.00  0.00     0.000 C 
BRANCH   4   5
ATOM      5  C   UNL     1      14.178 -20.974 -37.215  1.00  0.00     0.006 C 
BRANCH   5   6
ATOM      6  C   UNL     1      14.954 -21.442 -38.456  1.00  0.00     0.053 C 
BRANCH   6   7
ATOM      7  C   UNL     1      14.235 -22.534 -39.186  1.00  0.00     0.041 C 
ATOM      8  O   UNL     1      13.597 -22.279 -40.241  1.00  0.00    -0.550 OA
ATOM      9  O   UNL     1      14.241 -23.828 -38.682  1.00  0.00    -0.550 OA
ENDBRANCH   6   7
ENDBRANCH   5   6
ENDBRANCH   4   5
ENDBRANCH   3   4
ENDBRANCH   2   3
ENDBRANCH   1   2
BRANCH   1  10
ATOM     10  C   UNL     1      11.036 -23.334 -37.084  1.00  0.00     0.000 C 
BRANCH  10  11
ATOM     11  C   UNL     1       9.833 -23.863 -36.294  1.00  0.00    -0.000 C 
BRANCH  11  12
ATOM     12  C   UNL     1       9.708 -23.151 -34.939  1.00  0.00    -0.000 C 
BRANCH  12  13
ATOM     13  C   UNL     1       8.560 -22.130 -34.906  1.00  0.00    -0.000 C 
BRANCH  13  14
ATOM     14  C   UNL     1       7.488 -22.411 -35.975  1.00  0.00    -0.000 C 
BRANCH  14  15
ATOM     15  C   UNL     1       7.200 -21.186 -36.855  1.00  0.00    -0.003 C 
ATOM     16  C   UNL     1       7.383 -19.862 -36.110  1.00  0.00     0.004 C 
ENDBRANCH  14  15
ENDBRANCH  13  14
ENDBRANCH  12  13
ENDBRANCH  11  12
ENDBRANCH  10  11
ENDBRANCH   1  10
TORSDOF 12
ENDMDL
MODEL 6
REMARK VINA RESULT:    -3.738      2.732      4.809
REMARK INTER + INTRA:          -7.709
REMARK INTER:                  -6.216
REMARK INTRA:                  -1.492
REMARK UNBOUND:                -1.348
REMARK SMILES CCCCCCCCCCCCCC(=O)[O-]
REMARK SMILES IDX 8 1 9 2 10 3 11 4 12 5 13 6 14 7 15 8 16 9 7 10 6 11 5 12
REMARK SMILES IDX 4 13 3 14 2 15 1 16
REMARK H PARENT
REMARK Flexibility Score: inf
ROOT
ATOM      1  C   UNL     1       7.941 -13.923 -45.033  1.00  0.00     0.000 C 
ENDROOT
BRANCH   1   2
ATOM      2  C   UNL     1       8.133 -12.893 -46.156  1.00  0.00     0.000 C 
BRANCH   2   3
ATOM      3  C   UNL     1       7.431 -11.555 -45.866  1.00  0.00     0.000 C 
BRANCH   3   4
ATOM      4  C   UNL     1       8.371 -10.394 -45.482  1.00  0.00     0.000 C 
BRANCH   4   5
ATOM      5  C   UNL     1       9.867 -10.756 -45.418  1.00  0.00     0.006 C 
BRANCH   5   6
ATOM      6  C   UNL     1      10.593 -10.237 -44.167  1.00  0.00     0.053 C 
BRANCH   6   7
ATOM      7  C   UNL     1      11.259  -8.919 -44.413  1.00  0.00     0.041 C 
ATOM      8  O   UNL     1      12.483  -8.870 -44.705  1.00  0.00    -0.550 OA
ATOM      9  O   UNL     1      10.535  -7.739 -44.289  1.00  0.00    -0.550 OA
ENDBRANCH   6   7
ENDBRANCH   5   6
ENDBRANCH   4   5
ENDBRANCH   3   4
ENDBRANCH   2   3
ENDBRANCH   1   2
BRANCH   1  10
ATOM     10  C   UNL     1       9.146 -14.867 -44.941  1.00  0.00     0.000 C 
BRANCH  10  11
ATOM     11  C   UNL     1      10.372 -14.143 -44.371  1.00  0.00    -0.000 C 
BRANCH  11  12
ATOM     12  C   UNL     1      11.596 -14.336 -45.278  1.00  0.00    -0.000 C 
BRANCH  12  13
ATOM     13  C   UNL     1      12.663 -13.247 -45.078  1.00  0.00    -0.000 C 
BRANCH  13  14
ATOM     14  C   UNL     1      12.905 -12.921 -43.594  1.00  0.00    -0.000 C 
BRANCH  14  15
ATOM     15  C   UNL     1      14.024 -11.889 -43.393  1.00  0.00    -0.003 C 
ATOM     16  C   UNL     1      15.018 -11.857 -44.555  1.00  0.00     0.004 C 
ENDBRANCH  14  15
ENDBRANCH  13  14
ENDBRANCH  12  13
ENDBRANCH  11  12
ENDBRANCH  10  11
ENDBRANCH   1  10
TORSDOF 12
ENDMDL
MODEL 7
REMARK VINA RESULT:    -3.731     11.116     13.131
REMARK INTER + INTRA:          -7.696
REMARK INTER:                  -6.042
REMARK INTRA:                  -1.655
REMARK UNBOUND:                -1.348
REMARK SMILES CCCCCCCCCCCCCC(=O)[O-]
REMARK SMILES IDX 8 1 9 2 10 3 11 4 12 5 13 6 14 7 15 8 16 9 7 10 6 11 5 12
REMARK SMILES IDX 4 13 3 14 2 15 1 16
REMARK H PARENT
REMARK Flexibility Score: inf
ROOT
ATOM      1  C   UNL     1       9.504 -24.081 -36.734  1.00  0.00     0.000 C 
ENDROOT
BRANCH   1   2
ATOM      2  C   UNL     1      10.957 -24.173 -37.223  1.00  0.00     0.000 C 
BRANCH   2   3
ATOM      3  C   UNL     1      11.374 -22.969 -38.086  1.00  0.00     0.000 C 
BRANCH   3   4
ATOM      4  C   UNL     1      10.227 -22.012 -38.472  1.00  0.00     0.000 C 
BRANCH   4   5
ATOM      5  C   UNL     1      10.504 -20.519 -38.209  1.00  0.00     0.006 C 
BRANCH   5   6
ATOM      6  C   UNL     1      11.415 -20.245 -37.002  1.00  0.00     0.053 C 
BRANCH   6   7
ATOM      7  C   UNL     1      12.739 -19.683 -37.418  1.00  0.00     0.041 C 
ATOM      8  O   UNL     1      12.800 -18.795 -38.310  1.00  0.00    -0.550 OA
ATOM      9  O   UNL     1      13.910 -20.162 -36.846  1.00  0.00    -0.550 OA
ENDBRANCH   6   7
ENDBRANCH   5   6
ENDBRANCH   4   5
ENDBRANCH   3   4
ENDBRANCH   2   3
ENDBRANCH   1   2
BRANCH   1  10
ATOM     10  C   UNL     1       9.449 -23.881 -35.214  1.00  0.00     0.000 C 
BRANCH  10  11
ATOM     11  C   UNL     1       9.115 -22.427 -34.861  1.00  0.00    -0.000 C 
BRANCH  11  12
ATOM     12  C   UNL     1       7.809 -21.982 -35.536  1.00  0.00    -0.000 C 
BRANCH  12  13
ATOM     13  C   UNL     1       7.771 -20.472 -35.823  1.00  0.00    -0.000 C 
BRANCH  13  14
ATOM     14  C   UNL     1       6.888 -20.122 -37.033  1.00  0.00    -0.000 C 
BRANCH  14  15
ATOM     15  C   UNL     1       6.342 -18.688 -36.969  1.00  0.00    -0.003 C 
ATOM     16  C   UNL     1       6.127 -18.198 -35.536  1.00  0.00     0.004 C 
ENDBRANCH  14  15
ENDBRANCH  13  14
ENDBRANCH  12  13
ENDBRANCH  11  12
ENDBRANCH  10  11
ENDBRANCH   1  10
TORSDOF 12
ENDMDL
MODEL 8
REMARK VINA RESULT:    -3.685     11.913     13.752
REMARK INTER + INTRA:          -7.617
REMARK INTER:                  -6.023
REMARK INTRA:                  -1.595
REMARK UNBOUND:                -1.348
REMARK SMILES CCCCCCCCCCCCCC(=O)[O-]
REMARK SMILES IDX 8 1 9 2 10 3 11 4 12 5 13 6 14 7 15 8 16 9 7 10 6 11 5 12
REMARK SMILES IDX 4 13 3 14 2 15 1 16
REMARK H PARENT
REMARK Flexibility Score: inf
ROOT
ATOM      1  C   UNL     1       9.699 -24.161 -37.090  1.00  0.00     0.000 C 
ENDROOT
BRANCH   1   2
ATOM      2  C   UNL     1      11.221 -24.233 -37.283  1.00  0.00     0.000 C 
BRANCH   2   3
ATOM      3  C   UNL     1      11.747 -23.188 -38.281  1.00  0.00     0.000 C 
BRANCH   3   4
ATOM      4  C   UNL     1      11.265 -21.744 -38.031  1.00  0.00     0.000 C 
BRANCH   4   5
ATOM      5  C   UNL     1      12.333 -20.787 -37.464  1.00  0.00     0.006 C 
BRANCH   5   6
ATOM      6  C   UNL     1      13.766 -21.340 -37.504  1.00  0.00     0.053 C 
BRANCH   6   7
ATOM      7  C   UNL     1      14.490 -20.924 -38.747  1.00  0.00     0.041 C 
ATOM      8  O   UNL     1      14.227 -19.821 -39.296  1.00  0.00    -0.550 OA
ATOM      9  O   UNL     1      15.433 -21.768 -39.319  1.00  0.00    -0.550 OA
ENDBRANCH   6   7
ENDBRANCH   5   6
ENDBRANCH   4   5
ENDBRANCH   3   4
ENDBRANCH   2   3
ENDBRANCH   1   2
BRANCH   1  10
ATOM     10  C   UNL     1       9.329 -24.252 -35.605  1.00  0.00     0.000 C 
BRANCH  10  11
ATOM     11  C   UNL     1       9.681 -22.954 -34.868  1.00  0.00    -0.000 C 
BRANCH  11  12
ATOM     12  C   UNL     1       8.459 -22.029 -34.769  1.00  0.00    -0.000 C 
BRANCH  12  13
ATOM     13  C   UNL     1       8.634 -20.723 -35.560  1.00  0.00    -0.000 C 
BRANCH  13  14
ATOM     14  C   UNL     1       7.415 -20.398 -36.442  1.00  0.00    -0.000 C 
BRANCH  14  15
ATOM     15  C   UNL     1       6.546 -21.634 -36.722  1.00  0.00    -0.003 C 
ATOM     16  C   UNL     1       6.773 -22.215 -38.118  1.00  0.00     0.004 C 
ENDBRANCH  14  15
ENDBRANCH  13  14
ENDBRANCH  12  13
ENDBRANCH  11  12
ENDBRANCH  10  11
ENDBRANCH   1  10
TORSDOF 12
ENDMDL
MODEL 9
REMARK VINA RESULT:    -3.671     11.724     13.725
REMARK INTER + INTRA:          -7.595
REMARK INTER:                  -5.639
REMARK INTRA:                  -1.956
REMARK UNBOUND:                -1.348
REMARK SMILES CCCCCCCCCCCCCC(=O)[O-]
REMARK SMILES IDX 8 1 9 2 10 3 11 4 12 5 13 6 14 7 15 8 16 9 7 10 6 11 5 12
REMARK SMILES IDX 4 13 3 14 2 15 1 16
REMARK H PARENT
REMARK Flexibility Score: inf
ROOT
ATOM      1  C   UNL     1      10.952 -23.717 -38.234  1.00  0.00     0.000 C 
ENDROOT
BRANCH   1   2
ATOM      2  C   UNL     1      10.036 -22.609 -38.773  1.00  0.00     0.000 C 
BRANCH   2   3
ATOM      3  C   UNL     1      10.476 -21.203 -38.330  1.00  0.00     0.000 C 
BRANCH   3   4
ATOM      4  C   UNL     1      11.442 -21.168 -37.128  1.00  0.00     0.000 C 
BRANCH   4   5
ATOM      5  C   UNL     1      12.526 -20.074 -37.191  1.00  0.00     0.006 C 
BRANCH   5   6
ATOM      6  C   UNL     1      13.569 -20.277 -38.302  1.00  0.00     0.053 C 
BRANCH   6   7
ATOM      7  C   UNL     1      14.324 -21.558 -38.131  1.00  0.00     0.041 C 
ATOM      8  O   UNL     1      15.080 -21.721 -37.137  1.00  0.00    -0.550 OA
ATOM      9  O   UNL     1      14.221 -22.560 -39.087  1.00  0.00    -0.550 OA
ENDBRANCH   6   7
ENDBRANCH   5   6
ENDBRANCH   4   5
ENDBRANCH   3   4
ENDBRANCH   2   3
ENDBRANCH   1   2
BRANCH   1  10
ATOM     10  C   UNL     1      10.132 -24.840 -37.587  1.00  0.00     0.000 C 
BRANCH  10  11
ATOM     11  C   UNL     1       9.022 -24.270 -36.696  1.00  0.00    -0.000 C 
BRANCH  11  12
ATOM     12  C   UNL     1       9.566 -23.898 -35.308  1.00  0.00    -0.000 C 
BRANCH  12  13
ATOM     13  C   UNL     1       9.047 -22.540 -34.808  1.00  0.00    -0.000 C 
BRANCH  13  14
ATOM     14  C   UNL     1       7.866 -22.016 -35.644  1.00  0.00    -0.000 C 
BRANCH  14  15
ATOM     15  C   UNL     1       7.857 -20.483 -35.752  1.00  0.00    -0.003 C 
ATOM     16  C   UNL     1       7.140 -19.980 -37.006  1.00  0.00     0.004 C 
ENDBRANCH  14  15
ENDBRANCH  13  14
ENDBRANCH  12  13
ENDBRANCH  11  12
ENDBRANCH  10  11
ENDBRANCH   1  10
TORSDOF 12
ENDMDL
