MODEL 1
REMARK VINA RESULT:    -4.189      0.000      0.000
REMARK INTER + INTRA:          -4.434
REMARK INTER:                  -4.434
REMARK INTRA:                   0.000
REMARK UNBOUND:                 0.000
REMARK SMILES O=c1ccc2cc(O)c(O)cc2o1
REMARK SMILES IDX 4 1 3 2 2 3 1 4 13 5 12 6 11 7 9 8 7 9 6 10 5 11 8 12 10 14
REMARK H PARENT 8 13 10 15
REMARK Flexibility Score: inf
ROOT
ATOM      1  C   UNL     1     -12.020   3.364  -4.155  1.00  0.00     0.019 A 
ATOM      2  C   UNL     1     -12.072   2.466  -3.089  1.00  0.00     0.094 A 
ATOM      3  C   UNL     1     -12.068   2.964  -1.782  1.00  0.00     0.336 A 
ATOM      4  O   UNL     1     -12.116   2.170  -0.807  1.00  0.00    -0.246 OA
ATOM      5  O   UNL     1     -12.015   4.276  -1.562  1.00  0.00    -0.423 OA
ATOM      6  C   UNL     1     -11.963   5.166  -2.549  1.00  0.00     0.142 A 
ATOM      7  C   UNL     1     -11.908   6.532  -2.257  1.00  0.00     0.098 A 
ATOM      8  C   UNL     1     -11.853   7.475  -3.293  1.00  0.00     0.161 A 
ATOM      9  C   UNL     1     -11.854   7.049  -4.629  1.00  0.00     0.158 A 
ATOM     10  C   UNL     1     -11.909   5.679  -4.930  1.00  0.00     0.062 A 
ATOM     11  C   UNL     1     -11.963   4.737  -3.894  1.00  0.00     0.022 A 
ENDROOT
BRANCH   9  12
ATOM     12  O   UNL     1     -11.800   7.992  -5.654  1.00  0.00    -0.504 OA
ATOM     13  H   UNL     1     -10.916   8.313  -6.034  1.00  0.00     0.293 HD
ENDBRANCH   9  12
BRANCH   8  14
ATOM     14  O   UNL     1     -11.798   8.837  -3.004  1.00  0.00    -0.504 OA
ATOM     15  H   UNL     1     -10.916   9.310  -2.848  1.00  0.00     0.293 HD
ENDBRANCH   8  14
TORSDOF 2
ENDMDL
MODEL 2
REMARK VINA RESULT:    -4.177     15.883     17.163
REMARK INTER + INTRA:          -4.422
REMARK INTER:                  -4.422
REMARK INTRA:                   0.000
REMARK UNBOUND:                 0.000
REMARK SMILES O=c1ccc2cc(O)c(O)cc2o1
REMARK SMILES IDX 4 1 3 2 2 3 1 4 13 5 12 6 11 7 9 8 7 9 6 10 5 11 8 12 10 14
REMARK H PARENT 8 13 10 15
REMARK Flexibility Score: inf
ROOT
ATOM      1  C   UNL     1       2.002  -3.198  -8.621  1.00  0.00     0.019 A 
ATOM      2  C   UNL     1       3.166  -3.838  -8.198  1.00  0.00     0.094 A 
ATOM      3  C   UNL     1       3.098  -5.177  -7.801  1.00  0.00     0.336 A 
ATOM      4  O   UNL     1       4.138  -5.772  -7.416  1.00  0.00    -0.246 OA
ATOM      5  O   UNL     1       1.939  -5.830  -7.828  1.00  0.00    -0.423 OA
ATOM      6  C   UNL     1       0.805  -5.258  -8.225  1.00  0.00     0.142 A 
ATOM      7  C   UNL     1      -0.385  -5.992  -8.232  1.00  0.00     0.098 A 
ATOM      8  C   UNL     1      -1.582  -5.395  -8.650  1.00  0.00     0.161 A 
ATOM      9  C   UNL     1      -1.590  -4.054  -9.061  1.00  0.00     0.158 A 
ATOM     10  C   UNL     1      -0.401  -3.310  -9.057  1.00  0.00     0.062 A 
ATOM     11  C   UNL     1       0.797  -3.908  -8.639  1.00  0.00     0.022 A 
ENDROOT
BRANCH   9  12
ATOM     12  O   UNL     1      -2.785  -3.467  -9.475  1.00  0.00    -0.504 OA
ATOM     13  H   UNL     1      -3.639  -4.007  -9.564  1.00  0.00     0.293 HD
ENDBRANCH   9  12
BRANCH   8  14
ATOM     14  O   UNL     1      -2.769  -6.125  -8.657  1.00  0.00    -0.504 OA
ATOM     15  H   UNL     1      -2.956  -6.825  -9.365  1.00  0.00     0.293 HD
ENDBRANCH   8  14
TORSDOF 2
ENDMDL
MODEL 3
REMARK VINA RESULT:    -4.001      1.904      4.438
REMARK INTER + INTRA:          -4.235
REMARK INTER:                  -4.235
REMARK INTRA:                   0.000
REMARK UNBOUND:                 0.000
REMARK SMILES O=c1ccc2cc(O)c(O)cc2o1
REMARK SMILES IDX 4 1 3 2 2 3 1 4 13 5 12 6 11 7 9 8 7 9 6 10 5 11 8 12 10 14
REMARK H PARENT 8 13 10 15
REMARK Flexibility Score: inf
ROOT
ATOM      1  C   UNL     1     -11.793   2.448  -5.622  1.00  0.00     0.019 A 
ATOM      2  C   UNL     1     -11.868   3.258  -6.755  1.00  0.00     0.094 A 
ATOM      3  C   UNL     1     -12.022   4.638  -6.593  1.00  0.00     0.336 A 
ATOM      4  O   UNL     1     -12.092   5.386  -7.603  1.00  0.00    -0.246 OA
ATOM      5  O   UNL     1     -12.096   5.169  -5.374  1.00  0.00    -0.423 OA
ATOM      6  C   UNL     1     -12.028   4.434  -4.268  1.00  0.00     0.142 A 
ATOM      7  C   UNL     1     -12.112   5.046  -3.014  1.00  0.00     0.098 A 
ATOM      8  C   UNL     1     -12.041   4.276  -1.845  1.00  0.00     0.161 A 
ATOM      9  C   UNL     1     -11.887   2.884  -1.930  1.00  0.00     0.158 A 
ATOM     10  C   UNL     1     -11.803   2.263  -3.185  1.00  0.00     0.062 A 
ATOM     11  C   UNL     1     -11.873   3.033  -4.354  1.00  0.00     0.022 A 
ENDROOT
BRANCH   9  12
ATOM     12  O   UNL     1     -11.818   2.125  -0.763  1.00  0.00    -0.504 OA
ATOM     13  H   UNL     1     -10.971   1.633  -0.500  1.00  0.00     0.293 HD
ENDBRANCH   9  12
BRANCH   8  14
ATOM     14  O   UNL     1     -12.125   4.884  -0.594  1.00  0.00    -0.504 OA
ATOM     15  H   UNL     1     -11.299   5.069  -0.038  1.00  0.00     0.293 HD
ENDBRANCH   8  14
TORSDOF 2
ENDMDL
MODEL 4
REMARK VINA RESULT:    -3.963     15.239     16.411
REMARK INTER + INTRA:          -4.195
REMARK INTER:                  -4.195
REMARK INTRA:                   0.000
REMARK UNBOUND:                 0.000
REMARK SMILES O=c1ccc2cc(O)c(O)cc2o1
REMARK SMILES IDX 4 1 3 2 2 3 1 4 13 5 12 6 11 7 9 8 7 9 6 10 5 11 8 12 10 14
REMARK H PARENT 8 13 10 15
REMARK Flexibility Score: inf
ROOT
ATOM      1  C   UNL     1       1.177  -1.128  -8.347  1.00  0.00     0.019 A 
ATOM      2  C   UNL     1       2.522  -1.329  -8.043  1.00  0.00     0.094 A 
ATOM      3  C   UNL     1       3.025  -2.634  -8.022  1.00  0.00     0.336 A 
ATOM      4  O   UNL     1       4.236  -2.837  -7.750  1.00  0.00    -0.246 OA
ATOM      5  O   UNL     1       2.228  -3.667  -8.288  1.00  0.00    -0.423 OA
ATOM      6  C   UNL     1       0.939  -3.519  -8.582  1.00  0.00     0.142 A 
ATOM      7  C   UNL     1       0.150  -4.641  -8.853  1.00  0.00     0.098 A 
ATOM      8  C   UNL     1      -1.209  -4.491  -9.164  1.00  0.00     0.161 A 
ATOM      9  C   UNL     1      -1.782  -3.212  -9.204  1.00  0.00     0.158 A 
ATOM     10  C   UNL     1      -0.996  -2.081  -8.933  1.00  0.00     0.062 A 
ATOM     11  C   UNL     1       0.362  -2.231  -8.622  1.00  0.00     0.022 A 
ENDROOT
BRANCH   9  12
ATOM     12  O   UNL     1      -3.134  -3.071  -9.514  1.00  0.00    -0.504 OA
ATOM     13  H   UNL     1      -3.827  -3.730  -9.177  1.00  0.00     0.293 HD
ENDBRANCH   9  12
BRANCH   8  14
ATOM     14  O   UNL     1      -1.998  -5.608  -9.433  1.00  0.00    -0.504 OA
ATOM     15  H   UNL     1      -1.926  -6.454  -8.881  1.00  0.00     0.293 HD
ENDBRANCH   8  14
TORSDOF 2
ENDMDL
MODEL 5
REMARK VINA RESULT:    -3.899     17.220     17.750
REMARK INTER + INTRA:          -4.127
REMARK INTER:                  -4.127
REMARK INTRA:                   0.000
REMARK UNBOUND:                 0.000
REMARK SMILES O=c1ccc2cc(O)c(O)cc2o1
REMARK SMILES IDX 4 1 3 2 2 3 1 4 13 5 12 6 11 7 9 8 7 9 6 10 5 11 8 12 10 14
REMARK H PARENT 8 13 10 15
REMARK Flexibility Score: inf
ROOT
ATOM      1  C   UNL     1       4.079   2.475  -9.001  1.00  0.00     0.019 A 
ATOM      2  C   UNL     1       2.874   2.915  -9.549  1.00  0.00     0.094 A 
ATOM      3  C   UNL     1       2.440   4.216  -9.277  1.00  0.00     0.336 A 
ATOM      4  O   UNL     1       1.356   4.631  -9.762  1.00  0.00    -0.246 OA
ATOM      5  O   UNL     1       3.168   5.021  -8.506  1.00  0.00    -0.423 OA
ATOM      6  C   UNL     1       4.322   4.642  -7.963  1.00  0.00     0.142 A 
ATOM      7  C   UNL     1       5.043   5.531  -7.161  1.00  0.00     0.098 A 
ATOM      8  C   UNL     1       6.260   5.137  -6.587  1.00  0.00     0.161 A 
ATOM      9  C   UNL     1       6.758   3.846  -6.816  1.00  0.00     0.158 A 
ATOM     10  C   UNL     1       6.039   2.948  -7.620  1.00  0.00     0.062 A 
ATOM     11  C   UNL     1       4.822   3.342  -8.194  1.00  0.00     0.022 A 
ENDROOT
BRANCH   9  12
ATOM     12  O   UNL     1       7.968   3.461  -6.242  1.00  0.00    -0.504 OA
ATOM     13  H   UNL     1       8.265   3.818  -5.340  1.00  0.00     0.293 HD
ENDBRANCH   9  12
BRANCH   8  14
ATOM     14  O   UNL     1       6.981   6.021  -5.786  1.00  0.00    -0.504 OA
ATOM     15  H   UNL     1       6.725   6.998  -5.712  1.00  0.00     0.293 HD
ENDBRANCH   8  14
TORSDOF 2
ENDMDL
MODEL 6
REMARK VINA RESULT:    -3.795      1.358      4.659
REMARK INTER + INTRA:          -4.017
REMARK INTER:                  -4.017
REMARK INTRA:                   0.000
REMARK UNBOUND:                 0.000
REMARK SMILES O=c1ccc2cc(O)c(O)cc2o1
REMARK SMILES IDX 4 1 3 2 2 3 1 4 13 5 12 6 11 7 9 8 7 9 6 10 5 11 8 12 10 14
REMARK H PARENT 8 13 10 15
REMARK Flexibility Score: inf
ROOT
ATOM      1  C   UNL     1     -11.578   5.505  -4.145  1.00  0.00     0.019 A 
ATOM      2  C   UNL     1     -11.721   6.860  -3.854  1.00  0.00     0.094 A 
ATOM      3  C   UNL     1     -11.993   7.246  -2.537  1.00  0.00     0.336 A 
ATOM      4  O   UNL     1     -12.125   8.465  -2.254  1.00  0.00    -0.246 OA
ATOM      5  O   UNL     1     -12.113   6.331  -1.578  1.00  0.00    -0.423 OA
ATOM      6  C   UNL     1     -11.985   5.028  -1.813  1.00  0.00     0.142 A 
ATOM      7  C   UNL     1     -12.122   4.111  -0.766  1.00  0.00     0.098 A 
ATOM      8  C   UNL     1     -11.987   2.737  -1.008  1.00  0.00     0.161 A 
ATOM      9  C   UNL     1     -11.714   2.276  -2.304  1.00  0.00     0.158 A 
ATOM     10  C   UNL     1     -11.575   3.190  -3.360  1.00  0.00     0.062 A 
ATOM     11  C   UNL     1     -11.710   4.564  -3.118  1.00  0.00     0.022 A 
ENDROOT
BRANCH   9  12
ATOM     12  O   UNL     1     -11.581   0.908  -2.536  1.00  0.00    -0.504 OA
ATOM     13  H   UNL     1     -10.964   0.550  -3.256  1.00  0.00     0.293 HD
ENDBRANCH   9  12
BRANCH   8  14
ATOM     14  O   UNL     1     -12.124   1.821   0.034  1.00  0.00    -0.504 OA
ATOM     15  H   UNL     1     -11.346   1.255   0.348  1.00  0.00     0.293 HD
ENDBRANCH   8  14
TORSDOF 2
ENDMDL
MODEL 7
REMARK VINA RESULT:    -3.754      2.128      2.999
REMARK INTER + INTRA:          -3.973
REMARK INTER:                  -3.973
REMARK INTRA:                   0.000
REMARK UNBOUND:                 0.000
REMARK SMILES O=c1ccc2cc(O)c(O)cc2o1
REMARK SMILES IDX 4 1 3 2 2 3 1 4 13 5 12 6 11 7 9 8 7 9 6 10 5 11 8 12 10 14
REMARK H PARENT 8 13 10 15
REMARK Flexibility Score: inf
ROOT
ATOM      1  C   UNL     1     -11.759   3.058  -3.412  1.00  0.00     0.019 A 
ATOM      2  C   UNL     1     -11.856   2.256  -4.547  1.00  0.00     0.094 A 
ATOM      3  C   UNL     1     -12.034   2.863  -5.794  1.00  0.00     0.336 A 
ATOM      4  O   UNL     1     -12.124   2.155  -6.831  1.00  0.00    -0.246 OA
ATOM      5  O   UNL     1     -12.110   4.188  -5.893  1.00  0.00    -0.423 OA
ATOM      6  C   UNL     1     -12.022   4.991  -4.836  1.00  0.00     0.142 A 
ATOM      7  C   UNL     1     -12.109   6.377  -5.000  1.00  0.00     0.098 A 
ATOM      8  C   UNL     1     -12.017   7.227  -3.889  1.00  0.00     0.161 A 
ATOM      9  C   UNL     1     -11.838   6.689  -2.607  1.00  0.00     0.158 A 
ATOM     10  C   UNL     1     -11.751   5.299  -2.434  1.00  0.00     0.062 A 
ATOM     11  C   UNL     1     -11.842   4.449  -3.545  1.00  0.00     0.022 A 
ENDROOT
BRANCH   9  12
ATOM     12  O   UNL     1     -11.748   7.541  -1.507  1.00  0.00    -0.504 OA
ATOM     13  H   UNL     1     -12.485   8.201  -1.286  1.00  0.00     0.293 HD
ENDBRANCH   9  12
BRANCH   8  14
ATOM     14  O   UNL     1     -12.103   8.609  -4.051  1.00  0.00    -0.504 OA
ATOM     15  H   UNL     1     -12.471   9.206  -3.320  1.00  0.00     0.293 HD
ENDBRANCH   8  14
TORSDOF 2
ENDMDL
MODEL 8
REMARK VINA RESULT:    -3.660     15.793     17.056
REMARK INTER + INTRA:          -3.874
REMARK INTER:                  -3.874
REMARK INTRA:                   0.000
REMARK UNBOUND:                 0.000
REMARK SMILES O=c1ccc2cc(O)c(O)cc2o1
REMARK SMILES IDX 4 1 3 2 2 3 1 4 13 5 12 6 11 7 9 8 7 9 6 10 5 11 8 12 10 14
REMARK H PARENT 8 13 10 15
REMARK Flexibility Score: inf
ROOT
ATOM      1  C   UNL     1       2.030  -5.754  -7.872  1.00  0.00     0.019 A 
ATOM      2  C   UNL     1       3.172  -4.954  -7.880  1.00  0.00     0.094 A 
ATOM      3  C   UNL     1       3.060  -3.616  -8.269  1.00  0.00     0.336 A 
ATOM      4  O   UNL     1       4.079  -2.878  -8.281  1.00  0.00    -0.246 OA
ATOM      5  O   UNL     1       1.880  -3.114  -8.626  1.00  0.00    -0.423 OA
ATOM      6  C   UNL     1       0.766  -3.842  -8.633  1.00  0.00     0.142 A 
ATOM      7  C   UNL     1      -0.446  -3.262  -9.019  1.00  0.00     0.098 A 
ATOM      8  C   UNL     1      -1.623  -4.024  -9.028  1.00  0.00     0.161 A 
ATOM      9  C   UNL     1      -1.587  -5.374  -8.651  1.00  0.00     0.158 A 
ATOM     10  C   UNL     1      -0.375  -5.963  -8.263  1.00  0.00     0.062 A 
ATOM     11  C   UNL     1       0.802  -5.201  -8.253  1.00  0.00     0.022 A 
ENDROOT
BRANCH   9  12
ATOM     12  O   UNL     1      -2.762  -6.125  -8.663  1.00  0.00    -0.504 OA
ATOM     13  H   UNL     1      -3.471  -5.989  -9.374  1.00  0.00     0.293 HD
ENDBRANCH   9  12
BRANCH   8  14
ATOM     14  O   UNL     1      -2.833  -3.448  -9.413  1.00  0.00    -0.504 OA
ATOM     15  H   UNL     1      -3.286  -3.698 -10.283  1.00  0.00     0.293 HD
ENDBRANCH   8  14
TORSDOF 2
ENDMDL
MODEL 9
REMARK VINA RESULT:    -2.683     19.061     19.942
REMARK INTER + INTRA:          -2.840
REMARK INTER:                  -2.840
REMARK INTRA:                   0.000
REMARK UNBOUND:                 0.000
REMARK SMILES O=c1ccc2cc(O)c(O)cc2o1
REMARK SMILES IDX 4 1 3 2 2 3 1 4 13 5 12 6 11 7 9 8 7 9 6 10 5 11 8 12 10 14
REMARK H PARENT 8 13 10 15
REMARK Flexibility Score: inf
ROOT
ATOM      1  C   UNL     1       5.472  -6.125  -4.410  1.00  0.00     0.019 A 
ATOM      2  C   UNL     1       6.380  -6.124  -3.351  1.00  0.00     0.094 A 
ATOM      3  C   UNL     1       6.993  -4.921  -2.985  1.00  0.00     0.336 A 
ATOM      4  O   UNL     1       7.815  -4.900  -2.032  1.00  0.00    -0.246 OA
ATOM      5  O   UNL     1       6.713  -3.796  -3.639  1.00  0.00    -0.423 OA
ATOM      6  C   UNL     1       5.854  -3.753  -4.653  1.00  0.00     0.142 A 
ATOM      7  C   UNL     1       5.599  -2.542  -5.303  1.00  0.00     0.098 A 
ATOM      8  C   UNL     1       4.694  -2.490  -6.373  1.00  0.00     0.161 A 
ATOM      9  C   UNL     1       4.042  -3.657  -6.796  1.00  0.00     0.158 A 
ATOM     10  C   UNL     1       4.292  -4.877  -6.149  1.00  0.00     0.062 A 
ATOM     11  C   UNL     1       5.197  -4.928  -5.079  1.00  0.00     0.022 A 
ENDROOT
BRANCH   9  12
ATOM     12  O   UNL     1       3.143  -3.598  -7.861  1.00  0.00    -0.504 OA
ATOM     13  H   UNL     1       3.394  -3.931  -8.785  1.00  0.00     0.293 HD
ENDBRANCH   9  12
BRANCH   8  14
ATOM     14  O   UNL     1       4.439  -1.284  -7.023  1.00  0.00    -0.504 OA
ATOM     15  H   UNL     1       4.165  -1.255  -7.998  1.00  0.00     0.293 HD
ENDBRANCH   8  14
TORSDOF 2
ENDMDL
