MODEL 1
REMARK VINA RESULT:    -5.610      0.000      0.000
REMARK INTER + INTRA:          -6.133
REMARK INTER:                  -6.102
REMARK INTRA:                  -0.031
REMARK UNBOUND:                -0.031
REMARK SMILES O=C([O-])c1ccc(O)cc1
REMARK SMILES IDX 4 1 5 2 10 3 6 4 9 5 7 6 2 7 1 8 3 9 8 10
REMARK H PARENT 8 11
REMARK Flexibility Score: inf
ROOT
ATOM      1  C   UNL     1       9.448  68.664   0.245  1.00  0.00    -0.003 A 
ATOM      2  C   UNL     1       9.733  70.038   0.150  1.00  0.00     0.014 A 
ATOM      3  C   UNL     1       9.361  68.072   1.518  1.00  0.00     0.014 A 
ATOM      4  C   UNL     1       9.929  70.802   1.305  1.00  0.00     0.047 A 
ATOM      5  C   UNL     1       9.558  68.839   2.671  1.00  0.00     0.047 A 
ATOM      6  C   UNL     1       9.842  70.206   2.567  1.00  0.00     0.115 A 
ENDROOT
BRANCH   1   7
ATOM      7  C   UNL     1       9.239  67.851  -0.973  1.00  0.00     0.071 C 
ATOM      8  O   UNL     1       9.782  66.721  -1.091  1.00  0.00    -0.545 OA
ATOM      9  O   UNL     1       8.439  68.324  -2.008  1.00  0.00    -0.545 OA
ENDBRANCH   1   7
BRANCH   6  10
ATOM     10  O   UNL     1      10.040  70.980   3.708  1.00  0.00    -0.508 OA
ATOM     11  H   UNL     1      10.673  70.687   4.443  1.00  0.00     0.293 HD
ENDBRANCH   6  10
TORSDOF 2
ENDMDL
MODEL 2
REMARK VINA RESULT:    -5.580      2.004      4.243
REMARK INTER + INTRA:          -6.100
REMARK INTER:                  -6.065
REMARK INTRA:                  -0.035
REMARK UNBOUND:                -0.031
REMARK SMILES O=C([O-])c1ccc(O)cc1
REMARK SMILES IDX 4 1 5 2 10 3 6 4 9 5 7 6 2 7 1 8 3 9 8 10
REMARK H PARENT 8 11
REMARK Flexibility Score: inf
ROOT
ATOM      1  C   UNL     1       9.720  70.154   1.319  1.00  0.00    -0.003 A 
ATOM      2  C   UNL     1       9.416  69.197   0.334  1.00  0.00     0.014 A 
ATOM      3  C   UNL     1      10.037  71.465   0.921  1.00  0.00     0.014 A 
ATOM      4  C   UNL     1       9.429  69.545  -1.020  1.00  0.00     0.047 A 
ATOM      5  C   UNL     1      10.050  71.810  -0.434  1.00  0.00     0.047 A 
ATOM      6  C   UNL     1       9.745  70.851  -1.409  1.00  0.00     0.115 A 
ENDROOT
BRANCH   1   7
ATOM      7  C   UNL     1       9.707  69.791   2.753  1.00  0.00     0.071 C 
ATOM      8  O   UNL     1       9.779  68.585   3.110  1.00  0.00    -0.545 OA
ATOM      9  O   UNL     1       9.614  70.778   3.729  1.00  0.00    -0.545 OA
ENDBRANCH   1   7
BRANCH   6  10
ATOM     10  O   UNL     1       9.755  71.183  -2.761  1.00  0.00    -0.508 OA
ATOM     11  H   UNL     1       9.011  70.890  -3.383  1.00  0.00     0.293 HD
ENDBRANCH   6  10
TORSDOF 2
ENDMDL
MODEL 3
REMARK VINA RESULT:    -5.577      1.529      2.372
REMARK INTER + INTRA:          -6.098
REMARK INTER:                  -6.062
REMARK INTRA:                  -0.035
REMARK UNBOUND:                -0.031
REMARK SMILES O=C([O-])c1ccc(O)cc1
REMARK SMILES IDX 4 1 5 2 10 3 6 4 9 5 7 6 2 7 1 8 3 9 8 10
REMARK H PARENT 8 11
REMARK Flexibility Score: inf
ROOT
ATOM      1  C   UNL     1       9.866  70.044  -0.900  1.00  0.00    -0.003 A 
ATOM      2  C   UNL     1       9.782  69.112   0.151  1.00  0.00     0.014 A 
ATOM      3  C   UNL     1      10.027  71.407  -0.592  1.00  0.00     0.014 A 
ATOM      4  C   UNL     1       9.857  69.536   1.481  1.00  0.00     0.047 A 
ATOM      5  C   UNL     1      10.102  71.828   0.740  1.00  0.00     0.047 A 
ATOM      6  C   UNL     1      10.017  70.893   1.780  1.00  0.00     0.115 A 
ENDROOT
BRANCH   1   7
ATOM      7  C   UNL     1       9.788  69.601  -2.309  1.00  0.00     0.071 C 
ATOM      8  O   UNL     1       9.389  68.441  -2.595  1.00  0.00    -0.545 OA
ATOM      9  O   UNL     1      10.154  70.460  -3.340  1.00  0.00    -0.545 OA
ENDBRANCH   1   7
BRANCH   6  10
ATOM     10  O   UNL     1      10.090  71.301   3.109  1.00  0.00    -0.508 OA
ATOM     11  H   UNL     1      10.862  71.863   3.449  1.00  0.00     0.293 HD
ENDBRANCH   6  10
TORSDOF 2
ENDMDL
MODEL 4
REMARK VINA RESULT:    -5.572      1.928      3.955
REMARK INTER + INTRA:          -6.092
REMARK INTER:                  -6.060
REMARK INTRA:                  -0.031
REMARK UNBOUND:                -0.031
REMARK SMILES O=C([O-])c1ccc(O)cc1
REMARK SMILES IDX 4 1 5 2 10 3 6 4 9 5 7 6 2 7 1 8 3 9 8 10
REMARK H PARENT 8 11
REMARK Flexibility Score: inf
ROOT
ATOM      1  C   UNL     1       9.724  68.655   0.280  1.00  0.00    -0.003 A 
ATOM      2  C   UNL     1       9.660  67.993  -0.960  1.00  0.00     0.014 A 
ATOM      3  C   UNL     1       9.801  70.060   0.300  1.00  0.00     0.014 A 
ATOM      4  C   UNL     1       9.673  68.722  -2.154  1.00  0.00     0.047 A 
ATOM      5  C   UNL     1       9.814  70.785  -0.896  1.00  0.00     0.047 A 
ATOM      6  C   UNL     1       9.750  70.118  -2.126  1.00  0.00     0.115 A 
ENDROOT
BRANCH   1   7
ATOM      7  C   UNL     1       9.710  67.890   1.545  1.00  0.00     0.071 C 
ATOM      8  O   UNL     1       8.912  66.928   1.704  1.00  0.00    -0.545 OA
ATOM      9  O   UNL     1      10.580  68.221   2.579  1.00  0.00    -0.545 OA
ENDBRANCH   1   7
BRANCH   6  10
ATOM     10  O   UNL     1       9.762  70.830  -3.322  1.00  0.00    -0.508 OA
ATOM     11  H   UNL     1       8.904  71.152  -3.756  1.00  0.00     0.293 HD
ENDBRANCH   6  10
TORSDOF 2
ENDMDL
MODEL 5
REMARK VINA RESULT:    -5.565      1.199      4.402
REMARK INTER + INTRA:          -6.084
REMARK INTER:                  -6.048
REMARK INTRA:                  -0.036
REMARK UNBOUND:                -0.031
REMARK SMILES O=C([O-])c1ccc(O)cc1
REMARK SMILES IDX 4 1 5 2 10 3 6 4 9 5 7 6 2 7 1 8 3 9 8 10
REMARK H PARENT 8 11
REMARK Flexibility Score: inf
ROOT
ATOM      1  C   UNL     1       9.720  69.737   1.508  1.00  0.00    -0.003 A 
ATOM      2  C   UNL     1       9.467  68.478   2.083  1.00  0.00     0.014 A 
ATOM      3  C   UNL     1      10.044  69.810   0.141  1.00  0.00     0.014 A 
ATOM      4  C   UNL     1       9.538  67.317   1.306  1.00  0.00     0.047 A 
ATOM      5  C   UNL     1      10.114  68.647  -0.633  1.00  0.00     0.047 A 
ATOM      6  C   UNL     1       9.861  67.398  -0.052  1.00  0.00     0.115 A 
ENDROOT
BRANCH   1   7
ATOM      7  C   UNL     1       9.646  70.968   2.325  1.00  0.00     0.071 C 
ATOM      8  O   UNL     1       9.804  72.100   1.796  1.00  0.00    -0.545 OA
ATOM      9  O   UNL     1       9.401  70.892   3.692  1.00  0.00    -0.545 OA
ENDBRANCH   1   7
BRANCH   6  10
ATOM     10  O   UNL     1       9.928  66.234  -0.813  1.00  0.00    -0.508 OA
ATOM     11  H   UNL     1       9.755  65.323  -0.404  1.00  0.00     0.293 HD
ENDBRANCH   6  10
TORSDOF 2
ENDMDL
MODEL 6
REMARK VINA RESULT:    -5.529      2.418      3.552
REMARK INTER + INTRA:          -6.045
REMARK INTER:                  -6.010
REMARK INTRA:                  -0.035
REMARK UNBOUND:                -0.031
REMARK SMILES O=C([O-])c1ccc(O)cc1
REMARK SMILES IDX 4 1 5 2 10 3 6 4 9 5 7 6 2 7 1 8 3 9 8 10
REMARK H PARENT 8 11
REMARK Flexibility Score: inf
ROOT
ATOM      1  C   UNL     1       9.739  69.745  -1.036  1.00  0.00    -0.003 A 
ATOM      2  C   UNL     1       9.487  69.878   0.342  1.00  0.00     0.014 A 
ATOM      3  C   UNL     1       9.610  68.479  -1.633  1.00  0.00     0.014 A 
ATOM      4  C   UNL     1       9.114  68.767   1.105  1.00  0.00     0.047 A 
ATOM      5  C   UNL     1       9.237  67.369  -0.868  1.00  0.00     0.047 A 
ATOM      6  C   UNL     1       8.988  67.510   0.503  1.00  0.00     0.115 A 
ENDROOT
BRANCH   1   7
ATOM      7  C   UNL     1      10.132  70.918  -1.847  1.00  0.00     0.071 C 
ATOM      8  O   UNL     1       9.903  72.087  -1.438  1.00  0.00    -0.545 OA
ATOM      9  O   UNL     1      10.763  70.746  -3.075  1.00  0.00    -0.545 OA
ENDBRANCH   1   7
BRANCH   6  10
ATOM     10  O   UNL     1       8.617  66.412   1.275  1.00  0.00    -0.508 OA
ATOM     11  H   UNL     1       9.249  65.636   1.429  1.00  0.00     0.293 HD
ENDBRANCH   6  10
TORSDOF 2
ENDMDL
MODEL 7
REMARK VINA RESULT:    -5.440      1.457      1.930
REMARK INTER + INTRA:          -5.949
REMARK INTER:                  -5.914
REMARK INTRA:                  -0.035
REMARK UNBOUND:                -0.031
REMARK SMILES O=C([O-])c1ccc(O)cc1
REMARK SMILES IDX 4 1 5 2 10 3 6 4 9 5 7 6 2 7 1 8 3 9 8 10
REMARK H PARENT 8 11
REMARK Flexibility Score: inf
ROOT
ATOM      1  C   UNL     1       9.540  68.864   1.064  1.00  0.00    -0.003 A 
ATOM      2  C   UNL     1       9.791  69.748  -0.002  1.00  0.00     0.014 A 
ATOM      3  C   UNL     1       9.517  69.368   2.376  1.00  0.00     0.014 A 
ATOM      4  C   UNL     1      10.015  71.107   0.243  1.00  0.00     0.047 A 
ATOM      5  C   UNL     1       9.741  70.727   2.618  1.00  0.00     0.047 A 
ATOM      6  C   UNL     1       9.990  71.600   1.551  1.00  0.00     0.115 A 
ENDROOT
BRANCH   1   7
ATOM      7  C   UNL     1       9.303  67.426   0.810  1.00  0.00     0.071 C 
ATOM      8  O   UNL     1       8.739  66.707   1.676  1.00  0.00    -0.545 OA
ATOM      9  O   UNL     1       9.701  66.847  -0.390  1.00  0.00    -0.545 OA
ENDBRANCH   1   7
BRANCH   6  10
ATOM     10  O   UNL     1      10.214  72.955   1.779  1.00  0.00    -0.508 OA
ATOM     11  H   UNL     1       9.787  73.438   2.561  1.00  0.00     0.293 HD
ENDBRANCH   6  10
TORSDOF 2
ENDMDL
MODEL 8
REMARK VINA RESULT:    -5.436      2.258      3.103
REMARK INTER + INTRA:          -5.944
REMARK INTER:                  -5.908
REMARK INTRA:                  -0.036
REMARK UNBOUND:                -0.031
REMARK SMILES O=C([O-])c1ccc(O)cc1
REMARK SMILES IDX 4 1 5 2 10 3 6 4 9 5 7 6 2 7 1 8 3 9 8 10
REMARK H PARENT 8 11
REMARK Flexibility Score: inf
ROOT
ATOM      1  C   UNL     1       9.750  68.893  -0.799  1.00  0.00    -0.003 A 
ATOM      2  C   UNL     1       9.984  69.374  -2.100  1.00  0.00     0.014 A 
ATOM      3  C   UNL     1       9.667  69.811   0.263  1.00  0.00     0.014 A 
ATOM      4  C   UNL     1      10.134  70.745  -2.332  1.00  0.00     0.047 A 
ATOM      5  C   UNL     1       9.817  71.182   0.028  1.00  0.00     0.047 A 
ATOM      6  C   UNL     1      10.051  71.652  -1.271  1.00  0.00     0.115 A 
ENDROOT
BRANCH   1   7
ATOM      7  C   UNL     1       9.590  67.444  -0.548  1.00  0.00     0.071 C 
ATOM      8  O   UNL     1       9.723  66.613  -1.485  1.00  0.00    -0.545 OA
ATOM      9  O   UNL     1       9.290  66.978   0.728  1.00  0.00    -0.545 OA
ENDBRANCH   1   7
BRANCH   6  10
ATOM     10  O   UNL     1      10.202  73.014  -1.516  1.00  0.00    -0.508 OA
ATOM     11  H   UNL     1      10.775  73.599  -0.920  1.00  0.00     0.293 HD
ENDBRANCH   6  10
TORSDOF 2
ENDMDL
MODEL 9
REMARK VINA RESULT:    -5.324      2.166      2.857
REMARK INTER + INTRA:          -5.822
REMARK INTER:                  -5.787
REMARK INTRA:                  -0.035
REMARK UNBOUND:                -0.031
REMARK SMILES O=C([O-])c1ccc(O)cc1
REMARK SMILES IDX 4 1 5 2 10 3 6 4 9 5 7 6 2 7 1 8 3 9 8 10
REMARK H PARENT 8 11
REMARK Flexibility Score: inf
ROOT
ATOM      1  C   UNL     1       9.758  70.180  -0.178  1.00  0.00    -0.003 A 
ATOM      2  C   UNL     1       9.839  70.620   1.156  1.00  0.00     0.014 A 
ATOM      3  C   UNL     1       9.676  68.800  -0.436  1.00  0.00     0.014 A 
ATOM      4  C   UNL     1       9.838  69.699   2.208  1.00  0.00     0.047 A 
ATOM      5  C   UNL     1       9.675  67.881   0.618  1.00  0.00     0.047 A 
ATOM      6  C   UNL     1       9.756  68.328   1.943  1.00  0.00     0.115 A 
ENDROOT
BRANCH   1   7
ATOM      7  C   UNL     1       9.759  71.150  -1.294  1.00  0.00     0.071 C 
ATOM      8  O   UNL     1      10.060  70.786  -2.461  1.00  0.00    -0.545 OA
ATOM      9  O   UNL     1       9.426  72.482  -1.069  1.00  0.00    -0.545 OA
ENDBRANCH   1   7
BRANCH   6  10
ATOM     10  O   UNL     1       9.756  67.422   3.001  1.00  0.00    -0.508 OA
ATOM     11  H   UNL     1       8.994  67.386   3.667  1.00  0.00     0.293 HD
ENDBRANCH   6  10
TORSDOF 2
ENDMDL
