MODEL 1
REMARK VINA RESULT:    -7.168      0.000      0.000
REMARK INTER + INTRA:          -8.731
REMARK INTER:                  -8.425
REMARK INTRA:                  -0.307
REMARK UNBOUND:                -0.307
REMARK SMILES O=c1c(O)c(-c2ccc(O)c(O)c2)oc2cc(O)ccc12
REMARK SMILES IDX 5 1 3 2 2 3 1 4 21 5 15 6 14 7 16 8 17 9 19 10 20 11 6 12
REMARK SMILES IDX 7 13 8 14 9 15 13 16 11 17 10 18 12 20 4 22 18 24
REMARK H PARENT 10 19 12 21 4 23 18 25
REMARK Flexibility Score: inf
ROOT
ATOM      1  C   UNL     1       2.345   9.650  35.905  1.00  0.00     0.180 A 
ATOM      2  C   UNL     1       1.466   8.693  35.358  1.00  0.00     0.208 A 
ATOM      3  C   UNL     1       1.900   7.921  34.269  1.00  0.00     0.235 A 
ATOM      4  O   UNL     1       1.128   7.065  33.756  1.00  0.00    -0.285 OA
ATOM      5  C   UNL     1       3.198   8.104  33.766  1.00  0.00     0.069 A 
ATOM      6  C   UNL     1       4.026   9.065  34.385  1.00  0.00     0.142 A 
ATOM      7  O   UNL     1       3.573   9.783  35.408  1.00  0.00    -0.452 OA
ATOM      8  C   UNL     1       5.329   9.270  33.920  1.00  0.00     0.094 A 
ATOM      9  C   UNL     1       5.818   8.527  32.841  1.00  0.00     0.119 A 
ATOM     10  C   UNL     1       4.999   7.573  32.223  1.00  0.00     0.047 A 
ATOM     11  C   UNL     1       3.695   7.359  32.681  1.00  0.00     0.020 A 
ENDROOT
BRANCH   1  12
ATOM     12  C   UNL     1       1.956  10.516  37.041  1.00  0.00     0.025 A 
ATOM     13  C   UNL     1       1.490  11.827  36.837  1.00  0.00     0.016 A 
ATOM     14  C   UNL     1       1.150  12.634  37.926  1.00  0.00     0.051 A 
ATOM     15  C   UNL     1       1.284  12.150  39.233  1.00  0.00     0.157 A 
ATOM     16  C   UNL     1       2.108  10.043  38.355  1.00  0.00     0.062 A 
ATOM     17  C   UNL     1       1.769  10.849  39.448  1.00  0.00     0.158 A 
BRANCH  15  18
ATOM     18  O   UNL     1       0.943  12.957  40.318  1.00  0.00    -0.504 OA
ATOM     19  H   UNL     1       0.505  12.573  41.148  1.00  0.00     0.293 HD
ENDBRANCH  15  18
BRANCH  17  20
ATOM     20  O   UNL     1       1.920  10.339  40.738  1.00  0.00    -0.504 OA
ATOM     21  H   UNL     1       1.829   9.352  40.940  1.00  0.00     0.293 HD
ENDBRANCH  17  20
ENDBRANCH   1  12
BRANCH   2  22
ATOM     22  O   UNL     1       0.198   8.499  35.910  1.00  0.00    -0.502 OA
ATOM     23  H   UNL     1      -0.606   9.049  35.628  1.00  0.00     0.293 HD
ENDBRANCH   2  22
BRANCH   9  24
ATOM     24  O   UNL     1       7.118   8.745  32.390  1.00  0.00    -0.508 OA
ATOM     25  H   UNL     1       7.887   8.155  32.685  1.00  0.00     0.293 HD
ENDBRANCH   9  24
TORSDOF 5
ENDMDL
MODEL 2
REMARK VINA RESULT:    -7.165      1.966      6.899
REMARK INTER + INTRA:          -8.728
REMARK INTER:                  -8.572
REMARK INTRA:                  -0.156
REMARK UNBOUND:                -0.307
REMARK SMILES O=c1c(O)c(-c2ccc(O)c(O)c2)oc2cc(O)ccc12
REMARK SMILES IDX 5 1 3 2 2 3 1 4 21 5 15 6 14 7 16 8 17 9 19 10 20 11 6 12
REMARK SMILES IDX 7 13 8 14 9 15 13 16 11 17 10 18 12 20 4 22 18 24
REMARK H PARENT 10 19 12 21 4 23 18 25
REMARK Flexibility Score: inf
ROOT
ATOM      1  C   UNL     1       2.388   9.291  35.911  1.00  0.00     0.180 A 
ATOM      2  C   UNL     1       2.777   9.397  37.262  1.00  0.00     0.208 A 
ATOM      3  C   UNL     1       1.905  10.016  38.172  1.00  0.00     0.235 A 
ATOM      4  O   UNL     1       2.235  10.130  39.384  1.00  0.00    -0.285 OA
ATOM      5  C   UNL     1       0.665  10.495  37.722  1.00  0.00     0.069 A 
ATOM      6  C   UNL     1       0.338  10.330  36.358  1.00  0.00     0.142 A 
ATOM      7  O   UNL     1       1.197   9.746  35.528  1.00  0.00    -0.452 OA
ATOM      8  C   UNL     1      -0.893  10.785  35.873  1.00  0.00     0.094 A 
ATOM      9  C   UNL     1      -1.804  11.405  36.732  1.00  0.00     0.119 A 
ATOM     10  C   UNL     1      -1.483  11.572  38.087  1.00  0.00     0.047 A 
ATOM     11  C   UNL     1      -0.256  11.120  38.582  1.00  0.00     0.020 A 
ENDROOT
BRANCH   1  12
ATOM     12  C   UNL     1       3.258   8.670  34.888  1.00  0.00     0.025 A 
ATOM     13  C   UNL     1       2.906   7.462  34.261  1.00  0.00     0.016 A 
ATOM     14  C   UNL     1       3.755   6.883  33.315  1.00  0.00     0.051 A 
ATOM     15  C   UNL     1       4.973   7.492  32.991  1.00  0.00     0.157 A 
ATOM     16  C   UNL     1       4.491   9.266  34.575  1.00  0.00     0.062 A 
ATOM     17  C   UNL     1       5.345   8.688  33.627  1.00  0.00     0.158 A 
BRANCH  15  18
ATOM     18  O   UNL     1       5.818   6.913  32.045  1.00  0.00    -0.504 OA
ATOM     19  H   UNL     1       5.469   6.267  31.346  1.00  0.00     0.293 HD
ENDBRANCH  15  18
BRANCH  17  20
ATOM     20  O   UNL     1       6.554   9.317  33.333  1.00  0.00    -0.504 OA
ATOM     21  H   UNL     1       7.210   9.586  34.055  1.00  0.00     0.293 HD
ENDBRANCH  17  20
ENDBRANCH   1  12
BRANCH   2  22
ATOM     22  O   UNL     1       3.997   8.867  37.691  1.00  0.00    -0.502 OA
ATOM     23  H   UNL     1       4.403   9.101  38.590  1.00  0.00     0.293 HD
ENDBRANCH   2  22
BRANCH   9  24
ATOM     24  O   UNL     1      -3.024  11.853  36.233  1.00  0.00    -0.508 OA
ATOM     25  H   UNL     1      -3.468  12.691  36.591  1.00  0.00     0.293 HD
ENDBRANCH   9  24
TORSDOF 5
ENDMDL
MODEL 3
REMARK VINA RESULT:    -6.713      1.167      1.514
REMARK INTER + INTRA:          -8.197
REMARK INTER:                  -7.879
REMARK INTRA:                  -0.318
REMARK UNBOUND:                -0.307
REMARK SMILES O=c1c(O)c(-c2ccc(O)c(O)c2)oc2cc(O)ccc12
REMARK SMILES IDX 5 1 3 2 2 3 1 4 21 5 15 6 14 7 16 8 17 9 19 10 20 11 6 12
REMARK SMILES IDX 7 13 8 14 9 15 13 16 11 17 10 18 12 20 4 22 18 24
REMARK H PARENT 10 19 12 21 4 23 18 25
REMARK Flexibility Score: inf
ROOT
ATOM      1  C   UNL     1       1.740  10.652  36.024  1.00  0.00     0.180 A 
ATOM      2  C   UNL     1       0.788   9.673  35.673  1.00  0.00     0.208 A 
ATOM      3  C   UNL     1       1.190   8.598  34.864  1.00  0.00     0.235 A 
ATOM      4  O   UNL     1       0.354   7.714  34.528  1.00  0.00    -0.285 OA
ATOM      5  C   UNL     1       2.526   8.514  34.441  1.00  0.00     0.069 A 
ATOM      6  C   UNL     1       3.423   9.522  34.855  1.00  0.00     0.142 A 
ATOM      7  O   UNL     1       3.000  10.528  35.614  1.00  0.00    -0.452 OA
ATOM      8  C   UNL     1       4.765   9.468  34.464  1.00  0.00     0.094 A 
ATOM      9  C   UNL     1       5.225   8.420  33.661  1.00  0.00     0.119 A 
ATOM     10  C   UNL     1       4.337   7.417  33.247  1.00  0.00     0.047 A 
ATOM     11  C   UNL     1       2.994   7.461  33.634  1.00  0.00     0.020 A 
ENDROOT
BRANCH   1  12
ATOM     12  C   UNL     1       1.390  11.825  36.857  1.00  0.00     0.025 A 
ATOM     13  C   UNL     1       1.018  13.051  36.278  1.00  0.00     0.016 A 
ATOM     14  C   UNL     1       0.715  14.150  37.086  1.00  0.00     0.051 A 
ATOM     15  C   UNL     1       0.793  14.047  38.480  1.00  0.00     0.157 A 
ATOM     16  C   UNL     1       1.487  11.732  38.256  1.00  0.00     0.062 A 
ATOM     17  C   UNL     1       1.184  12.832  39.067  1.00  0.00     0.158 A 
BRANCH  15  18
ATOM     18  O   UNL     1       0.488  15.145  39.283  1.00  0.00    -0.504 OA
ATOM     19  H   UNL     1       0.287  16.055  38.884  1.00  0.00     0.293 HD
ENDBRANCH  15  18
BRANCH  17  20
ATOM     20  O   UNL     1       1.277  12.697  40.452  1.00  0.00    -0.504 OA
ATOM     21  H   UNL     1       2.000  13.158  40.990  1.00  0.00     0.293 HD
ENDBRANCH  17  20
ENDBRANCH   1  12
BRANCH   2  22
ATOM     22  O   UNL     1      -0.523   9.757  36.148  1.00  0.00    -0.502 OA
ATOM     23  H   UNL     1      -0.743  10.124  37.067  1.00  0.00     0.293 HD
ENDBRANCH   2  22
BRANCH   9  24
ATOM     24  O   UNL     1       6.564   8.382  33.280  1.00  0.00    -0.508 OA
ATOM     25  H   UNL     1       7.252   7.862  33.812  1.00  0.00     0.293 HD
ENDBRANCH   9  24
TORSDOF 5
ENDMDL
MODEL 4
REMARK VINA RESULT:    -6.598      1.713      6.775
REMARK INTER + INTRA:          -8.062
REMARK INTER:                  -7.793
REMARK INTRA:                  -0.269
REMARK UNBOUND:                -0.307
REMARK SMILES O=c1c(O)c(-c2ccc(O)c(O)c2)oc2cc(O)ccc12
REMARK SMILES IDX 5 1 3 2 2 3 1 4 21 5 15 6 14 7 16 8 17 9 19 10 20 11 6 12
REMARK SMILES IDX 7 13 8 14 9 15 13 16 11 17 10 18 12 20 4 22 18 24
REMARK H PARENT 10 19 12 21 4 23 18 25
REMARK Flexibility Score: inf
ROOT
ATOM      1  C   UNL     1       2.823   9.626  35.988  1.00  0.00     0.180 A 
ATOM      2  C   UNL     1       2.774   9.130  37.307  1.00  0.00     0.208 A 
ATOM      3  C   UNL     1       2.087   9.869  38.283  1.00  0.00     0.235 A 
ATOM      4  O   UNL     1       2.037   9.451  39.472  1.00  0.00    -0.285 OA
ATOM      5  C   UNL     1       1.452  11.068  37.921  1.00  0.00     0.069 A 
ATOM      6  C   UNL     1       1.527  11.485  36.574  1.00  0.00     0.142 A 
ATOM      7  O   UNL     1       2.196  10.760  35.684  1.00  0.00    -0.452 OA
ATOM      8  C   UNL     1       0.899  12.669  36.172  1.00  0.00     0.094 A 
ATOM      9  C   UNL     1       0.197  13.445  37.098  1.00  0.00     0.119 A 
ATOM     10  C   UNL     1       0.121  13.035  38.437  1.00  0.00     0.047 A 
ATOM     11  C   UNL     1       0.744  11.853  38.849  1.00  0.00     0.020 A 
ENDROOT
BRANCH   1  12
ATOM     12  C   UNL     1       3.543   8.916  34.907  1.00  0.00     0.025 A 
ATOM     13  C   UNL     1       3.001   7.772  34.294  1.00  0.00     0.016 A 
ATOM     14  C   UNL     1       3.709   7.105  33.291  1.00  0.00     0.051 A 
ATOM     15  C   UNL     1       4.974   7.560  32.897  1.00  0.00     0.157 A 
ATOM     16  C   UNL     1       4.821   9.355  34.523  1.00  0.00     0.062 A 
ATOM     17  C   UNL     1       5.533   8.688  33.519  1.00  0.00     0.158 A 
BRANCH  15  18
ATOM     18  O   UNL     1       5.678   6.893  31.895  1.00  0.00    -0.504 OA
ATOM     19  H   UNL     1       5.437   5.948  31.616  1.00  0.00     0.293 HD
ENDBRANCH  15  18
BRANCH  17  20
ATOM     20  O   UNL     1       6.793   9.163  33.154  1.00  0.00    -0.504 OA
ATOM     21  H   UNL     1       6.913   9.889  32.459  1.00  0.00     0.293 HD
ENDBRANCH  17  20
ENDBRANCH   1  12
BRANCH   2  22
ATOM     22  O   UNL     1       3.374   7.910  37.627  1.00  0.00    -0.502 OA
ATOM     23  H   UNL     1       3.879   7.359  36.943  1.00  0.00     0.293 HD
ENDBRANCH   2  22
BRANCH   9  24
ATOM     24  O   UNL     1      -0.422  14.621  36.681  1.00  0.00    -0.508 OA
ATOM     25  H   UNL     1      -0.659  14.778  35.708  1.00  0.00     0.293 HD
ENDBRANCH   9  24
TORSDOF 5
ENDMDL
MODEL 5
REMARK VINA RESULT:    -6.545      1.902      2.410
REMARK INTER + INTRA:          -7.999
REMARK INTER:                  -7.903
REMARK INTRA:                  -0.096
REMARK UNBOUND:                -0.307
REMARK SMILES O=c1c(O)c(-c2ccc(O)c(O)c2)oc2cc(O)ccc12
REMARK SMILES IDX 5 1 3 2 2 3 1 4 21 5 15 6 14 7 16 8 17 9 19 10 20 11 6 12
REMARK SMILES IDX 7 13 8 14 9 15 13 16 11 17 10 18 12 20 4 22 18 24
REMARK H PARENT 10 19 12 21 4 23 18 25
REMARK Flexibility Score: inf
ROOT
ATOM      1  C   UNL     1       1.185   9.235  35.407  1.00  0.00     0.180 A 
ATOM      2  C   UNL     1       0.646   8.147  34.690  1.00  0.00     0.208 A 
ATOM      3  C   UNL     1       1.475   7.444  33.802  1.00  0.00     0.235 A 
ATOM      4  O   UNL     1       1.013   6.473  33.142  1.00  0.00    -0.285 OA
ATOM      5  C   UNL     1       2.819   7.825  33.665  1.00  0.00     0.069 A 
ATOM      6  C   UNL     1       3.290   8.909  34.437  1.00  0.00     0.142 A 
ATOM      7  O   UNL     1       2.469   9.555  35.258  1.00  0.00    -0.452 OA
ATOM      8  C   UNL     1       4.625   9.313  34.336  1.00  0.00     0.094 A 
ATOM      9  C   UNL     1       5.500   8.648  33.472  1.00  0.00     0.119 A 
ATOM     10  C   UNL     1       5.037   7.571  32.703  1.00  0.00     0.047 A 
ATOM     11  C   UNL     1       3.704   7.159  32.797  1.00  0.00     0.020 A 
ENDROOT
BRANCH   1  12
ATOM     12  C   UNL     1       0.371  10.038  36.347  1.00  0.00     0.025 A 
ATOM     13  C   UNL     1       0.686  10.107  37.716  1.00  0.00     0.016 A 
ATOM     14  C   UNL     1      -0.111  10.854  38.587  1.00  0.00     0.051 A 
ATOM     15  C   UNL     1      -1.241  11.529  38.110  1.00  0.00     0.157 A 
ATOM     16  C   UNL     1      -0.775  10.700  35.877  1.00  0.00     0.062 A 
ATOM     17  C   UNL     1      -1.576  11.449  36.748  1.00  0.00     0.158 A 
BRANCH  15  18
ATOM     18  O   UNL     1      -2.033  12.274  38.982  1.00  0.00    -0.504 OA
ATOM     19  H   UNL     1      -1.646  13.028  39.538  1.00  0.00     0.293 HD
ENDBRANCH  15  18
BRANCH  17  20
ATOM     20  O   UNL     1      -2.698  12.104  36.241  1.00  0.00    -0.504 OA
ATOM     21  H   UNL     1      -2.761  13.114  36.207  1.00  0.00     0.293 HD
ENDBRANCH  17  20
ENDBRANCH   1  12
BRANCH   2  22
ATOM     22  O   UNL     1      -0.683   7.760  34.884  1.00  0.00    -0.502 OA
ATOM     23  H   UNL     1      -1.388   8.401  35.230  1.00  0.00     0.293 HD
ENDBRANCH   2  22
BRANCH   9  24
ATOM     24  O   UNL     1       6.826   9.063  33.383  1.00  0.00    -0.508 OA
ATOM     25  H   UNL     1       7.073   9.971  33.005  1.00  0.00     0.293 HD
ENDBRANCH   9  24
TORSDOF 5
ENDMDL
MODEL 6
REMARK VINA RESULT:    -6.424      2.318      4.050
REMARK INTER + INTRA:          -7.857
REMARK INTER:                  -7.560
REMARK INTRA:                  -0.297
REMARK UNBOUND:                -0.307
REMARK SMILES O=c1c(O)c(-c2ccc(O)c(O)c2)oc2cc(O)ccc12
REMARK SMILES IDX 5 1 3 2 2 3 1 4 21 5 15 6 14 7 16 8 17 9 19 10 20 11 6 12
REMARK SMILES IDX 7 13 8 14 9 15 13 16 11 17 10 18 12 20 4 22 18 24
REMARK H PARENT 10 19 12 21 4 23 18 25
REMARK Flexibility Score: inf
ROOT
ATOM      1  C   UNL     1       1.099  10.858  38.192  1.00  0.00     0.180 A 
ATOM      2  C   UNL     1       1.818  10.099  39.138  1.00  0.00     0.208 A 
ATOM      3  C   UNL     1       2.477   8.934  38.712  1.00  0.00     0.235 A 
ATOM      4  O   UNL     1       3.119   8.234  39.542  1.00  0.00    -0.285 OA
ATOM      5  C   UNL     1       2.421   8.565  37.359  1.00  0.00     0.069 A 
ATOM      6  C   UNL     1       1.700   9.391  36.470  1.00  0.00     0.142 A 
ATOM      7  O   UNL     1       1.083  10.480  36.915  1.00  0.00    -0.452 OA
ATOM      8  C   UNL     1       1.629   9.063  35.111  1.00  0.00     0.094 A 
ATOM      9  C   UNL     1       2.269   7.918  34.628  1.00  0.00     0.119 A 
ATOM     10  C   UNL     1       2.984   7.094  35.508  1.00  0.00     0.047 A 
ATOM     11  C   UNL     1       3.062   7.414  36.867  1.00  0.00     0.020 A 
ENDROOT
BRANCH   1  12
ATOM     12  C   UNL     1       0.363  12.086  38.565  1.00  0.00     0.025 A 
ATOM     13  C   UNL     1       1.020  13.323  38.699  1.00  0.00     0.016 A 
ATOM     14  C   UNL     1       0.308  14.464  39.075  1.00  0.00     0.051 A 
ATOM     15  C   UNL     1      -1.066  14.387  39.335  1.00  0.00     0.157 A 
ATOM     16  C   UNL     1      -1.011  12.010  38.848  1.00  0.00     0.062 A 
ATOM     17  C   UNL     1      -1.727  13.152  39.225  1.00  0.00     0.158 A 
BRANCH  15  18
ATOM     18  O   UNL     1      -1.774  15.528  39.709  1.00  0.00    -0.504 OA
ATOM     19  H   UNL     1      -1.552  16.440  39.326  1.00  0.00     0.293 HD
ENDBRANCH  15  18
BRANCH  17  20
ATOM     20  O   UNL     1      -3.093  13.040  39.484  1.00  0.00    -0.504 OA
ATOM     21  H   UNL     1      -3.529  12.151  39.694  1.00  0.00     0.293 HD
ENDBRANCH  17  20
ENDBRANCH   1  12
BRANCH   2  22
ATOM     22  O   UNL     1       1.897  10.517  40.469  1.00  0.00    -0.502 OA
ATOM     23  H   UNL     1       2.672  10.265  41.071  1.00  0.00     0.293 HD
ENDBRANCH   2  22
BRANCH   9  24
ATOM     24  O   UNL     1       2.187   7.605  33.274  1.00  0.00    -0.508 OA
ATOM     25  H   UNL     1       1.474   6.980  32.916  1.00  0.00     0.293 HD
ENDBRANCH   9  24
TORSDOF 5
ENDMDL
MODEL 7
REMARK VINA RESULT:    -6.318      2.348      4.092
REMARK INTER + INTRA:          -7.733
REMARK INTER:                  -7.456
REMARK INTRA:                  -0.277
REMARK UNBOUND:                -0.307
REMARK SMILES O=c1c(O)c(-c2ccc(O)c(O)c2)oc2cc(O)ccc12
REMARK SMILES IDX 5 1 3 2 2 3 1 4 21 5 15 6 14 7 16 8 17 9 19 10 20 11 6 12
REMARK SMILES IDX 7 13 8 14 9 15 13 16 11 17 10 18 12 20 4 22 18 24
REMARK H PARENT 10 19 12 21 4 23 18 25
REMARK Flexibility Score: inf
ROOT
ATOM      1  C   UNL     1       0.801  10.658  38.104  1.00  0.00     0.180 A 
ATOM      2  C   UNL     1       1.599   9.985  39.052  1.00  0.00     0.208 A 
ATOM      3  C   UNL     1       2.364   8.885  38.632  1.00  0.00     0.235 A 
ATOM      4  O   UNL     1       3.079   8.260  39.463  1.00  0.00    -0.285 OA
ATOM      5  C   UNL     1       2.332   8.497  37.283  1.00  0.00     0.069 A 
ATOM      6  C   UNL     1       1.526   9.238  36.392  1.00  0.00     0.142 A 
ATOM      7  O   UNL     1       0.810  10.267  36.832  1.00  0.00    -0.452 OA
ATOM      8  C   UNL     1       1.476   8.888  35.038  1.00  0.00     0.094 A 
ATOM      9  C   UNL     1       2.220   7.806  34.561  1.00  0.00     0.119 A 
ATOM     10  C   UNL     1       3.021   7.066  35.442  1.00  0.00     0.047 A 
ATOM     11  C   UNL     1       3.079   7.408  36.797  1.00  0.00     0.020 A 
ENDROOT
BRANCH   1  12
ATOM     12  C   UNL     1      -0.049  11.814  38.472  1.00  0.00     0.025 A 
ATOM     13  C   UNL     1      -1.442  11.683  38.617  1.00  0.00     0.016 A 
ATOM     14  C   UNL     1      -2.225  12.793  38.942  1.00  0.00     0.051 A 
ATOM     15  C   UNL     1      -1.634  14.051  39.112  1.00  0.00     0.157 A 
ATOM     16  C   UNL     1       0.536  13.082  38.622  1.00  0.00     0.062 A 
ATOM     17  C   UNL     1      -0.246  14.196  38.948  1.00  0.00     0.158 A 
BRANCH  15  18
ATOM     18  O   UNL     1      -2.419  15.156  39.438  1.00  0.00    -0.504 OA
ATOM     19  H   UNL     1      -2.412  15.997  38.871  1.00  0.00     0.293 HD
ENDBRANCH  15  18
BRANCH  17  20
ATOM     20  O   UNL     1       0.372  15.436  39.104  1.00  0.00    -0.504 OA
ATOM     21  H   UNL     1       0.942  15.848  38.375  1.00  0.00     0.293 HD
ENDBRANCH  17  20
ENDBRANCH   1  12
BRANCH   2  22
ATOM     22  O   UNL     1       1.648  10.424  40.377  1.00  0.00    -0.502 OA
ATOM     23  H   UNL     1       0.833  10.793  40.855  1.00  0.00     0.293 HD
ENDBRANCH   2  22
BRANCH   9  24
ATOM     24  O   UNL     1       2.158   7.471  33.210  1.00  0.00    -0.508 OA
ATOM     25  H   UNL     1       1.529   7.948  32.575  1.00  0.00     0.293 HD
ENDBRANCH   9  24
TORSDOF 5
ENDMDL
MODEL 8
REMARK VINA RESULT:    -6.115      2.035      6.935
REMARK INTER + INTRA:          -7.494
REMARK INTER:                  -7.170
REMARK INTRA:                  -0.324
REMARK UNBOUND:                -0.307
REMARK SMILES O=c1c(O)c(-c2ccc(O)c(O)c2)oc2cc(O)ccc12
REMARK SMILES IDX 5 1 3 2 2 3 1 4 21 5 15 6 14 7 16 8 17 9 19 10 20 11 6 12
REMARK SMILES IDX 7 13 8 14 9 15 13 16 11 17 10 18 12 20 4 22 18 24
REMARK H PARENT 10 19 12 21 4 23 18 25
REMARK Flexibility Score: inf
ROOT
ATOM      1  C   UNL     1       1.845  10.926  35.851  1.00  0.00     0.180 A 
ATOM      2  C   UNL     1       1.162  11.930  35.134  1.00  0.00     0.208 A 
ATOM      3  C   UNL     1       0.540  12.967  35.847  1.00  0.00     0.235 A 
ATOM      4  O   UNL     1      -0.085  13.871  35.228  1.00  0.00    -0.285 OA
ATOM      5  C   UNL     1       0.628  12.991  37.248  1.00  0.00     0.069 A 
ATOM      6  C   UNL     1       1.351  11.962  37.890  1.00  0.00     0.142 A 
ATOM      7  O   UNL     1       1.917  10.993  37.178  1.00  0.00    -0.452 OA
ATOM      8  C   UNL     1       1.470  11.956  39.284  1.00  0.00     0.094 A 
ATOM      9  C   UNL     1       0.876  12.965  40.047  1.00  0.00     0.119 A 
ATOM     10  C   UNL     1       0.157  13.988  39.414  1.00  0.00     0.047 A 
ATOM     11  C   UNL     1       0.032  14.004  38.021  1.00  0.00     0.020 A 
ENDROOT
BRANCH   1  12
ATOM     12  C   UNL     1       2.510   9.790  35.174  1.00  0.00     0.025 A 
ATOM     13  C   UNL     1       1.829   8.585  34.924  1.00  0.00     0.016 A 
ATOM     14  C   UNL     1       2.484   7.518  34.304  1.00  0.00     0.051 A 
ATOM     15  C   UNL     1       3.831   7.633  33.937  1.00  0.00     0.157 A 
ATOM     16  C   UNL     1       3.866   9.892  34.822  1.00  0.00     0.062 A 
ATOM     17  C   UNL     1       4.526   8.825  34.201  1.00  0.00     0.158 A 
BRANCH  15  18
ATOM     18  O   UNL     1       4.482   6.568  33.317  1.00  0.00    -0.504 OA
ATOM     19  H   UNL     1       4.400   6.403  32.320  1.00  0.00     0.293 HD
ENDBRANCH  15  18
BRANCH  17  20
ATOM     20  O   UNL     1       5.868   8.969  33.853  1.00  0.00    -0.504 OA
ATOM     21  H   UNL     1       6.181   9.672  33.195  1.00  0.00     0.293 HD
ENDBRANCH  17  20
ENDBRANCH   1  12
BRANCH   2  22
ATOM     22  O   UNL     1       1.133  11.906  33.737  1.00  0.00    -0.502 OA
ATOM     23  H   UNL     1       1.680  12.546  33.173  1.00  0.00     0.293 HD
ENDBRANCH   2  22
BRANCH   9  24
ATOM     24  O   UNL     1       1.003  12.944  41.434  1.00  0.00    -0.508 OA
ATOM     25  H   UNL     1       0.192  12.898  42.040  1.00  0.00     0.293 HD
ENDBRANCH   9  24
TORSDOF 5
ENDMDL
MODEL 9
REMARK VINA RESULT:    -5.806      2.754      4.035
REMARK INTER + INTRA:          -7.130
REMARK INTER:                  -7.224
REMARK INTRA:                   0.094
REMARK UNBOUND:                -0.307
REMARK SMILES O=c1c(O)c(-c2ccc(O)c(O)c2)oc2cc(O)ccc12
REMARK SMILES IDX 5 1 3 2 2 3 1 4 21 5 15 6 14 7 16 8 17 9 19 10 20 11 6 12
REMARK SMILES IDX 7 13 8 14 9 15 13 16 11 17 10 18 12 20 4 22 18 24
REMARK H PARENT 10 19 12 21 4 23 18 25
REMARK Flexibility Score: inf
ROOT
ATOM      1  C   UNL     1       1.488  11.040  37.493  1.00  0.00     0.180 A 
ATOM      2  C   UNL     1       1.461  10.723  36.120  1.00  0.00     0.208 A 
ATOM      3  C   UNL     1       1.878   9.446  35.712  1.00  0.00     0.235 A 
ATOM      4  O   UNL     1       1.872   9.142  34.487  1.00  0.00    -0.285 OA
ATOM      5  C   UNL     1       2.290   8.513  36.676  1.00  0.00     0.069 A 
ATOM      6  C   UNL     1       2.265   8.900  38.034  1.00  0.00     0.142 A 
ATOM      7  O   UNL     1       1.872  10.122  38.377  1.00  0.00    -0.452 OA
ATOM      8  C   UNL     1       2.658   7.995  39.026  1.00  0.00     0.094 A 
ATOM      9  C   UNL     1       3.078   6.707  38.680  1.00  0.00     0.119 A 
ATOM     10  C   UNL     1       3.106   6.320  37.334  1.00  0.00     0.047 A 
ATOM     11  C   UNL     1       2.714   7.216  36.334  1.00  0.00     0.020 A 
ENDROOT
BRANCH   1  12
ATOM     12  C   UNL     1       1.083  12.370  38.002  1.00  0.00     0.025 A 
ATOM     13  C   UNL     1       1.464  13.553  37.343  1.00  0.00     0.016 A 
ATOM     14  C   UNL     1       1.088  14.798  37.855  1.00  0.00     0.051 A 
ATOM     15  C   UNL     1       0.342  14.881  39.037  1.00  0.00     0.157 A 
ATOM     16  C   UNL     1       0.352  12.460  39.198  1.00  0.00     0.062 A 
ATOM     17  C   UNL     1      -0.025  13.706  39.713  1.00  0.00     0.158 A 
BRANCH  15  18
ATOM     18  O   UNL     1      -0.032  16.125  39.544  1.00  0.00    -0.504 OA
ATOM     19  H   UNL     1      -0.712  16.211  40.292  1.00  0.00     0.293 HD
ENDBRANCH  15  18
BRANCH  17  20
ATOM     20  O   UNL     1      -0.763  13.754  40.895  1.00  0.00    -0.504 OA
ATOM     21  H   UNL     1      -1.451  14.475  41.070  1.00  0.00     0.293 HD
ENDBRANCH  17  20
ENDBRANCH   1  12
BRANCH   2  22
ATOM     22  O   UNL     1       1.000  11.656  35.187  1.00  0.00    -0.502 OA
ATOM     23  H   UNL     1       0.812  11.409  34.222  1.00  0.00     0.293 HD
ENDBRANCH   2  22
BRANCH   9  24
ATOM     24  O   UNL     1       3.467   5.820  39.681  1.00  0.00    -0.508 OA
ATOM     25  H   UNL     1       3.648   4.843  39.481  1.00  0.00     0.293 HD
ENDBRANCH   9  24
TORSDOF 5
ENDMDL
