MODEL 1
REMARK VINA RESULT:    -7.321      0.000      0.000
REMARK INTER + INTRA:         -10.909
REMARK INTER:                 -10.318
REMARK INTRA:                  -0.591
REMARK UNBOUND:                -0.591
REMARK SMILES C[C@H](CO)CCC(=O)[C@H](C)[C@H]1C(=O)C[C@@H]2[C@@H]3CC=C4C[C@@H](O)CC[C@@]4(C)[C@@H]3CC[C@@]21C
REMARK SMILES IDX 6 1 5 2 2 3 1 4 3 5 4 6 7 8 8 9 9 10 10 11 11 12 12 13 30 14
REMARK SMILES IDX 13 15 14 16 15 17 29 18 31 19 16 20 28 21 27 22 17 23 25 24
REMARK SMILES IDX 18 25 19 26 24 27 26 28 20 29 23 30 21 31 22 32
REMARK H PARENT 4 7 22 33
REMARK Flexibility Score: inf
ROOT
ATOM      1  C   UNL     1      48.955   7.882  21.141  1.00  0.00     0.076 C 
ENDROOT
BRANCH   1   2
ATOM      2  C   UNL     1      50.408   7.595  20.689  1.00  0.00     0.013 C 
BRANCH   2   3
ATOM      3  C   UNL     1      50.543   7.390  19.158  1.00  0.00     0.012 C 
ATOM      4  C   UNL     1      51.883   6.734  18.789  1.00  0.00     0.010 C 
BRANCH   3   5
ATOM      5  C   UNL     1      50.402   8.734  18.412  1.00  0.00     0.159 C 
BRANCH   5   6
ATOM      6  O   UNL     1      51.088   9.758  19.084  1.00  0.00    -0.396 OA
ATOM      7  H   UNL     1      50.830  10.609  18.641  1.00  0.00     0.210 HD
ENDBRANCH   5   6
ENDBRANCH   3   5
ENDBRANCH   2   3
ENDBRANCH   1   2
BRANCH   1   8
ATOM      8  C   UNL     1      48.804   7.901  22.645  1.00  0.00     0.136 C 
ATOM      9  O   UNL     1      49.611   8.521  23.321  1.00  0.00    -0.299 OA
BRANCH   8  10
ATOM     10  C   UNL     1      47.683   7.116  23.309  1.00  0.00     0.064 C 
ATOM     11  C   UNL     1      47.285   7.731  24.663  1.00  0.00     0.017 C 
BRANCH  10  12
ATOM     12  C   UNL     1      47.840   5.552  23.314  1.00  0.00     0.072 C 
ATOM     13  C   UNL     1      47.751   5.036  21.917  1.00  0.00     0.137 C 
ATOM     14  C   UNL     1      49.130   4.841  23.895  1.00  0.00    -0.019 C 
ATOM     15  O   UNL     1      46.765   5.195  21.216  1.00  0.00    -0.299 OA
ATOM     16  C   UNL     1      48.927   4.264  21.465  1.00  0.00     0.080 C 
ATOM     17  C   UNL     1      49.925   4.336  22.634  1.00  0.00     0.007 C 
ATOM     18  C   UNL     1      48.700   3.642  24.816  1.00  0.00     0.008 C 
ATOM     19  C   UNL     1      50.043   5.758  24.746  1.00  0.00     0.012 C 
ATOM     20  C   UNL     1      50.734   3.019  22.869  1.00  0.00     0.001 C 
ATOM     21  C   UNL     1      48.538   2.321  24.056  1.00  0.00     0.005 C 
ATOM     22  C   UNL     1      49.919   1.851  23.537  1.00  0.00     0.003 C 
ATOM     23  C   UNL     1      51.528   2.595  21.617  1.00  0.00     0.031 C 
ATOM     24  C   UNL     1      49.913   0.465  22.770  1.00  0.00    -0.008 C 
ATOM     25  C   UNL     1      52.070   1.200  21.734  1.00  0.00    -0.027 C 
ATOM     26  C   UNL     1      51.326   0.190  22.231  1.00  0.00    -0.065 C 
ATOM     27  C   UNL     1      49.488  -0.655  23.783  1.00  0.00     0.014 C 
ATOM     28  C   UNL     1      48.931   0.445  21.573  1.00  0.00     0.016 C 
ATOM     29  C   UNL     1      51.788  -1.229  21.973  1.00  0.00     0.063 C 
ATOM     30  C   UNL     1      49.867  -2.076  23.349  1.00  0.00     0.033 C 
ATOM     31  C   UNL     1      51.368  -2.192  23.087  1.00  0.00     0.118 C 
BRANCH  31  32
ATOM     32  O   UNL     1      52.084  -1.920  24.266  1.00  0.00    -0.393 OA
ATOM     33  H   UNL     1      51.412  -1.733  24.971  1.00  0.00     0.210 HD
ENDBRANCH  31  32
ENDBRANCH  10  12
ENDBRANCH   8  10
ENDBRANCH   1   8
TORSDOF 8
ENDMDL
MODEL 2
REMARK VINA RESULT:    -7.162      2.876      7.907
REMARK INTER + INTRA:         -10.684
REMARK INTER:                 -10.067
REMARK INTRA:                  -0.617
REMARK UNBOUND:                -0.591
REMARK SMILES C[C@H](CO)CCC(=O)[C@H](C)[C@H]1C(=O)C[C@@H]2[C@@H]3CC=C4C[C@@H](O)CC[C@@]4(C)[C@@H]3CC[C@@]21C
REMARK SMILES IDX 6 1 5 2 2 3 1 4 3 5 4 6 7 8 8 9 9 10 10 11 11 12 12 13 30 14
REMARK SMILES IDX 13 15 14 16 15 17 29 18 31 19 16 20 28 21 27 22 17 23 25 24
REMARK SMILES IDX 18 25 19 26 24 27 26 28 20 29 23 30 21 31 22 32
REMARK H PARENT 4 7 22 33
REMARK Flexibility Score: inf
ROOT
ATOM      1  C   UNL     1      50.377   2.308  21.293  1.00  0.00     0.076 C 
ENDROOT
BRANCH   1   2
ATOM      2  C   UNL     1      50.636   2.991  19.928  1.00  0.00     0.013 C 
BRANCH   2   3
ATOM      3  C   UNL     1      52.027   3.670  19.837  1.00  0.00     0.012 C 
ATOM      4  C   UNL     1      52.094   4.677  18.678  1.00  0.00     0.010 C 
BRANCH   3   5
ATOM      5  C   UNL     1      53.140   2.613  19.669  1.00  0.00     0.159 C 
BRANCH   5   6
ATOM      6  O   UNL     1      52.779   1.645  18.719  1.00  0.00    -0.396 OA
ATOM      7  H   UNL     1      52.778   0.771  19.191  1.00  0.00     0.210 HD
ENDBRANCH   5   6
ENDBRANCH   3   5
ENDBRANCH   2   3
ENDBRANCH   1   2
BRANCH   1   8
ATOM      8  C   UNL     1      48.916   1.996  21.523  1.00  0.00     0.136 C 
ATOM      9  O   UNL     1      48.263   1.486  20.625  1.00  0.00    -0.299 OA
BRANCH   8  10
ATOM     10  C   UNL     1      48.256   2.360  22.844  1.00  0.00     0.064 C 
ATOM     11  C   UNL     1      47.116   1.386  23.197  1.00  0.00     0.017 C 
BRANCH  10  12
ATOM     12  C   UNL     1      47.916   3.880  23.054  1.00  0.00     0.072 C 
ATOM     13  C   UNL     1      49.179   4.661  23.194  1.00  0.00     0.137 C 
ATOM     14  C   UNL     1      47.079   4.706  21.994  1.00  0.00    -0.019 C 
ATOM     15  O   UNL     1      49.990   4.453  24.081  1.00  0.00    -0.299 OA
ATOM     16  C   UNL     1      49.346   5.749  22.208  1.00  0.00     0.080 C 
ATOM     17  C   UNL     1      48.126   5.637  21.278  1.00  0.00     0.007 C 
ATOM     18  C   UNL     1      45.978   5.549  22.734  1.00  0.00     0.008 C 
ATOM     19  C   UNL     1      46.349   3.842  20.935  1.00  0.00     0.012 C 
ATOM     20  C   UNL     1      47.549   7.012  20.809  1.00  0.00     0.001 C 
ATOM     21  C   UNL     1      46.463   6.939  23.162  1.00  0.00     0.005 C 
ATOM     22  C   UNL     1      46.738   7.798  21.904  1.00  0.00     0.003 C 
ATOM     23  C   UNL     1      48.604   7.864  20.076  1.00  0.00     0.031 C 
ATOM     24  C   UNL     1      47.201   9.286  22.194  1.00  0.00    -0.008 C 
ATOM     25  C   UNL     1      48.152   9.282  19.879  1.00  0.00    -0.027 C 
ATOM     26  C   UNL     1      47.532   9.971  20.860  1.00  0.00    -0.065 C 
ATOM     27  C   UNL     1      46.027  10.034  22.915  1.00  0.00     0.014 C 
ATOM     28  C   UNL     1      48.459   9.358  23.095  1.00  0.00     0.016 C 
ATOM     29  C   UNL     1      47.448  11.478  20.727  1.00  0.00     0.063 C 
ATOM     30  C   UNL     1      46.121  11.564  22.856  1.00  0.00     0.033 C 
ATOM     31  C   UNL     1      46.207  12.056  21.412  1.00  0.00     0.118 C 
BRANCH  31  32
ATOM     32  O   UNL     1      45.044  11.691  20.710  1.00  0.00    -0.393 OA
ATOM     33  H   UNL     1      45.341  11.325  19.838  1.00  0.00     0.210 HD
ENDBRANCH  31  32
ENDBRANCH  10  12
ENDBRANCH   8  10
ENDBRANCH   1   8
TORSDOF 8
ENDMDL
MODEL 3
REMARK VINA RESULT:    -7.140      4.206      8.435
REMARK INTER + INTRA:         -10.652
REMARK INTER:                 -10.085
REMARK INTRA:                  -0.567
REMARK UNBOUND:                -0.591
REMARK SMILES C[C@H](CO)CCC(=O)[C@H](C)[C@H]1C(=O)C[C@@H]2[C@@H]3CC=C4C[C@@H](O)CC[C@@]4(C)[C@@H]3CC[C@@]21C
REMARK SMILES IDX 6 1 5 2 2 3 1 4 3 5 4 6 7 8 8 9 9 10 10 11 11 12 12 13 30 14
REMARK SMILES IDX 13 15 14 16 15 17 29 18 31 19 16 20 28 21 27 22 17 23 25 24
REMARK SMILES IDX 18 25 19 26 24 27 26 28 20 29 23 30 21 31 22 32
REMARK H PARENT 4 7 22 33
REMARK Flexibility Score: inf
ROOT
ATOM      1  C   UNL     1      53.275  -2.051  20.634  1.00  0.00     0.076 C 
ENDROOT
BRANCH   1   2
ATOM      2  C   UNL     1      53.858  -3.174  19.741  1.00  0.00     0.013 C 
BRANCH   2   3
ATOM      3  C   UNL     1      54.922  -2.666  18.734  1.00  0.00     0.012 C 
ATOM      4  C   UNL     1      55.771  -3.818  18.174  1.00  0.00     0.010 C 
BRANCH   3   5
ATOM      5  C   UNL     1      55.843  -1.619  19.395  1.00  0.00     0.159 C 
BRANCH   5   6
ATOM      6  O   UNL     1      56.892  -2.238  20.094  1.00  0.00    -0.396 OA
ATOM      7  H   UNL     1      57.372  -2.808  19.437  1.00  0.00     0.210 HD
ENDBRANCH   5   6
ENDBRANCH   3   5
ENDBRANCH   2   3
ENDBRANCH   1   2
BRANCH   1   8
ATOM      8  C   UNL     1      52.209  -2.552  21.581  1.00  0.00     0.136 C 
ATOM      9  O   UNL     1      51.855  -3.719  21.523  1.00  0.00    -0.299 OA
BRANCH   8  10
ATOM     10  C   UNL     1      51.552  -1.595  22.565  1.00  0.00     0.064 C 
ATOM     11  C   UNL     1      51.528  -2.175  23.991  1.00  0.00     0.017 C 
BRANCH  10  12
ATOM     12  C   UNL     1      50.204  -0.936  22.096  1.00  0.00     0.072 C 
ATOM     13  C   UNL     1      49.055  -1.631  22.744  1.00  0.00     0.137 C 
ATOM     14  C   UNL     1      49.896   0.599  22.331  1.00  0.00    -0.019 C 
ATOM     15  O   UNL     1      48.828  -2.820  22.589  1.00  0.00    -0.299 OA
ATOM     16  C   UNL     1      48.173  -0.756  23.544  1.00  0.00     0.080 C 
ATOM     17  C   UNL     1      48.834   0.632  23.492  1.00  0.00     0.007 C 
ATOM     18  C   UNL     1      49.318   1.228  21.012  1.00  0.00     0.008 C 
ATOM     19  C   UNL     1      51.127   1.449  22.734  1.00  0.00     0.012 C 
ATOM     20  C   UNL     1      47.823   1.821  23.404  1.00  0.00     0.001 C 
ATOM     21  C   UNL     1      47.793   1.125  20.907  1.00  0.00     0.005 C 
ATOM     22  C   UNL     1      47.141   2.009  21.999  1.00  0.00     0.003 C 
ATOM     23  C   UNL     1      46.835   1.831  24.588  1.00  0.00     0.031 C 
ATOM     24  C   UNL     1      45.557   2.040  21.981  1.00  0.00    -0.008 C 
ATOM     25  C   UNL     1      45.694   2.782  24.368  1.00  0.00    -0.027 C 
ATOM     26  C   UNL     1      45.064   2.868  23.178  1.00  0.00    -0.065 C 
ATOM     27  C   UNL     1      45.093   2.699  20.635  1.00  0.00     0.014 C 
ATOM     28  C   UNL     1      44.927   0.629  22.082  1.00  0.00     0.016 C 
ATOM     29  C   UNL     1      43.712   3.551  23.137  1.00  0.00     0.063 C 
ATOM     30  C   UNL     1      43.651   3.219  20.649  1.00  0.00     0.033 C 
ATOM     31  C   UNL     1      43.436   4.217  21.786  1.00  0.00     0.118 C 
BRANCH  31  32
ATOM     32  O   UNL     1      44.272   5.334  21.609  1.00  0.00    -0.393 OA
ATOM     33  H   UNL     1      45.173   5.069  21.927  1.00  0.00     0.210 HD
ENDBRANCH  31  32
ENDBRANCH  10  12
ENDBRANCH   8  10
ENDBRANCH   1   8
TORSDOF 8
ENDMDL
MODEL 4
REMARK VINA RESULT:    -6.871      3.715      4.586
REMARK INTER + INTRA:         -10.274
REMARK INTER:                  -9.672
REMARK INTRA:                  -0.601
REMARK UNBOUND:                -0.591
REMARK SMILES C[C@H](CO)CCC(=O)[C@H](C)[C@H]1C(=O)C[C@@H]2[C@@H]3CC=C4C[C@@H](O)CC[C@@]4(C)[C@@H]3CC[C@@]21C
REMARK SMILES IDX 6 1 5 2 2 3 1 4 3 5 4 6 7 8 8 9 9 10 10 11 11 12 12 13 30 14
REMARK SMILES IDX 13 15 14 16 15 17 29 18 31 19 16 20 28 21 27 22 17 23 25 24
REMARK SMILES IDX 18 25 19 26 24 27 26 28 20 29 23 30 21 31 22 32
REMARK H PARENT 4 7 22 33
REMARK Flexibility Score: inf
ROOT
ATOM      1  C   UNL     1      49.638   8.246  21.551  1.00  0.00     0.076 C 
ENDROOT
BRANCH   1   2
ATOM      2  C   UNL     1      48.971   7.864  20.207  1.00  0.00     0.013 C 
BRANCH   2   3
ATOM      3  C   UNL     1      49.825   8.244  18.969  1.00  0.00     0.012 C 
ATOM      4  C   UNL     1      51.288   7.803  19.131  1.00  0.00     0.010 C 
BRANCH   3   5
ATOM      5  C   UNL     1      49.768   9.764  18.712  1.00  0.00     0.159 C 
BRANCH   5   6
ATOM      6  O   UNL     1      50.990  10.377  19.030  1.00  0.00    -0.396 OA
ATOM      7  H   UNL     1      51.587  10.241  18.246  1.00  0.00     0.210 HD
ENDBRANCH   5   6
ENDBRANCH   3   5
ENDBRANCH   2   3
ENDBRANCH   1   2
BRANCH   1   8
ATOM      8  C   UNL     1      48.653   8.793  22.558  1.00  0.00     0.136 C 
ATOM      9  O   UNL     1      47.961   9.754  22.259  1.00  0.00    -0.299 OA
BRANCH   8  10
ATOM     10  C   UNL     1      48.560   8.178  23.946  1.00  0.00     0.064 C 
ATOM     11  C   UNL     1      49.952   7.971  24.570  1.00  0.00     0.017 C 
BRANCH  10  12
ATOM     12  C   UNL     1      47.578   6.961  24.101  1.00  0.00     0.072 C 
ATOM     13  C   UNL     1      46.240   7.323  23.549  1.00  0.00     0.137 C 
ATOM     14  C   UNL     1      47.883   5.550  23.451  1.00  0.00    -0.019 C 
ATOM     15  O   UNL     1      45.575   8.248  23.983  1.00  0.00    -0.299 OA
ATOM     16  C   UNL     1      45.755   6.435  22.472  1.00  0.00     0.080 C 
ATOM     17  C   UNL     1      46.901   5.439  22.227  1.00  0.00     0.007 C 
ATOM     18  C   UNL     1      47.611   4.415  24.505  1.00  0.00     0.008 C 
ATOM     19  C   UNL     1      49.341   5.368  22.960  1.00  0.00     0.012 C 
ATOM     20  C   UNL     1      46.429   3.982  21.911  1.00  0.00     0.001 C 
ATOM     21  C   UNL     1      46.166   3.905  24.489  1.00  0.00     0.005 C 
ATOM     22  C   UNL     1      45.891   3.177  23.150  1.00  0.00     0.003 C 
ATOM     23  C   UNL     1      45.506   3.927  20.677  1.00  0.00     0.031 C 
ATOM     24  C   UNL     1      44.442   2.550  23.011  1.00  0.00    -0.008 C 
ATOM     25  C   UNL     1      44.823   2.597  20.538  1.00  0.00    -0.027 C 
ATOM     26  C   UNL     1      44.291   1.959  21.601  1.00  0.00    -0.065 C 
ATOM     27  C   UNL     1      44.288   1.425  24.094  1.00  0.00     0.014 C 
ATOM     28  C   UNL     1      43.315   3.591  23.218  1.00  0.00     0.016 C 
ATOM     29  C   UNL     1      43.309   0.835  21.338  1.00  0.00     0.063 C 
ATOM     30  C   UNL     1      43.159   0.427  23.811  1.00  0.00     0.033 C 
ATOM     31  C   UNL     1      43.330  -0.227  22.441  1.00  0.00     0.118 C 
BRANCH  31  32
ATOM     32  O   UNL     1      44.535  -0.952  22.401  1.00  0.00    -0.393 OA
ATOM     33  H   UNL     1      44.937  -0.886  23.305  1.00  0.00     0.210 HD
ENDBRANCH  31  32
ENDBRANCH  10  12
ENDBRANCH   8  10
ENDBRANCH   1   8
TORSDOF 8
ENDMDL
MODEL 5
REMARK VINA RESULT:    -6.857      3.351      8.899
REMARK INTER + INTRA:         -10.253
REMARK INTER:                  -9.289
REMARK INTRA:                  -0.965
REMARK UNBOUND:                -0.591
REMARK SMILES C[C@H](CO)CCC(=O)[C@H](C)[C@H]1C(=O)C[C@@H]2[C@@H]3CC=C4C[C@@H](O)CC[C@@]4(C)[C@@H]3CC[C@@]21C
REMARK SMILES IDX 6 1 5 2 2 3 1 4 3 5 4 6 7 8 8 9 9 10 10 11 11 12 12 13 30 14
REMARK SMILES IDX 13 15 14 16 15 17 29 18 31 19 16 20 28 21 27 22 17 23 25 24
REMARK SMILES IDX 18 25 19 26 24 27 26 28 20 29 23 30 21 31 22 32
REMARK H PARENT 4 7 22 33
REMARK Flexibility Score: inf
ROOT
ATOM      1  C   UNL     1      46.833   0.384  23.934  1.00  0.00     0.076 C 
ENDROOT
BRANCH   1   2
ATOM      2  C   UNL     1      45.934   0.447  22.675  1.00  0.00     0.013 C 
BRANCH   2   3
ATOM      3  C   UNL     1      44.434   0.664  23.003  1.00  0.00     0.012 C 
ATOM      4  C   UNL     1      43.937  -0.326  24.068  1.00  0.00     0.010 C 
BRANCH   3   5
ATOM      5  C   UNL     1      43.572   0.530  21.730  1.00  0.00     0.159 C 
BRANCH   5   6
ATOM      6  O   UNL     1      42.927  -0.716  21.685  1.00  0.00    -0.396 OA
ATOM      7  H   UNL     1      42.898  -0.986  20.729  1.00  0.00     0.210 HD
ENDBRANCH   5   6
ENDBRANCH   3   5
ENDBRANCH   2   3
ENDBRANCH   1   2
BRANCH   1   8
ATOM      8  C   UNL     1      47.966   1.382  23.894  1.00  0.00     0.136 C 
ATOM      9  O   UNL     1      48.731   1.461  24.843  1.00  0.00    -0.299 OA
BRANCH   8  10
ATOM     10  C   UNL     1      48.122   2.313  22.701  1.00  0.00     0.064 C 
ATOM     11  C   UNL     1      49.457   2.082  21.971  1.00  0.00     0.017 C 
BRANCH  10  12
ATOM     12  C   UNL     1      47.754   3.821  22.945  1.00  0.00     0.072 C 
ATOM     13  C   UNL     1      49.001   4.614  23.150  1.00  0.00     0.137 C 
ATOM     14  C   UNL     1      46.941   4.668  21.883  1.00  0.00    -0.019 C 
ATOM     15  O   UNL     1      49.785   4.390  24.056  1.00  0.00    -0.299 OA
ATOM     16  C   UNL     1      49.185   5.734  22.203  1.00  0.00     0.080 C 
ATOM     17  C   UNL     1      47.997   5.635  21.230  1.00  0.00     0.007 C 
ATOM     18  C   UNL     1      45.804   5.474  22.611  1.00  0.00     0.008 C 
ATOM     19  C   UNL     1      46.258   3.828  20.776  1.00  0.00     0.012 C 
ATOM     20  C   UNL     1      47.416   7.015  20.784  1.00  0.00     0.001 C 
ATOM     21  C   UNL     1      46.255   6.857  23.096  1.00  0.00     0.005 C 
ATOM     22  C   UNL     1      46.559   7.758  21.874  1.00  0.00     0.003 C 
ATOM     23  C   UNL     1      48.483   7.903  20.111  1.00  0.00     0.031 C 
ATOM     24  C   UNL     1      46.992   9.241  22.223  1.00  0.00    -0.008 C 
ATOM     25  C   UNL     1      48.017   9.321  19.942  1.00  0.00    -0.027 C 
ATOM     26  C   UNL     1      47.357   9.971  20.922  1.00  0.00    -0.065 C 
ATOM     27  C   UNL     1      45.784   9.952  22.928  1.00  0.00     0.014 C 
ATOM     28  C   UNL     1      48.218   9.302  23.167  1.00  0.00     0.016 C 
ATOM     29  C   UNL     1      47.256  11.480  20.831  1.00  0.00     0.063 C 
ATOM     30  C   UNL     1      45.858  11.484  22.917  1.00  0.00     0.033 C 
ATOM     31  C   UNL     1      45.984  12.021  21.492  1.00  0.00     0.118 C 
BRANCH  31  32
ATOM     32  O   UNL     1      44.851  11.662  20.742  1.00  0.00    -0.393 OA
ATOM     33  H   UNL     1      45.171  11.096  19.994  1.00  0.00     0.210 HD
ENDBRANCH  31  32
ENDBRANCH  10  12
ENDBRANCH   8  10
ENDBRANCH   1   8
TORSDOF 8
ENDMDL
MODEL 6
REMARK VINA RESULT:    -6.835      1.941      2.911
REMARK INTER + INTRA:         -10.223
REMARK INTER:                  -9.480
REMARK INTRA:                  -0.743
REMARK UNBOUND:                -0.591
REMARK SMILES C[C@H](CO)CCC(=O)[C@H](C)[C@H]1C(=O)C[C@@H]2[C@@H]3CC=C4C[C@@H](O)CC[C@@]4(C)[C@@H]3CC[C@@]21C
REMARK SMILES IDX 6 1 5 2 2 3 1 4 3 5 4 6 7 8 8 9 9 10 10 11 11 12 12 13 30 14
REMARK SMILES IDX 13 15 14 16 15 17 29 18 31 19 16 20 28 21 27 22 17 23 25 24
REMARK SMILES IDX 18 25 19 26 24 27 26 28 20 29 23 30 21 31 22 32
REMARK H PARENT 4 7 22 33
REMARK Flexibility Score: inf
ROOT
ATOM      1  C   UNL     1      46.205   8.900  21.917  1.00  0.00     0.076 C 
ENDROOT
BRANCH   1   2
ATOM      2  C   UNL     1      45.526  10.126  22.575  1.00  0.00     0.013 C 
BRANCH   2   3
ATOM      3  C   UNL     1      46.350  11.433  22.430  1.00  0.00     0.012 C 
ATOM      4  C   UNL     1      46.996  11.546  21.040  1.00  0.00     0.010 C 
BRANCH   3   5
ATOM      5  C   UNL     1      47.442  11.513  23.517  1.00  0.00     0.159 C 
BRANCH   5   6
ATOM      6  O   UNL     1      47.489  12.792  24.092  1.00  0.00    -0.396 OA
ATOM      7  H   UNL     1      47.382  12.667  25.072  1.00  0.00     0.210 HD
ENDBRANCH   5   6
ENDBRANCH   3   5
ENDBRANCH   2   3
ENDBRANCH   1   2
BRANCH   1   8
ATOM      8  C   UNL     1      46.492   7.792  22.905  1.00  0.00     0.136 C 
ATOM      9  O   UNL     1      45.597   7.391  23.634  1.00  0.00    -0.299 OA
BRANCH   8  10
ATOM     10  C   UNL     1      47.895   7.216  23.019  1.00  0.00     0.064 C 
ATOM     11  C   UNL     1      48.866   7.885  22.030  1.00  0.00     0.017 C 
BRANCH  10  12
ATOM     12  C   UNL     1      47.998   5.649  23.090  1.00  0.00     0.072 C 
ATOM     13  C   UNL     1      47.888   5.077  21.717  1.00  0.00     0.137 C 
ATOM     14  C   UNL     1      49.263   4.919  23.701  1.00  0.00    -0.019 C 
ATOM     15  O   UNL     1      46.908   5.240  21.010  1.00  0.00    -0.299 OA
ATOM     16  C   UNL     1      49.037   4.246  21.298  1.00  0.00     0.080 C 
ATOM     17  C   UNL     1      50.038   4.333  22.462  1.00  0.00     0.007 C 
ATOM     18  C   UNL     1      48.794   3.776  24.672  1.00  0.00     0.008 C 
ATOM     19  C   UNL     1      50.208   5.839  24.512  1.00  0.00     0.012 C 
ATOM     20  C   UNL     1      50.802   3.000  22.754  1.00  0.00     0.001 C 
ATOM     21  C   UNL     1      48.585   2.430  23.969  1.00  0.00     0.005 C 
ATOM     22  C   UNL     1      49.948   1.891  23.471  1.00  0.00     0.003 C 
ATOM     23  C   UNL     1      51.579   2.496  21.521  1.00  0.00     0.031 C 
ATOM     24  C   UNL     1      49.893   0.474  22.763  1.00  0.00    -0.008 C 
ATOM     25  C   UNL     1      52.072   1.089  21.697  1.00  0.00    -0.027 C 
ATOM     26  C   UNL     1      51.294   0.128  22.237  1.00  0.00    -0.065 C 
ATOM     27  C   UNL     1      49.431  -0.586  23.823  1.00  0.00     0.014 C 
ATOM     28  C   UNL     1      48.909   0.438  21.568  1.00  0.00     0.016 C 
ATOM     29  C   UNL     1      51.707  -1.316  22.039  1.00  0.00     0.063 C 
ATOM     30  C   UNL     1      49.760  -2.037  23.450  1.00  0.00     0.033 C 
ATOM     31  C   UNL     1      51.255  -2.215  23.193  1.00  0.00     0.118 C 
BRANCH  31  32
ATOM     32  O   UNL     1      51.982  -1.919  24.360  1.00  0.00    -0.393 OA
ATOM     33  H   UNL     1      52.678  -1.261  24.103  1.00  0.00     0.210 HD
ENDBRANCH  31  32
ENDBRANCH  10  12
ENDBRANCH   8  10
ENDBRANCH   1   8
TORSDOF 8
ENDMDL
MODEL 7
REMARK VINA RESULT:    -6.830     10.710     14.558
REMARK INTER + INTRA:         -10.216
REMARK INTER:                  -8.820
REMARK INTRA:                  -1.396
REMARK UNBOUND:                -0.591
REMARK SMILES C[C@H](CO)CCC(=O)[C@H](C)[C@H]1C(=O)C[C@@H]2[C@@H]3CC=C4C[C@@H](O)CC[C@@]4(C)[C@@H]3CC[C@@]21C
REMARK SMILES IDX 6 1 5 2 2 3 1 4 3 5 4 6 7 8 8 9 9 10 10 11 11 12 12 13 30 14
REMARK SMILES IDX 13 15 14 16 15 17 29 18 31 19 16 20 28 21 27 22 17 23 25 24
REMARK SMILES IDX 18 25 19 26 24 27 26 28 20 29 23 30 21 31 22 32
REMARK H PARENT 4 7 22 33
REMARK Flexibility Score: inf
ROOT
ATOM      1  C   UNL     1      61.356   3.888  18.192  1.00  0.00     0.076 C 
ENDROOT
BRANCH   1   2
ATOM      2  C   UNL     1      60.932   2.683  17.318  1.00  0.00     0.013 C 
BRANCH   2   3
ATOM      3  C   UNL     1      59.394   2.554  17.158  1.00  0.00     0.012 C 
ATOM      4  C   UNL     1      58.645   3.188  18.341  1.00  0.00     0.010 C 
BRANCH   3   5
ATOM      5  C   UNL     1      58.982   1.073  17.018  1.00  0.00     0.159 C 
BRANCH   5   6
ATOM      6  O   UNL     1      58.724   0.746  15.677  1.00  0.00    -0.396 OA
ATOM      7  H   UNL     1      57.850   0.273  15.665  1.00  0.00     0.210 HD
ENDBRANCH   5   6
ENDBRANCH   3   5
ENDBRANCH   2   3
ENDBRANCH   1   2
BRANCH   1   8
ATOM      8  C   UNL     1      61.902   5.038  17.377  1.00  0.00     0.136 C 
ATOM      9  O   UNL     1      62.418   5.987  17.948  1.00  0.00    -0.299 OA
BRANCH   8  10
ATOM     10  C   UNL     1      61.764   5.032  15.862  1.00  0.00     0.064 C 
ATOM     11  C   UNL     1      63.061   5.492  15.172  1.00  0.00     0.017 C 
BRANCH  10  12
ATOM     12  C   UNL     1      60.447   5.665  15.283  1.00  0.00     0.072 C 
ATOM     13  C   UNL     1      60.699   7.084  14.900  1.00  0.00     0.137 C 
ATOM     14  C   UNL     1      59.713   5.060  14.017  1.00  0.00    -0.019 C 
ATOM     15  O   UNL     1      61.061   7.930  15.701  1.00  0.00    -0.299 OA
ATOM     16  C   UNL     1      60.419   7.403  13.485  1.00  0.00     0.080 C 
ATOM     17  C   UNL     1      60.020   6.063  12.844  1.00  0.00     0.007 C 
ATOM     18  C   UNL     1      58.169   4.966  14.298  1.00  0.00     0.008 C 
ATOM     19  C   UNL     1      60.184   3.640  13.617  1.00  0.00     0.012 C 
ATOM     20  C   UNL     1      58.881   6.175  11.779  1.00  0.00     0.001 C 
ATOM     21  C   UNL     1      57.403   6.235  13.907  1.00  0.00     0.005 C 
ATOM     22  C   UNL     1      57.442   6.408  12.369  1.00  0.00     0.003 C 
ATOM     23  C   UNL     1      59.253   7.135  10.631  1.00  0.00     0.031 C 
ATOM     24  C   UNL     1      56.645   7.659  11.813  1.00  0.00    -0.008 C 
ATOM     25  C   UNL     1      58.073   7.470   9.766  1.00  0.00    -0.027 C 
ATOM     26  C   UNL     1      56.864   7.752  10.295  1.00  0.00    -0.065 C 
ATOM     27  C   UNL     1      55.123   7.453  12.133  1.00  0.00     0.014 C 
ATOM     28  C   UNL     1      57.105   8.995  12.446  1.00  0.00     0.016 C 
ATOM     29  C   UNL     1      55.842   8.436   9.410  1.00  0.00     0.063 C 
ATOM     30  C   UNL     1      54.177   8.312  11.285  1.00  0.00     0.033 C 
ATOM     31  C   UNL     1      54.404   8.075   9.793  1.00  0.00     0.118 C 
BRANCH  31  32
ATOM     32  O   UNL     1      54.133   6.733   9.473  1.00  0.00    -0.393 OA
ATOM     33  H   UNL     1      53.147   6.636   9.458  1.00  0.00     0.210 HD
ENDBRANCH  31  32
ENDBRANCH  10  12
ENDBRANCH   8  10
ENDBRANCH   1   8
TORSDOF 8
ENDMDL
MODEL 8
REMARK VINA RESULT:    -6.799     11.680     13.996
REMARK INTER + INTRA:         -10.172
REMARK INTER:                  -8.704
REMARK INTRA:                  -1.468
REMARK UNBOUND:                -0.591
REMARK SMILES C[C@H](CO)CCC(=O)[C@H](C)[C@H]1C(=O)C[C@@H]2[C@@H]3CC=C4C[C@@H](O)CC[C@@]4(C)[C@@H]3CC[C@@]21C
REMARK SMILES IDX 6 1 5 2 2 3 1 4 3 5 4 6 7 8 8 9 9 10 10 11 11 12 12 13 30 14
REMARK SMILES IDX 13 15 14 16 15 17 29 18 31 19 16 20 28 21 27 22 17 23 25 24
REMARK SMILES IDX 18 25 19 26 24 27 26 28 20 29 23 30 21 31 22 32
REMARK H PARENT 4 7 22 33
REMARK Flexibility Score: inf
ROOT
ATOM      1  C   UNL     1      51.377   9.963   9.999  1.00  0.00     0.076 C 
ENDROOT
BRANCH   1   2
ATOM      2  C   UNL     1      51.915  11.258  10.656  1.00  0.00     0.013 C 
BRANCH   2   3
ATOM      3  C   UNL     1      51.888  11.216  12.206  1.00  0.00     0.012 C 
ATOM      4  C   UNL     1      53.060  12.000  12.817  1.00  0.00     0.010 C 
BRANCH   3   5
ATOM      5  C   UNL     1      51.919   9.759  12.713  1.00  0.00     0.159 C 
BRANCH   5   6
ATOM      6  O   UNL     1      50.835   9.496  13.565  1.00  0.00    -0.396 OA
ATOM      7  H   UNL     1      50.760  10.276  14.176  1.00  0.00     0.210 HD
ENDBRANCH   5   6
ENDBRANCH   3   5
ENDBRANCH   2   3
ENDBRANCH   1   2
BRANCH   1   8
ATOM      8  C   UNL     1      52.414   9.263   9.153  1.00  0.00     0.136 C 
ATOM      9  O   UNL     1      52.069   8.360   8.406  1.00  0.00    -0.299 OA
BRANCH   8  10
ATOM     10  C   UNL     1      53.881   9.649   9.267  1.00  0.00     0.064 C 
ATOM     11  C   UNL     1      54.564   9.701   7.889  1.00  0.00     0.017 C 
BRANCH  10  12
ATOM     12  C   UNL     1      54.706   8.916  10.387  1.00  0.00     0.072 C 
ATOM     13  C   UNL     1      55.353   7.699   9.817  1.00  0.00     0.137 C 
ATOM     14  C   UNL     1      55.880   9.635  11.169  1.00  0.00    -0.019 C 
ATOM     15  O   UNL     1      54.718   6.783   9.323  1.00  0.00    -0.299 OA
ATOM     16  C   UNL     1      56.825   7.661   9.950  1.00  0.00     0.080 C 
ATOM     17  C   UNL     1      57.203   9.005  10.595  1.00  0.00     0.007 C 
ATOM     18  C   UNL     1      55.737   9.354  12.709  1.00  0.00     0.008 C 
ATOM     19  C   UNL     1      55.924  11.173  10.994  1.00  0.00     0.012 C 
ATOM     20  C   UNL     1      58.373   8.915  11.628  1.00  0.00     0.001 C 
ATOM     21  C   UNL     1      56.459   8.081  13.164  1.00  0.00     0.005 C 
ATOM     22  C   UNL     1      57.988   8.273  13.011  1.00  0.00     0.003 C 
ATOM     23  C   UNL     1      59.656   8.333  11.001  1.00  0.00     0.031 C 
ATOM     24  C   UNL     1      58.871   7.048  13.492  1.00  0.00    -0.008 C 
ATOM     25  C   UNL     1      60.683   7.976  12.036  1.00  0.00    -0.027 C 
ATOM     26  C   UNL     1      60.345   7.348  13.181  1.00  0.00    -0.065 C 
ATOM     27  C   UNL     1      58.663   6.870  15.037  1.00  0.00     0.014 C 
ATOM     28  C   UNL     1      58.492   5.722  12.788  1.00  0.00     0.016 C 
ATOM     29  C   UNL     1      61.449   6.694  13.986  1.00  0.00     0.063 C 
ATOM     30  C   UNL     1      59.761   6.056  15.732  1.00  0.00     0.033 C 
ATOM     31  C   UNL     1      61.140   6.666  15.486  1.00  0.00     0.118 C 
BRANCH  31  32
ATOM     32  O   UNL     1      61.194   7.965  16.022  1.00  0.00    -0.393 OA
ATOM     33  H   UNL     1      60.263   8.218  16.251  1.00  0.00     0.210 HD
ENDBRANCH  31  32
ENDBRANCH  10  12
ENDBRANCH   8  10
ENDBRANCH   1   8
TORSDOF 8
ENDMDL
MODEL 9
REMARK VINA RESULT:    -6.795      3.094      7.992
REMARK INTER + INTRA:         -10.166
REMARK INTER:                  -9.271
REMARK INTRA:                  -0.896
REMARK UNBOUND:                -0.591
REMARK SMILES C[C@H](CO)CCC(=O)[C@H](C)[C@H]1C(=O)C[C@@H]2[C@@H]3CC=C4C[C@@H](O)CC[C@@]4(C)[C@@H]3CC[C@@]21C
REMARK SMILES IDX 6 1 5 2 2 3 1 4 3 5 4 6 7 8 8 9 9 10 10 11 11 12 12 13 30 14
REMARK SMILES IDX 13 15 14 16 15 17 29 18 31 19 16 20 28 21 27 22 17 23 25 24
REMARK SMILES IDX 18 25 19 26 24 27 26 28 20 29 23 30 21 31 22 32
REMARK H PARENT 4 7 22 33
REMARK Flexibility Score: inf
ROOT
ATOM      1  C   UNL     1      46.122  -0.908  22.933  1.00  0.00     0.076 C 
ENDROOT
BRANCH   1   2
ATOM      2  C   UNL     1      47.500  -1.259  23.545  1.00  0.00     0.013 C 
BRANCH   2   3
ATOM      3  C   UNL     1      48.684  -1.004  22.575  1.00  0.00     0.012 C 
ATOM      4  C   UNL     1      48.208  -0.404  21.243  1.00  0.00     0.010 C 
BRANCH   3   5
ATOM      5  C   UNL     1      49.460  -2.311  22.306  1.00  0.00     0.159 C 
BRANCH   5   6
ATOM      6  O   UNL     1      48.584  -3.396  22.149  1.00  0.00    -0.396 OA
ATOM      7  H   UNL     1      49.038  -4.186  22.546  1.00  0.00     0.210 HD
ENDBRANCH   5   6
ENDBRANCH   3   5
ENDBRANCH   2   3
ENDBRANCH   1   2
BRANCH   1   8
ATOM      8  C   UNL     1      45.150  -0.365  23.955  1.00  0.00     0.136 C 
ATOM      9  O   UNL     1      45.203  -0.770  25.107  1.00  0.00    -0.299 OA
BRANCH   8  10
ATOM     10  C   UNL     1      44.087   0.640  23.539  1.00  0.00     0.064 C 
ATOM     11  C   UNL     1      43.162   0.070  22.449  1.00  0.00     0.017 C 
BRANCH  10  12
ATOM     12  C   UNL     1      44.583   2.109  23.284  1.00  0.00     0.072 C 
ATOM     13  C   UNL     1      45.571   2.494  24.334  1.00  0.00     0.137 C 
ATOM     14  C   UNL     1      45.289   2.531  21.932  1.00  0.00    -0.019 C 
ATOM     15  O   UNL     1      45.297   2.517  25.522  1.00  0.00    -0.299 OA
ATOM     16  C   UNL     1      46.894   2.903  23.819  1.00  0.00     0.080 C 
ATOM     17  C   UNL     1      46.811   2.700  22.296  1.00  0.00     0.007 C 
ATOM     18  C   UNL     1      44.674   3.883  21.416  1.00  0.00     0.008 C 
ATOM     19  C   UNL     1      45.146   1.504  20.781  1.00  0.00     0.012 C 
ATOM     20  C   UNL     1      47.555   3.792  21.461  1.00  0.00     0.001 C 
ATOM     21  C   UNL     1      45.389   5.124  21.964  1.00  0.00     0.005 C 
ATOM     22  C   UNL     1      46.827   5.184  21.392  1.00  0.00     0.003 C 
ATOM     23  C   UNL     1      49.050   3.883  21.828  1.00  0.00     0.031 C 
ATOM     24  C   UNL     1      47.674   6.448  21.835  1.00  0.00    -0.008 C 
ATOM     25  C   UNL     1      49.703   5.106  21.251  1.00  0.00    -0.027 C 
ATOM     26  C   UNL     1      49.098   6.311  21.276  1.00  0.00    -0.065 C 
ATOM     27  C   UNL     1      46.981   7.731  21.256  1.00  0.00     0.014 C 
ATOM     28  C   UNL     1      47.774   6.594  23.374  1.00  0.00     0.016 C 
ATOM     29  C   UNL     1      49.949   7.540  21.028  1.00  0.00     0.063 C 
ATOM     30  C   UNL     1      47.888   8.965  21.193  1.00  0.00     0.033 C 
ATOM     31  C   UNL     1      49.154   8.680  20.386  1.00  0.00     0.118 C 
BRANCH  31  32
ATOM     32  O   UNL     1      48.814   8.355  19.060  1.00  0.00    -0.393 OA
ATOM     33  H   UNL     1      49.203   9.062  18.484  1.00  0.00     0.210 HD
ENDBRANCH  31  32
ENDBRANCH  10  12
ENDBRANCH   8  10
ENDBRANCH   1   8
TORSDOF 8
ENDMDL
