MODEL 1
REMARK VINA RESULT:    -6.618      0.000      0.000
REMARK INTER + INTRA:         -14.608
REMARK INTER:                 -12.809
REMARK INTRA:                  -1.799
REMARK UNBOUND:                -1.799
REMARK SMILES CCCCCCCCCCCCCCCCCC(=O)[O-]
REMARK SMILES IDX 10 1 11 2 12 3 13 4 14 5 15 6 16 7 17 8 18 9 19 10 20 11
REMARK SMILES IDX 9 12 8 13 7 14 6 15 5 16 4 17 3 18 2 19 1 20
REMARK H PARENT
REMARK Flexibility Score: inf
ROOT
ATOM      1  C   UNL     1      10.501  72.137  74.298  1.00  0.00     0.000 C 
ENDROOT
BRANCH   1   2
ATOM      2  C   UNL     1      10.763  71.982  75.805  1.00  0.00     0.000 C 
BRANCH   2   3
ATOM      3  C   UNL     1       9.630  72.571  76.666  1.00  0.00     0.000 C 
BRANCH   3   4
ATOM      4  C   UNL     1       8.800  71.484  77.369  1.00  0.00     0.000 C 
BRANCH   4   5
ATOM      5  C   UNL     1       7.990  72.038  78.554  1.00  0.00     0.000 C 
BRANCH   5   6
ATOM      6  C   UNL     1       7.596  73.516  78.374  1.00  0.00     0.000 C 
BRANCH   6   7
ATOM      7  C   UNL     1       6.181  73.751  77.816  1.00  0.00     0.006 C 
BRANCH   7   8
ATOM      8  C   UNL     1       6.177  74.125  76.327  1.00  0.00     0.053 C 
BRANCH   8   9
ATOM      9  C   UNL     1       5.683  72.979  75.502  1.00  0.00     0.041 C 
ATOM     10  O   UNL     1       5.372  73.156  74.295  1.00  0.00    -0.550 OA
ATOM     11  O   UNL     1       5.523  71.724  76.076  1.00  0.00    -0.550 OA
ENDBRANCH   8   9
ENDBRANCH   7   8
ENDBRANCH   6   7
ENDBRANCH   5   6
ENDBRANCH   4   5
ENDBRANCH   3   4
ENDBRANCH   2   3
ENDBRANCH   1   2
BRANCH   1  12
ATOM     12  C   UNL     1      11.628  72.886  73.572  1.00  0.00     0.000 C 
BRANCH  12  13
ATOM     13  C   UNL     1      11.561  72.644  72.058  1.00  0.00    -0.000 C 
BRANCH  13  14
ATOM     14  C   UNL     1      12.951  72.533  71.410  1.00  0.00    -0.000 C 
BRANCH  14  15
ATOM     15  C   UNL     1      14.080  73.008  72.342  1.00  0.00    -0.000 C 
BRANCH  15  16
ATOM     16  C   UNL     1      15.120  71.899  72.616  1.00  0.00    -0.000 C 
BRANCH  16  17
ATOM     17  C   UNL     1      14.572  70.474  72.412  1.00  0.00    -0.000 C 
BRANCH  17  18
ATOM     18  C   UNL     1      14.007  69.808  73.681  1.00  0.00    -0.000 C 
BRANCH  18  19
ATOM     19  C   UNL     1      14.427  70.479  75.001  1.00  0.00    -0.003 C 
ATOM     20  C   UNL     1      13.979  69.698  76.236  1.00  0.00     0.004 C 
ENDBRANCH  18  19
ENDBRANCH  17  18
ENDBRANCH  16  17
ENDBRANCH  15  16
ENDBRANCH  14  15
ENDBRANCH  13  14
ENDBRANCH  12  13
ENDBRANCH   1  12
TORSDOF 16
ENDMDL
MODEL 2
REMARK VINA RESULT:    -6.612      6.956     10.026
REMARK INTER + INTRA:         -14.595
REMARK INTER:                 -12.626
REMARK INTRA:                  -1.969
REMARK UNBOUND:                -1.799
REMARK SMILES CCCCCCCCCCCCCCCCCC(=O)[O-]
REMARK SMILES IDX 10 1 11 2 12 3 13 4 14 5 15 6 16 7 17 8 18 9 19 10 20 11
REMARK SMILES IDX 9 12 8 13 7 14 6 15 5 16 4 17 3 18 2 19 1 20
REMARK H PARENT
REMARK Flexibility Score: inf
ROOT
ATOM      1  C   UNL     1      14.052  69.816  73.449  1.00  0.00     0.000 C 
ENDROOT
BRANCH   1   2
ATOM      2  C   UNL     1      14.804  70.584  72.351  1.00  0.00     0.000 C 
BRANCH   2   3
ATOM      3  C   UNL     1      14.682  72.110  72.508  1.00  0.00     0.000 C 
BRANCH   3   4
ATOM      4  C   UNL     1      16.051  72.800  72.638  1.00  0.00     0.000 C 
BRANCH   4   5
ATOM      5  C   UNL     1      17.218  71.862  72.281  1.00  0.00     0.000 C 
BRANCH   5   6
ATOM      6  C   UNL     1      18.596  72.525  72.455  1.00  0.00     0.000 C 
BRANCH   6   7
ATOM      7  C   UNL     1      19.799  71.568  72.356  1.00  0.00     0.006 C 
BRANCH   7   8
ATOM      8  C   UNL     1      19.750  70.671  71.111  1.00  0.00     0.053 C 
BRANCH   8   9
ATOM      9  C   UNL     1      20.747  69.561  71.228  1.00  0.00     0.041 C 
ATOM     10  O   UNL     1      20.573  68.486  70.597  1.00  0.00    -0.550 OA
ATOM     11  O   UNL     1      21.846  69.697  72.067  1.00  0.00    -0.550 OA
ENDBRANCH   8   9
ENDBRANCH   7   8
ENDBRANCH   6   7
ENDBRANCH   5   6
ENDBRANCH   4   5
ENDBRANCH   3   4
ENDBRANCH   2   3
ENDBRANCH   1   2
BRANCH   1  12
ATOM     12  C   UNL     1      13.739  70.686  74.676  1.00  0.00     0.000 C 
BRANCH  12  13
ATOM     13  C   UNL     1      14.034  69.927  75.977  1.00  0.00    -0.000 C 
BRANCH  13  14
ATOM     14  C   UNL     1      15.147  70.583  76.811  1.00  0.00    -0.000 C 
BRANCH  14  15
ATOM     15  C   UNL     1      16.252  71.205  75.941  1.00  0.00    -0.000 C 
BRANCH  15  16
ATOM     16  C   UNL     1      17.540  71.491  76.744  1.00  0.00    -0.000 C 
BRANCH  16  17
ATOM     17  C   UNL     1      18.829  71.367  75.908  1.00  0.00    -0.000 C 
BRANCH  17  18
ATOM     18  C   UNL     1      19.901  70.435  76.504  1.00  0.00    -0.000 C 
BRANCH  18  19
ATOM     19  C   UNL     1      20.877  69.836  75.474  1.00  0.00    -0.003 C 
ATOM     20  C   UNL     1      22.191  70.612  75.376  1.00  0.00     0.004 C 
ENDBRANCH  18  19
ENDBRANCH  17  18
ENDBRANCH  16  17
ENDBRANCH  15  16
ENDBRANCH  14  15
ENDBRANCH  13  14
ENDBRANCH  12  13
ENDBRANCH   1  12
TORSDOF 16
ENDMDL
MODEL 3
REMARK VINA RESULT:    -6.584      7.198     11.664
REMARK INTER + INTRA:         -14.541
REMARK INTER:                 -12.868
REMARK INTRA:                  -1.674
REMARK UNBOUND:                -1.799
REMARK SMILES CCCCCCCCCCCCCCCCCC(=O)[O-]
REMARK SMILES IDX 10 1 11 2 12 3 13 4 14 5 15 6 16 7 17 8 18 9 19 10 20 11
REMARK SMILES IDX 9 12 8 13 7 14 6 15 5 16 4 17 3 18 2 19 1 20
REMARK H PARENT
REMARK Flexibility Score: inf
ROOT
ATOM      1  C   UNL     1      19.765  70.722  71.396  1.00  0.00     0.000 C 
ENDROOT
BRANCH   1   2
ATOM      2  C   UNL     1      21.163  70.779  70.760  1.00  0.00     0.000 C 
BRANCH   2   3
ATOM      3  C   UNL     1      21.447  72.130  70.080  1.00  0.00     0.000 C 
BRANCH   3   4
ATOM      4  C   UNL     1      22.747  72.781  70.584  1.00  0.00     0.000 C 
BRANCH   4   5
ATOM      5  C   UNL     1      22.739  73.005  72.106  1.00  0.00     0.000 C 
BRANCH   5   6
ATOM      6  C   UNL     1      23.915  72.314  72.821  1.00  0.00     0.000 C 
BRANCH   6   7
ATOM      7  C   UNL     1      23.553  71.603  74.137  1.00  0.00     0.006 C 
BRANCH   7   8
ATOM      8  C   UNL     1      22.051  71.650  74.450  1.00  0.00     0.053 C 
BRANCH   8   9
ATOM      9  C   UNL     1      21.602  70.357  75.055  1.00  0.00     0.041 C 
ATOM     10  O   UNL     1      22.390  69.687  75.773  1.00  0.00    -0.550 OA
ATOM     11  O   UNL     1      20.330  69.867  74.789  1.00  0.00    -0.550 OA
ENDBRANCH   8   9
ENDBRANCH   7   8
ENDBRANCH   6   7
ENDBRANCH   5   6
ENDBRANCH   4   5
ENDBRANCH   3   4
ENDBRANCH   2   3
ENDBRANCH   1   2
BRANCH   1  12
ATOM     12  C   UNL     1      19.153  72.114  71.615  1.00  0.00     0.000 C 
BRANCH  12  13
ATOM     13  C   UNL     1      18.457  72.199  72.980  1.00  0.00    -0.000 C 
BRANCH  13  14
ATOM     14  C   UNL     1      17.005  72.696  72.879  1.00  0.00    -0.000 C 
BRANCH  14  15
ATOM     15  C   UNL     1      16.106  71.742  72.074  1.00  0.00    -0.000 C 
BRANCH  15  16
ATOM     16  C   UNL     1      14.604  72.042  72.275  1.00  0.00    -0.000 C 
BRANCH  16  17
ATOM     17  C   UNL     1      13.741  70.779  72.461  1.00  0.00    -0.000 C 
BRANCH  17  18
ATOM     18  C   UNL     1      14.238  69.807  73.547  1.00  0.00    -0.000 C 
BRANCH  18  19
ATOM     19  C   UNL     1      14.511  70.457  74.916  1.00  0.00    -0.003 C 
ATOM     20  C   UNL     1      13.936  69.655  76.082  1.00  0.00     0.004 C 
ENDBRANCH  18  19
ENDBRANCH  17  18
ENDBRANCH  16  17
ENDBRANCH  15  16
ENDBRANCH  14  15
ENDBRANCH  13  14
ENDBRANCH  12  13
ENDBRANCH   1  12
TORSDOF 16
ENDMDL
MODEL 4
REMARK VINA RESULT:    -6.570      6.128      9.628
REMARK INTER + INTRA:         -14.514
REMARK INTER:                 -12.272
REMARK INTRA:                  -2.242
REMARK UNBOUND:                -1.799
REMARK SMILES CCCCCCCCCCCCCCCCCC(=O)[O-]
REMARK SMILES IDX 10 1 11 2 12 3 13 4 14 5 15 6 16 7 17 8 18 9 19 10 20 11
REMARK SMILES IDX 9 12 8 13 7 14 6 15 5 16 4 17 3 18 2 19 1 20
REMARK H PARENT
REMARK Flexibility Score: inf
ROOT
ATOM      1  C   UNL     1      20.936  71.422  74.677  1.00  0.00     0.000 C 
ENDROOT
BRANCH   1   2
ATOM      2  C   UNL     1      19.663  70.630  74.338  1.00  0.00     0.000 C 
BRANCH   2   3
ATOM      3  C   UNL     1      18.432  71.536  74.161  1.00  0.00     0.000 C 
BRANCH   3   4
ATOM      4  C   UNL     1      18.676  72.672  73.153  1.00  0.00     0.000 C 
BRANCH   4   5
ATOM      5  C   UNL     1      17.774  72.561  71.912  1.00  0.00     0.000 C 
BRANCH   5   6
ATOM      6  C   UNL     1      16.715  71.450  72.036  1.00  0.00     0.000 C 
BRANCH   6   7
ATOM      7  C   UNL     1      15.285  71.939  72.329  1.00  0.00     0.006 C 
BRANCH   7   8
ATOM      8  C   UNL     1      14.781  71.521  73.717  1.00  0.00     0.053 C 
BRANCH   8   9
ATOM      9  C   UNL     1      14.294  70.107  73.693  1.00  0.00     0.041 C 
ATOM     10  O   UNL     1      14.035  69.546  72.596  1.00  0.00    -0.550 OA
ATOM     11  O   UNL     1      14.083  69.421  74.882  1.00  0.00    -0.550 OA
ENDBRANCH   8   9
ENDBRANCH   7   8
ENDBRANCH   6   7
ENDBRANCH   5   6
ENDBRANCH   4   5
ENDBRANCH   3   4
ENDBRANCH   2   3
ENDBRANCH   1   2
BRANCH   1  12
ATOM     12  C   UNL     1      22.216  70.588  74.517  1.00  0.00     0.000 C 
BRANCH  12  13
ATOM     13  C   UNL     1      23.141  71.202  73.456  1.00  0.00    -0.000 C 
BRANCH  13  14
ATOM     14  C   UNL     1      22.696  72.607  73.018  1.00  0.00    -0.000 C 
BRANCH  14  15
ATOM     15  C   UNL     1      22.940  72.869  71.522  1.00  0.00    -0.000 C 
BRANCH  15  16
ATOM     16  C   UNL     1      21.633  72.842  70.700  1.00  0.00    -0.000 C 
BRANCH  16  17
ATOM     17  C   UNL     1      21.347  71.480  70.038  1.00  0.00    -0.000 C 
BRANCH  17  18
ATOM     18  C   UNL     1      20.424  70.547  70.844  1.00  0.00    -0.000 C 
BRANCH  18  19
ATOM     19  C   UNL     1      20.690  69.045  70.640  1.00  0.00    -0.003 C 
ATOM     20  C   UNL     1      20.221  68.536  69.277  1.00  0.00     0.004 C 
ENDBRANCH  18  19
ENDBRANCH  17  18
ENDBRANCH  16  17
ENDBRANCH  15  16
ENDBRANCH  14  15
ENDBRANCH  13  14
ENDBRANCH  12  13
ENDBRANCH   1  12
TORSDOF 16
ENDMDL
MODEL 5
REMARK VINA RESULT:    -6.561      7.174      9.704
REMARK INTER + INTRA:         -14.498
REMARK INTER:                 -12.563
REMARK INTRA:                  -1.934
REMARK UNBOUND:                -1.799
REMARK SMILES CCCCCCCCCCCCCCCCCC(=O)[O-]
REMARK SMILES IDX 10 1 11 2 12 3 13 4 14 5 15 6 16 7 17 8 18 9 19 10 20 11
REMARK SMILES IDX 9 12 8 13 7 14 6 15 5 16 4 17 3 18 2 19 1 20
REMARK H PARENT
REMARK Flexibility Score: inf
ROOT
ATOM      1  C   UNL     1      14.413  70.189  74.026  1.00  0.00     0.000 C 
ENDROOT
BRANCH   1   2
ATOM      2  C   UNL     1      14.076  69.739  75.456  1.00  0.00     0.000 C 
BRANCH   2   3
ATOM      3  C   UNL     1      14.864  70.521  76.523  1.00  0.00     0.000 C 
BRANCH   3   4
ATOM      4  C   UNL     1      16.172  71.114  75.973  1.00  0.00     0.000 C 
BRANCH   4   5
ATOM      5  C   UNL     1      17.286  71.165  77.034  1.00  0.00     0.000 C 
BRANCH   5   6
ATOM      6  C   UNL     1      18.653  71.565  76.450  1.00  0.00     0.000 C 
BRANCH   6   7
ATOM      7  C   UNL     1      19.755  70.498  76.578  1.00  0.00     0.006 C 
BRANCH   7   8
ATOM      8  C   UNL     1      20.507  70.251  75.263  1.00  0.00     0.053 C 
BRANCH   8   9
ATOM      9  C   UNL     1      21.962  70.022  75.528  1.00  0.00     0.041 C 
ATOM     10  O   UNL     1      22.332  69.481  76.603  1.00  0.00    -0.550 OA
ATOM     11  O   UNL     1      22.913  70.444  74.608  1.00  0.00    -0.550 OA
ENDBRANCH   8   9
ENDBRANCH   7   8
ENDBRANCH   6   7
ENDBRANCH   5   6
ENDBRANCH   4   5
ENDBRANCH   3   4
ENDBRANCH   2   3
ENDBRANCH   1   2
BRANCH   1  12
ATOM     12  C   UNL     1      13.457  71.271  73.503  1.00  0.00     0.000 C 
BRANCH  12  13
ATOM     13  C   UNL     1      14.185  72.233  72.552  1.00  0.00    -0.000 C 
BRANCH  13  14
ATOM     14  C   UNL     1      15.575  71.723  72.139  1.00  0.00    -0.000 C 
BRANCH  14  15
ATOM     15  C   UNL     1      16.708  72.666  72.578  1.00  0.00    -0.000 C 
BRANCH  15  16
ATOM     16  C   UNL     1      17.996  71.900  72.953  1.00  0.00    -0.000 C 
BRANCH  16  17
ATOM     17  C   UNL     1      18.901  71.585  71.746  1.00  0.00    -0.000 C 
BRANCH  17  18
ATOM     18  C   UNL     1      20.380  71.975  71.924  1.00  0.00    -0.000 C 
BRANCH  18  19
ATOM     19  C   UNL     1      21.388  70.923  71.425  1.00  0.00    -0.003 C 
ATOM     20  C   UNL     1      20.871  69.491  71.560  1.00  0.00     0.004 C 
ENDBRANCH  18  19
ENDBRANCH  17  18
ENDBRANCH  16  17
ENDBRANCH  15  16
ENDBRANCH  14  15
ENDBRANCH  13  14
ENDBRANCH  12  13
ENDBRANCH   1  12
TORSDOF 16
ENDMDL
MODEL 6
REMARK VINA RESULT:    -6.555      7.174     11.479
REMARK INTER + INTRA:         -14.485
REMARK INTER:                 -12.900
REMARK INTRA:                  -1.585
REMARK UNBOUND:                -1.799
REMARK SMILES CCCCCCCCCCCCCCCCCC(=O)[O-]
REMARK SMILES IDX 10 1 11 2 12 3 13 4 14 5 15 6 16 7 17 8 18 9 19 10 20 11
REMARK SMILES IDX 9 12 8 13 7 14 6 15 5 16 4 17 3 18 2 19 1 20
REMARK H PARENT
REMARK Flexibility Score: inf
ROOT
ATOM      1  C   UNL     1      20.173  70.769  75.349  1.00  0.00     0.000 C 
ENDROOT
BRANCH   1   2
ATOM      2  C   UNL     1      21.678  70.463  75.406  1.00  0.00     0.000 C 
BRANCH   2   3
ATOM      3  C   UNL     1      22.387  70.732  74.067  1.00  0.00     0.000 C 
BRANCH   3   4
ATOM      4  C   UNL     1      22.605  72.233  73.807  1.00  0.00     0.000 C 
BRANCH   4   5
ATOM      5  C   UNL     1      22.975  72.528  72.343  1.00  0.00     0.000 C 
BRANCH   5   6
ATOM      6  C   UNL     1      21.743  72.709  71.437  1.00  0.00     0.000 C 
BRANCH   6   7
ATOM      7  C   UNL     1      21.567  71.632  70.351  1.00  0.00     0.006 C 
BRANCH   7   8
ATOM      8  C   UNL     1      21.004  70.313  70.899  1.00  0.00     0.053 C 
BRANCH   8   9
ATOM      9  C   UNL     1      20.619  69.402  69.776  1.00  0.00     0.041 C 
ATOM     10  O   UNL     1      20.780  69.767  68.582  1.00  0.00    -0.550 OA
ATOM     11  O   UNL     1      20.041  68.168  70.046  1.00  0.00    -0.550 OA
ENDBRANCH   8   9
ENDBRANCH   7   8
ENDBRANCH   6   7
ENDBRANCH   5   6
ENDBRANCH   4   5
ENDBRANCH   3   4
ENDBRANCH   2   3
ENDBRANCH   1   2
BRANCH   1  12
ATOM     12  C   UNL     1      19.596  70.652  73.931  1.00  0.00     0.000 C 
BRANCH  12  13
ATOM     13  C   UNL     1      18.550  71.746  73.672  1.00  0.00    -0.000 C 
BRANCH  13  14
ATOM     14  C   UNL     1      18.045  71.757  72.220  1.00  0.00    -0.000 C 
BRANCH  14  15
ATOM     15  C   UNL     1      16.891  72.751  72.000  1.00  0.00    -0.000 C 
BRANCH  15  16
ATOM     16  C   UNL     1      15.575  72.275  72.652  1.00  0.00    -0.000 C 
BRANCH  16  17
ATOM     17  C   UNL     1      15.246  70.796  72.373  1.00  0.00    -0.000 C 
BRANCH  17  18
ATOM     18  C   UNL     1      14.367  70.114  73.438  1.00  0.00    -0.000 C 
BRANCH  18  19
ATOM     19  C   UNL     1      14.639  70.568  74.883  1.00  0.00    -0.003 C 
ATOM     20  C   UNL     1      13.953  69.684  75.925  1.00  0.00     0.004 C 
ENDBRANCH  18  19
ENDBRANCH  17  18
ENDBRANCH  16  17
ENDBRANCH  15  16
ENDBRANCH  14  15
ENDBRANCH  13  14
ENDBRANCH  12  13
ENDBRANCH   1  12
TORSDOF 16
ENDMDL
MODEL 7
REMARK VINA RESULT:    -6.482      6.648      8.669
REMARK INTER + INTRA:         -14.344
REMARK INTER:                 -12.503
REMARK INTRA:                  -1.841
REMARK UNBOUND:                -1.799
REMARK SMILES CCCCCCCCCCCCCCCCCC(=O)[O-]
REMARK SMILES IDX 10 1 11 2 12 3 13 4 14 5 15 6 16 7 17 8 18 9 19 10 20 11
REMARK SMILES IDX 9 12 8 13 7 14 6 15 5 16 4 17 3 18 2 19 1 20
REMARK H PARENT
REMARK Flexibility Score: inf
ROOT
ATOM      1  C   UNL     1      14.737  70.631  72.446  1.00  0.00     0.000 C 
ENDROOT
BRANCH   1   2
ATOM      2  C   UNL     1      14.071  69.778  73.537  1.00  0.00     0.000 C 
BRANCH   2   3
ATOM      3  C   UNL     1      13.750  70.586  74.807  1.00  0.00     0.000 C 
BRANCH   3   4
ATOM      4  C   UNL     1      14.293  69.920  76.083  1.00  0.00     0.000 C 
BRANCH   4   5
ATOM      5  C   UNL     1      15.449  70.715  76.714  1.00  0.00     0.000 C 
BRANCH   5   6
ATOM      6  C   UNL     1      16.291  71.478  75.675  1.00  0.00     0.000 C 
BRANCH   6   7
ATOM      7  C   UNL     1      17.814  71.298  75.809  1.00  0.00     0.006 C 
BRANCH   7   8
ATOM      8  C   UNL     1      18.268  71.088  77.260  1.00  0.00     0.053 C 
BRANCH   8   9
ATOM      9  C   UNL     1      19.503  70.243  77.305  1.00  0.00     0.041 C 
ATOM     10  O   UNL     1      19.857  69.697  78.382  1.00  0.00    -0.550 OA
ATOM     11  O   UNL     1      20.287  70.095  76.168  1.00  0.00    -0.550 OA
ENDBRANCH   8   9
ENDBRANCH   7   8
ENDBRANCH   6   7
ENDBRANCH   5   6
ENDBRANCH   4   5
ENDBRANCH   3   4
ENDBRANCH   2   3
ENDBRANCH   1   2
BRANCH   1  12
ATOM     12  C   UNL     1      14.432  72.129  72.595  1.00  0.00     0.000 C 
BRANCH  12  13
ATOM     13  C   UNL     1      15.636  72.980  72.164  1.00  0.00    -0.000 C 
BRANCH  13  14
ATOM     14  C   UNL     1      16.919  72.151  71.992  1.00  0.00    -0.000 C 
BRANCH  14  15
ATOM     15  C   UNL     1      18.174  73.027  71.828  1.00  0.00    -0.000 C 
BRANCH  15  16
ATOM     16  C   UNL     1      19.443  72.189  71.559  1.00  0.00    -0.000 C 
BRANCH  16  17
ATOM     17  C   UNL     1      19.816  71.243  72.717  1.00  0.00    -0.000 C 
BRANCH  17  18
ATOM     18  C   UNL     1      20.623  69.998  72.305  1.00  0.00    -0.000 C 
BRANCH  18  19
ATOM     19  C   UNL     1      20.973  69.925  70.807  1.00  0.00    -0.003 C 
ATOM     20  C   UNL     1      20.020  69.029  70.015  1.00  0.00     0.004 C 
ENDBRANCH  18  19
ENDBRANCH  17  18
ENDBRANCH  16  17
ENDBRANCH  15  16
ENDBRANCH  14  15
ENDBRANCH  13  14
ENDBRANCH  12  13
ENDBRANCH   1  12
TORSDOF 16
ENDMDL
MODEL 8
REMARK VINA RESULT:    -6.456      6.696     10.248
REMARK INTER + INTRA:         -14.294
REMARK INTER:                 -12.928
REMARK INTRA:                  -1.366
REMARK UNBOUND:                -1.799
REMARK SMILES CCCCCCCCCCCCCCCCCC(=O)[O-]
REMARK SMILES IDX 10 1 11 2 12 3 13 4 14 5 15 6 16 7 17 8 18 9 19 10 20 11
REMARK SMILES IDX 9 12 8 13 7 14 6 15 5 16 4 17 3 18 2 19 1 20
REMARK H PARENT
REMARK Flexibility Score: inf
ROOT
ATOM      1  C   UNL     1      21.101  70.180  72.105  1.00  0.00     0.000 C 
ENDROOT
BRANCH   1   2
ATOM      2  C   UNL     1      22.301  70.551  72.989  1.00  0.00     0.000 C 
BRANCH   2   3
ATOM      3  C   UNL     1      21.919  70.701  74.473  1.00  0.00     0.000 C 
BRANCH   3   4
ATOM      4  C   UNL     1      20.483  70.230  74.762  1.00  0.00     0.000 C 
BRANCH   4   5
ATOM      5  C   UNL     1      19.585  71.366  75.280  1.00  0.00     0.000 C 
BRANCH   5   6
ATOM      6  C   UNL     1      18.837  70.999  76.574  1.00  0.00     0.000 C 
BRANCH   6   7
ATOM      7  C   UNL     1      19.634  70.131  77.566  1.00  0.00     0.006 C 
BRANCH   7   8
ATOM      8  C   UNL     1      18.889  69.892  78.887  1.00  0.00     0.053 C 
BRANCH   8   9
ATOM      9  C   UNL     1      19.249  68.556  79.455  1.00  0.00     0.041 C 
ATOM     10  O   UNL     1      20.442  68.301  79.766  1.00  0.00    -0.550 OA
ATOM     11  O   UNL     1      18.276  67.575  79.601  1.00  0.00    -0.550 OA
ENDBRANCH   8   9
ENDBRANCH   7   8
ENDBRANCH   6   7
ENDBRANCH   5   6
ENDBRANCH   4   5
ENDBRANCH   3   4
ENDBRANCH   2   3
ENDBRANCH   1   2
BRANCH   1  12
ATOM     12  C   UNL     1      20.439  71.405  71.456  1.00  0.00     0.000 C 
BRANCH  12  13
ATOM     13  C   UNL     1      18.909  71.320  71.557  1.00  0.00    -0.000 C 
BRANCH  13  14
ATOM     14  C   UNL     1      18.251  72.686  71.809  1.00  0.00    -0.000 C 
BRANCH  14  15
ATOM     15  C   UNL     1      16.733  72.582  72.035  1.00  0.00    -0.000 C 
BRANCH  15  16
ATOM     16  C   UNL     1      16.309  71.185  72.539  1.00  0.00    -0.000 C 
BRANCH  16  17
ATOM     17  C   UNL     1      14.799  70.910  72.398  1.00  0.00    -0.000 C 
BRANCH  17  18
ATOM     18  C   UNL     1      14.180  70.088  73.544  1.00  0.00    -0.000 C 
BRANCH  18  19
ATOM     19  C   UNL     1      14.585  70.546  74.957  1.00  0.00    -0.003 C 
ATOM     20  C   UNL     1      13.936  69.714  76.063  1.00  0.00     0.004 C 
ENDBRANCH  18  19
ENDBRANCH  17  18
ENDBRANCH  16  17
ENDBRANCH  15  16
ENDBRANCH  14  15
ENDBRANCH  13  14
ENDBRANCH  12  13
ENDBRANCH   1  12
TORSDOF 16
ENDMDL
MODEL 9
REMARK VINA RESULT:    -6.374      6.847      9.849
REMARK INTER + INTRA:         -14.135
REMARK INTER:                 -12.466
REMARK INTRA:                  -1.670
REMARK UNBOUND:                -1.799
REMARK SMILES CCCCCCCCCCCCCCCCCC(=O)[O-]
REMARK SMILES IDX 10 1 11 2 12 3 13 4 14 5 15 6 16 7 17 8 18 9 19 10 20 11
REMARK SMILES IDX 9 12 8 13 7 14 6 15 5 16 4 17 3 18 2 19 1 20
REMARK H PARENT
REMARK Flexibility Score: inf
ROOT
ATOM      1  C   UNL     1      14.382  69.993  74.260  1.00  0.00     0.000 C 
ENDROOT
BRANCH   1   2
ATOM      2  C   UNL     1      13.431  70.680  73.268  1.00  0.00     0.000 C 
BRANCH   2   3
ATOM      3  C   UNL     1      14.166  71.634  72.308  1.00  0.00     0.000 C 
BRANCH   3   4
ATOM      4  C   UNL     1      15.695  71.512  72.413  1.00  0.00     0.000 C 
BRANCH   4   5
ATOM      5  C   UNL     1      16.405  72.868  72.253  1.00  0.00     0.000 C 
BRANCH   5   6
ATOM      6  C   UNL     1      17.940  72.753  72.309  1.00  0.00     0.000 C 
BRANCH   6   7
ATOM      7  C   UNL     1      18.525  71.491  71.650  1.00  0.00     0.006 C 
BRANCH   7   8
ATOM      8  C   UNL     1      20.058  71.515  71.564  1.00  0.00     0.053 C 
BRANCH   8   9
ATOM      9  C   UNL     1      20.587  70.142  71.291  1.00  0.00     0.041 C 
ATOM     10  O   UNL     1      21.497  69.659  72.014  1.00  0.00    -0.550 OA
ATOM     11  O   UNL     1      20.109  69.413  70.210  1.00  0.00    -0.550 OA
ENDBRANCH   8   9
ENDBRANCH   7   8
ENDBRANCH   6   7
ENDBRANCH   5   6
ENDBRANCH   4   5
ENDBRANCH   3   4
ENDBRANCH   2   3
ENDBRANCH   1   2
BRANCH   1  12
ATOM     12  C   UNL     1      14.079  70.354  75.722  1.00  0.00     0.000 C 
BRANCH  12  13
ATOM     13  C   UNL     1      15.376  70.530  76.524  1.00  0.00    -0.000 C 
BRANCH  13  14
ATOM     14  C   UNL     1      16.408  71.410  75.802  1.00  0.00    -0.000 C 
BRANCH  14  15
ATOM     15  C   UNL     1      17.767  71.445  76.522  1.00  0.00    -0.000 C 
BRANCH  15  16
ATOM     16  C   UNL     1      18.955  71.366  75.539  1.00  0.00    -0.000 C 
BRANCH  16  17
ATOM     17  C   UNL     1      20.054  70.378  75.976  1.00  0.00    -0.000 C 
BRANCH  17  18
ATOM     18  C   UNL     1      19.708  69.527  77.212  1.00  0.00    -0.000 C 
BRANCH  18  19
ATOM     19  C   UNL     1      20.922  69.073  78.042  1.00  0.00    -0.003 C 
ATOM     20  C   UNL     1      20.543  68.601  79.446  1.00  0.00     0.004 C 
ENDBRANCH  18  19
ENDBRANCH  17  18
ENDBRANCH  16  17
ENDBRANCH  15  16
ENDBRANCH  14  15
ENDBRANCH  13  14
ENDBRANCH  12  13
ENDBRANCH   1  12
TORSDOF 16
ENDMDL
