MODEL 1
REMARK VINA RESULT:    -4.276      0.000      0.000
REMARK INTER + INTRA:          -7.003
REMARK INTER:                  -6.525
REMARK INTRA:                  -0.478
REMARK UNBOUND:                -0.478
REMARK SMILES CCCCCCCCCCC(=O)[O-]
REMARK SMILES IDX 7 1 8 2 9 3 10 4 11 5 12 6 13 7 6 8 5 9 4 10 3 11 2 12 1 13
REMARK H PARENT
REMARK Flexibility Score: inf
ROOT
ATOM      1  C   UNL     1     302.174 324.575 647.860  1.00  0.00     0.000 C 
ENDROOT
BRANCH   1   2
ATOM      2  C   UNL     1     301.129 323.609 647.282  1.00  0.00     0.000 C 
BRANCH   2   3
ATOM      3  C   UNL     1     299.680 324.072 647.522  1.00  0.00     0.006 C 
BRANCH   3   4
ATOM      4  C   UNL     1     298.887 324.335 646.230  1.00  0.00     0.053 C 
BRANCH   4   5
ATOM      5  C   UNL     1     299.121 325.708 645.676  1.00  0.00     0.041 C 
ATOM      6  O   UNL     1     299.266 326.691 646.451  1.00  0.00    -0.550 OA
ATOM      7  O   UNL     1     299.147 325.909 644.301  1.00  0.00    -0.550 OA
ENDBRANCH   4   5
ENDBRANCH   3   4
ENDBRANCH   2   3
ENDBRANCH   1   2
BRANCH   1   8
ATOM      8  C   UNL     1     303.221 323.821 648.689  1.00  0.00     0.000 C 
BRANCH   8   9
ATOM      9  C   UNL     1     303.615 322.503 648.010  1.00  0.00    -0.000 C 
BRANCH   9  10
ATOM     10  C   UNL     1     304.750 321.809 648.772  1.00  0.00    -0.000 C 
BRANCH  10  11
ATOM     11  C   UNL     1     305.035 322.521 650.102  1.00  0.00    -0.000 C 
BRANCH  11  12
ATOM     12  C   UNL     1     306.162 321.849 650.902  1.00  0.00    -0.003 C 
ATOM     13  C   UNL     1     305.884 320.375 651.193  1.00  0.00     0.004 C 
ENDBRANCH  11  12
ENDBRANCH  10  11
ENDBRANCH   9  10
ENDBRANCH   8   9
ENDBRANCH   1   8
TORSDOF 9
ENDMDL
MODEL 2
REMARK VINA RESULT:    -4.173      4.020      7.019
REMARK INTER + INTRA:          -6.846
REMARK INTER:                  -6.111
REMARK INTRA:                  -0.735
REMARK UNBOUND:                -0.478
REMARK SMILES CCCCCCCCCCC(=O)[O-]
REMARK SMILES IDX 7 1 8 2 9 3 10 4 11 5 12 6 13 7 6 8 5 9 4 10 3 11 2 12 1 13
REMARK H PARENT
REMARK Flexibility Score: inf
ROOT
ATOM      1  C   UNL     1     303.549 323.246 646.430  1.00  0.00     0.000 C 
ENDROOT
BRANCH   1   2
ATOM      2  C   UNL     1     304.747 322.663 647.192  1.00  0.00     0.000 C 
BRANCH   2   3
ATOM      3  C   UNL     1     304.339 321.913 648.475  1.00  0.00     0.006 C 
BRANCH   3   4
ATOM      4  C   UNL     1     304.918 322.522 649.764  1.00  0.00     0.053 C 
BRANCH   4   5
ATOM      5  C   UNL     1     305.463 321.486 650.700  1.00  0.00     0.041 C 
ATOM      6  O   UNL     1     306.283 321.810 651.601  1.00  0.00    -0.550 OA
ATOM      7  O   UNL     1     305.091 320.155 650.558  1.00  0.00    -0.550 OA
ENDBRANCH   4   5
ENDBRANCH   3   4
ENDBRANCH   2   3
ENDBRANCH   1   2
BRANCH   1   8
ATOM      8  C   UNL     1     303.211 324.655 646.931  1.00  0.00     0.000 C 
BRANCH   8   9
ATOM      9  C   UNL     1     301.980 324.634 647.845  1.00  0.00    -0.000 C 
BRANCH   9  10
ATOM     10  C   UNL     1     300.910 323.677 647.307  1.00  0.00    -0.000 C 
BRANCH  10  11
ATOM     11  C   UNL     1     299.530 324.349 647.290  1.00  0.00    -0.000 C 
BRANCH  11  12
ATOM     12  C   UNL     1     298.904 324.377 645.887  1.00  0.00    -0.003 C 
ATOM     13  C   UNL     1     299.945 324.527 644.779  1.00  0.00     0.004 C 
ENDBRANCH  11  12
ENDBRANCH  10  11
ENDBRANCH   9  10
ENDBRANCH   8   9
ENDBRANCH   1   8
TORSDOF 9
ENDMDL
MODEL 3
REMARK VINA RESULT:    -4.131      3.873      7.299
REMARK INTER + INTRA:          -6.782
REMARK INTER:                  -6.259
REMARK INTRA:                  -0.523
REMARK UNBOUND:                -0.478
REMARK SMILES CCCCCCCCCCC(=O)[O-]
REMARK SMILES IDX 7 1 8 2 9 3 10 4 11 5 12 6 13 7 6 8 5 9 4 10 3 11 2 12 1 13
REMARK H PARENT
REMARK Flexibility Score: inf
ROOT
ATOM      1  C   UNL     1     302.698 324.435 647.920  1.00  0.00     0.000 C 
ENDROOT
BRANCH   1   2
ATOM      2  C   UNL     1     303.989 323.694 647.542  1.00  0.00     0.000 C 
BRANCH   2   3
ATOM      3  C   UNL     1     304.269 322.473 648.437  1.00  0.00     0.006 C 
BRANCH   3   4
ATOM      4  C   UNL     1     304.637 322.833 649.887  1.00  0.00     0.053 C 
BRANCH   4   5
ATOM      5  C   UNL     1     305.333 321.714 650.603  1.00  0.00     0.041 C 
ATOM      6  O   UNL     1     304.967 320.521 650.427  1.00  0.00    -0.550 OA
ATOM      7  O   UNL     1     306.365 321.992 651.491  1.00  0.00    -0.550 OA
ENDBRANCH   4   5
ENDBRANCH   3   4
ENDBRANCH   2   3
ENDBRANCH   1   2
BRANCH   1   8
ATOM      8  C   UNL     1     301.461 323.635 647.494  1.00  0.00     0.000 C 
BRANCH   8   9
ATOM      9  C   UNL     1     300.171 324.381 647.858  1.00  0.00    -0.000 C 
BRANCH   9  10
ATOM     10  C   UNL     1     299.062 324.096 646.838  1.00  0.00    -0.000 C 
BRANCH  10  11
ATOM     11  C   UNL     1     298.956 325.232 645.810  1.00  0.00    -0.000 C 
BRANCH  11  12
ATOM     12  C   UNL     1     299.221 326.613 646.428  1.00  0.00    -0.003 C 
ATOM     13  C   UNL     1     300.270 327.414 645.658  1.00  0.00     0.004 C 
ENDBRANCH  11  12
ENDBRANCH  10  11
ENDBRANCH   9  10
ENDBRANCH   8   9
ENDBRANCH   1   8
TORSDOF 9
ENDMDL
MODEL 4
REMARK VINA RESULT:    -4.062      4.034      7.216
REMARK INTER + INTRA:          -6.677
REMARK INTER:                  -6.054
REMARK INTRA:                  -0.624
REMARK UNBOUND:                -0.478
REMARK SMILES CCCCCCCCCCC(=O)[O-]
REMARK SMILES IDX 7 1 8 2 9 3 10 4 11 5 12 6 13 7 6 8 5 9 4 10 3 11 2 12 1 13
REMARK H PARENT
REMARK Flexibility Score: inf
ROOT
ATOM      1  C   UNL     1     302.734 323.710 647.046  1.00  0.00     0.000 C 
ENDROOT
BRANCH   1   2
ATOM      2  C   UNL     1     303.506 322.658 647.855  1.00  0.00     0.000 C 
BRANCH   2   3
ATOM      3  C   UNL     1     304.672 323.254 648.664  1.00  0.00     0.006 C 
BRANCH   3   4
ATOM      4  C   UNL     1     304.661 322.866 650.153  1.00  0.00     0.053 C 
BRANCH   4   5
ATOM      5  C   UNL     1     305.665 321.802 650.482  1.00  0.00     0.041 C 
ATOM      6  O   UNL     1     305.283 320.656 650.841  1.00  0.00    -0.550 OA
ATOM      7  O   UNL     1     307.024 322.085 650.422  1.00  0.00    -0.550 OA
ENDBRANCH   4   5
ENDBRANCH   3   4
ENDBRANCH   2   3
ENDBRANCH   1   2
BRANCH   1   8
ATOM      8  C   UNL     1     301.579 324.296 647.866  1.00  0.00     0.000 C 
BRANCH   8   9
ATOM      9  C   UNL     1     300.245 323.640 647.487  1.00  0.00    -0.000 C 
BRANCH   9  10
ATOM     10  C   UNL     1     299.260 324.675 646.930  1.00  0.00    -0.000 C 
BRANCH  10  11
ATOM     11  C   UNL     1     299.023 324.455 645.429  1.00  0.00    -0.000 C 
BRANCH  11  12
ATOM     12  C   UNL     1     300.090 325.136 644.557  1.00  0.00    -0.003 C 
ATOM     13  C   UNL     1     300.878 324.144 643.704  1.00  0.00     0.004 C 
ENDBRANCH  11  12
ENDBRANCH  10  11
ENDBRANCH   9  10
ENDBRANCH   8   9
ENDBRANCH   1   8
TORSDOF 9
ENDMDL
MODEL 5
REMARK VINA RESULT:    -4.039      0.992      1.645
REMARK INTER + INTRA:          -6.642
REMARK INTER:                  -6.114
REMARK INTRA:                  -0.528
REMARK UNBOUND:                -0.478
REMARK SMILES CCCCCCCCCCC(=O)[O-]
REMARK SMILES IDX 7 1 8 2 9 3 10 4 11 5 12 6 13 7 6 8 5 9 4 10 3 11 2 12 1 13
REMARK H PARENT
REMARK Flexibility Score: inf
ROOT
ATOM      1  C   UNL     1     301.215 323.590 647.437  1.00  0.00     0.000 C 
ENDROOT
BRANCH   1   2
ATOM      2  C   UNL     1     299.840 324.158 647.814  1.00  0.00     0.000 C 
BRANCH   2   3
ATOM      3  C   UNL     1     299.325 325.209 646.812  1.00  0.00     0.006 C 
BRANCH   3   4
ATOM      4  C   UNL     1     298.939 324.627 645.441  1.00  0.00     0.053 C 
BRANCH   4   5
ATOM      5  C   UNL     1     299.776 325.174 644.323  1.00  0.00     0.041 C 
ATOM      6  O   UNL     1     299.337 326.106 643.597  1.00  0.00    -0.550 OA
ATOM      7  O   UNL     1     301.028 324.632 644.062  1.00  0.00    -0.550 OA
ENDBRANCH   4   5
ENDBRANCH   3   4
ENDBRANCH   2   3
ENDBRANCH   1   2
BRANCH   1   8
ATOM      8  C   UNL     1     302.338 324.554 647.840  1.00  0.00     0.000 C 
BRANCH   8   9
ATOM      9  C   UNL     1     303.491 323.804 648.517  1.00  0.00    -0.000 C 
BRANCH   9  10
ATOM     10  C   UNL     1     303.585 322.361 648.008  1.00  0.00    -0.000 C 
BRANCH  10  11
ATOM     11  C   UNL     1     304.743 321.613 648.685  1.00  0.00    -0.000 C 
BRANCH  11  12
ATOM     12  C   UNL     1     305.175 322.269 650.006  1.00  0.00    -0.003 C 
ATOM     13  C   UNL     1     305.811 321.277 650.978  1.00  0.00     0.004 C 
ENDBRANCH  11  12
ENDBRANCH  10  11
ENDBRANCH   9  10
ENDBRANCH   8   9
ENDBRANCH   1   8
TORSDOF 9
ENDMDL
MODEL 6
REMARK VINA RESULT:    -4.001      4.171      7.047
REMARK INTER + INTRA:          -6.583
REMARK INTER:                  -5.899
REMARK INTRA:                  -0.684
REMARK UNBOUND:                -0.478
REMARK SMILES CCCCCCCCCCC(=O)[O-]
REMARK SMILES IDX 7 1 8 2 9 3 10 4 11 5 12 6 13 7 6 8 5 9 4 10 3 11 2 12 1 13
REMARK H PARENT
REMARK Flexibility Score: inf
ROOT
ATOM      1  C   UNL     1     304.729 323.429 647.059  1.00  0.00     0.000 C 
ENDROOT
BRANCH   1   2
ATOM      2  C   UNL     1     304.864 321.920 647.314  1.00  0.00     0.000 C 
BRANCH   2   3
ATOM      3  C   UNL     1     304.514 321.518 648.758  1.00  0.00     0.006 C 
BRANCH   3   4
ATOM      4  C   UNL     1     304.988 322.527 649.820  1.00  0.00     0.053 C 
BRANCH   4   5
ATOM      5  C   UNL     1     306.219 322.071 650.544  1.00  0.00     0.041 C 
ATOM      6  O   UNL     1     306.123 321.321 651.552  1.00  0.00    -0.550 OA
ATOM      7  O   UNL     1     307.472 322.500 650.124  1.00  0.00    -0.550 OA
ENDBRANCH   4   5
ENDBRANCH   3   4
ENDBRANCH   2   3
ENDBRANCH   1   2
BRANCH   1   8
ATOM      8  C   UNL     1     303.458 323.739 646.258  1.00  0.00     0.000 C 
BRANCH   8   9
ATOM      9  C   UNL     1     302.458 324.538 647.102  1.00  0.00    -0.000 C 
BRANCH   9  10
ATOM     10  C   UNL     1     301.281 323.659 647.544  1.00  0.00    -0.000 C 
BRANCH  10  11
ATOM     11  C   UNL     1     300.077 324.518 647.955  1.00  0.00    -0.000 C 
BRANCH  11  12
ATOM     12  C   UNL     1     299.509 325.335 646.785  1.00  0.00    -0.003 C 
ATOM     13  C   UNL     1     298.893 324.459 645.695  1.00  0.00     0.004 C 
ENDBRANCH  11  12
ENDBRANCH  10  11
ENDBRANCH   9  10
ENDBRANCH   8   9
ENDBRANCH   1   8
TORSDOF 9
ENDMDL
MODEL 7
REMARK VINA RESULT:    -3.968      3.465      6.361
REMARK INTER + INTRA:          -6.533
REMARK INTER:                  -5.507
REMARK INTRA:                  -1.025
REMARK UNBOUND:                -0.478
REMARK SMILES CCCCCCCCCCC(=O)[O-]
REMARK SMILES IDX 7 1 8 2 9 3 10 4 11 5 12 6 13 7 6 8 5 9 4 10 3 11 2 12 1 13
REMARK H PARENT
REMARK Flexibility Score: inf
ROOT
ATOM      1  C   UNL     1     303.513 324.763 645.929  1.00  0.00     0.000 C 
ENDROOT
BRANCH   1   2
ATOM      2  C   UNL     1     303.210 324.604 647.426  1.00  0.00     0.000 C 
BRANCH   2   3
ATOM      3  C   UNL     1     302.907 323.149 647.829  1.00  0.00     0.006 C 
BRANCH   3   4
ATOM      4  C   UNL     1     304.156 322.255 647.923  1.00  0.00     0.053 C 
BRANCH   4   5
ATOM      5  C   UNL     1     305.086 322.672 649.023  1.00  0.00     0.041 C 
ATOM      6  O   UNL     1     304.635 322.956 650.164  1.00  0.00    -0.550 OA
ATOM      7  O   UNL     1     306.450 322.779 648.778  1.00  0.00    -0.550 OA
ENDBRANCH   4   5
ENDBRANCH   3   4
ENDBRANCH   2   3
ENDBRANCH   1   2
BRANCH   1   8
ATOM      8  C   UNL     1     302.449 324.064 645.075  1.00  0.00     0.000 C 
BRANCH   8   9
ATOM      9  C   UNL     1     301.272 325.003 644.784  1.00  0.00    -0.000 C 
BRANCH   9  10
ATOM     10  C   UNL     1     299.956 324.222 644.682  1.00  0.00    -0.000 C 
BRANCH  10  11
ATOM     11  C   UNL     1     299.000 324.604 645.821  1.00  0.00    -0.000 C 
BRANCH  11  12
ATOM     12  C   UNL     1     299.294 323.837 647.120  1.00  0.00    -0.003 C 
ATOM     13  C   UNL     1     299.595 324.763 648.298  1.00  0.00     0.004 C 
ENDBRANCH  11  12
ENDBRANCH  10  11
ENDBRANCH   9  10
ENDBRANCH   8   9
ENDBRANCH   1   8
TORSDOF 9
ENDMDL
MODEL 8
REMARK VINA RESULT:    -3.878      3.325      6.346
REMARK INTER + INTRA:          -6.397
REMARK INTER:                  -5.373
REMARK INTRA:                  -1.024
REMARK UNBOUND:                -0.478
REMARK SMILES CCCCCCCCCCC(=O)[O-]
REMARK SMILES IDX 7 1 8 2 9 3 10 4 11 5 12 6 13 7 6 8 5 9 4 10 3 11 2 12 1 13
REMARK H PARENT
REMARK Flexibility Score: inf
ROOT
ATOM      1  C   UNL     1     299.284 323.766 647.497  1.00  0.00     0.000 C 
ENDROOT
BRANCH   1   2
ATOM      2  C   UNL     1     300.612 324.441 647.869  1.00  0.00     0.000 C 
BRANCH   2   3
ATOM      3  C   UNL     1     301.845 323.600 647.488  1.00  0.00     0.006 C 
BRANCH   3   4
ATOM      4  C   UNL     1     303.083 323.878 648.358  1.00  0.00     0.053 C 
BRANCH   4   5
ATOM      5  C   UNL     1     304.222 322.949 648.059  1.00  0.00     0.041 C 
ATOM      6  O   UNL     1     304.212 321.769 648.501  1.00  0.00    -0.550 OA
ATOM      7  O   UNL     1     305.309 323.396 647.320  1.00  0.00    -0.550 OA
ENDBRANCH   4   5
ENDBRANCH   3   4
ENDBRANCH   2   3
ENDBRANCH   1   2
BRANCH   1   8
ATOM      8  C   UNL     1     298.875 324.112 646.060  1.00  0.00     0.000 C 
BRANCH   8   9
ATOM      9  C   UNL     1     299.027 325.614 645.791  1.00  0.00    -0.000 C 
BRANCH   9  10
ATOM     10  C   UNL     1     299.720 325.867 644.446  1.00  0.00    -0.000 C 
BRANCH  10  11
ATOM     11  C   UNL     1     300.651 324.702 644.081  1.00  0.00    -0.000 C 
BRANCH  11  12
ATOM     12  C   UNL     1     302.082 325.166 643.771  1.00  0.00    -0.003 C 
ATOM     13  C   UNL     1     302.732 325.901 644.943  1.00  0.00     0.004 C 
ENDBRANCH  11  12
ENDBRANCH  10  11
ENDBRANCH   9  10
ENDBRANCH   8   9
ENDBRANCH   1   8
TORSDOF 9
ENDMDL
MODEL 9
REMARK VINA RESULT:    -3.806      3.443      5.873
REMARK INTER + INTRA:          -6.286
REMARK INTER:                  -4.979
REMARK INTRA:                  -1.307
REMARK UNBOUND:                -0.478
REMARK SMILES CCCCCCCCCCC(=O)[O-]
REMARK SMILES IDX 7 1 8 2 9 3 10 4 11 5 12 6 13 7 6 8 5 9 4 10 3 11 2 12 1 13
REMARK H PARENT
REMARK Flexibility Score: inf
ROOT
ATOM      1  C   UNL     1     302.037 324.581 647.616  1.00  0.00     0.000 C 
ENDROOT
BRANCH   1   2
ATOM      2  C   UNL     1     303.076 324.276 646.528  1.00  0.00     0.000 C 
BRANCH   2   3
ATOM      3  C   UNL     1     302.661 324.785 645.135  1.00  0.00     0.006 C 
BRANCH   3   4
ATOM      4  C   UNL     1     302.484 323.670 644.090  1.00  0.00     0.053 C 
BRANCH   4   5
ATOM      5  C   UNL     1     301.534 324.048 642.993  1.00  0.00     0.041 C 
ATOM      6  O   UNL     1     300.770 323.184 642.487  1.00  0.00    -0.550 OA
ATOM      7  O   UNL     1     301.516 325.350 642.508  1.00  0.00    -0.550 OA
ENDBRANCH   4   5
ENDBRANCH   3   4
ENDBRANCH   2   3
ENDBRANCH   1   2
BRANCH   1   8
ATOM      8  C   UNL     1     300.826 323.647 647.497  1.00  0.00     0.000 C 
BRANCH   8   9
ATOM      9  C   UNL     1     299.540 324.443 647.243  1.00  0.00    -0.000 C 
BRANCH   9  10
ATOM     10  C   UNL     1     299.108 324.338 645.775  1.00  0.00    -0.000 C 
BRANCH  10  11
ATOM     11  C   UNL     1     298.876 325.730 645.171  1.00  0.00    -0.000 C 
BRANCH  11  12
ATOM     12  C   UNL     1     299.293 326.863 646.121  1.00  0.00    -0.003 C 
ATOM     13  C   UNL     1     300.524 327.624 645.629  1.00  0.00     0.004 C 
ENDBRANCH  11  12
ENDBRANCH  10  11
ENDBRANCH   9  10
ENDBRANCH   8   9
ENDBRANCH   1   8
TORSDOF 9
ENDMDL
