MODEL 1
REMARK VINA RESULT:    -2.593      0.000      0.000
REMARK INTER + INTRA:          -3.377
REMARK INTER:                  -3.276
REMARK INTRA:                  -0.102
REMARK UNBOUND:                -0.102
REMARK SMILES CCCCC[C@@H](C)O
REMARK SMILES IDX 4 1 3 2 2 3 1 4 5 5 6 6 7 7 8 8
REMARK H PARENT 8 9
REMARK Flexibility Score: inf
ROOT
ATOM      1  C   UNL     1     127.876 126.775 117.120  1.00  0.00     0.003 C 
ENDROOT
BRANCH   1   2
ATOM      2  C   UNL     1     127.009 127.917 117.678  1.00  0.00    -0.000 C 
BRANCH   2   3
ATOM      3  C   UNL     1     125.941 127.418 118.664  1.00  0.00    -0.003 C 
ATOM      4  C   UNL     1     124.659 128.247 118.612  1.00  0.00     0.004 C 
ENDBRANCH   2   3
ENDBRANCH   1   2
BRANCH   1   5
ATOM      5  C   UNL     1     127.892 126.724 115.582  1.00  0.00     0.031 C 
BRANCH   5   6
ATOM      6  C   UNL     1     128.390 125.378 115.019  1.00  0.00     0.111 C 
ATOM      7  C   UNL     1     129.424 124.754 115.959  1.00  0.00     0.038 C 
BRANCH   6   8
ATOM      8  O   UNL     1     127.307 124.495 114.875  1.00  0.00    -0.393 OA
ATOM      9  H   UNL     1     127.679 123.635 114.546  1.00  0.00     0.210 HD
ENDBRANCH   6   8
ENDBRANCH   5   6
ENDBRANCH   1   5
TORSDOF 5
ENDMDL
MODEL 2
REMARK VINA RESULT:    -2.577     20.980     21.651
REMARK INTER + INTRA:          -3.356
REMARK INTER:                  -3.145
REMARK INTRA:                  -0.211
REMARK UNBOUND:                -0.102
REMARK SMILES CCCCC[C@@H](C)O
REMARK SMILES IDX 4 1 3 2 2 3 1 4 5 5 6 6 7 7 8 8
REMARK H PARENT 8 9
REMARK Flexibility Score: inf
ROOT
ATOM      1  C   UNL     1     110.268 111.692 116.920  1.00  0.00     0.003 C 
ENDROOT
BRANCH   1   2
ATOM      2  C   UNL     1     111.111 110.827 117.874  1.00  0.00    -0.000 C 
BRANCH   2   3
ATOM      3  C   UNL     1     112.599 111.207 117.853  1.00  0.00    -0.003 C 
ATOM      4  C   UNL     1     113.487 110.141 118.494  1.00  0.00     0.004 C 
ENDBRANCH   2   3
ENDBRANCH   1   2
BRANCH   1   5
ATOM      5  C   UNL     1     111.078 112.249 115.735  1.00  0.00     0.031 C 
BRANCH   5   6
ATOM      6  C   UNL     1     110.642 113.665 115.307  1.00  0.00     0.111 C 
ATOM      7  C   UNL     1     109.983 114.399 116.478  1.00  0.00     0.038 C 
BRANCH   6   8
ATOM      8  O   UNL     1     111.761 114.395 114.877  1.00  0.00    -0.393 OA
ATOM      9  H   UNL     1     111.923 114.143 113.931  1.00  0.00     0.210 HD
ENDBRANCH   6   8
ENDBRANCH   5   6
ENDBRANCH   1   5
TORSDOF 5
ENDMDL
MODEL 3
REMARK VINA RESULT:    -2.527      1.293      2.486
REMARK INTER + INTRA:          -3.294
REMARK INTER:                  -3.039
REMARK INTRA:                  -0.255
REMARK UNBOUND:                -0.102
REMARK SMILES CCCCC[C@@H](C)O
REMARK SMILES IDX 4 1 3 2 2 3 1 4 5 5 6 6 7 7 8 8
REMARK H PARENT 8 9
REMARK Flexibility Score: inf
ROOT
ATOM      1  C   UNL     1     128.429 125.434 114.917  1.00  0.00     0.003 C 
ENDROOT
BRANCH   1   2
ATOM      2  C   UNL     1     127.901 126.741 115.534  1.00  0.00    -0.000 C 
BRANCH   2   3
ATOM      3  C   UNL     1     127.921 126.718 117.069  1.00  0.00    -0.003 C 
ATOM      4  C   UNL     1     126.911 127.685 117.686  1.00  0.00     0.004 C 
ENDBRANCH   2   3
ENDBRANCH   1   2
BRANCH   1   5
ATOM      5  C   UNL     1     129.178 124.548 115.928  1.00  0.00     0.031 C 
BRANCH   5   6
ATOM      6  C   UNL     1     128.595 123.126 116.047  1.00  0.00     0.111 C 
ATOM      7  C   UNL     1     128.347 122.771 117.515  1.00  0.00     0.038 C 
BRANCH   6   8
ATOM      8  O   UNL     1     127.382 123.051 115.343  1.00  0.00    -0.393 OA
ATOM      9  H   UNL     1     127.350 123.839 114.741  1.00  0.00     0.210 HD
ENDBRANCH   6   8
ENDBRANCH   5   6
ENDBRANCH   1   5
TORSDOF 5
ENDMDL
MODEL 4
REMARK VINA RESULT:    -2.517     12.062     13.914
REMARK INTER + INTRA:          -3.281
REMARK INTER:                  -3.067
REMARK INTRA:                  -0.214
REMARK UNBOUND:                -0.102
REMARK SMILES CCCCC[C@@H](C)O
REMARK SMILES IDX 4 1 3 2 2 3 1 4 5 5 6 6 7 7 8 8
REMARK H PARENT 8 9
REMARK Flexibility Score: inf
ROOT
ATOM      1  C   UNL     1     113.164 127.859 115.238  1.00  0.00     0.003 C 
ENDROOT
BRANCH   1   2
ATOM      2  C   UNL     1     111.965 128.238 116.125  1.00  0.00    -0.000 C 
BRANCH   2   3
ATOM      3  C   UNL     1     112.093 127.690 117.554  1.00  0.00    -0.003 C 
ATOM      4  C   UNL     1     111.127 126.539 117.832  1.00  0.00     0.004 C 
ENDBRANCH   2   3
ENDBRANCH   1   2
BRANCH   1   5
ATOM      5  C   UNL     1     114.159 129.016 115.040  1.00  0.00     0.031 C 
BRANCH   5   6
ATOM      6  C   UNL     1     115.561 128.725 115.611  1.00  0.00     0.111 C 
ATOM      7  C   UNL     1     115.574 128.930 117.128  1.00  0.00     0.038 C 
BRANCH   6   8
ATOM      8  O   UNL     1     115.923 127.399 115.322  1.00  0.00    -0.393 OA
ATOM      9  H   UNL     1     116.367 127.409 114.435  1.00  0.00     0.210 HD
ENDBRANCH   6   8
ENDBRANCH   5   6
ENDBRANCH   1   5
TORSDOF 5
ENDMDL
MODEL 5
REMARK VINA RESULT:    -2.474      2.713      4.372
REMARK INTER + INTRA:          -3.226
REMARK INTER:                  -3.053
REMARK INTRA:                  -0.174
REMARK UNBOUND:                -0.102
REMARK SMILES CCCCC[C@@H](C)O
REMARK SMILES IDX 4 1 3 2 2 3 1 4 5 5 6 6 7 7 8 8
REMARK H PARENT 8 9
REMARK Flexibility Score: inf
ROOT
ATOM      1  C   UNL     1     128.721 123.229 116.258  1.00  0.00     0.003 C 
ENDROOT
BRANCH   1   2
ATOM      2  C   UNL     1     129.111 124.388 115.325  1.00  0.00    -0.000 C 
BRANCH   2   3
ATOM      3  C   UNL     1     127.917 125.289 114.974  1.00  0.00    -0.003 C 
ATOM      4  C   UNL     1     128.045 126.693 115.564  1.00  0.00     0.004 C 
ENDBRANCH   2   3
ENDBRANCH   1   2
BRANCH   1   5
ATOM      5  C   UNL     1     128.610 121.878 115.528  1.00  0.00     0.031 C 
BRANCH   5   6
ATOM      6  C   UNL     1     127.191 121.276 115.566  1.00  0.00     0.111 C 
ATOM      7  C   UNL     1     126.763 121.006 117.010  1.00  0.00     0.038 C 
BRANCH   6   8
ATOM      8  O   UNL     1     126.282 122.169 114.975  1.00  0.00    -0.393 OA
ATOM      9  H   UNL     1     126.570 122.290 114.033  1.00  0.00     0.210 HD
ENDBRANCH   6   8
ENDBRANCH   5   6
ENDBRANCH   1   5
TORSDOF 5
ENDMDL
MODEL 6
REMARK VINA RESULT:    -2.468     13.344     14.845
REMARK INTER + INTRA:          -3.219
REMARK INTER:                  -3.115
REMARK INTRA:                  -0.104
REMARK UNBOUND:                -0.102
REMARK SMILES CCCCC[C@@H](C)O
REMARK SMILES IDX 4 1 3 2 2 3 1 4 5 5 6 6 7 7 8 8
REMARK H PARENT 8 9
REMARK Flexibility Score: inf
ROOT
ATOM      1  C   UNL     1     126.768 111.338 117.446  1.00  0.00     0.003 C 
ENDROOT
BRANCH   1   2
ATOM      2  C   UNL     1     127.886 112.315 117.847  1.00  0.00    -0.000 C 
BRANCH   2   3
ATOM      3  C   UNL     1     127.440 113.307 118.932  1.00  0.00    -0.003 C 
ATOM      4  C   UNL     1     127.967 114.721 118.689  1.00  0.00     0.004 C 
ENDBRANCH   2   3
ENDBRANCH   1   2
BRANCH   1   5
ATOM      5  C   UNL     1     126.810 110.950 115.956  1.00  0.00     0.031 C 
BRANCH   5   6
ATOM      6  C   UNL     1     125.420 110.642 115.364  1.00  0.00     0.111 C 
ATOM      7  C   UNL     1     124.505 110.038 116.433  1.00  0.00     0.038 C 
BRANCH   6   8
ATOM      8  O   UNL     1     124.840 111.824 114.876  1.00  0.00    -0.393 OA
ATOM      9  H   UNL     1     124.013 111.561 114.395  1.00  0.00     0.210 HD
ENDBRANCH   6   8
ENDBRANCH   5   6
ENDBRANCH   1   5
TORSDOF 5
ENDMDL
MODEL 7
REMARK VINA RESULT:    -2.462      1.237      1.421
REMARK INTER + INTRA:          -3.212
REMARK INTER:                  -3.128
REMARK INTRA:                  -0.084
REMARK UNBOUND:                -0.102
REMARK SMILES CCCCC[C@@H](C)O
REMARK SMILES IDX 4 1 3 2 2 3 1 4 5 5 6 6 7 7 8 8
REMARK H PARENT 8 9
REMARK Flexibility Score: inf
ROOT
ATOM      1  C   UNL     1     127.325 127.248 117.492  1.00  0.00     0.003 C 
ENDROOT
BRANCH   1   2
ATOM      2  C   UNL     1     127.074 128.429 118.445  1.00  0.00    -0.000 C 
BRANCH   2   3
ATOM      3  C   UNL     1     125.644 128.980 118.336  1.00  0.00    -0.003 C 
ATOM      4  C   UNL     1     124.638 128.173 119.156  1.00  0.00     0.004 C 
ENDBRANCH   2   3
ENDBRANCH   1   2
BRANCH   1   5
ATOM      5  C   UNL     1     128.717 127.286 116.835  1.00  0.00     0.031 C 
BRANCH   5   6
ATOM      6  C   UNL     1     128.705 126.873 115.350  1.00  0.00     0.111 C 
ATOM      7  C   UNL     1     129.331 125.487 115.175  1.00  0.00     0.038 C 
BRANCH   6   8
ATOM      8  O   UNL     1     127.383 126.844 114.877  1.00  0.00    -0.393 OA
ATOM      9  H   UNL     1     127.100 127.787 114.757  1.00  0.00     0.210 HD
ENDBRANCH   6   8
ENDBRANCH   5   6
ENDBRANCH   1   5
TORSDOF 5
ENDMDL
MODEL 8
REMARK VINA RESULT:    -2.427     15.181     15.811
REMARK INTER + INTRA:          -3.167
REMARK INTER:                  -3.072
REMARK INTRA:                  -0.095
REMARK UNBOUND:                -0.102
REMARK SMILES CCCCC[C@@H](C)O
REMARK SMILES IDX 4 1 3 2 2 3 1 4 5 5 6 6 7 7 8 8
REMARK H PARENT 8 9
REMARK Flexibility Score: inf
ROOT
ATOM      1  C   UNL     1     111.784 126.772 117.956  1.00  0.00     0.003 C 
ENDROOT
BRANCH   1   2
ATOM      2  C   UNL     1     110.494 125.972 118.203  1.00  0.00    -0.000 C 
BRANCH   2   3
ATOM      3  C   UNL     1     110.771 124.538 118.681  1.00  0.00    -0.003 C 
ATOM      4  C   UNL     1     112.165 124.380 119.288  1.00  0.00     0.004 C 
ENDBRANCH   2   3
ENDBRANCH   1   2
BRANCH   1   5
ATOM      5  C   UNL     1     111.564 128.020 117.083  1.00  0.00     0.031 C 
BRANCH   5   6
ATOM      6  C   UNL     1     112.258 127.937 115.709  1.00  0.00     0.111 C 
ATOM      7  C   UNL     1     112.219 129.296 115.007  1.00  0.00     0.038 C 
BRANCH   6   8
ATOM      8  O   UNL     1     113.595 127.542 115.876  1.00  0.00    -0.393 OA
ATOM      9  H   UNL     1     113.588 126.564 116.041  1.00  0.00     0.210 HD
ENDBRANCH   6   8
ENDBRANCH   5   6
ENDBRANCH   1   5
TORSDOF 5
ENDMDL
MODEL 9
REMARK VINA RESULT:    -1.278     13.257     15.131
REMARK INTER + INTRA:          -1.716
REMARK INTER:                  -1.475
REMARK INTRA:                  -0.240
REMARK UNBOUND:                -0.102
REMARK SMILES CCCCC[C@@H](C)O
REMARK SMILES IDX 4 1 3 2 2 3 1 4 5 5 6 6 7 7 8 8
REMARK H PARENT 8 9
REMARK Flexibility Score: inf
ROOT
ATOM      1  C   UNL     1     111.710 129.037 116.468  1.00  0.00     0.003 C 
ENDROOT
BRANCH   1   2
ATOM      2  C   UNL     1     110.967 128.323 117.610  1.00  0.00    -0.000 C 
BRANCH   2   3
ATOM      3  C   UNL     1     111.315 126.830 117.696  1.00  0.00    -0.003 C 
ATOM      4  C   UNL     1     110.216 126.006 118.365  1.00  0.00     0.004 C 
ENDBRANCH   2   3
ENDBRANCH   1   2
BRANCH   1   5
ATOM      5  C   UNL     1     112.353 128.064 115.463  1.00  0.00     0.031 C 
BRANCH   5   6
ATOM      6  C   UNL     1     113.819 128.407 115.130  1.00  0.00     0.111 C 
ATOM      7  C   UNL     1     114.473 129.149 116.298  1.00  0.00     0.038 C 
BRANCH   6   8
ATOM      8  O   UNL     1     114.535 127.226 114.875  1.00  0.00    -0.393 OA
ATOM      9  H   UNL     1     114.605 127.140 113.889  1.00  0.00     0.210 HD
ENDBRANCH   6   8
ENDBRANCH   5   6
ENDBRANCH   1   5
TORSDOF 5
ENDMDL
