MODEL 1
REMARK VINA RESULT:    -5.501      0.000      0.000
REMARK INTER + INTRA:          -9.274
REMARK INTER:                  -7.753
REMARK INTRA:                  -1.522
REMARK UNBOUND:                -1.522
REMARK SMILES C=CC(=C)CCC=C(C)CCC=C(C)C
REMARK SMILES IDX 8 1 7 2 9 3 10 4 11 5 12 6 14 7 13 8 15 9 6 10 5 11 3 12
REMARK SMILES IDX 4 13 2 14 1 15
REMARK H PARENT
REMARK Flexibility Score: inf
ROOT
ATOM      1  C   UNL     1     105.650 104.420 128.198  1.00  0.00    -0.077 C 
ATOM      2  C   UNL     1     104.863 103.336 128.390  1.00  0.00    -0.028 C 
ATOM      3  C   UNL     1     105.255 105.407 127.130  1.00  0.00     0.039 C 
ENDROOT
BRANCH   1   4
ATOM      4  C   UNL     1     106.869 104.717 129.048  1.00  0.00     0.034 C 
BRANCH   4   5
ATOM      5  C   UNL     1     108.149 104.274 128.330  1.00  0.00     0.032 C 
BRANCH   5   6
ATOM      6  C   UNL     1     109.380 104.700 129.092  1.00  0.00    -0.028 C 
ATOM      7  C   UNL     1     111.652 105.604 129.351  1.00  0.00     0.039 C 
ATOM      8  C   UNL     1     110.477 105.211 128.494  1.00  0.00    -0.080 C 
ATOM      9  C   UNL     1     110.546 105.396 126.996  1.00  0.00     0.039 C 
ENDBRANCH   5   6
ENDBRANCH   4   5
ENDBRANCH   1   4
BRANCH   2  10
ATOM     10  C   UNL     1     105.132 102.241 129.394  1.00  0.00     0.032 C 
BRANCH  10  11
ATOM     11  C   UNL     1     105.404 100.894 128.707  1.00  0.00     0.039 C 
BRANCH  11  12
ATOM     12  C   UNL     1     106.863 100.735 128.330  1.00  0.00    -0.055 C 
ATOM     13  C   UNL     1     107.772 100.574 129.298  1.00  0.00     0.012 C 
BRANCH  12  14
ATOM     14  C   UNL     1     107.329 100.792 126.919  1.00  0.00    -0.005 C 
ATOM     15  C   UNL     1     106.563 101.173 125.895  1.00  0.00     0.009 C 
ENDBRANCH  12  14
ENDBRANCH  11  12
ENDBRANCH  10  11
ENDBRANCH   2  10
TORSDOF 7
ENDMDL
MODEL 2
REMARK VINA RESULT:    -5.476      3.495      6.125
REMARK INTER + INTRA:          -9.239
REMARK INTER:                  -7.652
REMARK INTRA:                  -1.587
REMARK UNBOUND:                -1.522
REMARK SMILES C=CC(=C)CCC=C(C)CCC=C(C)C
REMARK SMILES IDX 8 1 7 2 9 3 10 4 11 5 12 6 14 7 13 8 15 9 6 10 5 11 3 12
REMARK SMILES IDX 4 13 2 14 1 15
REMARK H PARENT
REMARK Flexibility Score: inf
ROOT
ATOM      1  C   UNL     1     108.171 105.825 127.911  1.00  0.00    -0.077 C 
ATOM      2  C   UNL     1     109.172 104.941 128.131  1.00  0.00    -0.028 C 
ATOM      3  C   UNL     1     107.249 105.583 126.745  1.00  0.00     0.039 C 
ENDROOT
BRANCH   1   4
ATOM      4  C   UNL     1     107.898 107.007 128.821  1.00  0.00     0.034 C 
BRANCH   4   5
ATOM      5  C   UNL     1     108.202 108.324 128.098  1.00  0.00     0.032 C 
BRANCH   5   6
ATOM      6  C   UNL     1     107.815 109.514 128.943  1.00  0.00    -0.028 C 
ATOM      7  C   UNL     1     106.905 111.759 129.365  1.00  0.00     0.039 C 
ATOM      8  C   UNL     1     107.253 110.629 128.431  1.00  0.00    -0.080 C 
ATOM      9  C   UNL     1     106.968 110.764 126.954  1.00  0.00     0.039 C 
ENDBRANCH   5   6
ENDBRANCH   4   5
ENDBRANCH   1   4
BRANCH   2  10
ATOM     10  C   UNL     1     110.197 105.054 129.233  1.00  0.00     0.032 C 
BRANCH  10  11
ATOM     11  C   UNL     1     111.591 105.386 128.681  1.00  0.00     0.039 C 
BRANCH  11  12
ATOM     12  C   UNL     1     111.746 106.865 128.388  1.00  0.00    -0.055 C 
ATOM     13  C   UNL     1     111.767 107.732 129.407  1.00  0.00     0.012 C 
BRANCH  12  14
ATOM     14  C   UNL     1     111.838 107.394 127.002  1.00  0.00    -0.005 C 
ATOM     15  C   UNL     1     111.333 106.776 125.932  1.00  0.00     0.009 C 
ENDBRANCH  12  14
ENDBRANCH  11  12
ENDBRANCH  10  11
ENDBRANCH   2  10
TORSDOF 7
ENDMDL
MODEL 3
REMARK VINA RESULT:    -5.445      3.400      6.020
REMARK INTER + INTRA:          -9.194
REMARK INTER:                  -7.579
REMARK INTRA:                  -1.616
REMARK UNBOUND:                -1.522
REMARK SMILES C=CC(=C)CCC=C(C)CCC=C(C)C
REMARK SMILES IDX 8 1 7 2 9 3 10 4 11 5 12 6 14 7 13 8 15 9 6 10 5 11 3 12
REMARK SMILES IDX 4 13 2 14 1 15
REMARK H PARENT
REMARK Flexibility Score: inf
ROOT
ATOM      1  C   UNL     1     104.416 106.871 127.960  1.00  0.00    -0.077 C 
ATOM      2  C   UNL     1     103.369 107.679 128.246  1.00  0.00    -0.028 C 
ATOM      3  C   UNL     1     105.335 107.266 126.834  1.00  0.00     0.039 C 
ENDROOT
BRANCH   1   4
ATOM      4  C   UNL     1     104.742 105.626 128.762  1.00  0.00     0.034 C 
BRANCH   4   5
ATOM      5  C   UNL     1     104.387 104.365 127.966  1.00  0.00     0.032 C 
BRANCH   5   6
ATOM      6  C   UNL     1     104.602 103.119 128.791  1.00  0.00    -0.028 C 
ATOM      7  C   UNL     1     105.398 100.834 129.231  1.00  0.00     0.039 C 
ATOM      8  C   UNL     1     105.238 102.025 128.322  1.00  0.00    -0.080 C 
ATOM      9  C   UNL     1     105.787 101.973 126.916  1.00  0.00     0.039 C 
ENDBRANCH   5   6
ENDBRANCH   4   5
ENDBRANCH   1   4
BRANCH   2  10
ATOM     10  C   UNL     1     102.342 107.414 129.321  1.00  0.00     0.032 C 
BRANCH  10  11
ATOM     11  C   UNL     1     100.967 107.081 128.722  1.00  0.00     0.039 C 
BRANCH  11  12
ATOM     12  C   UNL     1     100.849 105.615 128.356  1.00  0.00    -0.055 C 
ATOM     13  C   UNL     1     100.779 104.703 129.333  1.00  0.00     0.012 C 
BRANCH  12  14
ATOM     14  C   UNL     1     100.848 105.147 126.945  1.00  0.00    -0.005 C 
ATOM     15  C   UNL     1     101.074 105.939 125.896  1.00  0.00     0.009 C 
ENDBRANCH  12  14
ENDBRANCH  11  12
ENDBRANCH  10  11
ENDBRANCH   2  10
TORSDOF 7
ENDMDL
MODEL 4
REMARK VINA RESULT:    -5.423      4.971      8.531
REMARK INTER + INTRA:          -9.164
REMARK INTER:                  -7.598
REMARK INTRA:                  -1.566
REMARK UNBOUND:                -1.522
REMARK SMILES C=CC(=C)CCC=C(C)CCC=C(C)C
REMARK SMILES IDX 8 1 7 2 9 3 10 4 11 5 12 6 14 7 13 8 15 9 6 10 5 11 3 12
REMARK SMILES IDX 4 13 2 14 1 15
REMARK H PARENT
REMARK Flexibility Score: inf
ROOT
ATOM      1  C   UNL     1     106.708 108.049 128.043  1.00  0.00    -0.077 C 
ATOM      2  C   UNL     1     107.601 109.052 128.205  1.00  0.00    -0.028 C 
ATOM      3  C   UNL     1     106.988 107.008 126.991  1.00  0.00     0.039 C 
ENDROOT
BRANCH   1   4
ATOM      4  C   UNL     1     105.477 107.891 128.914  1.00  0.00     0.034 C 
BRANCH   4   5
ATOM      5  C   UNL     1     104.208 107.869 128.055  1.00  0.00     0.032 C 
BRANCH   5   6
ATOM      6  C   UNL     1     102.981 107.617 128.897  1.00  0.00    -0.028 C 
ATOM      7  C   UNL     1     100.634 107.008 129.309  1.00  0.00     0.039 C 
ATOM      8  C   UNL     1     101.796 107.232 128.377  1.00  0.00    -0.080 C 
ATOM      9  C   UNL     1     101.617 107.024 126.892  1.00  0.00     0.039 C 
ENDBRANCH   5   6
ENDBRANCH   4   5
ENDBRANCH   1   4
BRANCH   2  10
ATOM     10  C   UNL     1     107.457 110.187 129.190  1.00  0.00     0.032 C 
BRANCH  10  11
ATOM     11  C   UNL     1     107.072 111.501 128.491  1.00  0.00     0.039 C 
BRANCH  11  12
ATOM     12  C   UNL     1     105.576 111.610 128.275  1.00  0.00    -0.055 C 
ATOM     13  C   UNL     1     104.776 111.781 129.333  1.00  0.00     0.012 C 
BRANCH  12  14
ATOM     14  C   UNL     1     104.959 111.494 126.928  1.00  0.00    -0.005 C 
ATOM     15  C   UNL     1     105.589 111.007 125.857  1.00  0.00     0.009 C 
ENDBRANCH  12  14
ENDBRANCH  11  12
ENDBRANCH  10  11
ENDBRANCH   2  10
TORSDOF 7
ENDMDL
MODEL 5
REMARK VINA RESULT:    -5.399      4.803      6.673
REMARK INTER + INTRA:          -9.130
REMARK INTER:                  -7.883
REMARK INTRA:                  -1.247
REMARK UNBOUND:                -1.522
REMARK SMILES C=CC(=C)CCC=C(C)CCC=C(C)C
REMARK SMILES IDX 8 1 7 2 9 3 10 4 11 5 12 6 14 7 13 8 15 9 6 10 5 11 3 12
REMARK SMILES IDX 4 13 2 14 1 15
REMARK H PARENT
REMARK Flexibility Score: inf
ROOT
ATOM      1  C   UNL     1     102.933 107.567 125.259  1.00  0.00    -0.077 C 
ATOM      2  C   UNL     1     101.815 106.892 124.904  1.00  0.00    -0.028 C 
ATOM      3  C   UNL     1     103.847 108.058 124.167  1.00  0.00     0.039 C 
ENDROOT
BRANCH   1   4
ATOM      4  C   UNL     1     103.270 107.907 126.698  1.00  0.00     0.034 C 
BRANCH   4   5
ATOM      5  C   UNL     1     104.583 108.695 126.771  1.00  0.00     0.032 C 
BRANCH   5   6
ATOM      6  C   UNL     1     104.603 109.615 127.968  1.00  0.00    -0.028 C 
ATOM      7  C   UNL     1     104.813 111.771 129.132  1.00  0.00     0.039 C 
ATOM      8  C   UNL     1     104.813 110.945 127.872  1.00  0.00    -0.080 C 
ATOM      9  C   UNL     1     105.044 111.613 126.537  1.00  0.00     0.039 C 
ENDBRANCH   5   6
ENDBRANCH   4   5
ENDBRANCH   1   4
BRANCH   2  10
ATOM     10  C   UNL     1     100.813 106.310 125.872  1.00  0.00     0.032 C 
BRANCH  10  11
ATOM     11  C   UNL     1     101.194 104.883 126.295  1.00  0.00     0.039 C 
BRANCH  11  12
ATOM     12  C   UNL     1     101.539 104.803 127.769  1.00  0.00    -0.055 C 
ATOM     13  C   UNL     1     100.616 105.148 128.674  1.00  0.00     0.012 C 
BRANCH  12  14
ATOM     14  C   UNL     1     102.885 104.391 128.248  1.00  0.00    -0.005 C 
ATOM     15  C   UNL     1     103.992 104.454 127.507  1.00  0.00     0.009 C 
ENDBRANCH  12  14
ENDBRANCH  11  12
ENDBRANCH  10  11
ENDBRANCH   2  10
TORSDOF 7
ENDMDL
MODEL 6
REMARK VINA RESULT:    -5.368      2.027      6.382
REMARK INTER + INTRA:          -9.086
REMARK INTER:                  -7.881
REMARK INTRA:                  -1.205
REMARK UNBOUND:                -1.522
REMARK SMILES C=CC(=C)CCC=C(C)CCC=C(C)C
REMARK SMILES IDX 8 1 7 2 9 3 10 4 11 5 12 6 14 7 13 8 15 9 6 10 5 11 3 12
REMARK SMILES IDX 4 13 2 14 1 15
REMARK H PARENT
REMARK Flexibility Score: inf
ROOT
ATOM      1  C   UNL     1     109.279 104.686 125.426  1.00  0.00    -0.077 C 
ATOM      2  C   UNL     1     110.349 105.391 124.992  1.00  0.00    -0.028 C 
ATOM      3  C   UNL     1     108.321 104.139 124.400  1.00  0.00     0.039 C 
ENDROOT
BRANCH   1   4
ATOM      4  C   UNL     1     109.038 104.367 126.889  1.00  0.00     0.034 C 
BRANCH   4   5
ATOM      5  C   UNL     1     107.648 103.751 127.084  1.00  0.00     0.032 C 
BRANCH   5   6
ATOM      6  C   UNL     1     107.653 102.732 128.198  1.00  0.00    -0.028 C 
ATOM      7  C   UNL     1     107.582 100.473 129.166  1.00  0.00     0.039 C 
ATOM      8  C   UNL     1     107.569 101.402 127.981  1.00  0.00    -0.080 C 
ATOM      9  C   UNL     1     107.464 100.836 126.585  1.00  0.00     0.039 C 
ENDBRANCH   5   6
ENDBRANCH   4   5
ENDBRANCH   1   4
BRANCH   2  10
ATOM     10  C   UNL     1     111.383 106.030 125.887  1.00  0.00     0.032 C 
BRANCH  10  11
ATOM     11  C   UNL     1     111.037 107.493 126.203  1.00  0.00     0.039 C 
BRANCH  11  12
ATOM     12  C   UNL     1     110.279 107.625 127.509  1.00  0.00    -0.055 C 
ATOM     13  C   UNL     1     109.065 108.189 127.503  1.00  0.00     0.012 C 
BRANCH  12  14
ATOM     14  C   UNL     1     110.853 107.186 128.808  1.00  0.00    -0.005 C 
ATOM     15  C   UNL     1     112.000 107.645 129.310  1.00  0.00     0.009 C 
ENDBRANCH  12  14
ENDBRANCH  11  12
ENDBRANCH  10  11
ENDBRANCH   2  10
TORSDOF 7
ENDMDL
MODEL 7
REMARK VINA RESULT:    -5.321      5.500      8.163
REMARK INTER + INTRA:          -9.020
REMARK INTER:                  -7.465
REMARK INTRA:                  -1.555
REMARK UNBOUND:                -1.522
REMARK SMILES C=CC(=C)CCC=C(C)CCC=C(C)C
REMARK SMILES IDX 8 1 7 2 9 3 10 4 11 5 12 6 14 7 13 8 15 9 6 10 5 11 3 12
REMARK SMILES IDX 4 13 2 14 1 15
REMARK H PARENT
REMARK Flexibility Score: inf
ROOT
ATOM      1  C   UNL     1     102.209 106.211 128.881  1.00  0.00    -0.077 C 
ATOM      2  C   UNL     1     102.602 107.479 129.145  1.00  0.00    -0.028 C 
ATOM      3  C   UNL     1     100.791 105.822 129.209  1.00  0.00     0.039 C 
ENDROOT
BRANCH   1   4
ATOM      4  C   UNL     1     103.108 105.189 128.214  1.00  0.00     0.034 C 
BRANCH   4   5
ATOM      5  C   UNL     1     102.555 104.801 126.838  1.00  0.00     0.032 C 
BRANCH   5   6
ATOM      6  C   UNL     1     103.101 105.700 125.756  1.00  0.00    -0.028 C 
ATOM      7  C   UNL     1     102.999 107.473 124.054  1.00  0.00     0.039 C 
ATOM      8  C   UNL     1     102.352 106.628 125.121  1.00  0.00    -0.080 C 
ATOM      9  C   UNL     1     100.895 106.831 125.458  1.00  0.00     0.039 C 
ENDBRANCH   5   6
ENDBRANCH   4   5
ENDBRANCH   1   4
BRANCH   2  10
ATOM     10  C   UNL     1     103.991 108.020 128.905  1.00  0.00     0.032 C 
BRANCH  10  11
ATOM     11  C   UNL     1     104.102 108.716 127.540  1.00  0.00     0.039 C 
BRANCH  11  12
ATOM     12  C   UNL     1     104.666 110.117 127.664  1.00  0.00    -0.055 C 
ATOM     13  C   UNL     1     104.858 110.842 126.556  1.00  0.00     0.012 C 
BRANCH  12  14
ATOM     14  C   UNL     1     105.053 110.704 128.974  1.00  0.00    -0.005 C 
ATOM     15  C   UNL     1     104.834 111.975 129.316  1.00  0.00     0.009 C 
ENDBRANCH  12  14
ENDBRANCH  11  12
ENDBRANCH  10  11
ENDBRANCH   2  10
TORSDOF 7
ENDMDL
MODEL 8
REMARK VINA RESULT:    -5.248      1.784      4.504
REMARK INTER + INTRA:          -8.917
REMARK INTER:                  -7.442
REMARK INTRA:                  -1.475
REMARK UNBOUND:                -1.522
REMARK SMILES C=CC(=C)CCC=C(C)CCC=C(C)C
REMARK SMILES IDX 8 1 7 2 9 3 10 4 11 5 12 6 14 7 13 8 15 9 6 10 5 11 3 12
REMARK SMILES IDX 4 13 2 14 1 15
REMARK H PARENT
REMARK Flexibility Score: inf
ROOT
ATOM      1  C   UNL     1     111.158 105.666 129.229  1.00  0.00    -0.077 C 
ATOM      2  C   UNL     1     110.004 104.981 129.062  1.00  0.00    -0.028 C 
ATOM      3  C   UNL     1     112.390 104.900 129.636  1.00  0.00     0.039 C 
ENDROOT
BRANCH   1   4
ATOM      4  C   UNL     1     111.282 107.154 128.963  1.00  0.00     0.034 C 
BRANCH   4   5
ATOM      5  C   UNL     1     111.880 107.405 127.574  1.00  0.00     0.032 C 
BRANCH   5   6
ATOM      6  C   UNL     1     110.798 107.594 126.539  1.00  0.00    -0.028 C 
ATOM      7  C   UNL     1     109.425 106.973 124.596  1.00  0.00     0.039 C 
ATOM      8  C   UNL     1     110.528 106.683 125.580  1.00  0.00    -0.080 C 
ATOM      9  C   UNL     1     111.303 105.391 125.479  1.00  0.00     0.039 C 
ENDBRANCH   5   6
ENDBRANCH   4   5
ENDBRANCH   1   4
BRANCH   2  10
ATOM     10  C   UNL     1     108.679 105.599 128.686  1.00  0.00     0.032 C 
BRANCH  10  11
ATOM     11  C   UNL     1     107.529 104.586 128.791  1.00  0.00     0.039 C 
BRANCH  11  12
ATOM     12  C   UNL     1     107.724 103.410 127.855  1.00  0.00    -0.055 C 
ATOM     13  C   UNL     1     107.935 103.640 126.554  1.00  0.00     0.012 C 
BRANCH  12  14
ATOM     14  C   UNL     1     107.651 102.001 128.325  1.00  0.00    -0.005 C 
ATOM     15  C   UNL     1     107.486 100.952 127.517  1.00  0.00     0.009 C 
ENDBRANCH  12  14
ENDBRANCH  11  12
ENDBRANCH  10  11
ENDBRANCH   2  10
TORSDOF 7
ENDMDL
MODEL 9
REMARK VINA RESULT:    -5.214      4.957      7.443
REMARK INTER + INTRA:          -8.869
REMARK INTER:                  -7.327
REMARK INTRA:                  -1.542
REMARK UNBOUND:                -1.522
REMARK SMILES C=CC(=C)CCC=C(C)CCC=C(C)C
REMARK SMILES IDX 8 1 7 2 9 3 10 4 11 5 12 6 14 7 13 8 15 9 6 10 5 11 3 12
REMARK SMILES IDX 4 13 2 14 1 15
REMARK H PARENT
REMARK Flexibility Score: inf
ROOT
ATOM      1  C   UNL     1     106.888 111.069 129.198  1.00  0.00    -0.077 C 
ATOM      2  C   UNL     1     107.669 109.981 129.009  1.00  0.00    -0.028 C 
ATOM      3  C   UNL     1     107.547 112.355 129.624  1.00  0.00     0.039 C 
ENDROOT
BRANCH   1   4
ATOM      4  C   UNL     1     105.394 111.068 128.939  1.00  0.00     0.034 C 
BRANCH   4   5
ATOM      5  C   UNL     1     105.080 111.729 127.592  1.00  0.00     0.032 C 
BRANCH   5   6
ATOM      6  C   UNL     1     104.887 110.697 126.508  1.00  0.00    -0.028 C 
ATOM      7  C   UNL     1     105.502 109.414 124.502  1.00  0.00     0.039 C 
ATOM      8  C   UNL     1     105.796 110.470 125.536  1.00  0.00    -0.080 C 
ATOM      9  C   UNL     1     107.089 111.247 125.468  1.00  0.00     0.039 C 
ENDBRANCH   5   6
ENDBRANCH   4   5
ENDBRANCH   1   4
BRANCH   2  10
ATOM     10  C   UNL     1     107.165 108.614 128.612  1.00  0.00     0.032 C 
BRANCH  10  11
ATOM     11  C   UNL     1     108.067 107.961 127.554  1.00  0.00     0.039 C 
BRANCH  11  12
ATOM     12  C   UNL     1     109.230 107.218 128.183  1.00  0.00    -0.055 C 
ATOM     13  C   UNL     1     109.016 106.016 128.729  1.00  0.00     0.012 C 
BRANCH  12  14
ATOM     14  C   UNL     1     110.598 107.797 128.250  1.00  0.00    -0.005 C 
ATOM     15  C   UNL     1     111.525 107.420 129.131  1.00  0.00     0.009 C 
ENDBRANCH  12  14
ENDBRANCH  11  12
ENDBRANCH  10  11
ENDBRANCH   2  10
TORSDOF 7
ENDMDL
