MODEL 1
REMARK VINA RESULT:    -5.222      0.000      0.000
REMARK INTER + INTRA:          -5.222
REMARK INTER:                  -5.222
REMARK INTRA:                   0.000
REMARK UNBOUND:                 0.000
REMARK SMILES c1ccc2ccccc2c1
REMARK SMILES IDX 2 1 1 2 10 3 9 4 8 5 7 6 6 7 5 8 4 9 3 10
REMARK H PARENT
REMARK Flexibility Score: inf
ROOT
ATOM      1  C   UNL     1      -6.175 -13.999   1.903  1.00  0.00     0.001 A 
ATOM      2  C   UNL     1      -7.547 -14.176   1.699  1.00  0.00     0.001 A 
ATOM      3  C   UNL     1      -8.011 -14.805   0.540  1.00  0.00     0.009 A 
ATOM      4  C   UNL     1      -7.101 -15.262  -0.425  1.00  0.00    -0.018 A 
ATOM      5  C   UNL     1      -7.553 -15.896  -1.593  1.00  0.00     0.009 A 
ATOM      6  C   UNL     1      -6.635 -16.347  -2.547  1.00  0.00     0.001 A 
ATOM      7  C   UNL     1      -5.264 -16.170  -2.343  1.00  0.00     0.001 A 
ATOM      8  C   UNL     1      -4.800 -15.541  -1.184  1.00  0.00     0.009 A 
ATOM      9  C   UNL     1      -5.710 -15.083  -0.219  1.00  0.00    -0.018 A 
ATOM     10  C   UNL     1      -5.258 -14.450   0.949  1.00  0.00     0.009 A 
ENDROOT
TORSDOF 0
ENDMDL
MODEL 2
REMARK VINA RESULT:    -5.199      0.068      4.018
REMARK INTER + INTRA:          -5.199
REMARK INTER:                  -5.199
REMARK INTRA:                   0.000
REMARK UNBOUND:                 0.000
REMARK SMILES c1ccc2ccccc2c1
REMARK SMILES IDX 2 1 1 2 10 3 9 4 8 5 7 6 6 7 5 8 4 9 3 10
REMARK H PARENT
REMARK Flexibility Score: inf
ROOT
ATOM      1  C   UNL     1      -6.733 -16.385  -2.512  1.00  0.00     0.001 A 
ATOM      2  C   UNL     1      -5.357 -16.207  -2.345  1.00  0.00     0.001 A 
ATOM      3  C   UNL     1      -4.863 -15.562  -1.206  1.00  0.00     0.009 A 
ATOM      4  C   UNL     1      -5.748 -15.091  -0.225  1.00  0.00    -0.018 A 
ATOM      5  C   UNL     1      -5.266 -14.443   0.923  1.00  0.00     0.009 A 
ATOM      6  C   UNL     1      -6.159 -13.977   1.893  1.00  0.00     0.001 A 
ATOM      7  C   UNL     1      -7.535 -14.155   1.726  1.00  0.00     0.001 A 
ATOM      8  C   UNL     1      -8.029 -14.800   0.588  1.00  0.00     0.009 A 
ATOM      9  C   UNL     1      -7.144 -15.271  -0.394  1.00  0.00    -0.018 A 
ATOM     10  C   UNL     1      -7.626 -15.919  -1.542  1.00  0.00     0.009 A 
ENDROOT
TORSDOF 0
ENDMDL
MODEL 3
REMARK VINA RESULT:    -5.189      0.089      2.082
REMARK INTER + INTRA:          -5.189
REMARK INTER:                  -5.189
REMARK INTRA:                   0.000
REMARK UNBOUND:                 0.000
REMARK SMILES c1ccc2ccccc2c1
REMARK SMILES IDX 2 1 1 2 10 3 9 4 8 5 7 6 6 7 5 8 4 9 3 10
REMARK H PARENT
REMARK Flexibility Score: inf
ROOT
ATOM      1  C   UNL     1      -7.512 -14.252   1.766  1.00  0.00     0.001 A 
ATOM      2  C   UNL     1      -6.139 -14.030   1.906  1.00  0.00     0.001 A 
ATOM      3  C   UNL     1      -5.253 -14.446   0.907  1.00  0.00     0.009 A 
ATOM      4  C   UNL     1      -5.739 -15.088  -0.242  1.00  0.00    -0.018 A 
ATOM      5  C   UNL     1      -4.861 -15.509  -1.253  1.00  0.00     0.009 A 
ATOM      6  C   UNL     1      -5.358 -16.149  -2.392  1.00  0.00     0.001 A 
ATOM      7  C   UNL     1      -6.731 -16.371  -2.532  1.00  0.00     0.001 A 
ATOM      8  C   UNL     1      -7.617 -15.955  -1.534  1.00  0.00     0.009 A 
ATOM      9  C   UNL     1      -7.131 -15.313  -0.385  1.00  0.00    -0.018 A 
ATOM     10  C   UNL     1      -8.009 -14.891   0.626  1.00  0.00     0.009 A 
ENDROOT
TORSDOF 0
ENDMDL
MODEL 4
REMARK VINA RESULT:    -5.185      0.088      3.436
REMARK INTER + INTRA:          -5.185
REMARK INTER:                  -5.185
REMARK INTRA:                   0.000
REMARK UNBOUND:                 0.000
REMARK SMILES c1ccc2ccccc2c1
REMARK SMILES IDX 2 1 1 2 10 3 9 4 8 5 7 6 6 7 5 8 4 9 3 10
REMARK H PARENT
REMARK Flexibility Score: inf
ROOT
ATOM      1  C   UNL     1      -5.326 -16.103  -2.390  1.00  0.00     0.001 A 
ATOM      2  C   UNL     1      -6.703 -16.221  -2.594  1.00  0.00     0.001 A 
ATOM      3  C   UNL     1      -7.600 -15.778  -1.617  1.00  0.00     0.009 A 
ATOM      4  C   UNL     1      -7.121 -15.212  -0.426  1.00  0.00    -0.018 A 
ATOM      5  C   UNL     1      -8.010 -14.763   0.563  1.00  0.00     0.009 A 
ATOM      6  C   UNL     1      -7.519 -14.201   1.745  1.00  0.00     0.001 A 
ATOM      7  C   UNL     1      -6.142 -14.082   1.949  1.00  0.00     0.001 A 
ATOM      8  C   UNL     1      -5.244 -14.525   0.972  1.00  0.00     0.009 A 
ATOM      9  C   UNL     1      -5.724 -15.091  -0.219  1.00  0.00    -0.018 A 
ATOM     10  C   UNL     1      -4.834 -15.541  -1.207  1.00  0.00     0.009 A 
ENDROOT
TORSDOF 0
ENDMDL
MODEL 5
REMARK VINA RESULT:    -5.095      1.112      3.230
REMARK INTER + INTRA:          -5.095
REMARK INTER:                  -5.095
REMARK INTRA:                   0.000
REMARK UNBOUND:                 0.000
REMARK SMILES c1ccc2ccccc2c1
REMARK SMILES IDX 2 1 1 2 10 3 9 4 8 5 7 6 6 7 5 8 4 9 3 10
REMARK H PARENT
REMARK Flexibility Score: inf
ROOT
ATOM      1  C   UNL     1      -8.179 -16.851  -2.522  1.00  0.00     0.001 A 
ATOM      2  C   UNL     1      -9.013 -16.527  -1.449  1.00  0.00     0.001 A 
ATOM      3  C   UNL     1      -8.491 -15.889  -0.319  1.00  0.00     0.009 A 
ATOM      4  C   UNL     1      -7.126 -15.571  -0.257  1.00  0.00    -0.018 A 
ATOM      5  C   UNL     1      -6.590 -14.930   0.870  1.00  0.00     0.009 A 
ATOM      6  C   UNL     1      -5.227 -14.619   0.918  1.00  0.00     0.001 A 
ATOM      7  C   UNL     1      -4.392 -14.944  -0.155  1.00  0.00     0.001 A 
ATOM      8  C   UNL     1      -4.914 -15.582  -1.285  1.00  0.00     0.009 A 
ATOM      9  C   UNL     1      -6.279 -15.900  -1.346  1.00  0.00    -0.018 A 
ATOM     10  C   UNL     1      -6.816 -16.541  -2.473  1.00  0.00     0.009 A 
ENDROOT
TORSDOF 0
ENDMDL
MODEL 6
REMARK VINA RESULT:    -4.888      2.722      4.397
REMARK INTER + INTRA:          -4.888
REMARK INTER:                  -4.888
REMARK INTRA:                   0.000
REMARK UNBOUND:                 0.000
REMARK SMILES c1ccc2ccccc2c1
REMARK SMILES IDX 2 1 1 2 10 3 9 4 8 5 7 6 6 7 5 8 4 9 3 10
REMARK H PARENT
REMARK Flexibility Score: inf
ROOT
ATOM      1  C   UNL     1      -7.146 -15.544  -2.463  1.00  0.00     0.001 A 
ATOM      2  C   UNL     1      -5.764 -15.457  -2.276  1.00  0.00     0.001 A 
ATOM      3  C   UNL     1      -4.991 -16.619  -2.192  1.00  0.00     0.009 A 
ATOM      4  C   UNL     1      -5.600 -17.879  -2.296  1.00  0.00    -0.018 A 
ATOM      5  C   UNL     1      -4.835 -19.053  -2.215  1.00  0.00     0.009 A 
ATOM      6  C   UNL     1      -5.455 -20.303  -2.320  1.00  0.00     0.001 A 
ATOM      7  C   UNL     1      -6.837 -20.389  -2.507  1.00  0.00     0.001 A 
ATOM      8  C   UNL     1      -7.611 -19.227  -2.591  1.00  0.00     0.009 A 
ATOM      9  C   UNL     1      -7.002 -17.967  -2.487  1.00  0.00    -0.018 A 
ATOM     10  C   UNL     1      -7.766 -16.793  -2.568  1.00  0.00     0.009 A 
ENDROOT
TORSDOF 0
ENDMDL
MODEL 7
REMARK VINA RESULT:    -4.887      2.710      4.538
REMARK INTER + INTRA:          -4.887
REMARK INTER:                  -4.887
REMARK INTRA:                   0.000
REMARK UNBOUND:                 0.000
REMARK SMILES c1ccc2ccccc2c1
REMARK SMILES IDX 2 1 1 2 10 3 9 4 8 5 7 6 6 7 5 8 4 9 3 10
REMARK H PARENT
REMARK Flexibility Score: inf
ROOT
ATOM      1  C   UNL     1      -5.213 -20.280  -2.267  1.00  0.00     0.001 A 
ATOM      2  C   UNL     1      -6.590 -20.471  -2.402  1.00  0.00     0.001 A 
ATOM      3  C   UNL     1      -7.451 -19.371  -2.473  1.00  0.00     0.009 A 
ATOM      4  C   UNL     1      -6.934 -18.068  -2.408  1.00  0.00    -0.018 A 
ATOM      5  C   UNL     1      -7.786 -16.955  -2.479  1.00  0.00     0.009 A 
ATOM      6  C   UNL     1      -7.257 -15.662  -2.413  1.00  0.00     0.001 A 
ATOM      7  C   UNL     1      -5.880 -15.470  -2.277  1.00  0.00     0.001 A 
ATOM      8  C   UNL     1      -5.019 -16.571  -2.206  1.00  0.00     0.009 A 
ATOM      9  C   UNL     1      -5.536 -17.873  -2.271  1.00  0.00    -0.018 A 
ATOM     10  C   UNL     1      -4.684 -18.987  -2.200  1.00  0.00     0.009 A 
ENDROOT
TORSDOF 0
ENDMDL
MODEL 8
REMARK VINA RESULT:    -4.779      2.773      4.887
REMARK INTER + INTRA:          -4.779
REMARK INTER:                  -4.779
REMARK INTRA:                   0.000
REMARK UNBOUND:                 0.000
REMARK SMILES c1ccc2ccccc2c1
REMARK SMILES IDX 2 1 1 2 10 3 9 4 8 5 7 6 6 7 5 8 4 9 3 10
REMARK H PARENT
REMARK Flexibility Score: inf
ROOT
ATOM      1  C   UNL     1      -8.508 -19.457  -3.144  1.00  0.00     0.001 A 
ATOM      2  C   UNL     1      -7.332 -20.101  -2.752  1.00  0.00     0.001 A 
ATOM      3  C   UNL     1      -6.205 -19.353  -2.395  1.00  0.00     0.009 A 
ATOM      4  C   UNL     1      -6.250 -17.952  -2.430  1.00  0.00    -0.018 A 
ATOM      5  C   UNL     1      -5.127 -17.189  -2.074  1.00  0.00     0.009 A 
ATOM      6  C   UNL     1      -5.186 -15.792  -2.114  1.00  0.00     0.001 A 
ATOM      7  C   UNL     1      -6.362 -15.148  -2.507  1.00  0.00     0.001 A 
ATOM      8  C   UNL     1      -7.489 -15.896  -2.863  1.00  0.00     0.009 A 
ATOM      9  C   UNL     1      -7.444 -17.298  -2.828  1.00  0.00    -0.018 A 
ATOM     10  C   UNL     1      -8.567 -18.061  -3.184  1.00  0.00     0.009 A 
ENDROOT
TORSDOF 0
ENDMDL
MODEL 9
REMARK VINA RESULT:    -4.449      9.574     10.592
REMARK INTER + INTRA:          -4.449
REMARK INTER:                  -4.449
REMARK INTRA:                   0.000
REMARK UNBOUND:                 0.000
REMARK SMILES c1ccc2ccccc2c1
REMARK SMILES IDX 2 1 1 2 10 3 9 4 8 5 7 6 6 7 5 8 4 9 3 10
REMARK H PARENT
REMARK Flexibility Score: inf
ROOT
ATOM      1  C   UNL     1      -6.389 -19.297  -8.899  1.00  0.00     0.001 A 
ATOM      2  C   UNL     1      -5.108 -19.690  -9.298  1.00  0.00     0.001 A 
ATOM      3  C   UNL     1      -4.298 -18.813 -10.026  1.00  0.00     0.009 A 
ATOM      4  C   UNL     1      -4.768 -17.533 -10.360  1.00  0.00    -0.018 A 
ATOM      5  C   UNL     1      -3.965 -16.643 -11.089  1.00  0.00     0.009 A 
ATOM      6  C   UNL     1      -4.445 -15.371 -11.416  1.00  0.00     0.001 A 
ATOM      7  C   UNL     1      -5.726 -14.979 -11.017  1.00  0.00     0.001 A 
ATOM      8  C   UNL     1      -6.536 -15.856 -10.289  1.00  0.00     0.009 A 
ATOM      9  C   UNL     1      -6.067 -17.135  -9.955  1.00  0.00    -0.018 A 
ATOM     10  C   UNL     1      -6.870 -18.025  -9.225  1.00  0.00     0.009 A 
ENDROOT
TORSDOF 0
ENDMDL
