MODEL 1
REMARK VINA RESULT:    -4.465      0.000      0.000
REMARK INTER + INTRA:          -4.820
REMARK INTER:                  -4.726
REMARK INTRA:                  -0.094
REMARK UNBOUND:                -0.094
REMARK SMILES C=C(C)[C@H]1CC=C(C)C(=O)C1
REMARK SMILES IDX 8 1 7 2 6 3 5 4 4 5 11 6 9 7 10 8 2 9 1 10 3 11
REMARK H PARENT
REMARK Flexibility Score: inf
ROOT
ATOM      1  C   UNL     1      -8.886  10.588  -7.550  1.00  0.00     0.048 C 
ATOM      2  C   UNL     1      -7.797  11.094  -6.645  1.00  0.00    -0.012 C 
ATOM      3  C   UNL     1      -7.019  12.120  -7.033  1.00  0.00    -0.019 C 
ATOM      4  C   UNL     1      -5.866  12.610  -6.198  1.00  0.00     0.036 C 
ATOM      5  C   UNL     1      -6.136  12.394  -4.696  1.00  0.00     0.025 C 
ATOM      6  C   UNL     1      -6.473  10.916  -4.419  1.00  0.00     0.089 C 
ATOM      7  C   UNL     1      -7.569  10.442  -5.333  1.00  0.00     0.158 C 
ATOM      8  O   UNL     1      -8.266   9.449  -4.990  1.00  0.00    -0.295 OA
ENDROOT
BRANCH   5   9
ATOM      9  C   UNL     1      -4.977  12.877  -3.840  1.00  0.00    -0.077 C 
ATOM     10  C   UNL     1      -3.700  12.608  -4.168  1.00  0.00     0.008 C 
ATOM     11  C   UNL     1      -5.281  13.679  -2.601  1.00  0.00     0.039 C 
ENDBRANCH   5   9
TORSDOF 1
ENDMDL
MODEL 2
REMARK VINA RESULT:    -4.376      1.765      2.572
REMARK INTER + INTRA:          -4.725
REMARK INTER:                  -4.629
REMARK INTRA:                  -0.097
REMARK UNBOUND:                -0.094
REMARK SMILES C=C(C)[C@H]1CC=C(C)C(=O)C1
REMARK SMILES IDX 8 1 7 2 6 3 5 4 4 5 11 6 9 7 10 8 2 9 1 10 3 11
REMARK H PARENT
REMARK Flexibility Score: inf
ROOT
ATOM      1  C   UNL     1      -9.789  11.490  -3.127  1.00  0.00     0.048 C 
ATOM      2  C   UNL     1      -8.404  11.790  -3.631  1.00  0.00    -0.012 C 
ATOM      3  C   UNL     1      -7.851  12.995  -3.409  1.00  0.00    -0.019 C 
ATOM      4  C   UNL     1      -6.501  13.369  -3.962  1.00  0.00     0.036 C 
ATOM      5  C   UNL     1      -5.590  12.132  -4.089  1.00  0.00     0.025 C 
ATOM      6  C   UNL     1      -6.282  11.040  -4.925  1.00  0.00     0.089 C 
ATOM      7  C   UNL     1      -7.660  10.757  -4.394  1.00  0.00     0.158 C 
ATOM      8  O   UNL     1      -8.198   9.644  -4.643  1.00  0.00    -0.295 OA
ENDROOT
BRANCH   5   9
ATOM      9  C   UNL     1      -4.225  12.493  -4.653  1.00  0.00    -0.077 C 
ATOM     10  C   UNL     1      -3.437  13.406  -4.056  1.00  0.00     0.008 C 
ATOM     11  C   UNL     1      -3.757  11.802  -5.906  1.00  0.00     0.039 C 
ENDBRANCH   5   9
TORSDOF 1
ENDMDL
MODEL 3
REMARK VINA RESULT:    -4.260      2.210      4.151
REMARK INTER + INTRA:          -4.603
REMARK INTER:                  -4.509
REMARK INTRA:                  -0.094
REMARK UNBOUND:                -0.094
REMARK SMILES C=C(C)[C@H]1CC=C(C)C(=O)C1
REMARK SMILES IDX 8 1 7 2 6 3 5 4 4 5 11 6 9 7 10 8 2 9 1 10 3 11
REMARK H PARENT
REMARK Flexibility Score: inf
ROOT
ATOM      1  C   UNL     1      -2.628  13.379  -6.279  1.00  0.00     0.048 C 
ATOM      2  C   UNL     1      -3.983  12.806  -5.968  1.00  0.00    -0.012 C 
ATOM      3  C   UNL     1      -4.885  12.636  -6.951  1.00  0.00    -0.019 C 
ATOM      4  C   UNL     1      -6.282  12.142  -6.678  1.00  0.00     0.036 C 
ATOM      5  C   UNL     1      -6.310  11.203  -5.455  1.00  0.00     0.025 C 
ATOM      6  C   UNL     1      -5.685  11.898  -4.231  1.00  0.00     0.089 C 
ATOM      7  C   UNL     1      -4.329  12.453  -4.570  1.00  0.00     0.158 C 
ATOM      8  O   UNL     1      -3.501  12.658  -3.642  1.00  0.00    -0.295 OA
ENDROOT
BRANCH   5   9
ATOM      9  C   UNL     1      -7.715  10.702  -5.163  1.00  0.00    -0.077 C 
ATOM     10  C   UNL     1      -8.273   9.714  -5.885  1.00  0.00     0.008 C 
ATOM     11  C   UNL     1      -8.485  11.334  -4.033  1.00  0.00     0.039 C 
ENDBRANCH   5   9
TORSDOF 1
ENDMDL
MODEL 4
REMARK VINA RESULT:    -4.260      1.883      4.483
REMARK INTER + INTRA:          -4.603
REMARK INTER:                  -4.511
REMARK INTRA:                  -0.092
REMARK UNBOUND:                -0.094
REMARK SMILES C=C(C)[C@H]1CC=C(C)C(=O)C1
REMARK SMILES IDX 8 1 7 2 6 3 5 4 4 5 11 6 9 7 10 8 2 9 1 10 3 11
REMARK H PARENT
REMARK Flexibility Score: inf
ROOT
ATOM      1  C   UNL     1      -4.674  13.786  -2.643  1.00  0.00     0.048 C 
ATOM      2  C   UNL     1      -5.528  13.038  -3.630  1.00  0.00    -0.012 C 
ATOM      3  C   UNL     1      -4.955  12.299  -4.595  1.00  0.00    -0.019 C 
ATOM      4  C   UNL     1      -5.765  11.598  -5.653  1.00  0.00     0.036 C 
ATOM      5  C   UNL     1      -7.151  11.192  -5.114  1.00  0.00     0.025 C 
ATOM      6  C   UNL     1      -7.881  12.418  -4.534  1.00  0.00     0.089 C 
ATOM      7  C   UNL     1      -7.005  13.140  -3.547  1.00  0.00     0.158 C 
ATOM      8  O   UNL     1      -7.542  13.871  -2.672  1.00  0.00    -0.295 OA
ENDROOT
BRANCH   5   9
ATOM      9  C   UNL     1      -7.984  10.489  -6.174  1.00  0.00    -0.077 C 
ATOM     10  C   UNL     1      -8.496   9.263  -5.965  1.00  0.00     0.008 C 
ATOM     11  C   UNL     1      -8.235  11.196  -7.480  1.00  0.00     0.039 C 
ENDBRANCH   5   9
TORSDOF 1
ENDMDL
MODEL 5
REMARK VINA RESULT:    -4.237      3.592      4.963
REMARK INTER + INTRA:          -4.579
REMARK INTER:                  -4.477
REMARK INTRA:                  -0.102
REMARK UNBOUND:                -0.094
REMARK SMILES C=C(C)[C@H]1CC=C(C)C(=O)C1
REMARK SMILES IDX 8 1 7 2 6 3 5 4 4 5 11 6 9 7 10 8 2 9 1 10 3 11
REMARK H PARENT
REMARK Flexibility Score: inf
ROOT
ATOM      1  C   UNL     1      -1.215  12.224  -8.498  1.00  0.00     0.048 C 
ATOM      2  C   UNL     1      -2.203  12.509  -7.401  1.00  0.00    -0.012 C 
ATOM      3  C   UNL     1      -3.394  11.884  -7.385  1.00  0.00    -0.019 C 
ATOM      4  C   UNL     1      -4.447  12.194  -6.354  1.00  0.00     0.036 C 
ATOM      5  C   UNL     1      -3.808  12.635  -5.023  1.00  0.00     0.025 C 
ATOM      6  C   UNL     1      -2.849  13.817  -5.254  1.00  0.00     0.089 C 
ATOM      7  C   UNL     1      -1.869  13.500  -6.350  1.00  0.00     0.158 C 
ATOM      8  O   UNL     1      -0.773  14.122  -6.391  1.00  0.00    -0.295 OA
ENDROOT
BRANCH   5   9
ATOM      9  C   UNL     1      -4.860  12.958  -3.973  1.00  0.00    -0.077 C 
ATOM     10  C   UNL     1      -4.557  13.665  -2.870  1.00  0.00     0.008 C 
ATOM     11  C   UNL     1      -6.269  12.473  -4.191  1.00  0.00     0.039 C 
ENDBRANCH   5   9
TORSDOF 1
ENDMDL
MODEL 6
REMARK VINA RESULT:    -4.215      2.398      4.473
REMARK INTER + INTRA:          -4.555
REMARK INTER:                  -4.458
REMARK INTRA:                  -0.097
REMARK UNBOUND:                -0.094
REMARK SMILES C=C(C)[C@H]1CC=C(C)C(=O)C1
REMARK SMILES IDX 8 1 7 2 6 3 5 4 4 5 11 6 9 7 10 8 2 9 1 10 3 11
REMARK H PARENT
REMARK Flexibility Score: inf
ROOT
ATOM      1  C   UNL     1      -2.112  14.125  -5.496  1.00  0.00     0.048 C 
ATOM      2  C   UNL     1      -3.414  13.507  -5.066  1.00  0.00    -0.012 C 
ATOM      3  C   UNL     1      -4.111  14.040  -4.047  1.00  0.00    -0.019 C 
ATOM      4  C   UNL     1      -5.377  13.411  -3.529  1.00  0.00     0.036 C 
ATOM      5  C   UNL     1      -6.129  12.669  -4.651  1.00  0.00     0.025 C 
ATOM      6  C   UNL     1      -5.201  11.643  -5.329  1.00  0.00     0.089 C 
ATOM      7  C   UNL     1      -3.913  12.291  -5.754  1.00  0.00     0.158 C 
ATOM      8  O   UNL     1      -3.236  11.763  -6.677  1.00  0.00    -0.295 OA
ENDROOT
BRANCH   5   9
ATOM      9  C   UNL     1      -7.407  12.022  -4.140  1.00  0.00    -0.077 C 
ATOM     10  C   UNL     1      -8.287  12.705  -3.387  1.00  0.00     0.008 C 
ATOM     11  C   UNL     1      -7.680  10.585  -4.499  1.00  0.00     0.039 C 
ENDBRANCH   5   9
TORSDOF 1
ENDMDL
MODEL 7
REMARK VINA RESULT:    -4.215      2.319      3.017
REMARK INTER + INTRA:          -4.555
REMARK INTER:                  -4.458
REMARK INTRA:                  -0.097
REMARK UNBOUND:                -0.094
REMARK SMILES C=C(C)[C@H]1CC=C(C)C(=O)C1
REMARK SMILES IDX 8 1 7 2 6 3 5 4 4 5 11 6 9 7 10 8 2 9 1 10 3 11
REMARK H PARENT
REMARK Flexibility Score: inf
ROOT
ATOM      1  C   UNL     1      -9.981  12.015  -3.517  1.00  0.00     0.048 C 
ATOM      2  C   UNL     1      -8.499  12.092  -3.760  1.00  0.00    -0.012 C 
ATOM      3  C   UNL     1      -7.876  11.116  -4.444  1.00  0.00    -0.019 C 
ATOM      4  C   UNL     1      -6.383  11.108  -4.645  1.00  0.00     0.036 C 
ATOM      5  C   UNL     1      -5.820  12.542  -4.693  1.00  0.00     0.025 C 
ATOM      6  C   UNL     1      -6.237  13.324  -3.434  1.00  0.00     0.089 C 
ATOM      7  C   UNL     1      -7.723  13.235  -3.221  1.00  0.00     0.158 C 
ATOM      8  O   UNL     1      -8.299  14.125  -2.538  1.00  0.00    -0.295 OA
ENDROOT
BRANCH   5   9
ATOM      9  C   UNL     1      -4.313  12.550  -4.888  1.00  0.00    -0.077 C 
ATOM     10  C   UNL     1      -3.726  11.829  -5.861  1.00  0.00     0.008 C 
ATOM     11  C   UNL     1      -3.471  13.390  -3.965  1.00  0.00     0.039 C 
ENDBRANCH   5   9
TORSDOF 1
ENDMDL
MODEL 8
REMARK VINA RESULT:    -4.163      1.738      2.578
REMARK INTER + INTRA:          -4.500
REMARK INTER:                  -4.403
REMARK INTRA:                  -0.098
REMARK UNBOUND:                -0.094
REMARK SMILES C=C(C)[C@H]1CC=C(C)C(=O)C1
REMARK SMILES IDX 8 1 7 2 6 3 5 4 4 5 11 6 9 7 10 8 2 9 1 10 3 11
REMARK H PARENT
REMARK Flexibility Score: inf
ROOT
ATOM      1  C   UNL     1      -8.778  10.563  -7.370  1.00  0.00     0.048 C 
ATOM      2  C   UNL     1      -7.578  11.198  -6.721  1.00  0.00    -0.012 C 
ATOM      3  C   UNL     1      -7.202  10.824  -5.486  1.00  0.00    -0.019 C 
ATOM      4  C   UNL     1      -6.058  11.486  -4.764  1.00  0.00     0.036 C 
ATOM      5  C   UNL     1      -4.993  11.994  -5.756  1.00  0.00     0.025 C 
ATOM      6  C   UNL     1      -5.637  12.920  -6.805  1.00  0.00     0.089 C 
ATOM      7  C   UNL     1      -6.827  12.255  -7.441  1.00  0.00     0.158 C 
ATOM      8  O   UNL     1      -7.209  12.640  -8.579  1.00  0.00    -0.295 OA
ENDROOT
BRANCH   5   9
ATOM      9  C   UNL     1      -3.835  12.671  -5.042  1.00  0.00    -0.077 C 
ATOM     10  C   UNL     1      -3.737  12.666  -3.700  1.00  0.00     0.008 C 
ATOM     11  C   UNL     1      -2.779  13.356  -5.869  1.00  0.00     0.039 C 
ENDBRANCH   5   9
TORSDOF 1
ENDMDL
MODEL 9
REMARK VINA RESULT:    -4.161     19.130     19.861
REMARK INTER + INTRA:          -4.498
REMARK INTER:                  -4.400
REMARK INTRA:                  -0.098
REMARK UNBOUND:                -0.094
REMARK SMILES C=C(C)[C@H]1CC=C(C)C(=O)C1
REMARK SMILES IDX 8 1 7 2 6 3 5 4 4 5 11 6 9 7 10 8 2 9 1 10 3 11
REMARK H PARENT
REMARK Flexibility Score: inf
ROOT
ATOM      1  C   UNL     1       6.401  -6.125  -9.118  1.00  0.00     0.048 C 
ATOM      2  C   UNL     1       5.368  -5.183  -9.674  1.00  0.00    -0.012 C 
ATOM      3  C   UNL     1       4.091  -5.581  -9.802  1.00  0.00    -0.019 C 
ATOM      4  C   UNL     1       3.038  -4.703 -10.427  1.00  0.00     0.036 C 
ATOM      5  C   UNL     1       3.344  -3.212 -10.187  1.00  0.00     0.025 C 
ATOM      6  C   UNL     1       4.762  -2.869 -10.682  1.00  0.00     0.089 C 
ATOM      7  C   UNL     1       5.771  -3.822 -10.104  1.00  0.00     0.158 C 
ATOM      8  O   UNL     1       6.978  -3.465 -10.029  1.00  0.00    -0.295 OA
ENDROOT
BRANCH   5   9
ATOM      9  C   UNL     1       2.294  -2.312 -10.818  1.00  0.00    -0.077 C 
ATOM     10  C   UNL     1       1.059  -2.765 -11.101  1.00  0.00     0.008 C 
ATOM     11  C   UNL     1       2.658  -0.883 -11.125  1.00  0.00     0.039 C 
ENDBRANCH   5   9
TORSDOF 1
ENDMDL
