MODEL 1
REMARK VINA RESULT:    -4.122      0.000      0.000
REMARK INTER + INTRA:          -4.678
REMARK INTER:                  -4.363
REMARK INTRA:                  -0.315
REMARK UNBOUND:                -0.315
REMARK SMILES CC1=CC[C@H]2[C@@H]3[C@@H](C(C)C)CC[C@@]2(C)[C@H]13
REMARK SMILES IDX 1 1 2 2 3 3 4 4 5 5 6 6 15 7 13 8 12 9 11 10 7 11 14 12 8 13
REMARK SMILES IDX 9 14 10 15
REMARK H PARENT
REMARK Flexibility Score: inf
ROOT
ATOM      1  C   UNL     1     139.718 136.177 125.708  1.00  0.00     0.039 C 
ATOM      2  C   UNL     1     138.484 136.021 124.871  1.00  0.00    -0.073 C 
ATOM      3  C   UNL     1     137.652 134.953 124.999  1.00  0.00    -0.027 C 
ATOM      4  C   UNL     1     136.408 134.875 124.108  1.00  0.00     0.031 C 
ATOM      5  C   UNL     1     136.307 136.143 123.199  1.00  0.00     0.003 C 
ATOM      6  C   UNL     1     136.569 137.378 124.093  1.00  0.00     0.004 C 
ATOM      7  C   UNL     1     138.079 137.102 123.868  1.00  0.00     0.024 C 
ATOM      8  C   UNL     1     137.662 136.463 122.521  1.00  0.00    -0.022 C 
ATOM      9  C   UNL     1     137.440 137.565 121.438  1.00  0.00     0.008 C 
ATOM     10  C   UNL     1     136.897 138.889 122.038  1.00  0.00     0.005 C 
ATOM     11  C   UNL     1     136.090 138.665 123.356  1.00  0.00    -0.005 C 
ATOM     12  C   UNL     1     138.504 135.295 121.957  1.00  0.00     0.012 C 
ENDROOT
BRANCH  11  13
ATOM     13  C   UNL     1     136.043 139.904 124.299  1.00  0.00    -0.014 C 
ATOM     14  C   UNL     1     136.052 139.492 125.777  1.00  0.00     0.007 C 
ATOM     15  C   UNL     1     134.876 140.867 124.018  1.00  0.00     0.007 C 
ENDBRANCH  11  13
TORSDOF 1
ENDMDL
MODEL 2
REMARK VINA RESULT:    -3.048     12.721     15.549
REMARK INTER + INTRA:          -3.541
REMARK INTER:                  -3.121
REMARK INTRA:                  -0.420
REMARK UNBOUND:                -0.315
REMARK SMILES CC1=CC[C@H]2[C@@H]3[C@@H](C(C)C)CC[C@@]2(C)[C@H]13
REMARK SMILES IDX 1 1 2 2 3 3 4 4 5 5 6 6 15 7 13 8 12 9 11 10 7 11 14 12 8 13
REMARK SMILES IDX 9 14 10 15
REMARK H PARENT
REMARK Flexibility Score: inf
ROOT
ATOM      1  C   UNL     1     138.172 149.718 124.518  1.00  0.00     0.039 C 
ATOM      2  C   UNL     1     137.033 150.691 124.547  1.00  0.00    -0.073 C 
ATOM      3  C   UNL     1     135.996 150.567 125.417  1.00  0.00    -0.027 C 
ATOM      4  C   UNL     1     134.875 151.612 125.385  1.00  0.00     0.031 C 
ATOM      5  C   UNL     1     135.186 152.713 124.320  1.00  0.00     0.003 C 
ATOM      6  C   UNL     1     136.663 153.137 124.506  1.00  0.00     0.004 C 
ATOM      7  C   UNL     1     137.025 151.912 123.625  1.00  0.00     0.024 C 
ATOM      8  C   UNL     1     135.632 152.090 122.974  1.00  0.00    -0.022 C 
ATOM      9  C   UNL     1     135.675 153.209 121.886  1.00  0.00     0.008 C 
ATOM     10  C   UNL     1     136.683 154.337 122.232  1.00  0.00     0.005 C 
ATOM     11  C   UNL     1     136.914 154.486 123.769  1.00  0.00    -0.005 C 
ATOM     12  C   UNL     1     134.886 150.840 122.452  1.00  0.00     0.012 C 
ENDROOT
BRANCH  11  13
ATOM     13  C   UNL     1     138.282 155.124 124.153  1.00  0.00    -0.014 C 
ATOM     14  C   UNL     1     139.260 155.125 122.970  1.00  0.00     0.007 C 
ATOM     15  C   UNL     1     138.944 154.500 125.395  1.00  0.00     0.007 C 
ENDBRANCH  11  13
TORSDOF 1
ENDMDL
MODEL 3
REMARK VINA RESULT:    -1.774      0.800      4.440
REMARK INTER + INTRA:          -2.193
REMARK INTER:                  -1.970
REMARK INTRA:                  -0.223
REMARK UNBOUND:                -0.315
REMARK SMILES CC1=CC[C@H]2[C@@H]3[C@@H](C(C)C)CC[C@@]2(C)[C@H]13
REMARK SMILES IDX 1 1 2 2 3 3 4 4 5 5 6 6 15 7 13 8 12 9 11 10 7 11 14 12 8 13
REMARK SMILES IDX 9 14 10 15
REMARK H PARENT
REMARK Flexibility Score: inf
ROOT
ATOM      1  C   UNL     1     136.005 139.833 124.582  1.00  0.00     0.039 C 
ATOM      2  C   UNL     1     136.596 138.758 123.721  1.00  0.00    -0.073 C 
ATOM      3  C   UNL     1     136.849 138.947 122.398  1.00  0.00    -0.027 C 
ATOM      4  C   UNL     1     137.463 137.798 121.592  1.00  0.00     0.031 C 
ATOM      5  C   UNL     1     137.738 136.568 122.517  1.00  0.00     0.003 C 
ATOM      6  C   UNL     1     138.425 137.095 123.799  1.00  0.00     0.004 C 
ATOM      7  C   UNL     1     136.998 137.409 124.320  1.00  0.00     0.024 C 
ATOM      8  C   UNL     1     136.517 136.250 123.414  1.00  0.00    -0.022 C 
ATOM      9  C   UNL     1     136.748 134.875 124.117  1.00  0.00     0.008 C 
ATOM     10  C   UNL     1     138.005 134.875 125.027  1.00  0.00     0.005 C 
ATOM     11  C   UNL     1     139.081 135.907 124.564  1.00  0.00    -0.005 C 
ATOM     12  C   UNL     1     135.101 136.323 122.795  1.00  0.00     0.012 C 
ENDROOT
BRANCH  11  13
ATOM     13  C   UNL     1     140.038 136.388 125.696  1.00  0.00    -0.014 C 
ATOM     14  C   UNL     1     141.261 137.123 125.130  1.00  0.00     0.007 C 
ATOM     15  C   UNL     1     140.482 135.275 126.662  1.00  0.00     0.007 C 
ENDBRANCH  11  13
TORSDOF 1
ENDMDL
