MODEL 1
REMARK VINA RESULT:    -4.800      0.000      0.000
REMARK INTER + INTRA:          -5.551
REMARK INTER:                  -5.501
REMARK INTRA:                  -0.050
REMARK UNBOUND:                -0.050
REMARK SMILES O=C([O-])c1cc(O)c(O)c(O)c1
REMARK SMILES IDX 4 1 5 2 12 3 6 4 10 5 8 6 2 7 1 8 3 9 7 10 11 12 9 14
REMARK H PARENT 7 11 11 13 9 15
REMARK Flexibility Score: inf
ROOT
ATOM      1  C   UNL     1       5.068   8.463  12.012  1.00  0.00     0.005 A 
ATOM      2  C   UNL     1       4.454   7.215  12.203  1.00  0.00     0.060 A 
ATOM      3  C   UNL     1       6.457   8.576  12.198  1.00  0.00     0.060 A 
ATOM      4  C   UNL     1       5.208   6.097  12.573  1.00  0.00     0.162 A 
ATOM      5  C   UNL     1       7.220   7.460  12.569  1.00  0.00     0.162 A 
ATOM      6  C   UNL     1       6.596   6.215  12.757  1.00  0.00     0.200 A 
ENDROOT
BRANCH   1   7
ATOM      7  C   UNL     1       4.262   9.641  11.621  1.00  0.00     0.072 C 
ATOM      8  O   UNL     1       4.747  10.533  10.875  1.00  0.00    -0.545 OA
ATOM      9  O   UNL     1       2.954   9.781  12.073  1.00  0.00    -0.545 OA
ENDBRANCH   1   7
BRANCH   4  10
ATOM     10  O   UNL     1       4.560   4.875  12.751  1.00  0.00    -0.504 OA
ATOM     11  H   UNL     1       4.615   4.358  13.621  1.00  0.00     0.293 HD
ENDBRANCH   4  10
BRANCH   5  12
ATOM     12  O   UNL     1       8.597   7.585  12.750  1.00  0.00    -0.504 OA
ATOM     13  H   UNL     1       9.240   7.559  11.968  1.00  0.00     0.293 HD
ENDBRANCH   5  12
BRANCH   6  14
ATOM     14  O   UNL     1       7.341   5.095  13.125  1.00  0.00    -0.502 OA
ATOM     15  H   UNL     1       7.048   4.152  12.894  1.00  0.00     0.293 HD
ENDBRANCH   6  14
TORSDOF 4
ENDMDL
MODEL 2
REMARK VINA RESULT:    -4.768      0.029      2.430
REMARK INTER + INTRA:          -5.515
REMARK INTER:                  -5.465
REMARK INTRA:                  -0.050
REMARK UNBOUND:                -0.050
REMARK SMILES O=C([O-])c1cc(O)c(O)c(O)c1
REMARK SMILES IDX 4 1 5 2 12 3 6 4 10 5 8 6 2 7 1 8 3 9 7 10 11 12 9 14
REMARK H PARENT 7 11 11 13 9 15
REMARK Flexibility Score: inf
ROOT
ATOM      1  C   UNL     1       5.059   8.480  12.022  1.00  0.00     0.005 A 
ATOM      2  C   UNL     1       6.445   8.593  12.214  1.00  0.00     0.060 A 
ATOM      3  C   UNL     1       4.443   7.230  12.208  1.00  0.00     0.060 A 
ATOM      4  C   UNL     1       7.207   7.480  12.585  1.00  0.00     0.162 A 
ATOM      5  C   UNL     1       5.200   6.110  12.579  1.00  0.00     0.162 A 
ATOM      6  C   UNL     1       6.587   6.233  12.769  1.00  0.00     0.200 A 
ENDROOT
BRANCH   1   7
ATOM      7  C   UNL     1       4.260   9.662  11.629  1.00  0.00     0.072 C 
ATOM      8  O   UNL     1       4.748  10.546  10.875  1.00  0.00    -0.545 OA
ATOM      9  O   UNL     1       2.956   9.816  12.087  1.00  0.00    -0.545 OA
ENDBRANCH   1   7
BRANCH   4  10
ATOM     10  O   UNL     1       8.581   7.635  12.766  1.00  0.00    -0.504 OA
ATOM     11  H   UNL     1       9.096   7.109  13.464  1.00  0.00     0.293 HD
ENDBRANCH   4  10
BRANCH   5  12
ATOM     12  O   UNL     1       4.578   4.875  12.761  1.00  0.00    -0.504 OA
ATOM     13  H   UNL     1       3.592   4.744  12.568  1.00  0.00     0.293 HD
ENDBRANCH   5  12
BRANCH   6  14
ATOM     14  O   UNL     1       7.355   5.129  13.139  1.00  0.00    -0.502 OA
ATOM     15  H   UNL     1       7.817   4.539  12.457  1.00  0.00     0.293 HD
ENDBRANCH   6  14
TORSDOF 4
ENDMDL
MODEL 3
REMARK VINA RESULT:    -3.442      2.236      3.209
REMARK INTER + INTRA:          -3.995
REMARK INTER:                  -3.944
REMARK INTRA:                  -0.050
REMARK UNBOUND:                -0.050
REMARK SMILES O=C([O-])c1cc(O)c(O)c(O)c1
REMARK SMILES IDX 4 1 5 2 12 3 6 4 10 5 8 6 2 7 1 8 3 9 7 10 11 12 9 14
REMARK H PARENT 7 11 11 13 9 15
REMARK Flexibility Score: inf
ROOT
ATOM      1  C   UNL     1       5.700   6.993  13.185  1.00  0.00     0.005 A 
ATOM      2  C   UNL     1       6.543   6.494  12.179  1.00  0.00     0.060 A 
ATOM      3  C   UNL     1       6.249   7.800  14.197  1.00  0.00     0.060 A 
ATOM      4  C   UNL     1       7.909   6.793  12.179  1.00  0.00     0.162 A 
ATOM      5  C   UNL     1       7.617   8.104  14.204  1.00  0.00     0.162 A 
ATOM      6  C   UNL     1       8.452   7.600  13.193  1.00  0.00     0.200 A 
ENDROOT
BRANCH   1   7
ATOM      7  C   UNL     1       4.256   6.671  13.178  1.00  0.00     0.072 C 
ATOM      8  O   UNL     1       3.414   7.483  13.647  1.00  0.00    -0.545 OA
ATOM      9  O   UNL     1       3.805   5.465  12.651  1.00  0.00    -0.545 OA
ENDBRANCH   1   7
BRANCH   4  10
ATOM     10  O   UNL     1       8.712   6.279  11.161  1.00  0.00    -0.504 OA
ATOM     11  H   UNL     1       8.676   6.637  10.214  1.00  0.00     0.293 HD
ENDBRANCH   4  10
BRANCH   5  12
ATOM     12  O   UNL     1       8.149   8.906  15.214  1.00  0.00    -0.504 OA
ATOM     13  H   UNL     1       8.796   8.536  15.900  1.00  0.00     0.293 HD
ENDBRANCH   5  12
BRANCH   6  14
ATOM     14  O   UNL     1       9.816   7.893  13.184  1.00  0.00    -0.502 OA
ATOM     15  H   UNL     1      10.523   7.171  13.110  1.00  0.00     0.293 HD
ENDBRANCH   6  14
TORSDOF 4
ENDMDL
MODEL 4
REMARK VINA RESULT:    -3.362      2.247      3.387
REMARK INTER + INTRA:          -3.904
REMARK INTER:                  -3.853
REMARK INTRA:                  -0.051
REMARK UNBOUND:                -0.050
REMARK SMILES O=C([O-])c1cc(O)c(O)c(O)c1
REMARK SMILES IDX 4 1 5 2 12 3 6 4 10 5 8 6 2 7 1 8 3 9 7 10 11 12 9 14
REMARK H PARENT 7 11 11 13 9 15
REMARK Flexibility Score: inf
ROOT
ATOM      1  C   UNL     1       5.692   6.980  13.198  1.00  0.00     0.005 A 
ATOM      2  C   UNL     1       6.252   7.783  14.204  1.00  0.00     0.060 A 
ATOM      3  C   UNL     1       6.527   6.470  12.189  1.00  0.00     0.060 A 
ATOM      4  C   UNL     1       7.620   8.076  14.206  1.00  0.00     0.162 A 
ATOM      5  C   UNL     1       7.899   6.758  12.183  1.00  0.00     0.162 A 
ATOM      6  C   UNL     1       8.450   7.563  13.195  1.00  0.00     0.200 A 
ENDROOT
BRANCH   1   7
ATOM      7  C   UNL     1       4.244   6.677  13.204  1.00  0.00     0.072 C 
ATOM      8  O   UNL     1       3.419   7.488  13.703  1.00  0.00    -0.545 OA
ATOM      9  O   UNL     1       3.770   5.490  12.655  1.00  0.00    -0.545 OA
ENDBRANCH   1   7
BRANCH   4  10
ATOM     10  O   UNL     1       8.137   8.877  15.224  1.00  0.00    -0.504 OA
ATOM     11  H   UNL     1       7.624   9.061  16.079  1.00  0.00     0.293 HD
ENDBRANCH   4  10
BRANCH   5  12
ATOM     12  O   UNL     1       8.716   6.245  11.177  1.00  0.00    -0.504 OA
ATOM     13  H   UNL     1       9.358   6.836  10.661  1.00  0.00     0.293 HD
ENDBRANCH   5  12
BRANCH   6  14
ATOM     14  O   UNL     1       9.813   7.859  13.205  1.00  0.00    -0.502 OA
ATOM     15  H   UNL     1      10.364   7.835  14.055  1.00  0.00     0.293 HD
ENDBRANCH   6  14
TORSDOF 4
ENDMDL
MODEL 5
REMARK VINA RESULT:    -2.772      2.769      5.916
REMARK INTER + INTRA:          -3.227
REMARK INTER:                  -3.180
REMARK INTRA:                  -0.048
REMARK UNBOUND:                -0.050
REMARK SMILES O=C([O-])c1cc(O)c(O)c(O)c1
REMARK SMILES IDX 4 1 5 2 12 3 6 4 10 5 8 6 2 7 1 8 3 9 7 10 11 12 9 14
REMARK H PARENT 7 11 11 13 9 15
REMARK Flexibility Score: inf
ROOT
ATOM      1  C   UNL     1       3.786  10.221  11.472  1.00  0.00     0.005 A 
ATOM      2  C   UNL     1       2.409  10.087  11.234  1.00  0.00     0.060 A 
ATOM      3  C   UNL     1       4.329  11.508  11.631  1.00  0.00     0.060 A 
ATOM      4  C   UNL     1       1.585  11.215  11.156  1.00  0.00     0.162 A 
ATOM      5  C   UNL     1       3.511  12.643  11.554  1.00  0.00     0.162 A 
ATOM      6  C   UNL     1       2.133  12.498  11.316  1.00  0.00     0.200 A 
ENDROOT
BRANCH   1   7
ATOM      7  C   UNL     1       4.650   9.022  11.552  1.00  0.00     0.072 C 
ATOM      8  O   UNL     1       5.713   8.951  10.879  1.00  0.00    -0.545 OA
ATOM      9  O   UNL     1       4.302   7.956  12.374  1.00  0.00    -0.545 OA
ENDBRANCH   1   7
BRANCH   4  10
ATOM     10  O   UNL     1       0.222  11.039  10.919  1.00  0.00    -0.504 OA
ATOM     11  H   UNL     1      -0.126  10.570  10.091  1.00  0.00     0.293 HD
ENDBRANCH   4  10
BRANCH   5  12
ATOM     12  O   UNL     1       4.062  13.914  11.715  1.00  0.00    -0.504 OA
ATOM     13  H   UNL     1       4.074  14.377  12.615  1.00  0.00     0.293 HD
ENDBRANCH   5  12
BRANCH   6  14
ATOM     14  O   UNL     1       1.304  13.617  11.237  1.00  0.00    -0.502 OA
ATOM     15  H   UNL     1       1.267  14.205  10.413  1.00  0.00     0.293 HD
ENDBRANCH   6  14
TORSDOF 4
ENDMDL
MODEL 6
REMARK VINA RESULT:    -2.756      1.545      3.862
REMARK INTER + INTRA:          -3.209
REMARK INTER:                  -3.164
REMARK INTRA:                  -0.045
REMARK UNBOUND:                -0.050
REMARK SMILES O=C([O-])c1cc(O)c(O)c(O)c1
REMARK SMILES IDX 4 1 5 2 12 3 6 4 10 5 8 6 2 7 1 8 3 9 7 10 11 12 9 14
REMARK H PARENT 7 11 11 13 9 15
REMARK Flexibility Score: inf
ROOT
ATOM      1  C   UNL     1       7.731   7.790  13.379  1.00  0.00     0.005 A 
ATOM      2  C   UNL     1       7.201   6.545  13.749  1.00  0.00     0.060 A 
ATOM      3  C   UNL     1       7.000   8.610  12.502  1.00  0.00     0.060 A 
ATOM      4  C   UNL     1       5.963   6.119  13.255  1.00  0.00     0.162 A 
ATOM      5  C   UNL     1       5.759   8.192  12.002  1.00  0.00     0.162 A 
ATOM      6  C   UNL     1       5.237   6.943  12.378  1.00  0.00     0.200 A 
ENDROOT
BRANCH   1   7
ATOM      7  C   UNL     1       9.042   8.231  13.906  1.00  0.00     0.072 C 
ATOM      8  O   UNL     1      10.061   8.246  13.165  1.00  0.00    -0.545 OA
ATOM      9  O   UNL     1       9.168   8.637  15.231  1.00  0.00    -0.545 OA
ENDBRANCH   1   7
BRANCH   4  10
ATOM     10  O   UNL     1       5.471   4.875  13.647  1.00  0.00    -0.504 OA
ATOM     11  H   UNL     1       4.795   4.363  13.093  1.00  0.00     0.293 HD
ENDBRANCH   4  10
BRANCH   5  12
ATOM     12  O   UNL     1       5.043   9.015  11.133  1.00  0.00    -0.504 OA
ATOM     13  H   UNL     1       4.582   9.856  11.457  1.00  0.00     0.293 HD
ENDBRANCH   5  12
BRANCH   6  14
ATOM     14  O   UNL     1       4.003   6.512  11.891  1.00  0.00    -0.502 OA
ATOM     15  H   UNL     1       3.308   7.157  11.533  1.00  0.00     0.293 HD
ENDBRANCH   6  14
TORSDOF 4
ENDMDL
MODEL 7
REMARK VINA RESULT:    -2.462      6.192      7.520
REMARK INTER + INTRA:          -2.872
REMARK INTER:                  -2.826
REMARK INTRA:                  -0.046
REMARK UNBOUND:                -0.050
REMARK SMILES O=C([O-])c1cc(O)c(O)c(O)c1
REMARK SMILES IDX 4 1 5 2 12 3 6 4 10 5 8 6 2 7 1 8 3 9 7 10 11 12 9 14
REMARK H PARENT 7 11 11 13 9 15
REMARK Flexibility Score: inf
ROOT
ATOM      1  C   UNL     1       3.407  14.978  11.796  1.00  0.00     0.005 A 
ATOM      2  C   UNL     1       3.732  14.645  13.120  1.00  0.00     0.060 A 
ATOM      3  C   UNL     1       2.594  14.104  11.053  1.00  0.00     0.060 A 
ATOM      4  C   UNL     1       3.258  13.462  13.697  1.00  0.00     0.162 A 
ATOM      5  C   UNL     1       2.114  12.917  11.623  1.00  0.00     0.162 A 
ATOM      6  C   UNL     1       2.445  12.593  12.949  1.00  0.00     0.200 A 
ENDROOT
BRANCH   1   7
ATOM      7  C   UNL     1       3.914  16.231  11.194  1.00  0.00     0.072 C 
ATOM      8  O   UNL     1       5.143  16.379  10.959  1.00  0.00    -0.545 OA
ATOM      9  O   UNL     1       3.040  17.265  10.877  1.00  0.00    -0.545 OA
ENDBRANCH   1   7
BRANCH   4  10
ATOM     10  O   UNL     1       3.603  13.169  15.016  1.00  0.00    -0.504 OA
ATOM     11  H   UNL     1       2.975  13.348  15.790  1.00  0.00     0.293 HD
ENDBRANCH   4  10
BRANCH   5  12
ATOM     12  O   UNL     1       1.308  12.059  10.875  1.00  0.00    -0.504 OA
ATOM     13  H   UNL     1       1.430  11.953   9.876  1.00  0.00     0.293 HD
ENDBRANCH   5  12
BRANCH   6  14
ATOM     14  O   UNL     1       1.976  11.416  13.533  1.00  0.00    -0.502 OA
ATOM     15  H   UNL     1       1.106  10.981  13.247  1.00  0.00     0.293 HD
ENDBRANCH   6  14
TORSDOF 4
ENDMDL
