MODEL 1
REMARK VINA RESULT:    -4.352      0.000      0.000
REMARK INTER + INTRA:          -8.144
REMARK INTER:                  -7.405
REMARK INTRA:                  -0.739
REMARK UNBOUND:                -0.739
REMARK SMILES CCCCCCCCCCCCCC(=O)[O-]
REMARK SMILES IDX 8 1 9 2 10 3 11 4 12 5 13 6 14 7 15 8 16 9 7 10 6 11 5 12
REMARK SMILES IDX 4 13 3 14 2 15 1 16
REMARK H PARENT
REMARK Flexibility Score: inf
ROOT
ATOM      1  C   UNL     1      -3.502  36.785  20.413  1.00  0.00     0.000 C 
ENDROOT
BRANCH   1   2
ATOM      2  C   UNL     1      -3.132  38.001  19.555  1.00  0.00     0.000 C 
BRANCH   2   3
ATOM      3  C   UNL     1      -1.619  38.050  19.296  1.00  0.00     0.000 C 
BRANCH   3   4
ATOM      4  C   UNL     1      -1.267  37.899  17.807  1.00  0.00     0.000 C 
BRANCH   4   5
ATOM      5  C   UNL     1      -2.363  37.176  17.011  1.00  0.00     0.006 C 
BRANCH   5   6
ATOM      6  C   UNL     1      -3.077  38.143  16.061  1.00  0.00     0.053 C 
BRANCH   6   7
ATOM      7  C   UNL     1      -3.048  37.620  14.660  1.00  0.00     0.041 C 
ATOM      8  O   UNL     1      -4.005  37.853  13.875  1.00  0.00    -0.550 OA
ATOM      9  O   UNL     1      -1.986  36.831  14.235  1.00  0.00    -0.550 OA
ENDBRANCH   6   7
ENDBRANCH   5   6
ENDBRANCH   4   5
ENDBRANCH   3   4
ENDBRANCH   2   3
ENDBRANCH   1   2
BRANCH   1  10
ATOM     10  C   UNL     1      -4.554  35.916  19.712  1.00  0.00     0.000 C 
BRANCH  10  11
ATOM     11  C   UNL     1      -5.905  35.999  20.433  1.00  0.00    -0.000 C 
BRANCH  11  12
ATOM     12  C   UNL     1      -5.721  36.395  21.903  1.00  0.00    -0.000 C 
BRANCH  12  13
ATOM     13  C   UNL     1      -5.766  35.159  22.815  1.00  0.00    -0.000 C 
BRANCH  13  14
ATOM     14  C   UNL     1      -5.888  35.524  24.302  1.00  0.00    -0.000 C 
BRANCH  14  15
ATOM     15  C   UNL     1      -5.964  37.041  24.536  1.00  0.00    -0.003 C 
ATOM     16  C   UNL     1      -5.054  37.466  25.684  1.00  0.00     0.004 C 
ENDBRANCH  14  15
ENDBRANCH  13  14
ENDBRANCH  12  13
ENDBRANCH  11  12
ENDBRANCH  10  11
ENDBRANCH   1  10
TORSDOF 12
ENDMDL
MODEL 2
REMARK VINA RESULT:    -4.207      4.138      8.074
REMARK INTER + INTRA:          -7.897
REMARK INTER:                  -7.040
REMARK INTRA:                  -0.857
REMARK UNBOUND:                -0.739
REMARK SMILES CCCCCCCCCCCCCC(=O)[O-]
REMARK SMILES IDX 8 1 9 2 10 3 11 4 12 5 13 6 14 7 15 8 16 9 7 10 6 11 5 12
REMARK SMILES IDX 4 13 3 14 2 15 1 16
REMARK H PARENT
REMARK Flexibility Score: inf
ROOT
ATOM      1  C   UNL     1      -5.105  37.733  19.890  1.00  0.00     0.000 C 
ENDROOT
BRANCH   1   2
ATOM      2  C   UNL     1      -5.496  36.936  21.140  1.00  0.00     0.000 C 
BRANCH   2   3
ATOM      3  C   UNL     1      -4.379  35.960  21.541  1.00  0.00     0.000 C 
BRANCH   3   4
ATOM      4  C   UNL     1      -4.663  35.249  22.873  1.00  0.00     0.000 C 
BRANCH   4   5
ATOM      5  C   UNL     1      -6.081  35.517  23.397  1.00  0.00     0.006 C 
BRANCH   5   6
ATOM      6  C   UNL     1      -6.055  35.887  24.883  1.00  0.00     0.053 C 
BRANCH   6   7
ATOM      7  C   UNL     1      -5.397  37.216  25.081  1.00  0.00     0.041 C 
ATOM      8  O   UNL     1      -4.565  37.379  26.012  1.00  0.00    -0.550 OA
ATOM      9  O   UNL     1      -5.740  38.289  24.268  1.00  0.00    -0.550 OA
ENDBRANCH   6   7
ENDBRANCH   5   6
ENDBRANCH   4   5
ENDBRANCH   3   4
ENDBRANCH   2   3
ENDBRANCH   1   2
BRANCH   1  10
ATOM     10  C   UNL     1      -3.595  37.652  19.634  1.00  0.00     0.000 C 
BRANCH  10  11
ATOM     11  C   UNL     1      -3.277  37.868  18.149  1.00  0.00    -0.000 C 
BRANCH  11  12
ATOM     12  C   UNL     1      -1.784  37.649  17.869  1.00  0.00    -0.000 C 
BRANCH  12  13
ATOM     13  C   UNL     1      -1.531  37.444  16.368  1.00  0.00    -0.000 C 
BRANCH  13  14
ATOM     14  C   UNL     1      -2.558  36.505  15.716  1.00  0.00    -0.000 C 
BRANCH  14  15
ATOM     15  C   UNL     1      -3.108  37.056  14.393  1.00  0.00    -0.003 C 
ATOM     16  C   UNL     1      -3.666  38.465  14.574  1.00  0.00     0.004 C 
ENDBRANCH  14  15
ENDBRANCH  13  14
ENDBRANCH  12  13
ENDBRANCH  11  12
ENDBRANCH  10  11
ENDBRANCH   1  10
TORSDOF 12
ENDMDL
MODEL 3
REMARK VINA RESULT:    -3.918      4.004      7.759
REMARK INTER + INTRA:          -7.406
REMARK INTER:                  -6.391
REMARK INTRA:                  -1.015
REMARK UNBOUND:                -0.739
REMARK SMILES CCCCCCCCCCCCCC(=O)[O-]
REMARK SMILES IDX 8 1 9 2 10 3 11 4 12 5 13 6 14 7 15 8 16 9 7 10 6 11 5 12
REMARK SMILES IDX 4 13 3 14 2 15 1 16
REMARK H PARENT
REMARK Flexibility Score: inf
ROOT
ATOM      1  C   UNL     1      -2.510  38.076  19.859  1.00  0.00     0.000 C 
ENDROOT
BRANCH   1   2
ATOM      2  C   UNL     1      -3.147  36.796  20.412  1.00  0.00     0.000 C 
BRANCH   2   3
ATOM      3  C   UNL     1      -4.293  36.316  19.507  1.00  0.00     0.000 C 
BRANCH   3   4
ATOM      4  C   UNL     1      -5.671  36.447  20.176  1.00  0.00     0.000 C 
BRANCH   4   5
ATOM      5  C   UNL     1      -5.782  35.627  21.469  1.00  0.00     0.006 C 
BRANCH   5   6
ATOM      6  C   UNL     1      -6.050  36.536  22.672  1.00  0.00     0.053 C 
BRANCH   6   7
ATOM      7  C   UNL     1      -5.787  35.805  23.950  1.00  0.00     0.041 C 
ATOM      8  O   UNL     1      -5.914  34.553  24.003  1.00  0.00    -0.550 OA
ATOM      9  O   UNL     1      -5.450  36.512  25.099  1.00  0.00    -0.550 OA
ENDBRANCH   6   7
ENDBRANCH   5   6
ENDBRANCH   4   5
ENDBRANCH   3   4
ENDBRANCH   2   3
ENDBRANCH   1   2
BRANCH   1  10
ATOM     10  C   UNL     1      -1.226  37.761  19.081  1.00  0.00     0.000 C 
BRANCH  10  11
ATOM     11  C   UNL     1      -1.321  38.263  17.635  1.00  0.00    -0.000 C 
BRANCH  11  12
ATOM     12  C   UNL     1      -1.071  37.124  16.639  1.00  0.00    -0.000 C 
BRANCH  12  13
ATOM     13  C   UNL     1      -2.363  36.338  16.368  1.00  0.00    -0.000 C 
BRANCH  13  14
ATOM     14  C   UNL     1      -3.489  37.222  15.812  1.00  0.00    -0.000 C 
BRANCH  14  15
ATOM     15  C   UNL     1      -3.335  37.502  14.310  1.00  0.00    -0.003 C 
ATOM     16  C   UNL     1      -4.214  38.671  13.876  1.00  0.00     0.004 C 
ENDBRANCH  14  15
ENDBRANCH  13  14
ENDBRANCH  12  13
ENDBRANCH  11  12
ENDBRANCH  10  11
ENDBRANCH   1  10
TORSDOF 12
ENDMDL
MODEL 4
REMARK VINA RESULT:    -3.613      3.768      7.277
REMARK INTER + INTRA:          -6.886
REMARK INTER:                  -5.814
REMARK INTRA:                  -1.072
REMARK UNBOUND:                -0.739
REMARK SMILES CCCCCCCCCCCCCC(=O)[O-]
REMARK SMILES IDX 8 1 9 2 10 3 11 4 12 5 13 6 14 7 15 8 16 9 7 10 6 11 5 12
REMARK SMILES IDX 4 13 3 14 2 15 1 16
REMARK H PARENT
REMARK Flexibility Score: inf
ROOT
ATOM      1  C   UNL     1      -2.345  36.731  20.657  1.00  0.00     0.000 C 
ENDROOT
BRANCH   1   2
ATOM      2  C   UNL     1      -3.659  35.945  20.730  1.00  0.00     0.000 C 
BRANCH   2   3
ATOM      3  C   UNL     1      -4.869  36.886  20.634  1.00  0.00     0.000 C 
BRANCH   3   4
ATOM      4  C   UNL     1      -5.686  36.935  21.935  1.00  0.00     0.000 C 
BRANCH   4   5
ATOM      5  C   UNL     1      -5.619  38.305  22.625  1.00  0.00     0.006 C 
BRANCH   5   6
ATOM      6  C   UNL     1      -5.570  39.436  21.594  1.00  0.00     0.053 C 
BRANCH   6   7
ATOM      7  C   UNL     1      -5.728  40.764  22.263  1.00  0.00     0.041 C 
ATOM      8  O   UNL     1      -6.122  41.764  21.606  1.00  0.00    -0.550 OA
ATOM      9  O   UNL     1      -5.392  40.911  23.604  1.00  0.00    -0.550 OA
ENDBRANCH   6   7
ENDBRANCH   5   6
ENDBRANCH   4   5
ENDBRANCH   3   4
ENDBRANCH   2   3
ENDBRANCH   1   2
BRANCH   1  10
ATOM     10  C   UNL     1      -2.518  38.018  19.841  1.00  0.00     0.000 C 
BRANCH  10  11
ATOM     11  C   UNL     1      -1.278  38.296  18.982  1.00  0.00    -0.000 C 
BRANCH  11  12
ATOM     12  C   UNL     1      -1.574  38.058  17.496  1.00  0.00    -0.000 C 
BRANCH  12  13
ATOM     13  C   UNL     1      -2.972  37.450  17.304  1.00  0.00    -0.000 C 
BRANCH  13  14
ATOM     14  C   UNL     1      -3.009  36.385  16.198  1.00  0.00    -0.000 C 
BRANCH  14  15
ATOM     15  C   UNL     1      -2.514  36.919  14.845  1.00  0.00    -0.003 C 
ATOM     16  C   UNL     1      -3.612  37.696  14.126  1.00  0.00     0.004 C 
ENDBRANCH  14  15
ENDBRANCH  13  14
ENDBRANCH  12  13
ENDBRANCH  11  12
ENDBRANCH  10  11
ENDBRANCH   1  10
TORSDOF 12
ENDMDL
MODEL 5
REMARK VINA RESULT:    -3.496      4.025      6.946
REMARK INTER + INTRA:          -6.687
REMARK INTER:                  -5.777
REMARK INTRA:                  -0.910
REMARK UNBOUND:                -0.739
REMARK SMILES CCCCCCCCCCCCCC(=O)[O-]
REMARK SMILES IDX 8 1 9 2 10 3 11 4 12 5 13 6 14 7 15 8 16 9 7 10 6 11 5 12
REMARK SMILES IDX 4 13 3 14 2 15 1 16
REMARK H PARENT
REMARK Flexibility Score: inf
ROOT
ATOM      1  C   UNL     1      -1.385  37.862  19.882  1.00  0.00     0.000 C 
ENDROOT
BRANCH   1   2
ATOM      2  C   UNL     1      -2.697  37.297  20.440  1.00  0.00     0.000 C 
BRANCH   2   3
ATOM      3  C   UNL     1      -3.906  38.071  19.892  1.00  0.00     0.000 C 
BRANCH   3   4
ATOM      4  C   UNL     1      -5.181  37.841  20.718  1.00  0.00     0.000 C 
BRANCH   4   5
ATOM      5  C   UNL     1      -5.075  36.621  21.644  1.00  0.00     0.006 C 
BRANCH   5   6
ATOM      6  C   UNL     1      -5.978  36.785  22.870  1.00  0.00     0.053 C 
BRANCH   6   7
ATOM      7  C   UNL     1      -5.561  35.847  23.958  1.00  0.00     0.041 C 
ATOM      8  O   UNL     1      -5.342  36.281  25.121  1.00  0.00    -0.550 OA
ATOM      9  O   UNL     1      -5.365  34.500  23.678  1.00  0.00    -0.550 OA
ENDBRANCH   6   7
ENDBRANCH   5   6
ENDBRANCH   4   5
ENDBRANCH   3   4
ENDBRANCH   2   3
ENDBRANCH   1   2
BRANCH   1  10
ATOM     10  C   UNL     1      -1.573  38.381  18.451  1.00  0.00     0.000 C 
BRANCH  10  11
ATOM     11  C   UNL     1      -1.092  37.349  17.424  1.00  0.00    -0.000 C 
BRANCH  11  12
ATOM     12  C   UNL     1      -1.918  37.430  16.134  1.00  0.00    -0.000 C 
BRANCH  12  13
ATOM     13  C   UNL     1      -2.973  36.315  16.086  1.00  0.00    -0.000 C 
BRANCH  13  14
ATOM     14  C   UNL     1      -3.925  36.347  17.292  1.00  0.00    -0.000 C 
BRANCH  14  15
ATOM     15  C   UNL     1      -4.197  34.950  17.869  1.00  0.00    -0.003 C 
ATOM     16  C   UNL     1      -5.549  34.899  18.573  1.00  0.00     0.004 C 
ENDBRANCH  14  15
ENDBRANCH  13  14
ENDBRANCH  12  13
ENDBRANCH  11  12
ENDBRANCH  10  11
ENDBRANCH   1  10
TORSDOF 12
ENDMDL
MODEL 6
REMARK VINA RESULT:    -3.483      2.363      3.025
REMARK INTER + INTRA:          -6.665
REMARK INTER:                  -5.875
REMARK INTRA:                  -0.790
REMARK UNBOUND:                -0.739
REMARK SMILES CCCCCCCCCCCCCC(=O)[O-]
REMARK SMILES IDX 8 1 9 2 10 3 11 4 12 5 13 6 14 7 15 8 16 9 7 10 6 11 5 12
REMARK SMILES IDX 4 13 3 14 2 15 1 16
REMARK H PARENT
REMARK Flexibility Score: inf
ROOT
ATOM      1  C   UNL     1      -4.696  37.157  19.255  1.00  0.00     0.000 C 
ENDROOT
BRANCH   1   2
ATOM      2  C   UNL     1      -4.844  35.700  18.801  1.00  0.00     0.000 C 
BRANCH   2   3
ATOM      3  C   UNL     1      -3.871  35.380  17.656  1.00  0.00     0.000 C 
BRANCH   3   4
ATOM      4  C   UNL     1      -3.549  36.609  16.791  1.00  0.00     0.000 C 
BRANCH   4   5
ATOM      5  C   UNL     1      -2.070  37.014  16.864  1.00  0.00     0.006 C 
BRANCH   5   6
ATOM      6  C   UNL     1      -1.894  38.304  17.670  1.00  0.00     0.053 C 
BRANCH   6   7
ATOM      7  C   UNL     1      -1.001  38.069  18.847  1.00  0.00     0.041 C 
ATOM      8  O   UNL     1       0.250  38.043  18.699  1.00  0.00    -0.550 OA
ATOM      9  O   UNL     1      -1.550  37.829  20.100  1.00  0.00    -0.550 OA
ENDBRANCH   6   7
ENDBRANCH   5   6
ENDBRANCH   4   5
ENDBRANCH   3   4
ENDBRANCH   2   3
ENDBRANCH   1   2
BRANCH   1  10
ATOM     10  C   UNL     1      -5.046  37.309  20.741  1.00  0.00     0.000 C 
BRANCH  10  11
ATOM     11  C   UNL     1      -5.682  36.027  21.291  1.00  0.00    -0.000 C 
BRANCH  11  12
ATOM     12  C   UNL     1      -5.000  35.589  22.593  1.00  0.00    -0.000 C 
BRANCH  12  13
ATOM     13  C   UNL     1      -6.009  34.934  23.549  1.00  0.00    -0.000 C 
BRANCH  13  14
ATOM     14  C   UNL     1      -6.125  35.677  24.888  1.00  0.00    -0.000 C 
BRANCH  14  15
ATOM     15  C   UNL     1      -4.905  36.562  25.182  1.00  0.00    -0.003 C 
ATOM     16  C   UNL     1      -5.328  37.990  25.513  1.00  0.00     0.004 C 
ENDBRANCH  14  15
ENDBRANCH  13  14
ENDBRANCH  12  13
ENDBRANCH  11  12
ENDBRANCH  10  11
ENDBRANCH   1  10
TORSDOF 12
ENDMDL
MODEL 7
REMARK VINA RESULT:    -3.455      3.802      7.345
REMARK INTER + INTRA:          -6.617
REMARK INTER:                  -5.526
REMARK INTRA:                  -1.092
REMARK UNBOUND:                -0.739
REMARK SMILES CCCCCCCCCCCCCC(=O)[O-]
REMARK SMILES IDX 8 1 9 2 10 3 11 4 12 5 13 6 14 7 15 8 16 9 7 10 6 11 5 12
REMARK SMILES IDX 4 13 3 14 2 15 1 16
REMARK H PARENT
REMARK Flexibility Score: inf
ROOT
ATOM      1  C   UNL     1      -4.118  35.970  21.272  1.00  0.00     0.000 C 
ENDROOT
BRANCH   1   2
ATOM      2  C   UNL     1      -4.957  35.522  22.475  1.00  0.00     0.000 C 
BRANCH   2   3
ATOM      3  C   UNL     1      -5.924  36.632  22.914  1.00  0.00     0.000 C 
BRANCH   3   4
ATOM      4  C   UNL     1      -5.589  37.193  24.306  1.00  0.00     0.000 C 
BRANCH   4   5
ATOM      5  C   UNL     1      -5.387  38.715  24.299  1.00  0.00     0.006 C 
BRANCH   5   6
ATOM      6  C   UNL     1      -5.387  39.260  22.867  1.00  0.00     0.053 C 
BRANCH   6   7
ATOM      7  C   UNL     1      -5.666  40.729  22.866  1.00  0.00     0.041 C 
ATOM      8  O   UNL     1      -5.657  41.378  23.946  1.00  0.00    -0.550 OA
ATOM      9  O   UNL     1      -5.986  41.375  21.678  1.00  0.00    -0.550 OA
ENDBRANCH   6   7
ENDBRANCH   5   6
ENDBRANCH   4   5
ENDBRANCH   3   4
ENDBRANCH   2   3
ENDBRANCH   1   2
BRANCH   1  10
ATOM     10  C   UNL     1      -5.001  36.601  20.188  1.00  0.00     0.000 C 
BRANCH  10  11
ATOM     11  C   UNL     1      -4.344  37.858  19.606  1.00  0.00    -0.000 C 
BRANCH  11  12
ATOM     12  C   UNL     1      -2.818  37.801  19.757  1.00  0.00    -0.000 C 
BRANCH  12  13
ATOM     13  C   UNL     1      -2.123  38.074  18.414  1.00  0.00    -0.000 C 
BRANCH  13  14
ATOM     14  C   UNL     1      -2.874  37.460  17.223  1.00  0.00    -0.000 C 
BRANCH  14  15
ATOM     15  C   UNL     1      -1.930  36.829  16.189  1.00  0.00    -0.003 C 
ATOM     16  C   UNL     1      -2.499  36.951  14.779  1.00  0.00     0.004 C 
ENDBRANCH  14  15
ENDBRANCH  13  14
ENDBRANCH  12  13
ENDBRANCH  11  12
ENDBRANCH  10  11
ENDBRANCH   1  10
TORSDOF 12
ENDMDL
MODEL 8
REMARK VINA RESULT:    -3.338      1.863      3.122
REMARK INTER + INTRA:          -6.418
REMARK INTER:                  -5.469
REMARK INTRA:                  -0.949
REMARK UNBOUND:                -0.739
REMARK SMILES CCCCCCCCCCCCCC(=O)[O-]
REMARK SMILES IDX 8 1 9 2 10 3 11 4 12 5 13 6 14 7 15 8 16 9 7 10 6 11 5 12
REMARK SMILES IDX 4 13 3 14 2 15 1 16
REMARK H PARENT
REMARK Flexibility Score: inf
ROOT
ATOM      1  C   UNL     1      -4.214  35.612  21.935  1.00  0.00     0.000 C 
ENDROOT
BRANCH   1   2
ATOM      2  C   UNL     1      -4.940  36.654  21.076  1.00  0.00     0.000 C 
BRANCH   2   3
ATOM      3  C   UNL     1      -5.291  36.080  19.695  1.00  0.00     0.000 C 
BRANCH   3   4
ATOM      4  C   UNL     1      -4.200  36.351  18.646  1.00  0.00     0.000 C 
BRANCH   4   5
ATOM      5  C   UNL     1      -3.662  37.787  18.708  1.00  0.00     0.006 C 
BRANCH   5   6
ATOM      6  C   UNL     1      -2.251  37.869  18.116  1.00  0.00     0.053 C 
BRANCH   6   7
ATOM      7  C   UNL     1      -2.270  37.511  16.664  1.00  0.00     0.041 C 
ATOM      8  O   UNL     1      -2.984  38.165  15.859  1.00  0.00    -0.550 OA
ATOM      9  O   UNL     1      -1.537  36.423  16.207  1.00  0.00    -0.550 OA
ENDBRANCH   6   7
ENDBRANCH   5   6
ENDBRANCH   4   5
ENDBRANCH   3   4
ENDBRANCH   2   3
ENDBRANCH   1   2
BRANCH   1  10
ATOM     10  C   UNL     1      -5.055  35.223  23.157  1.00  0.00     0.000 C 
BRANCH  10  11
ATOM     11  C   UNL     1      -6.055  36.331  23.512  1.00  0.00    -0.000 C 
BRANCH  11  12
ATOM     12  C   UNL     1      -5.973  36.690  25.000  1.00  0.00    -0.000 C 
BRANCH  12  13
ATOM     13  C   UNL     1      -5.322  38.068  25.198  1.00  0.00    -0.000 C 
BRANCH  13  14
ATOM     14  C   UNL     1      -5.131  38.828  23.876  1.00  0.00    -0.000 C 
BRANCH  14  15
ATOM     15  C   UNL     1      -5.399  40.334  24.015  1.00  0.00    -0.003 C 
ATOM     16  C   UNL     1      -5.622  40.980  22.652  1.00  0.00     0.004 C 
ENDBRANCH  14  15
ENDBRANCH  13  14
ENDBRANCH  12  13
ENDBRANCH  11  12
ENDBRANCH  10  11
ENDBRANCH   1  10
TORSDOF 12
ENDMDL
MODEL 9
REMARK VINA RESULT:    -3.299      2.283      3.649
REMARK INTER + INTRA:          -6.352
REMARK INTER:                  -5.409
REMARK INTRA:                  -0.943
REMARK UNBOUND:                -0.739
REMARK SMILES CCCCCCCCCCCCCC(=O)[O-]
REMARK SMILES IDX 8 1 9 2 10 3 11 4 12 5 13 6 14 7 15 8 16 9 7 10 6 11 5 12
REMARK SMILES IDX 4 13 3 14 2 15 1 16
REMARK H PARENT
REMARK Flexibility Score: inf
ROOT
ATOM      1  C   UNL     1      -4.814  35.194  22.676  1.00  0.00     0.000 C 
ENDROOT
BRANCH   1   2
ATOM      2  C   UNL     1      -4.152  35.960  21.524  1.00  0.00     0.000 C 
BRANCH   2   3
ATOM      3  C   UNL     1      -5.206  36.494  20.542  1.00  0.00     0.000 C 
BRANCH   3   4
ATOM      4  C   UNL     1      -4.691  37.677  19.706  1.00  0.00     0.000 C 
BRANCH   4   5
ATOM      5  C   UNL     1      -3.383  37.358  18.970  1.00  0.00     0.006 C 
BRANCH   5   6
ATOM      6  C   UNL     1      -3.661  36.659  17.636  1.00  0.00     0.053 C 
BRANCH   6   7
ATOM      7  C   UNL     1      -2.752  37.183  16.570  1.00  0.00     0.041 C 
ATOM      8  O   UNL     1      -1.572  36.753  16.474  1.00  0.00    -0.550 OA
ATOM      9  O   UNL     1      -3.191  38.184  15.712  1.00  0.00    -0.550 OA
ENDBRANCH   6   7
ENDBRANCH   5   6
ENDBRANCH   4   5
ENDBRANCH   3   4
ENDBRANCH   2   3
ENDBRANCH   1   2
BRANCH   1  10
ATOM     10  C   UNL     1      -5.985  35.991  23.266  1.00  0.00     0.000 C 
BRANCH  10  11
ATOM     11  C   UNL     1      -5.754  36.287  24.753  1.00  0.00    -0.000 C 
BRANCH  11  12
ATOM     12  C   UNL     1      -5.473  37.778  24.980  1.00  0.00    -0.000 C 
BRANCH  12  13
ATOM     13  C   UNL     1      -5.678  38.578  23.685  1.00  0.00    -0.000 C 
BRANCH  13  14
ATOM     14  C   UNL     1      -5.278  40.055  23.831  1.00  0.00    -0.000 C 
BRANCH  14  15
ATOM     15  C   UNL     1      -5.431  40.842  22.522  1.00  0.00    -0.003 C 
ATOM     16  C   UNL     1      -6.124  42.179  22.762  1.00  0.00     0.004 C 
ENDBRANCH  14  15
ENDBRANCH  13  14
ENDBRANCH  12  13
ENDBRANCH  11  12
ENDBRANCH  10  11
ENDBRANCH   1  10
TORSDOF 12
ENDMDL
