MODEL 1
REMARK VINA RESULT:    -5.895      0.000      0.000
REMARK INTER + INTRA:          -6.412
REMARK INTER:                  -6.412
REMARK INTRA:                   0.000
REMARK UNBOUND:                 0.000
REMARK SMILES Cc1cc(O)c2c(c1)C(=O)c1cc(O)cc(O)c1C2=O
REMARK SMILES IDX 1 1 2 2 8 3 7 4 6 5 4 6 3 7 19 8 20 9 18 10 11 11 9 12 10 13
REMARK SMILES IDX 12 14 13 15 15 16 16 17 5 18 17 20 14 22
REMARK H PARENT 5 19 17 21 14 23
REMARK Flexibility Score: inf
ROOT
ATOM      1  C   UNL     1      39.526  -7.998  42.636  1.00  0.00     0.044 C 
ATOM      2  C   UNL     1      40.862  -7.656  42.044  1.00  0.00    -0.047 A 
ATOM      3  C   UNL     1      41.683  -8.665  41.528  1.00  0.00     0.016 A 
ATOM      4  C   UNL     1      42.916  -8.350  40.933  1.00  0.00     0.038 A 
ATOM      5  C   UNL     1      43.323  -7.002  40.829  1.00  0.00     0.076 A 
ATOM      6  C   UNL     1      42.509  -5.987  41.395  1.00  0.00     0.127 A 
ATOM      7  C   UNL     1      41.277  -6.322  41.965  1.00  0.00     0.050 A 
ATOM      8  C   UNL     1      44.561  -6.699  40.063  1.00  0.00     0.201 C 
ATOM      9  O   UNL     1      44.671  -5.599  39.458  1.00  0.00    -0.288 OA
ATOM     10  C   UNL     1      45.578  -7.762  39.856  1.00  0.00     0.076 A 
ATOM     11  C   UNL     1      45.167  -9.109  39.961  1.00  0.00     0.041 A 
ATOM     12  C   UNL     1      43.793  -9.428  40.417  1.00  0.00     0.194 C 
ATOM     13  O   UNL     1      43.380 -10.620  40.390  1.00  0.00    -0.289 OA
ATOM     14  C   UNL     1      46.064 -10.141  39.637  1.00  0.00     0.059 A 
ATOM     15  C   UNL     1      47.365  -9.848  39.227  1.00  0.00     0.120 A 
ATOM     16  C   UNL     1      47.788  -8.519  39.160  1.00  0.00     0.093 A 
ATOM     17  C   UNL     1      46.921  -7.474  39.496  1.00  0.00     0.131 A 
ENDROOT
BRANCH   6  18
ATOM     18  O   UNL     1      42.896  -4.646  41.443  1.00  0.00    -0.507 OA
ATOM     19  H   UNL     1      43.805  -4.316  41.148  1.00  0.00     0.293 HD
ENDBRANCH   6  18
BRANCH  17  20
ATOM     20  O   UNL     1      47.442  -6.178  39.494  1.00  0.00    -0.507 OA
ATOM     21  H   UNL     1      48.306  -5.923  39.035  1.00  0.00     0.293 HD
ENDBRANCH  17  20
BRANCH  15  22
ATOM     22  O   UNL     1      48.232 -10.888  38.898  1.00  0.00    -0.508 OA
ATOM     23  H   UNL     1      47.943 -11.857  38.960  1.00  0.00     0.293 HD
ENDBRANCH  15  22
TORSDOF 3
ENDMDL
MODEL 2
REMARK VINA RESULT:    -5.720     13.974     15.483
REMARK INTER + INTRA:          -6.222
REMARK INTER:                  -6.222
REMARK INTRA:                   0.000
REMARK UNBOUND:                 0.000
REMARK SMILES Cc1cc(O)c2c(c1)C(=O)c1cc(O)cc(O)c1C2=O
REMARK SMILES IDX 1 1 2 2 8 3 7 4 6 5 4 6 3 7 19 8 20 9 18 10 11 11 9 12 10 13
REMARK SMILES IDX 12 14 13 15 15 16 16 17 5 18 17 20 14 22
REMARK H PARENT 5 19 17 21 14 23
REMARK Flexibility Score: inf
ROOT
ATOM      1  C   UNL     1      32.609 -16.990  27.087  1.00  0.00     0.044 C 
ATOM      2  C   UNL     1      33.630 -16.244  27.896  1.00  0.00    -0.047 A 
ATOM      3  C   UNL     1      33.247 -15.558  29.054  1.00  0.00     0.016 A 
ATOM      4  C   UNL     1      34.202 -14.893  29.841  1.00  0.00     0.038 A 
ATOM      5  C   UNL     1      35.567 -14.936  29.478  1.00  0.00     0.076 A 
ATOM      6  C   UNL     1      35.942 -15.593  28.278  1.00  0.00     0.127 A 
ATOM      7  C   UNL     1      34.978 -16.264  27.522  1.00  0.00     0.050 A 
ATOM      8  C   UNL     1      36.561 -14.348  30.413  1.00  0.00     0.201 C 
ATOM      9  O   UNL     1      37.727 -14.822  30.469  1.00  0.00    -0.288 OA
ATOM     10  C   UNL     1      36.127 -13.334  31.409  1.00  0.00     0.076 A 
ATOM     11  C   UNL     1      34.761 -13.294  31.769  1.00  0.00     0.041 A 
ATOM     12  C   UNL     1      33.783 -14.143  31.050  1.00  0.00     0.194 C 
ATOM     13  O   UNL     1      32.588 -14.209  31.451  1.00  0.00    -0.289 OA
ATOM     14  C   UNL     1      34.336 -12.446  32.806  1.00  0.00     0.059 A 
ATOM     15  C   UNL     1      35.249 -11.629  33.473  1.00  0.00     0.120 A 
ATOM     16  C   UNL     1      36.593 -11.635  33.093  1.00  0.00     0.093 A 
ATOM     17  C   UNL     1      37.038 -12.455  32.052  1.00  0.00     0.131 A 
ENDROOT
BRANCH   6  18
ATOM     18  O   UNL     1      37.250 -15.576  27.786  1.00  0.00    -0.507 OA
ATOM     19  H   UNL     1      37.488 -15.307  26.841  1.00  0.00     0.293 HD
ENDBRANCH   6  18
BRANCH  17  20
ATOM     20  O   UNL     1      38.376 -12.341  31.668  1.00  0.00    -0.507 OA
ATOM     21  H   UNL     1      38.883 -13.069  31.184  1.00  0.00     0.293 HD
ENDBRANCH  17  20
BRANCH  15  22
ATOM     22  O   UNL     1      34.806 -10.806  34.506  1.00  0.00    -0.508 OA
ATOM     23  H   UNL     1      34.114 -10.083  34.347  1.00  0.00     0.293 HD
ENDBRANCH  15  22
TORSDOF 3
ENDMDL
MODEL 3
REMARK VINA RESULT:    -5.398      1.845      5.621
REMARK INTER + INTRA:          -5.871
REMARK INTER:                  -5.871
REMARK INTRA:                   0.000
REMARK UNBOUND:                 0.000
REMARK SMILES Cc1cc(O)c2c(c1)C(=O)c1cc(O)cc(O)c1C2=O
REMARK SMILES IDX 1 1 2 2 8 3 7 4 6 5 4 6 3 7 19 8 20 9 18 10 11 11 9 12 10 13
REMARK SMILES IDX 12 14 13 15 15 16 16 17 5 18 17 20 14 22
REMARK H PARENT 5 19 17 21 14 23
REMARK Flexibility Score: inf
ROOT
ATOM      1  C   UNL     1      48.593  -9.887  39.814  1.00  0.00     0.044 C 
ATOM      2  C   UNL     1      47.313  -9.134  40.027  1.00  0.00    -0.047 A 
ATOM      3  C   UNL     1      46.391  -9.569  40.986  1.00  0.00     0.016 A 
ATOM      4  C   UNL     1      45.210  -8.846  41.224  1.00  0.00     0.038 A 
ATOM      5  C   UNL     1      44.958  -7.654  40.509  1.00  0.00     0.076 A 
ATOM      6  C   UNL     1      45.873  -7.244  39.505  1.00  0.00     0.127 A 
ATOM      7  C   UNL     1      47.051  -7.968  39.300  1.00  0.00     0.050 A 
ATOM      8  C   UNL     1      43.774  -6.842  40.892  1.00  0.00     0.201 C 
ATOM      9  O   UNL     1      43.797  -5.591  40.745  1.00  0.00    -0.288 OA
ATOM     10  C   UNL     1      42.646  -7.480  41.620  1.00  0.00     0.076 A 
ATOM     11  C   UNL     1      42.903  -8.672  42.334  1.00  0.00     0.041 A 
ATOM     12  C   UNL     1      44.225  -9.332  42.220  1.00  0.00     0.194 C 
ATOM     13  O   UNL     1      44.502 -10.321  42.952  1.00  0.00    -0.289 OA
ATOM     14  C   UNL     1      41.900  -9.230  43.146  1.00  0.00     0.059 A 
ATOM     15  C   UNL     1      40.647  -8.624  43.241  1.00  0.00     0.120 A 
ATOM     16  C   UNL     1      40.376  -7.468  42.506  1.00  0.00     0.093 A 
ATOM     17  C   UNL     1      41.350  -6.905  41.676  1.00  0.00     0.131 A 
ENDROOT
BRANCH   6  18
ATOM     18  O   UNL     1      45.638  -6.148  38.671  1.00  0.00    -0.507 OA
ATOM     19  H   UNL     1      44.796  -6.032  38.124  1.00  0.00     0.293 HD
ENDBRANCH   6  18
BRANCH  17  20
ATOM     20  O   UNL     1      40.978  -5.803  40.902  1.00  0.00    -0.507 OA
ATOM     21  H   UNL     1      40.148  -5.779  40.326  1.00  0.00     0.293 HD
ENDBRANCH  17  20
BRANCH  15  22
ATOM     22  O   UNL     1      39.673  -9.189  44.063  1.00  0.00    -0.508 OA
ATOM     23  H   UNL     1      38.797  -9.531  43.687  1.00  0.00     0.293 HD
ENDBRANCH  15  22
TORSDOF 3
ENDMDL
MODEL 4
REMARK VINA RESULT:    -5.383      1.412      6.194
REMARK INTER + INTRA:          -5.856
REMARK INTER:                  -5.856
REMARK INTRA:                   0.000
REMARK UNBOUND:                 0.000
REMARK SMILES Cc1cc(O)c2c(c1)C(=O)c1cc(O)cc(O)c1C2=O
REMARK SMILES IDX 1 1 2 2 8 3 7 4 6 5 4 6 3 7 19 8 20 9 18 10 11 11 9 12 10 13
REMARK SMILES IDX 12 14 13 15 15 16 16 17 5 18 17 20 14 22
REMARK H PARENT 5 19 17 21 14 23
REMARK Flexibility Score: inf
ROOT
ATOM      1  C   UNL     1      49.288 -10.273  38.903  1.00  0.00     0.044 C 
ATOM      2  C   UNL     1      47.852 -10.015  39.254  1.00  0.00    -0.047 A 
ATOM      3  C   UNL     1      47.421  -8.716  39.546  1.00  0.00     0.016 A 
ATOM      4  C   UNL     1      46.069  -8.458  39.833  1.00  0.00     0.038 A 
ATOM      5  C   UNL     1      45.129  -9.512  39.802  1.00  0.00     0.076 A 
ATOM      6  C   UNL     1      45.581 -10.834  39.551  1.00  0.00     0.127 A 
ATOM      7  C   UNL     1      46.926 -11.063  39.249  1.00  0.00     0.050 A 
ATOM      8  C   UNL     1      43.691  -9.176  39.965  1.00  0.00     0.201 C 
ATOM      9  O   UNL     1      42.813  -9.885  39.406  1.00  0.00    -0.288 OA
ATOM     10  C   UNL     1      43.302  -7.901  40.623  1.00  0.00     0.076 A 
ATOM     11  C   UNL     1      44.245  -6.850  40.652  1.00  0.00     0.041 A 
ATOM     12  C   UNL     1      45.627  -7.084  40.172  1.00  0.00     0.194 C 
ATOM     13  O   UNL     1      46.434  -6.119  40.075  1.00  0.00    -0.289 OA
ATOM     14  C   UNL     1      43.869  -5.587  41.141  1.00  0.00     0.059 A 
ATOM     15  C   UNL     1      42.575  -5.366  41.614  1.00  0.00     0.120 A 
ATOM     16  C   UNL     1      41.651  -6.414  41.625  1.00  0.00     0.093 A 
ATOM     17  C   UNL     1      42.006  -7.685  41.162  1.00  0.00     0.131 A 
ENDROOT
BRANCH   6  18
ATOM     18  O   UNL     1      44.738 -11.946  39.624  1.00  0.00    -0.507 OA
ATOM     19  H   UNL     1      43.989 -12.037  40.297  1.00  0.00     0.293 HD
ENDBRANCH   6  18
BRANCH  17  20
ATOM     20  O   UNL     1      41.060  -8.704  41.289  1.00  0.00    -0.507 OA
ATOM     21  H   UNL     1      40.732  -9.263  40.513  1.00  0.00     0.293 HD
ENDBRANCH  17  20
BRANCH  15  22
ATOM     22  O   UNL     1      42.222  -4.102  42.082  1.00  0.00    -0.508 OA
ATOM     23  H   UNL     1      41.823  -3.403  41.467  1.00  0.00     0.293 HD
ENDBRANCH  15  22
TORSDOF 3
ENDMDL
MODEL 5
REMARK VINA RESULT:    -5.380      2.016      6.194
REMARK INTER + INTRA:          -5.852
REMARK INTER:                  -5.852
REMARK INTRA:                   0.000
REMARK UNBOUND:                 0.000
REMARK SMILES Cc1cc(O)c2c(c1)C(=O)c1cc(O)cc(O)c1C2=O
REMARK SMILES IDX 1 1 2 2 8 3 7 4 6 5 4 6 3 7 19 8 20 9 18 10 11 11 9 12 10 13
REMARK SMILES IDX 12 14 13 15 15 16 16 17 5 18 17 20 14 22
REMARK H PARENT 5 19 17 21 14 23
REMARK Flexibility Score: inf
ROOT
ATOM      1  C   UNL     1      49.040 -10.245  39.252  1.00  0.00     0.044 C 
ATOM      2  C   UNL     1      47.855  -9.905  40.106  1.00  0.00    -0.047 A 
ATOM      3  C   UNL     1      47.000  -8.859  39.741  1.00  0.00     0.016 A 
ATOM      4  C   UNL     1      45.863  -8.561  40.512  1.00  0.00     0.038 A 
ATOM      5  C   UNL     1      45.562  -9.340  41.652  1.00  0.00     0.076 A 
ATOM      6  C   UNL     1      46.457 -10.369  42.043  1.00  0.00     0.127 A 
ATOM      7  C   UNL     1      47.571 -10.659  41.250  1.00  0.00     0.050 A 
ATOM      8  C   UNL     1      44.275  -9.089  42.353  1.00  0.00     0.201 C 
ATOM      9  O   UNL     1      43.692 -10.033  42.950  1.00  0.00    -0.288 OA
ATOM     10  C   UNL     1      43.588  -7.782  42.189  1.00  0.00     0.076 A 
ATOM     11  C   UNL     1      43.893  -7.007  41.048  1.00  0.00     0.041 A 
ATOM     12  C   UNL     1      44.980  -7.432  40.135  1.00  0.00     0.194 C 
ATOM     13  O   UNL     1      45.170  -6.816  39.050  1.00  0.00    -0.289 OA
ATOM     14  C   UNL     1      43.165  -5.833  40.786  1.00  0.00     0.059 A 
ATOM     15  C   UNL     1      42.155  -5.417  41.652  1.00  0.00     0.120 A 
ATOM     16  C   UNL     1      41.878  -6.158  42.803  1.00  0.00     0.093 A 
ATOM     17  C   UNL     1      42.600  -7.319  43.097  1.00  0.00     0.131 A 
ENDROOT
BRANCH   6  18
ATOM     18  O   UNL     1      46.297 -11.101  43.221  1.00  0.00    -0.507 OA
ATOM     19  H   UNL     1      46.957 -11.079  43.987  1.00  0.00     0.293 HD
ENDBRANCH   6  18
BRANCH  17  20
ATOM     20  O   UNL     1      42.330  -7.957  44.309  1.00  0.00    -0.507 OA
ATOM     21  H   UNL     1      41.908  -7.494  45.103  1.00  0.00     0.293 HD
ENDBRANCH  17  20
BRANCH  15  22
ATOM     22  O   UNL     1      41.439  -4.257  41.365  1.00  0.00    -0.508 OA
ATOM     23  H   UNL     1      40.492  -4.122  41.700  1.00  0.00     0.293 HD
ENDBRANCH  15  22
TORSDOF 3
ENDMDL
MODEL 6
REMARK VINA RESULT:    -5.248      2.571      3.331
REMARK INTER + INTRA:          -5.708
REMARK INTER:                  -5.708
REMARK INTRA:                   0.000
REMARK UNBOUND:                 0.000
REMARK SMILES Cc1cc(O)c2c(c1)C(=O)c1cc(O)cc(O)c1C2=O
REMARK SMILES IDX 1 1 2 2 8 3 7 4 6 5 4 6 3 7 19 8 20 9 18 10 11 11 9 12 10 13
REMARK SMILES IDX 12 14 13 15 15 16 16 17 5 18 17 20 14 22
REMARK H PARENT 5 19 17 21 14 23
REMARK Flexibility Score: inf
ROOT
ATOM      1  C   UNL     1      41.337  -7.044  41.270  1.00  0.00     0.044 C 
ATOM      2  C   UNL     1      42.770  -7.425  41.037  1.00  0.00    -0.047 A 
ATOM      3  C   UNL     1      43.360  -8.443  41.794  1.00  0.00     0.016 A 
ATOM      4  C   UNL     1      44.688  -8.837  41.553  1.00  0.00     0.038 A 
ATOM      5  C   UNL     1      45.428  -8.220  40.520  1.00  0.00     0.076 A 
ATOM      6  C   UNL     1      44.840  -7.157  39.787  1.00  0.00     0.127 A 
ATOM      7  C   UNL     1      43.511  -6.796  40.031  1.00  0.00     0.050 A 
ATOM      8  C   UNL     1      46.774  -8.764  40.199  1.00  0.00     0.201 C 
ATOM      9  O   UNL     1      47.217  -8.687  39.023  1.00  0.00    -0.288 OA
ATOM     10  C   UNL     1      47.508  -9.561  41.215  1.00  0.00     0.076 A 
ATOM     11  C   UNL     1      46.763 -10.177  42.246  1.00  0.00     0.041 A 
ATOM     12  C   UNL     1      45.315  -9.895  42.380  1.00  0.00     0.194 C 
ATOM     13  O   UNL     1      44.621 -10.539  43.215  1.00  0.00    -0.289 OA
ATOM     14  C   UNL     1      47.402 -11.050  43.144  1.00  0.00     0.059 A 
ATOM     15  C   UNL     1      48.769 -11.302  43.036  1.00  0.00     0.120 A 
ATOM     16  C   UNL     1      49.517 -10.665  42.043  1.00  0.00     0.093 A 
ATOM     17  C   UNL     1      48.910  -9.777  41.150  1.00  0.00     0.131 A 
ENDROOT
BRANCH   6  18
ATOM     18  O   UNL     1      45.544  -6.415  38.836  1.00  0.00    -0.507 OA
ATOM     19  H   UNL     1      46.444  -5.991  39.013  1.00  0.00     0.293 HD
ENDBRANCH   6  18
BRANCH  17  20
ATOM     20  O   UNL     1      49.735  -9.108  40.244  1.00  0.00    -0.507 OA
ATOM     21  H   UNL     1      49.636  -8.129  40.014  1.00  0.00     0.293 HD
ENDBRANCH  17  20
BRANCH  15  22
ATOM     22  O   UNL     1      49.377 -12.182  43.930  1.00  0.00    -0.508 OA
ATOM     23  H   UNL     1      50.379 -12.174  44.080  1.00  0.00     0.293 HD
ENDBRANCH  15  22
TORSDOF 3
ENDMDL
MODEL 7
REMARK VINA RESULT:    -5.228     13.067     15.155
REMARK INTER + INTRA:          -5.686
REMARK INTER:                  -5.686
REMARK INTRA:                   0.000
REMARK UNBOUND:                 0.000
REMARK SMILES Cc1cc(O)c2c(c1)C(=O)c1cc(O)cc(O)c1C2=O
REMARK SMILES IDX 1 1 2 2 8 3 7 4 6 5 4 6 3 7 19 8 20 9 18 10 11 11 9 12 10 13
REMARK SMILES IDX 12 14 13 15 15 16 16 17 5 18 17 20 14 22
REMARK H PARENT 5 19 17 21 14 23
REMARK Flexibility Score: inf
ROOT
ATOM      1  C   UNL     1      35.597 -15.871  28.168  1.00  0.00     0.044 C 
ATOM      2  C   UNL     1      35.469 -14.910  29.314  1.00  0.00    -0.047 A 
ATOM      3  C   UNL     1      34.207 -14.584  29.822  1.00  0.00     0.016 A 
ATOM      4  C   UNL     1      34.079 -13.719  30.923  1.00  0.00     0.038 A 
ATOM      5  C   UNL     1      35.235 -13.193  31.542  1.00  0.00     0.076 A 
ATOM      6  C   UNL     1      36.509 -13.491  30.993  1.00  0.00     0.127 A 
ATOM      7  C   UNL     1      36.612 -14.368  29.910  1.00  0.00     0.050 A 
ATOM      8  C   UNL     1      35.066 -12.405  32.790  1.00  0.00     0.201 C 
ATOM      9  O   UNL     1      35.976 -12.405  33.661  1.00  0.00    -0.288 OA
ATOM     10  C   UNL     1      33.754 -11.775  33.093  1.00  0.00     0.076 A 
ATOM     11  C   UNL     1      32.601 -12.304  32.471  1.00  0.00     0.041 A 
ATOM     12  C   UNL     1      32.737 -13.355  31.435  1.00  0.00     0.194 C 
ATOM     13  O   UNL     1      31.709 -13.921  30.971  1.00  0.00    -0.289 OA
ATOM     14  C   UNL     1      31.330 -11.828  32.836  1.00  0.00     0.059 A 
ATOM     15  C   UNL     1      31.197 -10.825  33.796  1.00  0.00     0.120 A 
ATOM     16  C   UNL     1      32.336 -10.270  34.383  1.00  0.00     0.093 A 
ATOM     17  C   UNL     1      33.613 -10.713  34.024  1.00  0.00     0.131 A 
ENDROOT
BRANCH   6  18
ATOM     18  O   UNL     1      37.689 -12.914  31.469  1.00  0.00    -0.507 OA
ATOM     19  H   UNL     1      37.740 -12.357  32.311  1.00  0.00     0.293 HD
ENDBRANCH   6  18
BRANCH  17  20
ATOM     20  O   UNL     1      34.707 -10.050  34.584  1.00  0.00    -0.507 OA
ATOM     21  H   UNL     1      34.630  -9.390  35.347  1.00  0.00     0.293 HD
ENDBRANCH  17  20
BRANCH  15  22
ATOM     22  O   UNL     1      29.925 -10.378  34.150  1.00  0.00    -0.508 OA
ATOM     23  H   UNL     1      29.565 -10.499  35.089  1.00  0.00     0.293 HD
ENDBRANCH  15  22
TORSDOF 3
ENDMDL
MODEL 8
REMARK VINA RESULT:    -5.079      2.654      6.046
REMARK INTER + INTRA:          -5.525
REMARK INTER:                  -5.525
REMARK INTRA:                   0.000
REMARK UNBOUND:                 0.000
REMARK SMILES Cc1cc(O)c2c(c1)C(=O)c1cc(O)cc(O)c1C2=O
REMARK SMILES IDX 1 1 2 2 8 3 7 4 6 5 4 6 3 7 19 8 20 9 18 10 11 11 9 12 10 13
REMARK SMILES IDX 12 14 13 15 15 16 16 17 5 18 17 20 14 22
REMARK H PARENT 5 19 17 21 14 23
REMARK Flexibility Score: inf
ROOT
ATOM      1  C   UNL     1      50.057 -10.694  42.679  1.00  0.00     0.044 C 
ATOM      2  C   UNL     1      48.847 -10.054  42.065  1.00  0.00    -0.047 A 
ATOM      3  C   UNL     1      47.866  -9.476  42.880  1.00  0.00     0.016 A 
ATOM      4  C   UNL     1      46.750  -8.836  42.313  1.00  0.00     0.038 A 
ATOM      5  C   UNL     1      46.627  -8.750  40.908  1.00  0.00     0.076 A 
ATOM      6  C   UNL     1      47.601  -9.378  40.089  1.00  0.00     0.127 A 
ATOM      7  C   UNL     1      48.712  -9.991  40.674  1.00  0.00     0.050 A 
ATOM      8  C   UNL     1      45.514  -7.939  40.349  1.00  0.00     0.201 C 
ATOM      9  O   UNL     1      45.655  -7.359  39.240  1.00  0.00    -0.288 OA
ATOM     10  C   UNL     1      44.315  -7.660  41.182  1.00  0.00     0.076 A 
ATOM     11  C   UNL     1      44.443  -7.748  42.586  1.00  0.00     0.041 A 
ATOM     12  C   UNL     1      45.701  -8.255  43.183  1.00  0.00     0.194 C 
ATOM     13  O   UNL     1      45.868  -8.214  44.433  1.00  0.00    -0.289 OA
ATOM     14  C   UNL     1      43.373  -7.358  43.411  1.00  0.00     0.059 A 
ATOM     15  C   UNL     1      42.179  -6.900  42.855  1.00  0.00     0.120 A 
ATOM     16  C   UNL     1      42.034  -6.850  41.467  1.00  0.00     0.093 A 
ATOM     17  C   UNL     1      43.076  -7.250  40.624  1.00  0.00     0.131 A 
ENDROOT
BRANCH   6  18
ATOM     18  O   UNL     1      47.488  -9.444  38.698  1.00  0.00    -0.507 OA
ATOM     19  H   UNL     1      47.646 -10.287  38.164  1.00  0.00     0.293 HD
ENDBRANCH   6  18
BRANCH  17  20
ATOM     20  O   UNL     1      42.826  -7.259  39.250  1.00  0.00    -0.507 OA
ATOM     21  H   UNL     1      42.473  -8.064  38.751  1.00  0.00     0.293 HD
ENDBRANCH  17  20
BRANCH  15  22
ATOM     22  O   UNL     1      41.138  -6.507  43.693  1.00  0.00    -0.508 OA
ATOM     23  H   UNL     1      40.796  -5.553  43.701  1.00  0.00     0.293 HD
ENDBRANCH  15  22
TORSDOF 3
ENDMDL
MODEL 9
REMARK VINA RESULT:    -5.069     14.508     15.923
REMARK INTER + INTRA:          -5.514
REMARK INTER:                  -5.514
REMARK INTRA:                   0.000
REMARK UNBOUND:                 0.000
REMARK SMILES Cc1cc(O)c2c(c1)C(=O)c1cc(O)cc(O)c1C2=O
REMARK SMILES IDX 1 1 2 2 8 3 7 4 6 5 4 6 3 7 19 8 20 9 18 10 11 11 9 12 10 13
REMARK SMILES IDX 12 14 13 15 15 16 16 17 5 18 17 20 14 22
REMARK H PARENT 5 19 17 21 14 23
REMARK Flexibility Score: inf
ROOT
ATOM      1  C   UNL     1      32.915 -17.724  27.075  1.00  0.00     0.044 C 
ATOM      2  C   UNL     1      32.979 -16.709  28.178  1.00  0.00    -0.047 A 
ATOM      3  C   UNL     1      34.184 -16.057  28.466  1.00  0.00     0.016 A 
ATOM      4  C   UNL     1      34.244 -15.074  29.468  1.00  0.00     0.038 A 
ATOM      5  C   UNL     1      33.075 -14.718  30.176  1.00  0.00     0.076 A 
ATOM      6  C   UNL     1      31.867 -15.414  29.912  1.00  0.00     0.127 A 
ATOM      7  C   UNL     1      31.827 -16.375  28.897  1.00  0.00     0.050 A 
ATOM      8  C   UNL     1      33.147 -13.573  31.122  1.00  0.00     0.201 C 
ATOM      9  O   UNL     1      32.127 -12.863  31.326  1.00  0.00    -0.288 OA
ATOM     10  C   UNL     1      34.462 -13.156  31.674  1.00  0.00     0.076 A 
ATOM     11  C   UNL     1      35.629 -13.514  30.963  1.00  0.00     0.041 A 
ATOM     12  C   UNL     1      35.531 -14.411  29.788  1.00  0.00     0.194 C 
ATOM     13  O   UNL     1      36.548 -14.630  29.074  1.00  0.00    -0.289 OA
ATOM     14  C   UNL     1      36.878 -13.021  31.377  1.00  0.00     0.059 A 
ATOM     15  C   UNL     1      36.979 -12.193  32.495  1.00  0.00     0.120 A 
ATOM     16  C   UNL     1      35.833 -11.869  33.225  1.00  0.00     0.093 A 
ATOM     17  C   UNL     1      34.581 -12.362  32.846  1.00  0.00     0.131 A 
ENDROOT
BRANCH   6  18
ATOM     18  O   UNL     1      30.699 -15.209  30.650  1.00  0.00    -0.507 OA
ATOM     19  H   UNL     1      30.138 -14.371  30.587  1.00  0.00     0.293 HD
ENDBRANCH   6  18
BRANCH  17  20
ATOM     20  O   UNL     1      33.495 -12.071  33.675  1.00  0.00    -0.507 OA
ATOM     21  H   UNL     1      33.068 -12.746  34.295  1.00  0.00     0.293 HD
ENDBRANCH  17  20
BRANCH  15  22
ATOM     22  O   UNL     1      38.227 -11.707  32.879  1.00  0.00    -0.508 OA
ATOM     23  H   UNL     1      38.332 -11.089  33.674  1.00  0.00     0.293 HD
ENDBRANCH  15  22
TORSDOF 3
ENDMDL
