MODEL 1
REMARK VINA RESULT:    -4.097      0.000      0.000
REMARK INTER + INTRA:          -8.666
REMARK INTER:                  -6.970
REMARK INTRA:                  -1.696
REMARK UNBOUND:                -1.696
REMARK SMILES CCCCCCCCCCCCCC(=O)[O-]
REMARK SMILES IDX 8 1 9 2 10 3 11 4 12 5 13 6 14 7 15 8 16 9 7 10 6 11 5 12
REMARK SMILES IDX 4 13 3 14 2 15 1 16
REMARK H PARENT
REMARK Flexibility Score: inf
ROOT
ATOM      1  C   UNL     1       5.487   3.565  -8.961  1.00  0.00     0.000 C 
ENDROOT
BRANCH   1   2
ATOM      2  C   UNL     1       6.041   2.192  -9.372  1.00  0.00     0.000 C 
BRANCH   2   3
ATOM      3  C   UNL     1       6.842   1.507  -8.249  1.00  0.00     0.000 C 
BRANCH   3   4
ATOM      4  C   UNL     1       8.372   1.618  -8.378  1.00  0.00     0.000 C 
BRANCH   4   5
ATOM      5  C   UNL     1       9.066   1.912  -7.038  1.00  0.00     0.006 C 
BRANCH   5   6
ATOM      6  C   UNL     1       9.780   0.676  -6.472  1.00  0.00     0.053 C 
BRANCH   6   7
ATOM      7  C   UNL     1       9.269   0.310  -5.112  1.00  0.00     0.041 C 
ATOM      8  O   UNL     1       9.323  -0.884  -4.716  1.00  0.00    -0.550 OA
ATOM      9  O   UNL     1       8.708   1.283  -4.294  1.00  0.00    -0.550 OA
ENDBRANCH   6   7
ENDBRANCH   5   6
ENDBRANCH   4   5
ENDBRANCH   3   4
ENDBRANCH   2   3
ENDBRANCH   1   2
BRANCH   1  10
ATOM     10  C   UNL     1       5.892   4.646  -9.974  1.00  0.00     0.000 C 
BRANCH  10  11
ATOM     11  C   UNL     1       7.207   5.347  -9.598  1.00  0.00    -0.000 C 
BRANCH  11  12
ATOM     12  C   UNL     1       7.538   5.216  -8.101  1.00  0.00    -0.000 C 
BRANCH  12  13
ATOM     13  C   UNL     1       6.969   6.377  -7.269  1.00  0.00    -0.000 C 
BRANCH  13  14
ATOM     14  C   UNL     1       6.510   5.930  -5.870  1.00  0.00    -0.000 C 
BRANCH  14  15
ATOM     15  C   UNL     1       6.919   4.485  -5.549  1.00  0.00    -0.003 C 
ATOM     16  C   UNL     1       5.717   3.555  -5.382  1.00  0.00     0.004 C 
ENDBRANCH  14  15
ENDBRANCH  13  14
ENDBRANCH  12  13
ENDBRANCH  11  12
ENDBRANCH  10  11
ENDBRANCH   1  10
TORSDOF 12
ENDMDL
MODEL 2
REMARK VINA RESULT:    -4.068     14.062     16.270
REMARK INTER + INTRA:          -8.617
REMARK INTER:                  -7.035
REMARK INTRA:                  -1.582
REMARK UNBOUND:                -1.696
REMARK SMILES CCCCCCCCCCCCCC(=O)[O-]
REMARK SMILES IDX 8 1 9 2 10 3 11 4 12 5 13 6 14 7 15 8 16 9 7 10 6 11 5 12
REMARK SMILES IDX 4 13 3 14 2 15 1 16
REMARK H PARENT
REMARK Flexibility Score: inf
ROOT
ATOM      1  C   UNL     1      -4.468  12.689  -3.354  1.00  0.00     0.000 C 
ENDROOT
BRANCH   1   2
ATOM      2  C   UNL     1      -3.360  13.284  -4.234  1.00  0.00     0.000 C 
BRANCH   2   3
ATOM      3  C   UNL     1      -3.888  13.848  -5.567  1.00  0.00     0.000 C 
BRANCH   3   4
ATOM      4  C   UNL     1      -4.353  12.790  -6.583  1.00  0.00     0.000 C 
BRANCH   4   5
ATOM      5  C   UNL     1      -3.270  11.746  -6.900  1.00  0.00     0.006 C 
BRANCH   5   6
ATOM      6  C   UNL     1      -2.798  11.825  -8.359  1.00  0.00     0.053 C 
BRANCH   6   7
ATOM      7  C   UNL     1      -1.368  12.262  -8.460  1.00  0.00     0.041 C 
ATOM      8  O   UNL     1      -0.492  11.467  -8.892  1.00  0.00    -0.550 OA
ATOM      9  O   UNL     1      -0.999  13.537  -8.051  1.00  0.00    -0.550 OA
ENDBRANCH   6   7
ENDBRANCH   5   6
ENDBRANCH   4   5
ENDBRANCH   3   4
ENDBRANCH   2   3
ENDBRANCH   1   2
BRANCH   1  10
ATOM     10  C   UNL     1      -5.140  13.779  -2.505  1.00  0.00     0.000 C 
BRANCH  10  11
ATOM     11  C   UNL     1      -6.670  13.777  -2.642  1.00  0.00    -0.000 C 
BRANCH  11  12
ATOM     12  C   UNL     1      -7.135  14.111  -4.070  1.00  0.00    -0.000 C 
BRANCH  12  13
ATOM     13  C   UNL     1      -8.249  13.172  -4.561  1.00  0.00    -0.000 C 
BRANCH  13  14
ATOM     14  C   UNL     1      -8.061  11.726  -4.070  1.00  0.00    -0.000 C 
BRANCH  14  15
ATOM     15  C   UNL     1      -7.182  10.893  -5.014  1.00  0.00    -0.003 C 
ATOM     16  C   UNL     1      -7.598  11.026  -6.479  1.00  0.00     0.004 C 
ENDBRANCH  14  15
ENDBRANCH  13  14
ENDBRANCH  12  13
ENDBRANCH  11  12
ENDBRANCH  10  11
ENDBRANCH   1  10
TORSDOF 12
ENDMDL
MODEL 3
REMARK VINA RESULT:    -3.934      1.026      2.941
REMARK INTER + INTRA:          -8.389
REMARK INTER:                  -6.769
REMARK INTRA:                  -1.620
REMARK UNBOUND:                -1.696
REMARK SMILES CCCCCCCCCCCCCC(=O)[O-]
REMARK SMILES IDX 8 1 9 2 10 3 11 4 12 5 13 6 14 7 15 8 16 9 7 10 6 11 5 12
REMARK SMILES IDX 4 13 3 14 2 15 1 16
REMARK H PARENT
REMARK Flexibility Score: inf
ROOT
ATOM      1  C   UNL     1       6.586   4.401  -5.985  1.00  0.00     0.000 C 
ENDROOT
BRANCH   1   2
ATOM      2  C   UNL     1       5.990   3.267  -6.832  1.00  0.00     0.000 C 
BRANCH   2   3
ATOM      3  C   UNL     1       6.769   1.945  -6.699  1.00  0.00     0.000 C 
BRANCH   3   4
ATOM      4  C   UNL     1       8.029   1.839  -7.576  1.00  0.00     0.000 C 
BRANCH   4   5
ATOM      5  C   UNL     1       9.333   1.961  -6.770  1.00  0.00     0.006 C 
BRANCH   5   6
ATOM      6  C   UNL     1       9.895   0.591  -6.365  1.00  0.00     0.053 C 
BRANCH   6   7
ATOM      7  C   UNL     1       9.497   0.214  -4.971  1.00  0.00     0.041 C 
ATOM      8  O   UNL     1       8.998   1.075  -4.200  1.00  0.00    -0.550 OA
ATOM      9  O   UNL     1       9.704  -1.082  -4.514  1.00  0.00    -0.550 OA
ENDBRANCH   6   7
ENDBRANCH   5   6
ENDBRANCH   4   5
ENDBRANCH   3   4
ENDBRANCH   2   3
ENDBRANCH   1   2
BRANCH   1  10
ATOM     10  C   UNL     1       6.742   5.683  -6.817  1.00  0.00     0.000 C 
BRANCH  10  11
ATOM     11  C   UNL     1       7.633   5.482  -8.053  1.00  0.00    -0.000 C 
BRANCH  11  12
ATOM     12  C   UNL     1       6.869   5.692  -9.372  1.00  0.00    -0.000 C 
BRANCH  12  13
ATOM     13  C   UNL     1       7.066   4.529 -10.358  1.00  0.00    -0.000 C 
BRANCH  13  14
ATOM     14  C   UNL     1       5.783   3.704 -10.561  1.00  0.00    -0.000 C 
BRANCH  14  15
ATOM     15  C   UNL     1       4.546   4.378  -9.947  1.00  0.00    -0.003 C 
ATOM     16  C   UNL     1       3.424   3.386  -9.641  1.00  0.00     0.004 C 
ENDBRANCH  14  15
ENDBRANCH  13  14
ENDBRANCH  12  13
ENDBRANCH  11  12
ENDBRANCH  10  11
ENDBRANCH   1  10
TORSDOF 12
ENDMDL
MODEL 4
REMARK VINA RESULT:    -3.930     14.147     16.497
REMARK INTER + INTRA:          -8.383
REMARK INTER:                  -7.036
REMARK INTRA:                  -1.347
REMARK UNBOUND:                -1.696
REMARK SMILES CCCCCCCCCCCCCC(=O)[O-]
REMARK SMILES IDX 8 1 9 2 10 3 11 4 12 5 13 6 14 7 15 8 16 9 7 10 6 11 5 12
REMARK SMILES IDX 4 13 3 14 2 15 1 16
REMARK H PARENT
REMARK Flexibility Score: inf
ROOT
ATOM      1  C   UNL     1      -4.128  12.912  -3.318  1.00  0.00     0.000 C 
ENDROOT
BRANCH   1   2
ATOM      2  C   UNL     1      -5.242  13.719  -2.635  1.00  0.00     0.000 C 
BRANCH   2   3
ATOM      3  C   UNL     1      -6.634  13.450  -3.236  1.00  0.00     0.000 C 
BRANCH   3   4
ATOM      4  C   UNL     1      -6.744  13.678  -4.754  1.00  0.00     0.000 C 
BRANCH   4   5
ATOM      5  C   UNL     1      -7.359  12.481  -5.497  1.00  0.00     0.006 C 
BRANCH   5   6
ATOM      6  C   UNL     1      -6.913  11.138  -4.902  1.00  0.00     0.053 C 
BRANCH   6   7
ATOM      7  C   UNL     1      -8.073  10.221  -4.661  1.00  0.00     0.041 C 
ATOM      8  O   UNL     1      -8.225   9.191  -5.370  1.00  0.00    -0.550 OA
ATOM      9  O   UNL     1      -9.002  10.518  -3.672  1.00  0.00    -0.550 OA
ENDBRANCH   6   7
ENDBRANCH   5   6
ENDBRANCH   4   5
ENDBRANCH   3   4
ENDBRANCH   2   3
ENDBRANCH   1   2
BRANCH   1  10
ATOM     10  C   UNL     1      -3.103  13.844  -3.981  1.00  0.00     0.000 C 
BRANCH  10  11
ATOM     11  C   UNL     1      -2.948  13.579  -5.487  1.00  0.00    -0.000 C 
BRANCH  11  12
ATOM     12  C   UNL     1      -3.539  12.223  -5.911  1.00  0.00    -0.000 C 
BRANCH  12  13
ATOM     13  C   UNL     1      -3.794  12.139  -7.424  1.00  0.00    -0.000 C 
BRANCH  13  14
ATOM     14  C   UNL     1      -2.588  11.574  -8.195  1.00  0.00    -0.000 C 
BRANCH  14  15
ATOM     15  C   UNL     1      -2.958  11.119  -9.615  1.00  0.00    -0.003 C 
ATOM     16  C   UNL     1      -1.957  10.119 -10.194  1.00  0.00     0.004 C 
ENDBRANCH  14  15
ENDBRANCH  13  14
ENDBRANCH  12  13
ENDBRANCH  11  12
ENDBRANCH  10  11
ENDBRANCH   1  10
TORSDOF 12
ENDMDL
MODEL 5
REMARK VINA RESULT:    -3.858      1.449      3.552
REMARK INTER + INTRA:          -8.261
REMARK INTER:                  -6.407
REMARK INTRA:                  -1.854
REMARK UNBOUND:                -1.696
REMARK SMILES CCCCCCCCCCCCCC(=O)[O-]
REMARK SMILES IDX 8 1 9 2 10 3 11 4 12 5 13 6 14 7 15 8 16 9 7 10 6 11 5 12
REMARK SMILES IDX 4 13 3 14 2 15 1 16
REMARK H PARENT
REMARK Flexibility Score: inf
ROOT
ATOM      1  C   UNL     1       6.553   6.837  -7.876  1.00  0.00     0.000 C 
ENDROOT
BRANCH   1   2
ATOM      2  C   UNL     1       6.365   6.415  -6.412  1.00  0.00     0.000 C 
BRANCH   2   3
ATOM      3  C   UNL     1       6.899   5.000  -6.120  1.00  0.00     0.000 C 
BRANCH   3   4
ATOM      4  C   UNL     1       5.822   3.951  -5.794  1.00  0.00     0.000 C 
BRANCH   4   5
ATOM      5  C   UNL     1       6.413   2.584  -5.409  1.00  0.00     0.006 C 
BRANCH   5   6
ATOM      6  C   UNL     1       7.856   2.417  -5.903  1.00  0.00     0.053 C 
BRANCH   6   7
ATOM      7  C   UNL     1       8.815   2.218  -4.769  1.00  0.00     0.041 C 
ATOM      8  O   UNL     1       8.929   1.087  -4.228  1.00  0.00    -0.550 OA
ATOM      9  O   UNL     1       9.562   3.289  -4.292  1.00  0.00    -0.550 OA
ENDBRANCH   6   7
ENDBRANCH   5   6
ENDBRANCH   4   5
ENDBRANCH   3   4
ENDBRANCH   2   3
ENDBRANCH   1   2
BRANCH   1  10
ATOM     10  C   UNL     1       7.635   5.986  -8.558  1.00  0.00     0.000 C 
BRANCH  10  11
ATOM     11  C   UNL     1       7.489   5.959 -10.088  1.00  0.00    -0.000 C 
BRANCH  11  12
ATOM     12  C   UNL     1       6.949   4.614 -10.605  1.00  0.00    -0.000 C 
BRANCH  12  13
ATOM     13  C   UNL     1       7.187   3.463  -9.614  1.00  0.00    -0.000 C 
BRANCH  13  14
ATOM     14  C   UNL     1       5.891   2.715  -9.256  1.00  0.00    -0.000 C 
BRANCH  14  15
ATOM     15  C   UNL     1       4.665   3.640  -9.227  1.00  0.00    -0.003 C 
ATOM     16  C   UNL     1       3.476   3.069  -9.999  1.00  0.00     0.004 C 
ENDBRANCH  14  15
ENDBRANCH  13  14
ENDBRANCH  12  13
ENDBRANCH  11  12
ENDBRANCH  10  11
ENDBRANCH   1  10
TORSDOF 12
ENDMDL
MODEL 6
REMARK VINA RESULT:    -3.821     15.463     17.650
REMARK INTER + INTRA:          -8.197
REMARK INTER:                  -6.572
REMARK INTRA:                  -1.626
REMARK UNBOUND:                -1.696
REMARK SMILES CCCCCCCCCCCCCC(=O)[O-]
REMARK SMILES IDX 8 1 9 2 10 3 11 4 12 5 13 6 14 7 15 8 16 9 7 10 6 11 5 12
REMARK SMILES IDX 4 13 3 14 2 15 1 16
REMARK H PARENT
REMARK Flexibility Score: inf
ROOT
ATOM      1  C   UNL     1      -6.284  13.685  -2.347  1.00  0.00     0.000 C 
ENDROOT
BRANCH   1   2
ATOM      2  C   UNL     1      -7.490  13.980  -3.251  1.00  0.00     0.000 C 
BRANCH   2   3
ATOM      3  C   UNL     1      -8.603  12.922  -3.132  1.00  0.00     0.000 C 
BRANCH   3   4
ATOM      4  C   UNL     1      -9.052  12.297  -4.465  1.00  0.00     0.000 C 
BRANCH   4   5
ATOM      5  C   UNL     1      -9.375  10.798  -4.345  1.00  0.00     0.006 C 
BRANCH   5   6
ATOM      6  C   UNL     1      -8.241   9.916  -4.886  1.00  0.00     0.053 C 
BRANCH   6   7
ATOM      7  C   UNL     1      -8.582   9.322  -6.219  1.00  0.00     0.041 C 
ATOM      8  O   UNL     1      -8.921  10.067  -7.176  1.00  0.00    -0.550 OA
ATOM      9  O   UNL     1      -8.555   7.944  -6.394  1.00  0.00    -0.550 OA
ENDBRANCH   6   7
ENDBRANCH   5   6
ENDBRANCH   4   5
ENDBRANCH   3   4
ENDBRANCH   2   3
ENDBRANCH   1   2
BRANCH   1  10
ATOM     10  C   UNL     1      -4.968  14.047  -3.051  1.00  0.00     0.000 C 
BRANCH  10  11
ATOM     11  C   UNL     1      -4.104  12.814  -3.361  1.00  0.00    -0.000 C 
BRANCH  11  12
ATOM     12  C   UNL     1      -3.307  12.965  -4.669  1.00  0.00    -0.000 C 
BRANCH  12  13
ATOM     13  C   UNL     1      -3.759  11.971  -5.751  1.00  0.00    -0.000 C 
BRANCH  13  14
ATOM     14  C   UNL     1      -5.253  11.619  -5.642  1.00  0.00    -0.000 C 
BRANCH  14  15
ATOM     15  C   UNL     1      -6.072  12.160  -6.824  1.00  0.00    -0.003 C 
ATOM     16  C   UNL     1      -6.472  13.624  -6.644  1.00  0.00     0.004 C 
ENDBRANCH  14  15
ENDBRANCH  13  14
ENDBRANCH  12  13
ENDBRANCH  11  12
ENDBRANCH  10  11
ENDBRANCH   1  10
TORSDOF 12
ENDMDL
MODEL 7
REMARK VINA RESULT:    -3.758      1.507      3.648
REMARK INTER + INTRA:          -8.090
REMARK INTER:                  -6.749
REMARK INTRA:                  -1.341
REMARK UNBOUND:                -1.696
REMARK SMILES CCCCCCCCCCCCCC(=O)[O-]
REMARK SMILES IDX 8 1 9 2 10 3 11 4 12 5 13 6 14 7 15 8 16 9 7 10 6 11 5 12
REMARK SMILES IDX 4 13 3 14 2 15 1 16
REMARK H PARENT
REMARK Flexibility Score: inf
ROOT
ATOM      1  C   UNL     1       6.430   5.180  -7.161  1.00  0.00     0.000 C 
ENDROOT
BRANCH   1   2
ATOM      2  C   UNL     1       6.438   3.986  -6.196  1.00  0.00     0.000 C 
BRANCH   2   3
ATOM      3  C   UNL     1       7.043   4.329  -4.822  1.00  0.00     0.000 C 
BRANCH   3   4
ATOM      4  C   UNL     1       7.959   3.246  -4.224  1.00  0.00     0.000 C 
BRANCH   4   5
ATOM      5  C   UNL     1       8.397   2.194  -5.257  1.00  0.00     0.006 C 
BRANCH   5   6
ATOM      6  C   UNL     1       9.627   1.402  -4.792  1.00  0.00     0.053 C 
BRANCH   6   7
ATOM      7  C   UNL     1       9.620  -0.000  -5.319  1.00  0.00     0.041 C 
ATOM      8  O   UNL     1       9.551  -0.210  -6.559  1.00  0.00    -0.550 OA
ATOM      9  O   UNL     1       9.660  -1.076  -4.440  1.00  0.00    -0.550 OA
ENDBRANCH   6   7
ENDBRANCH   5   6
ENDBRANCH   4   5
ENDBRANCH   3   4
ENDBRANCH   2   3
ENDBRANCH   1   2
BRANCH   1  10
ATOM     10  C   UNL     1       7.393   4.945  -8.334  1.00  0.00     0.000 C 
BRANCH  10  11
ATOM     11  C   UNL     1       7.520   3.460  -8.707  1.00  0.00    -0.000 C 
BRANCH  11  12
ATOM     12  C   UNL     1       7.578   3.236 -10.229  1.00  0.00    -0.000 C 
BRANCH  12  13
ATOM     13  C   UNL     1       6.515   2.239 -10.718  1.00  0.00    -0.000 C 
BRANCH  13  14
ATOM     14  C   UNL     1       5.442   1.951  -9.654  1.00  0.00    -0.000 C 
BRANCH  14  15
ATOM     15  C   UNL     1       4.060   2.493 -10.048  1.00  0.00    -0.003 C 
ATOM     16  C   UNL     1       3.981   4.018  -9.971  1.00  0.00     0.004 C 
ENDBRANCH  14  15
ENDBRANCH  13  14
ENDBRANCH  12  13
ENDBRANCH  11  12
ENDBRANCH  10  11
ENDBRANCH   1  10
TORSDOF 12
ENDMDL
MODEL 8
REMARK VINA RESULT:    -3.748      1.781      3.093
REMARK INTER + INTRA:          -8.074
REMARK INTER:                  -6.292
REMARK INTRA:                  -1.782
REMARK UNBOUND:                -1.696
REMARK SMILES CCCCCCCCCCCCCC(=O)[O-]
REMARK SMILES IDX 8 1 9 2 10 3 11 4 12 5 13 6 14 7 15 8 16 9 7 10 6 11 5 12
REMARK SMILES IDX 4 13 3 14 2 15 1 16
REMARK H PARENT
REMARK Flexibility Score: inf
ROOT
ATOM      1  C   UNL     1       6.123   3.367 -10.060  1.00  0.00     0.000 C 
ENDROOT
BRANCH   1   2
ATOM      2  C   UNL     1       5.386   3.239  -8.718  1.00  0.00     0.000 C 
BRANCH   2   3
ATOM      3  C   UNL     1       6.330   2.945  -7.538  1.00  0.00     0.000 C 
BRANCH   3   4
ATOM      4  C   UNL     1       5.930   3.600  -6.204  1.00  0.00     0.000 C 
BRANCH   4   5
ATOM      5  C   UNL     1       7.100   4.326  -5.518  1.00  0.00     0.006 C 
BRANCH   5   6
ATOM      6  C   UNL     1       7.542   3.622  -4.228  1.00  0.00     0.053 C 
BRANCH   6   7
ATOM      7  C   UNL     1       8.735   2.743  -4.452  1.00  0.00     0.041 C 
ATOM      8  O   UNL     1       9.848   3.250  -4.749  1.00  0.00    -0.550 OA
ATOM      9  O   UNL     1       8.609   1.362  -4.360  1.00  0.00    -0.550 OA
ENDBRANCH   6   7
ENDBRANCH   5   6
ENDBRANCH   4   5
ENDBRANCH   3   4
ENDBRANCH   2   3
ENDBRANCH   1   2
BRANCH   1  10
ATOM     10  C   UNL     1       5.599   4.566 -10.863  1.00  0.00     0.000 C 
BRANCH  10  11
ATOM     11  C   UNL     1       4.821   5.567  -9.993  1.00  0.00    -0.000 C 
BRANCH  11  12
ATOM     12  C   UNL     1       5.629   6.842  -9.696  1.00  0.00    -0.000 C 
BRANCH  12  13
ATOM     13  C   UNL     1       6.009   6.965  -8.211  1.00  0.00    -0.000 C 
BRANCH  13  14
ATOM     14  C   UNL     1       7.528   7.090  -7.999  1.00  0.00    -0.000 C 
BRANCH  14  15
ATOM     15  C   UNL     1       8.311   5.947  -8.665  1.00  0.00    -0.003 C 
ATOM     16  C   UNL     1       9.618   6.419  -9.300  1.00  0.00     0.004 C 
ENDBRANCH  14  15
ENDBRANCH  13  14
ENDBRANCH  12  13
ENDBRANCH  11  12
ENDBRANCH  10  11
ENDBRANCH   1  10
TORSDOF 12
ENDMDL
MODEL 9
REMARK VINA RESULT:    -3.680      1.470      3.138
REMARK INTER + INTRA:          -7.958
REMARK INTER:                  -6.286
REMARK INTRA:                  -1.673
REMARK UNBOUND:                -1.696
REMARK SMILES CCCCCCCCCCCCCC(=O)[O-]
REMARK SMILES IDX 8 1 9 2 10 3 11 4 12 5 13 6 14 7 15 8 16 9 7 10 6 11 5 12
REMARK SMILES IDX 4 13 3 14 2 15 1 16
REMARK H PARENT
REMARK Flexibility Score: inf
ROOT
ATOM      1  C   UNL     1       5.652   3.288  -7.408  1.00  0.00     0.000 C 
ENDROOT
BRANCH   1   2
ATOM      2  C   UNL     1       5.713   3.396  -5.877  1.00  0.00     0.000 C 
BRANCH   2   3
ATOM      3  C   UNL     1       6.683   4.488  -5.388  1.00  0.00     0.000 C 
BRANCH   3   4
ATOM      4  C   UNL     1       7.721   4.021  -4.352  1.00  0.00     0.000 C 
BRANCH   4   5
ATOM      5  C   UNL     1       7.930   2.498  -4.357  1.00  0.00     0.006 C 
BRANCH   5   6
ATOM      6  C   UNL     1       9.193   2.088  -5.127  1.00  0.00     0.053 C 
BRANCH   6   7
ATOM      7  C   UNL     1       9.125   0.667  -5.596  1.00  0.00     0.041 C 
ATOM      8  O   UNL     1       8.763  -0.244  -4.807  1.00  0.00    -0.550 OA
ATOM      9  O   UNL     1       9.490   0.346  -6.898  1.00  0.00    -0.550 OA
ENDBRANCH   6   7
ENDBRANCH   5   6
ENDBRANCH   4   5
ENDBRANCH   3   4
ENDBRANCH   2   3
ENDBRANCH   1   2
BRANCH   1  10
ATOM     10  C   UNL     1       6.793   2.409  -7.942  1.00  0.00     0.000 C 
BRANCH  10  11
ATOM     11  C   UNL     1       7.676   3.141  -8.964  1.00  0.00    -0.000 C 
BRANCH  11  12
ATOM     12  C   UNL     1       6.857   3.793 -10.092  1.00  0.00    -0.000 C 
BRANCH  12  13
ATOM     13  C   UNL     1       7.261   5.255 -10.343  1.00  0.00    -0.000 C 
BRANCH  13  14
ATOM     14  C   UNL     1       7.345   6.075  -9.044  1.00  0.00    -0.000 C 
BRANCH  14  15
ATOM     15  C   UNL     1       6.041   6.825  -8.735  1.00  0.00    -0.003 C 
ATOM     16  C   UNL     1       6.054   7.491  -7.359  1.00  0.00     0.004 C 
ENDBRANCH  14  15
ENDBRANCH  13  14
ENDBRANCH  12  13
ENDBRANCH  11  12
ENDBRANCH  10  11
ENDBRANCH   1  10
TORSDOF 12
ENDMDL
