MODEL 1
REMARK VINA RESULT:    -4.428      0.000      0.000
REMARK INTER + INTRA:          -5.734
REMARK INTER:                  -5.463
REMARK INTRA:                  -0.271
REMARK UNBOUND:                -0.271
REMARK SMILES C=CC[C@H](C)C(=O)CC
REMARK SMILES IDX 4 1 5 2 6 3 7 4 8 5 9 6 3 7 2 8 1 9
REMARK H PARENT
REMARK Flexibility Score: inf
ROOT
ATOM      1  C   UNL     1      12.332 -33.703 -30.581  1.00  0.00     0.057 C 
ATOM      2  C   UNL     1      12.593 -32.712 -29.438  1.00  0.00     0.016 C 
ENDROOT
BRANCH   1   3
ATOM      3  C   UNL     1      12.977 -35.035 -30.261  1.00  0.00     0.135 C 
ATOM      4  O   UNL     1      13.187 -35.342 -29.096  1.00  0.00    -0.299 OA
BRANCH   3   5
ATOM      5  C   UNL     1      13.376 -35.992 -31.355  1.00  0.00     0.072 C 
ATOM      6  C   UNL     1      12.465 -37.215 -31.361  1.00  0.00     0.012 C 
ENDBRANCH   3   5
ENDBRANCH   1   3
BRANCH   1   7
ATOM      7  C   UNL     1      12.859 -33.172 -31.929  1.00  0.00     0.038 C 
BRANCH   7   8
ATOM      8  C   UNL     1      14.106 -32.347 -31.748  1.00  0.00    -0.034 C 
ATOM      9  C   UNL     1      14.776 -31.842 -32.787  1.00  0.00     0.004 C 
ENDBRANCH   7   8
ENDBRANCH   1   7
TORSDOF 4
ENDMDL
MODEL 2
REMARK VINA RESULT:    -4.395      0.993      2.621
REMARK INTER + INTRA:          -5.693
REMARK INTER:                  -5.372
REMARK INTRA:                  -0.321
REMARK UNBOUND:                -0.271
REMARK SMILES C=CC[C@H](C)C(=O)CC
REMARK SMILES IDX 4 1 5 2 6 3 7 4 8 5 9 6 3 7 2 8 1 9
REMARK H PARENT
REMARK Flexibility Score: inf
ROOT
ATOM      1  C   UNL     1      13.244 -34.355 -31.151  1.00  0.00     0.057 C 
ATOM      2  C   UNL     1      12.395 -35.487 -31.745  1.00  0.00     0.016 C 
ENDROOT
BRANCH   1   3
ATOM      3  C   UNL     1      12.820 -34.092 -29.721  1.00  0.00     0.135 C 
ATOM      4  O   UNL     1      12.837 -35.006 -28.907  1.00  0.00    -0.299 OA
BRANCH   3   5
ATOM      5  C   UNL     1      12.365 -32.726 -29.280  1.00  0.00     0.072 C 
ATOM      6  C   UNL     1      10.851 -32.691 -29.105  1.00  0.00     0.012 C 
ENDBRANCH   3   5
ENDBRANCH   1   3
BRANCH   1   7
ATOM      7  C   UNL     1      13.131 -33.060 -31.980  1.00  0.00     0.038 C 
BRANCH   7   8
ATOM      8  C   UNL     1      14.485 -32.568 -32.423  1.00  0.00    -0.034 C 
ATOM      9  C   UNL     1      14.970 -31.387 -32.032  1.00  0.00     0.004 C 
ENDBRANCH   7   8
ENDBRANCH   1   7
TORSDOF 4
ENDMDL
MODEL 3
REMARK VINA RESULT:    -4.213      1.610      3.570
REMARK INTER + INTRA:          -5.469
REMARK INTER:                  -4.958
REMARK INTRA:                  -0.510
REMARK UNBOUND:                -0.271
REMARK SMILES C=CC[C@H](C)C(=O)CC
REMARK SMILES IDX 4 1 5 2 6 3 7 4 8 5 9 6 3 7 2 8 1 9
REMARK H PARENT
REMARK Flexibility Score: inf
ROOT
ATOM      1  C   UNL     1      12.149 -33.585 -31.619  1.00  0.00     0.057 C 
ATOM      2  C   UNL     1      13.600 -33.100 -31.750  1.00  0.00     0.016 C 
ENDROOT
BRANCH   1   3
ATOM      3  C   UNL     1      11.602 -33.202 -30.260  1.00  0.00     0.135 C 
ATOM      4  O   UNL     1      10.403 -33.305 -30.039  1.00  0.00    -0.299 OA
BRANCH   3   5
ATOM      5  C   UNL     1      12.506 -32.686 -29.172  1.00  0.00     0.072 C 
ATOM      6  C   UNL     1      12.534 -33.649 -27.990  1.00  0.00     0.012 C 
ENDBRANCH   3   5
ENDBRANCH   1   3
BRANCH   1   7
ATOM      7  C   UNL     1      12.035 -35.108 -31.823  1.00  0.00     0.038 C 
BRANCH   7   8
ATOM      8  C   UNL     1      13.288 -35.820 -31.385  1.00  0.00    -0.034 C 
ATOM      9  C   UNL     1      13.305 -36.638 -30.330  1.00  0.00     0.004 C 
ENDBRANCH   7   8
ENDBRANCH   1   7
TORSDOF 4
ENDMDL
MODEL 4
REMARK VINA RESULT:    -4.193      1.777      3.129
REMARK INTER + INTRA:          -5.445
REMARK INTER:                  -4.988
REMARK INTRA:                  -0.457
REMARK UNBOUND:                -0.271
REMARK SMILES C=CC[C@H](C)C(=O)CC
REMARK SMILES IDX 4 1 5 2 6 3 7 4 8 5 9 6 3 7 2 8 1 9
REMARK H PARENT
REMARK Flexibility Score: inf
ROOT
ATOM      1  C   UNL     1      13.185 -33.674 -31.060  1.00  0.00     0.057 C 
ATOM      2  C   UNL     1      14.003 -32.862 -32.074  1.00  0.00     0.016 C 
ENDROOT
BRANCH   1   3
ATOM      3  C   UNL     1      12.116 -34.468 -31.782  1.00  0.00     0.135 C 
ATOM      4  O   UNL     1      11.207 -33.880 -32.352  1.00  0.00    -0.299 OA
BRANCH   3   5
ATOM      5  C   UNL     1      12.144 -35.973 -31.803  1.00  0.00     0.072 C 
ATOM      6  C   UNL     1      13.271 -36.505 -30.925  1.00  0.00     0.012 C 
ENDBRANCH   3   5
ENDBRANCH   1   3
BRANCH   1   7
ATOM      7  C   UNL     1      12.538 -32.769 -29.993  1.00  0.00     0.038 C 
BRANCH   7   8
ATOM      8  C   UNL     1      12.506 -33.440 -28.644  1.00  0.00    -0.034 C 
ATOM      9  C   UNL     1      11.374 -33.916 -28.118  1.00  0.00     0.004 C 
ENDBRANCH   7   8
ENDBRANCH   1   7
TORSDOF 4
ENDMDL
MODEL 5
REMARK VINA RESULT:    -4.147      2.074      4.125
REMARK INTER + INTRA:          -5.388
REMARK INTER:                  -5.139
REMARK INTRA:                  -0.249
REMARK UNBOUND:                -0.271
REMARK SMILES C=CC[C@H](C)C(=O)CC
REMARK SMILES IDX 4 1 5 2 6 3 7 4 8 5 9 6 3 7 2 8 1 9
REMARK H PARENT
REMARK Flexibility Score: inf
ROOT
ATOM      1  C   UNL     1      12.674 -35.758 -29.185  1.00  0.00     0.057 C 
ATOM      2  C   UNL     1      13.584 -36.926 -28.776  1.00  0.00     0.016 C 
ENDROOT
BRANCH   1   3
ATOM      3  C   UNL     1      12.939 -35.383 -30.628  1.00  0.00     0.135 C 
ATOM      4  O   UNL     1      13.578 -36.143 -31.344  1.00  0.00    -0.299 OA
BRANCH   3   5
ATOM      5  C   UNL     1      12.438 -34.084 -31.201  1.00  0.00     0.072 C 
ATOM      6  C   UNL     1      13.598 -33.237 -31.714  1.00  0.00     0.012 C 
ENDBRANCH   3   5
ENDBRANCH   1   3
BRANCH   1   7
ATOM      7  C   UNL     1      12.876 -34.531 -28.276  1.00  0.00     0.038 C 
BRANCH   7   8
ATOM      8  C   UNL     1      11.600 -34.148 -27.573  1.00  0.00    -0.034 C 
ATOM      9  C   UNL     1      11.548 -33.965 -26.251  1.00  0.00     0.004 C 
ENDBRANCH   7   8
ENDBRANCH   1   7
TORSDOF 4
ENDMDL
MODEL 6
REMARK VINA RESULT:    -4.108      2.112      3.527
REMARK INTER + INTRA:          -5.339
REMARK INTER:                  -5.075
REMARK INTRA:                  -0.264
REMARK UNBOUND:                -0.271
REMARK SMILES C=CC[C@H](C)C(=O)CC
REMARK SMILES IDX 4 1 5 2 6 3 7 4 8 5 9 6 3 7 2 8 1 9
REMARK H PARENT
REMARK Flexibility Score: inf
ROOT
ATOM      1  C   UNL     1      12.687 -34.263 -29.762  1.00  0.00     0.057 C 
ATOM      2  C   UNL     1      12.480 -32.741 -29.746  1.00  0.00     0.016 C 
ENDROOT
BRANCH   1   3
ATOM      3  C   UNL     1      11.556 -34.925 -30.521  1.00  0.00     0.135 C 
ATOM      4  O   UNL     1      10.426 -34.919 -30.051  1.00  0.00    -0.299 OA
BRANCH   3   5
ATOM      5  C   UNL     1      11.796 -35.604 -31.844  1.00  0.00     0.072 C 
ATOM      6  C   UNL     1      12.449 -36.967 -31.641  1.00  0.00     0.012 C 
ENDBRANCH   3   5
ENDBRANCH   1   3
BRANCH   1   7
ATOM      7  C   UNL     1      12.777 -34.843 -28.337  1.00  0.00     0.038 C 
BRANCH   7   8
ATOM      8  C   UNL     1      12.455 -33.803 -27.296  1.00  0.00    -0.034 C 
ATOM      9  C   UNL     1      11.525 -34.004 -26.359  1.00  0.00     0.004 C 
ENDBRANCH   7   8
ENDBRANCH   1   7
TORSDOF 4
ENDMDL
MODEL 7
REMARK VINA RESULT:    -4.098      1.311      2.355
REMARK INTER + INTRA:          -5.327
REMARK INTER:                  -4.832
REMARK INTRA:                  -0.495
REMARK UNBOUND:                -0.271
REMARK SMILES C=CC[C@H](C)C(=O)CC
REMARK SMILES IDX 4 1 5 2 6 3 7 4 8 5 9 6 3 7 2 8 1 9
REMARK H PARENT
REMARK Flexibility Score: inf
ROOT
ATOM      1  C   UNL     1      12.869 -33.421 -30.532  1.00  0.00     0.057 C 
ATOM      2  C   UNL     1      13.706 -33.061 -31.768  1.00  0.00     0.016 C 
ENDROOT
BRANCH   1   3
ATOM      3  C   UNL     1      12.954 -34.910 -30.271  1.00  0.00     0.135 C 
ATOM      4  O   UNL     1      12.660 -35.350 -29.169  1.00  0.00    -0.299 OA
BRANCH   3   5
ATOM      5  C   UNL     1      13.406 -35.865 -31.345  1.00  0.00     0.072 C 
ATOM      6  C   UNL     1      12.420 -37.019 -31.492  1.00  0.00     0.012 C 
ENDBRANCH   3   5
ENDBRANCH   1   3
BRANCH   1   7
ATOM      7  C   UNL     1      11.396 -32.998 -30.697  1.00  0.00     0.038 C 
BRANCH   7   8
ATOM      8  C   UNL     1      10.924 -33.183 -32.116  1.00  0.00    -0.034 C 
ATOM      9  C   UNL     1      10.048 -34.134 -32.451  1.00  0.00     0.004 C 
ENDBRANCH   7   8
ENDBRANCH   1   7
TORSDOF 4
ENDMDL
MODEL 8
REMARK VINA RESULT:    -4.039      1.383      2.208
REMARK INTER + INTRA:          -5.254
REMARK INTER:                  -5.034
REMARK INTRA:                  -0.220
REMARK UNBOUND:                -0.271
REMARK SMILES C=CC[C@H](C)C(=O)CC
REMARK SMILES IDX 4 1 5 2 6 3 7 4 8 5 9 6 3 7 2 8 1 9
REMARK H PARENT
REMARK Flexibility Score: inf
ROOT
ATOM      1  C   UNL     1      13.113 -35.157 -31.286  1.00  0.00     0.057 C 
ATOM      2  C   UNL     1      12.251 -36.254 -31.926  1.00  0.00     0.016 C 
ENDROOT
BRANCH   1   3
ATOM      3  C   UNL     1      12.963 -35.201 -29.780  1.00  0.00     0.135 C 
ATOM      4  O   UNL     1      12.875 -34.156 -29.149  1.00  0.00    -0.299 OA
BRANCH   3   5
ATOM      5  C   UNL     1      12.929 -36.511 -29.037  1.00  0.00     0.072 C 
ATOM      6  C   UNL     1      14.309 -36.857 -28.489  1.00  0.00     0.012 C 
ENDBRANCH   3   5
ENDBRANCH   1   3
BRANCH   1   7
ATOM      7  C   UNL     1      12.740 -33.757 -31.813  1.00  0.00     0.038 C 
BRANCH   7   8
ATOM      8  C   UNL     1      13.948 -33.023 -32.335  1.00  0.00    -0.034 C 
ATOM      9  C   UNL     1      14.401 -31.907 -31.758  1.00  0.00     0.004 C 
ENDBRANCH   7   8
ENDBRANCH   1   7
TORSDOF 4
ENDMDL
MODEL 9
REMARK VINA RESULT:    -4.017      1.957      4.091
REMARK INTER + INTRA:          -5.228
REMARK INTER:                  -5.050
REMARK INTRA:                  -0.178
REMARK UNBOUND:                -0.271
REMARK SMILES C=CC[C@H](C)C(=O)CC
REMARK SMILES IDX 4 1 5 2 6 3 7 4 8 5 9 6 3 7 2 8 1 9
REMARK H PARENT
REMARK Flexibility Score: inf
ROOT
ATOM      1  C   UNL     1      11.809 -33.153 -29.505  1.00  0.00     0.057 C 
ATOM      2  C   UNL     1      10.513 -32.563 -30.079  1.00  0.00     0.016 C 
ENDROOT
BRANCH   1   3
ATOM      3  C   UNL     1      12.646 -33.735 -30.626  1.00  0.00     0.135 C 
ATOM      4  O   UNL     1      13.260 -34.778 -30.445  1.00  0.00    -0.299 OA
BRANCH   3   5
ATOM      5  C   UNL     1      12.746 -33.048 -31.962  1.00  0.00     0.072 C 
ATOM      6  C   UNL     1      14.160 -32.527 -32.197  1.00  0.00     0.012 C 
ENDBRANCH   3   5
ENDBRANCH   1   3
BRANCH   1   7
ATOM      7  C   UNL     1      11.525 -34.234 -28.444  1.00  0.00     0.038 C 
BRANCH   7   8
ATOM      8  C   UNL     1      12.114 -33.864 -27.107  1.00  0.00    -0.034 C 
ATOM      9  C   UNL     1      11.416 -33.969 -25.974  1.00  0.00     0.004 C 
ENDBRANCH   7   8
ENDBRANCH   1   7
TORSDOF 4
ENDMDL
