MODEL 1
REMARK VINA RESULT:    -3.529      0.000      0.000
REMARK INTER + INTRA:          -4.262
REMARK INTER:                  -4.148
REMARK INTRA:                  -0.114
REMARK UNBOUND:                -0.114
REMARK SMILES O=C([O-])CCC(=O)[O-]
REMARK SMILES IDX 4 1 2 2 1 3 3 4 5 5 6 6 7 7 8 8
REMARK H PARENT
REMARK Flexibility Score: inf
ROOT
ATOM      1  C   UNL     1      13.089 -12.152  48.897  1.00  0.00     0.059 C 
ENDROOT
BRANCH   1   2
ATOM      2  C   UNL     1      13.409 -12.038  47.437  1.00  0.00     0.042 C 
ATOM      3  O   UNL     1      14.205 -12.849  46.896  1.00  0.00    -0.550 OA
ATOM      4  O   UNL     1      12.797 -11.058  46.666  1.00  0.00    -0.550 OA
ENDBRANCH   1   2
BRANCH   1   5
ATOM      5  C   UNL     1      13.295 -10.820  49.625  1.00  0.00     0.059 C 
BRANCH   5   6
ATOM      6  C   UNL     1      11.990 -10.200  50.023  1.00  0.00     0.042 C 
ATOM      7  O   UNL     1      10.933 -10.503  49.411  1.00  0.00    -0.550 OA
ATOM      8  O   UNL     1      11.949  -9.258  51.043  1.00  0.00    -0.550 OA
ENDBRANCH   5   6
ENDBRANCH   1   5
TORSDOF 3
ENDMDL
MODEL 2
REMARK VINA RESULT:    -3.519      0.287      3.868
REMARK INTER + INTRA:          -4.251
REMARK INTER:                  -4.145
REMARK INTRA:                  -0.106
REMARK UNBOUND:                -0.114
REMARK SMILES O=C([O-])CCC(=O)[O-]
REMARK SMILES IDX 4 1 2 2 1 3 3 4 5 5 6 6 7 7 8 8
REMARK H PARENT
REMARK Flexibility Score: inf
ROOT
ATOM      1  C   UNL     1      13.310 -10.847  49.786  1.00  0.00     0.059 C 
ENDROOT
BRANCH   1   2
ATOM      2  C   UNL     1      11.974 -10.352  50.249  1.00  0.00     0.042 C 
ATOM      3  O   UNL     1      11.897  -9.369  51.033  1.00  0.00    -0.550 OA
ATOM      4  O   UNL     1      10.810 -10.951  49.782  1.00  0.00    -0.550 OA
ENDBRANCH   1   2
BRANCH   1   5
ATOM      5  C   UNL     1      13.196 -12.206  49.087  1.00  0.00     0.059 C 
BRANCH   5   6
ATOM      6  C   UNL     1      13.348 -12.077  47.601  1.00  0.00     0.042 C 
ATOM      7  O   UNL     1      14.166 -12.807  46.983  1.00  0.00    -0.550 OA
ATOM      8  O   UNL     1      12.614 -11.124  46.906  1.00  0.00    -0.550 OA
ENDBRANCH   5   6
ENDBRANCH   1   5
TORSDOF 3
ENDMDL
MODEL 3
REMARK VINA RESULT:    -3.510     17.820     18.559
REMARK INTER + INTRA:          -4.240
REMARK INTER:                  -4.119
REMARK INTRA:                  -0.121
REMARK UNBOUND:                -0.114
REMARK SMILES O=C([O-])CCC(=O)[O-]
REMARK SMILES IDX 4 1 2 2 1 3 3 4 5 5 6 6 7 7 8 8
REMARK H PARENT
REMARK Flexibility Score: inf
ROOT
ATOM      1  C   UNL     1       9.809   1.185  36.537  1.00  0.00     0.059 C 
ENDROOT
BRANCH   1   2
ATOM      2  C   UNL     1       8.586   1.265  35.675  1.00  0.00     0.042 C 
ATOM      3  O   UNL     1       7.461   0.939  36.138  1.00  0.00    -0.550 OA
ATOM      4  O   UNL     1       8.682   1.738  34.373  1.00  0.00    -0.550 OA
ENDBRANCH   1   2
BRANCH   1   5
ATOM      5  C   UNL     1      10.969   1.992  35.945  1.00  0.00     0.059 C 
BRANCH   5   6
ATOM      6  C   UNL     1      12.038   1.099  35.392  1.00  0.00     0.042 C 
ATOM      7  O   UNL     1      13.217   1.178  35.829  1.00  0.00    -0.550 OA
ATOM      8  O   UNL     1      11.742   0.210  34.367  1.00  0.00    -0.550 OA
ENDBRANCH   5   6
ENDBRANCH   1   5
TORSDOF 3
ENDMDL
MODEL 4
REMARK VINA RESULT:    -3.498     17.773     18.210
REMARK INTER + INTRA:          -4.226
REMARK INTER:                  -4.152
REMARK INTRA:                  -0.074
REMARK UNBOUND:                -0.114
REMARK SMILES O=C([O-])CCC(=O)[O-]
REMARK SMILES IDX 4 1 2 2 1 3 3 4 5 5 6 6 7 7 8 8
REMARK H PARENT
REMARK Flexibility Score: inf
ROOT
ATOM      1  C   UNL     1      12.351   1.462  35.947  1.00  0.00     0.059 C 
ENDROOT
BRANCH   1   2
ATOM      2  C   UNL     1      12.978   0.973  34.677  1.00  0.00     0.042 C 
ATOM      3  O   UNL     1      13.065  -0.262  34.447  1.00  0.00    -0.550 OA
ATOM      4  O   UNL     1      13.430   1.883  33.730  1.00  0.00    -0.550 OA
ENDBRANCH   1   2
BRANCH   1   5
ATOM      5  C   UNL     1      11.015   2.165  35.682  1.00  0.00     0.059 C 
BRANCH   5   6
ATOM      6  C   UNL     1       9.877   1.461  36.358  1.00  0.00     0.042 C 
ATOM      7  O   UNL     1       9.432   0.381  35.888  1.00  0.00    -0.550 OA
ATOM      8  O   UNL     1       9.282   2.020  37.482  1.00  0.00    -0.550 OA
ENDBRANCH   5   6
ENDBRANCH   1   5
TORSDOF 3
ENDMDL
MODEL 5
REMARK VINA RESULT:    -3.473      1.809      2.408
REMARK INTER + INTRA:          -4.197
REMARK INTER:                  -4.033
REMARK INTRA:                  -0.164
REMARK UNBOUND:                -0.114
REMARK SMILES O=C([O-])CCC(=O)[O-]
REMARK SMILES IDX 4 1 2 2 1 3 3 4 5 5 6 6 7 7 8 8
REMARK H PARENT
REMARK Flexibility Score: inf
ROOT
ATOM      1  C   UNL     1      12.789 -12.679  47.004  1.00  0.00     0.059 C 
ENDROOT
BRANCH   1   2
ATOM      2  C   UNL     1      12.108 -11.429  46.537  1.00  0.00     0.042 C 
ATOM      3  O   UNL     1      12.754 -10.554  45.901  1.00  0.00    -0.550 OA
ATOM      4  O   UNL     1      10.751 -11.247  46.771  1.00  0.00    -0.550 OA
ENDBRANCH   1   2
BRANCH   1   5
ATOM      5  C   UNL     1      13.753 -12.398  48.162  1.00  0.00     0.059 C 
BRANCH   5   6
ATOM      6  C   UNL     1      13.046 -11.782  49.332  1.00  0.00     0.042 C 
ATOM      7  O   UNL     1      13.494 -10.731  49.859  1.00  0.00    -0.550 OA
ATOM      8  O   UNL     1      11.918 -12.393  49.864  1.00  0.00    -0.550 OA
ENDBRANCH   5   6
ENDBRANCH   1   5
TORSDOF 3
ENDMDL
MODEL 6
REMARK VINA RESULT:    -3.463     17.835     18.372
REMARK INTER + INTRA:          -4.185
REMARK INTER:                  -4.067
REMARK INTRA:                  -0.118
REMARK UNBOUND:                -0.114
REMARK SMILES O=C([O-])CCC(=O)[O-]
REMARK SMILES IDX 4 1 2 2 1 3 3 4 5 5 6 6 7 7 8 8
REMARK H PARENT
REMARK Flexibility Score: inf
ROOT
ATOM      1  C   UNL     1      10.962   2.126  35.742  1.00  0.00     0.059 C 
ENDROOT
BRANCH   1   2
ATOM      2  C   UNL     1      12.042   1.148  35.392  1.00  0.00     0.042 C 
ATOM      3  O   UNL     1      13.110   1.116  36.059  1.00  0.00    -0.550 OA
ATOM      4  O   UNL     1      11.854   0.246  34.353  1.00  0.00    -0.550 OA
ENDBRANCH   1   2
BRANCH   1   5
ATOM      5  C   UNL     1       9.832   1.458  36.531  1.00  0.00     0.059 C 
BRANCH   5   6
ATOM      6  C   UNL     1       8.605   1.273  35.690  1.00  0.00     0.042 C 
ATOM      7  O   UNL     1       7.505   0.982  36.231  1.00  0.00    -0.550 OA
ATOM      8  O   UNL     1       8.685   1.380  34.308  1.00  0.00    -0.550 OA
ENDBRANCH   5   6
ENDBRANCH   1   5
TORSDOF 3
ENDMDL
MODEL 7
REMARK VINA RESULT:    -3.463     18.091     18.439
REMARK INTER + INTRA:          -4.185
REMARK INTER:                  -4.088
REMARK INTRA:                  -0.096
REMARK UNBOUND:                -0.114
REMARK SMILES O=C([O-])CCC(=O)[O-]
REMARK SMILES IDX 4 1 2 2 1 3 3 4 5 5 6 6 7 7 8 8
REMARK H PARENT
REMARK Flexibility Score: inf
ROOT
ATOM      1  C   UNL     1      10.846   1.700  34.654  1.00  0.00     0.059 C 
ENDROOT
BRANCH   1   2
ATOM      2  C   UNL     1      11.345   0.347  34.247  1.00  0.00     0.042 C 
ATOM      3  O   UNL     1      10.578  -0.464  33.663  1.00  0.00    -0.550 OA
ATOM      4  O   UNL     1      12.669  -0.005  34.479  1.00  0.00    -0.550 OA
ENDBRANCH   1   2
BRANCH   1   5
ATOM      5  C   UNL     1       9.315   1.754  34.673  1.00  0.00     0.059 C 
BRANCH   5   6
ATOM      6  C   UNL     1       8.769   1.439  36.032  1.00  0.00     0.042 C 
ATOM      7  O   UNL     1       7.699   0.785  36.149  1.00  0.00    -0.550 OA
ATOM      8  O   UNL     1       9.418   1.904  37.169  1.00  0.00    -0.550 OA
ENDBRANCH   5   6
ENDBRANCH   1   5
TORSDOF 3
ENDMDL
MODEL 8
REMARK VINA RESULT:    -3.427      2.093      2.812
REMARK INTER + INTRA:          -4.142
REMARK INTER:                  -3.968
REMARK INTRA:                  -0.174
REMARK UNBOUND:                -0.114
REMARK SMILES O=C([O-])CCC(=O)[O-]
REMARK SMILES IDX 4 1 2 2 1 3 3 4 5 5 6 6 7 7 8 8
REMARK H PARENT
REMARK Flexibility Score: inf
ROOT
ATOM      1  C   UNL     1      13.237 -11.720  47.400  1.00  0.00     0.059 C 
ENDROOT
BRANCH   1   2
ATOM      2  C   UNL     1      13.014 -11.825  48.878  1.00  0.00     0.042 C 
ATOM      3  O   UNL     1      12.409 -12.820  49.360  1.00  0.00    -0.550 OA
ATOM      4  O   UNL     1      13.509 -10.844  49.727  1.00  0.00    -0.550 OA
ENDBRANCH   1   2
BRANCH   1   5
ATOM      5  C   UNL     1      11.918 -11.526  46.644  1.00  0.00     0.059 C 
BRANCH   5   6
ATOM      6  C   UNL     1      11.135 -10.370  47.189  1.00  0.00     0.042 C 
ATOM      7  O   UNL     1       9.972 -10.549  47.636  1.00  0.00    -0.550 OA
ATOM      8  O   UNL     1      11.673  -9.090  47.164  1.00  0.00    -0.550 OA
ENDBRANCH   5   6
ENDBRANCH   1   5
TORSDOF 3
ENDMDL
MODEL 9
REMARK VINA RESULT:    -3.376     17.993     19.035
REMARK INTER + INTRA:          -4.083
REMARK INTER:                  -3.902
REMARK INTRA:                  -0.181
REMARK UNBOUND:                -0.114
REMARK SMILES O=C([O-])CCC(=O)[O-]
REMARK SMILES IDX 4 1 2 2 1 3 3 4 5 5 6 6 7 7 8 8
REMARK H PARENT
REMARK Flexibility Score: inf
ROOT
ATOM      1  C   UNL     1      11.075   0.446  34.120  1.00  0.00     0.059 C 
ENDROOT
BRANCH   1   2
ATOM      2  C   UNL     1      10.225   1.277  35.031  1.00  0.00     0.042 C 
ATOM      3  O   UNL     1       9.525   2.216  34.566  1.00  0.00    -0.550 OA
ATOM      4  O   UNL     1      10.175   0.990  36.389  1.00  0.00    -0.550 OA
ENDBRANCH   1   2
BRANCH   1   5
ATOM      5  C   UNL     1      12.531   0.397  34.596  1.00  0.00     0.059 C 
BRANCH   5   6
ATOM      6  C   UNL     1      13.127   1.769  34.694  1.00  0.00     0.042 C 
ATOM      7  O   UNL     1      13.324   2.449  33.652  1.00  0.00    -0.550 OA
ATOM      8  O   UNL     1      13.502   2.279  35.930  1.00  0.00    -0.550 OA
ENDBRANCH   5   6
ENDBRANCH   1   5
TORSDOF 3
ENDMDL
