MODEL 1
REMARK VINA RESULT:    -5.691      0.000      0.000
REMARK INTER + INTRA:          -6.831
REMARK INTER:                  -6.523
REMARK INTRA:                  -0.308
REMARK UNBOUND:                -0.308
REMARK SMILES O=C1C[C@@H](c2ccc(O)cc2)Oc2cc(O)cc(O)c21
REMARK SMILES IDX 3 1 4 2 12 3 13 4 14 5 15 6 17 7 18 8 20 9 2 10 1 11 5 12
REMARK SMILES IDX 6 13 11 14 7 15 10 16 8 17 9 18 19 20 16 22
REMARK H PARENT 9 19 19 21 16 23
REMARK Flexibility Score: inf
ROOT
ATOM      1  C   UNL     1      14.899 -14.879  -7.260  1.00  0.00     0.131 C 
ATOM      2  C   UNL     1      15.847 -14.321  -6.189  1.00  0.00     0.211 C 
ATOM      3  O   UNL     1      17.126 -14.957  -6.267  1.00  0.00    -0.484 OA
ATOM      4  C   UNL     1      17.738 -15.277  -7.487  1.00  0.00     0.138 A 
ATOM      5  C   UNL     1      19.087 -15.635  -7.493  1.00  0.00     0.093 A 
ATOM      6  C   UNL     1      19.728 -15.946  -8.696  1.00  0.00     0.123 A 
ATOM      7  C   UNL     1      19.008 -15.926  -9.891  1.00  0.00     0.093 A 
ATOM      8  C   UNL     1      17.644 -15.609  -9.903  1.00  0.00     0.133 A 
ATOM      9  C   UNL     1      17.001 -15.246  -8.690  1.00  0.00     0.102 A 
ATOM     10  C   UNL     1      15.582 -14.824  -8.595  1.00  0.00     0.174 C 
ATOM     11  O   UNL     1      14.955 -14.373  -9.590  1.00  0.00    -0.294 OA
ENDROOT
BRANCH   2  12
ATOM     12  C   UNL     1      15.261 -14.505  -4.810  1.00  0.00    -0.007 A 
ATOM     13  C   UNL     1      15.631 -15.607  -4.017  1.00  0.00     0.011 A 
ATOM     14  C   UNL     1      14.296 -13.606  -4.325  1.00  0.00     0.011 A 
ATOM     15  C   UNL     1      15.062 -15.789  -2.753  1.00  0.00     0.046 A 
ATOM     16  C   UNL     1      13.729 -13.792  -3.061  1.00  0.00     0.046 A 
ATOM     17  C   UNL     1      14.113 -14.883  -2.271  1.00  0.00     0.115 A 
BRANCH  17  18
ATOM     18  O   UNL     1      13.555 -15.078  -1.009  1.00  0.00    -0.508 OA
ATOM     19  H   UNL     1      12.896 -15.828  -0.832  1.00  0.00     0.293 HD
ENDBRANCH  17  18
ENDBRANCH   2  12
BRANCH   8  20
ATOM     20  O   UNL     1      16.973 -15.702 -11.125  1.00  0.00    -0.507 OA
ATOM     21  H   UNL     1      17.318 -16.217 -11.921  1.00  0.00     0.293 HD
ENDBRANCH   8  20
BRANCH   6  22
ATOM     22  O   UNL     1      21.080 -16.284  -8.714  1.00  0.00    -0.508 OA
ATOM     23  H   UNL     1      21.388 -17.242  -8.595  1.00  0.00     0.293 HD
ENDBRANCH   6  22
TORSDOF 4
ENDMDL
MODEL 2
REMARK VINA RESULT:    -5.604      7.361      9.497
REMARK INTER + INTRA:          -6.732
REMARK INTER:                  -6.432
REMARK INTRA:                  -0.300
REMARK UNBOUND:                -0.308
REMARK SMILES O=C1C[C@@H](c2ccc(O)cc2)Oc2cc(O)cc(O)c21
REMARK SMILES IDX 3 1 4 2 12 3 13 4 14 5 15 6 17 7 18 8 20 9 2 10 1 11 5 12
REMARK SMILES IDX 6 13 11 14 7 15 10 16 8 17 9 18 19 20 16 22
REMARK H PARENT 9 19 19 21 16 23
REMARK Flexibility Score: inf
ROOT
ATOM      1  C   UNL     1      19.871 -22.338  -3.066  1.00  0.00     0.131 C 
ATOM      2  C   UNL     1      19.234 -21.821  -4.364  1.00  0.00     0.211 C 
ATOM      3  O   UNL     1      18.390 -20.697  -4.099  1.00  0.00    -0.484 OA
ATOM      4  C   UNL     1      18.726 -19.703  -3.169  1.00  0.00     0.138 A 
ATOM      5  C   UNL     1      18.001 -18.509  -3.165  1.00  0.00     0.093 A 
ATOM      6  C   UNL     1      18.322 -17.494  -2.260  1.00  0.00     0.123 A 
ATOM      7  C   UNL     1      19.351 -17.686  -1.337  1.00  0.00     0.093 A 
ATOM      8  C   UNL     1      20.064 -18.890  -1.297  1.00  0.00     0.133 A 
ATOM      9  C   UNL     1      19.774 -19.906  -2.246  1.00  0.00     0.102 A 
ATOM     10  C   UNL     1      20.511 -21.190  -2.342  1.00  0.00     0.174 C 
ATOM     11  O   UNL     1      21.675 -21.324  -1.882  1.00  0.00    -0.294 OA
ENDROOT
BRANCH   2  12
ATOM     12  C   UNL     1      18.444 -22.913  -5.042  1.00  0.00    -0.007 A 
ATOM     13  C   UNL     1      17.151 -23.242  -4.597  1.00  0.00     0.011 A 
ATOM     14  C   UNL     1      19.015 -23.653  -6.093  1.00  0.00     0.011 A 
ATOM     15  C   UNL     1      16.434 -24.275  -5.209  1.00  0.00     0.046 A 
ATOM     16  C   UNL     1      18.295 -24.685  -6.702  1.00  0.00     0.046 A 
ATOM     17  C   UNL     1      17.002 -24.997  -6.263  1.00  0.00     0.115 A 
BRANCH  17  18
ATOM     18  O   UNL     1      16.276 -26.024  -6.863  1.00  0.00    -0.508 OA
ATOM     19  H   UNL     1      16.102 -26.899  -6.382  1.00  0.00     0.293 HD
ENDBRANCH  17  18
ENDBRANCH   2  12
BRANCH   8  20
ATOM     20  O   UNL     1      21.016 -19.041  -0.285  1.00  0.00    -0.507 OA
ATOM     21  H   UNL     1      21.899 -18.552  -0.262  1.00  0.00     0.293 HD
ENDBRANCH   8  20
BRANCH   6  22
ATOM     22  O   UNL     1      17.618 -16.290  -2.263  1.00  0.00    -0.508 OA
ATOM     23  H   UNL     1      17.552 -15.718  -3.097  1.00  0.00     0.293 HD
ENDBRANCH   6  22
TORSDOF 4
ENDMDL
MODEL 3
REMARK VINA RESULT:    -5.565      2.032      2.332
REMARK INTER + INTRA:          -6.686
REMARK INTER:                  -6.401
REMARK INTRA:                  -0.285
REMARK UNBOUND:                -0.308
REMARK SMILES O=C1C[C@@H](c2ccc(O)cc2)Oc2cc(O)cc(O)c21
REMARK SMILES IDX 3 1 4 2 12 3 13 4 14 5 15 6 17 7 18 8 20 9 2 10 1 11 5 12
REMARK SMILES IDX 6 13 11 14 7 15 10 16 8 17 9 18 19 20 16 22
REMARK H PARENT 9 19 19 21 16 23
REMARK Flexibility Score: inf
ROOT
ATOM      1  C   UNL     1      15.495 -14.869  -7.113  1.00  0.00     0.131 C 
ATOM      2  C   UNL     1      15.528 -13.701  -6.117  1.00  0.00     0.211 C 
ATOM      3  O   UNL     1      16.853 -13.176  -5.999  1.00  0.00    -0.484 OA
ATOM      4  C   UNL     1      17.712 -13.039  -7.099  1.00  0.00     0.138 A 
ATOM      5  C   UNL     1      18.871 -12.271  -6.960  1.00  0.00     0.093 A 
ATOM      6  C   UNL     1      19.739 -12.104  -8.042  1.00  0.00     0.123 A 
ATOM      7  C   UNL     1      19.461 -12.732  -9.258  1.00  0.00     0.093 A 
ATOM      8  C   UNL     1      18.327 -13.539  -9.407  1.00  0.00     0.133 A 
ATOM      9  C   UNL     1      17.417 -13.672  -8.325  1.00  0.00     0.102 A 
ATOM     10  C   UNL     1      16.150 -14.441  -8.393  1.00  0.00     0.174 C 
ATOM     11  O   UNL     1      15.586 -14.696  -9.489  1.00  0.00    -0.294 OA
ENDROOT
BRANCH   2  12
ATOM     12  C   UNL     1      15.023 -14.139  -4.764  1.00  0.00    -0.007 A 
ATOM     13  C   UNL     1      14.118 -13.338  -4.044  1.00  0.00     0.011 A 
ATOM     14  C   UNL     1      15.496 -15.329  -4.183  1.00  0.00     0.011 A 
ATOM     15  C   UNL     1      13.677 -13.733  -2.778  1.00  0.00     0.046 A 
ATOM     16  C   UNL     1      15.052 -15.721  -2.917  1.00  0.00     0.046 A 
ATOM     17  C   UNL     1      14.140 -14.925  -2.212  1.00  0.00     0.115 A 
BRANCH  17  18
ATOM     18  O   UNL     1      13.692 -15.306  -0.949  1.00  0.00    -0.508 OA
ATOM     19  H   UNL     1      13.530 -14.624  -0.217  1.00  0.00     0.293 HD
ENDBRANCH  17  18
ENDBRANCH   2  12
BRANCH   8  20
ATOM     20  O   UNL     1      18.168 -14.206 -10.624  1.00  0.00    -0.507 OA
ATOM     21  H   UNL     1      18.487 -15.149 -10.797  1.00  0.00     0.293 HD
ENDBRANCH   8  20
BRANCH   6  22
ATOM     22  O   UNL     1      20.886 -11.322  -7.919  1.00  0.00    -0.508 OA
ATOM     23  H   UNL     1      21.604 -11.540  -7.237  1.00  0.00     0.293 HD
ENDBRANCH   6  22
TORSDOF 4
ENDMDL
MODEL 4
REMARK VINA RESULT:    -5.511      2.223      3.332
REMARK INTER + INTRA:          -6.625
REMARK INTER:                  -6.306
REMARK INTRA:                  -0.319
REMARK UNBOUND:                -0.308
REMARK SMILES O=C1C[C@@H](c2ccc(O)cc2)Oc2cc(O)cc(O)c21
REMARK SMILES IDX 3 1 4 2 12 3 13 4 14 5 15 6 17 7 18 8 20 9 2 10 1 11 5 12
REMARK SMILES IDX 6 13 11 14 7 15 10 16 8 17 9 18 19 20 16 22
REMARK H PARENT 9 19 19 21 16 23
REMARK Flexibility Score: inf
ROOT
ATOM      1  C   UNL     1      17.856 -15.193  -5.809  1.00  0.00     0.131 C 
ATOM      2  C   UNL     1      16.433 -14.717  -6.138  1.00  0.00     0.211 C 
ATOM      3  O   UNL     1      16.463 -13.427  -6.754  1.00  0.00    -0.484 OA
ATOM      4  C   UNL     1      17.440 -13.059  -7.690  1.00  0.00     0.138 A 
ATOM      5  C   UNL     1      17.249 -11.901  -8.447  1.00  0.00     0.093 A 
ATOM      6  C   UNL     1      18.198 -11.516  -9.398  1.00  0.00     0.123 A 
ATOM      7  C   UNL     1      19.356 -12.276  -9.569  1.00  0.00     0.093 A 
ATOM      8  C   UNL     1      19.588 -13.418  -8.792  1.00  0.00     0.133 A 
ATOM      9  C   UNL     1      18.604 -13.839  -7.859  1.00  0.00     0.102 A 
ATOM     10  C   UNL     1      18.711 -15.068  -7.035  1.00  0.00     0.174 C 
ATOM     11  O   UNL     1      19.457 -16.027  -7.367  1.00  0.00    -0.294 OA
ENDROOT
BRANCH   2  12
ATOM     12  C   UNL     1      15.583 -14.676  -4.892  1.00  0.00    -0.007 A 
ATOM     13  C   UNL     1      14.639 -13.651  -4.703  1.00  0.00     0.011 A 
ATOM     14  C   UNL     1      15.765 -15.633  -3.878  1.00  0.00     0.011 A 
ATOM     15  C   UNL     1      13.875 -13.600  -3.533  1.00  0.00     0.046 A 
ATOM     16  C   UNL     1      15.000 -15.579  -2.710  1.00  0.00     0.046 A 
ATOM     17  C   UNL     1      14.051 -14.564  -2.536  1.00  0.00     0.115 A 
BRANCH  17  18
ATOM     18  O   UNL     1      13.283 -14.500  -1.375  1.00  0.00    -0.508 OA
ATOM     19  H   UNL     1      13.235 -13.654  -0.818  1.00  0.00     0.293 HD
ENDBRANCH  17  18
ENDBRANCH   2  12
BRANCH   8  20
ATOM     20  O   UNL     1      20.812 -14.070  -8.957  1.00  0.00    -0.507 OA
ATOM     21  H   UNL     1      21.060 -14.931  -8.492  1.00  0.00     0.293 HD
ENDBRANCH   8  20
BRANCH   6  22
ATOM     22  O   UNL     1      18.005 -10.375 -10.174  1.00  0.00    -0.508 OA
ATOM     23  H   UNL     1      17.624 -10.431 -11.112  1.00  0.00     0.293 HD
ENDBRANCH   6  22
TORSDOF 4
ENDMDL
MODEL 5
REMARK VINA RESULT:    -5.451      7.240      8.267
REMARK INTER + INTRA:          -6.556
REMARK INTER:                  -6.271
REMARK INTRA:                  -0.285
REMARK UNBOUND:                -0.308
REMARK SMILES O=C1C[C@@H](c2ccc(O)cc2)Oc2cc(O)cc(O)c21
REMARK SMILES IDX 3 1 4 2 12 3 13 4 14 5 15 6 17 7 18 8 20 9 2 10 1 11 5 12
REMARK SMILES IDX 6 13 11 14 7 15 10 16 8 17 9 18 19 20 16 22
REMARK H PARENT 9 19 19 21 16 23
REMARK Flexibility Score: inf
ROOT
ATOM      1  C   UNL     1      19.641 -20.908  -5.268  1.00  0.00     0.131 C 
ATOM      2  C   UNL     1      19.288 -21.189  -3.800  1.00  0.00     0.211 C 
ATOM      3  O   UNL     1      18.131 -22.026  -3.712  1.00  0.00    -0.484 OA
ATOM      4  C   UNL     1      17.904 -23.096  -4.589  1.00  0.00     0.138 A 
ATOM      5  C   UNL     1      16.913 -24.029  -4.275  1.00  0.00     0.093 A 
ATOM      6  C   UNL     1      16.673 -25.114  -5.123  1.00  0.00     0.123 A 
ATOM      7  C   UNL     1      17.407 -25.249  -6.302  1.00  0.00     0.093 A 
ATOM      8  C   UNL     1      18.377 -24.303  -6.657  1.00  0.00     0.133 A 
ATOM      9  C   UNL     1      18.658 -23.226  -5.775  1.00  0.00     0.102 A 
ATOM     10  C   UNL     1      19.711 -22.208  -6.014  1.00  0.00     0.174 C 
ATOM     11  O   UNL     1      20.685 -22.428  -6.780  1.00  0.00    -0.294 OA
ENDROOT
BRANCH   2  12
ATOM     12  C   UNL     1      19.051 -19.900  -3.053  1.00  0.00    -0.007 A 
ATOM     13  C   UNL     1      19.620 -19.695  -1.783  1.00  0.00     0.011 A 
ATOM     14  C   UNL     1      18.212 -18.911  -3.595  1.00  0.00     0.011 A 
ATOM     15  C   UNL     1      19.373 -18.511  -1.081  1.00  0.00     0.046 A 
ATOM     16  C   UNL     1      17.967 -17.729  -2.890  1.00  0.00     0.046 A 
ATOM     17  C   UNL     1      18.549 -17.525  -1.633  1.00  0.00     0.115 A 
BRANCH  17  18
ATOM     18  O   UNL     1      18.311 -16.351  -0.921  1.00  0.00    -0.508 OA
ATOM     19  H   UNL     1      18.477 -16.294   0.078  1.00  0.00     0.293 HD
ENDBRANCH  17  18
ENDBRANCH   2  12
BRANCH   8  20
ATOM     20  O   UNL     1      19.003 -24.458  -7.896  1.00  0.00    -0.507 OA
ATOM     21  H   UNL     1      19.734 -25.129  -8.081  1.00  0.00     0.293 HD
ENDBRANCH   8  20
BRANCH   6  22
ATOM     22  O   UNL     1      15.701 -26.061  -4.807  1.00  0.00    -0.508 OA
ATOM     23  H   UNL     1      15.946 -27.025  -4.609  1.00  0.00     0.293 HD
ENDBRANCH   6  22
TORSDOF 4
ENDMDL
MODEL 6
REMARK VINA RESULT:    -5.433      6.184      8.287
REMARK INTER + INTRA:          -6.535
REMARK INTER:                  -6.248
REMARK INTRA:                  -0.287
REMARK UNBOUND:                -0.308
REMARK SMILES O=C1C[C@@H](c2ccc(O)cc2)Oc2cc(O)cc(O)c21
REMARK SMILES IDX 3 1 4 2 12 3 13 4 14 5 15 6 17 7 18 8 20 9 2 10 1 11 5 12
REMARK SMILES IDX 6 13 11 14 7 15 10 16 8 17 9 18 19 20 16 22
REMARK H PARENT 9 19 19 21 16 23
REMARK Flexibility Score: inf
ROOT
ATOM      1  C   UNL     1      18.746 -19.144  -5.196  1.00  0.00     0.131 C 
ATOM      2  C   UNL     1      17.984 -20.103  -4.272  1.00  0.00     0.211 C 
ATOM      3  O   UNL     1      18.565 -20.111  -2.964  1.00  0.00    -0.484 OA
ATOM      4  C   UNL     1      19.044 -18.948  -2.344  1.00  0.00     0.138 A 
ATOM      5  C   UNL     1      19.337 -18.983  -0.979  1.00  0.00     0.093 A 
ATOM      6  C   UNL     1      19.803 -17.836  -0.329  1.00  0.00     0.123 A 
ATOM      7  C   UNL     1      20.004 -16.661  -1.055  1.00  0.00     0.093 A 
ATOM      8  C   UNL     1      19.755 -16.615  -2.432  1.00  0.00     0.133 A 
ATOM      9  C   UNL     1      19.236 -17.764  -3.087  1.00  0.00     0.102 A 
ATOM     10  C   UNL     1      18.870 -17.808  -4.524  1.00  0.00     0.174 C 
ATOM     11  O   UNL     1      18.610 -16.763  -5.175  1.00  0.00    -0.294 OA
ENDROOT
BRANCH   2  12
ATOM     12  C   UNL     1      17.976 -21.500  -4.842  1.00  0.00    -0.007 A 
ATOM     13  C   UNL     1      19.103 -22.004  -5.515  1.00  0.00     0.011 A 
ATOM     14  C   UNL     1      16.819 -22.294  -4.754  1.00  0.00     0.011 A 
ATOM     15  C   UNL     1      19.080 -23.289  -6.069  1.00  0.00     0.046 A 
ATOM     16  C   UNL     1      16.800 -23.577  -5.308  1.00  0.00     0.046 A 
ATOM     17  C   UNL     1      17.931 -24.078  -5.965  1.00  0.00     0.115 A 
BRANCH  17  18
ATOM     18  O   UNL     1      17.922 -25.356  -6.522  1.00  0.00    -0.508 OA
ATOM     19  H   UNL     1      17.564 -25.524  -7.455  1.00  0.00     0.293 HD
ENDBRANCH  17  18
ENDBRANCH   2  12
BRANCH   8  20
ATOM     20  O   UNL     1      20.069 -15.431  -3.103  1.00  0.00    -0.507 OA
ATOM     21  H   UNL     1      20.135 -14.529  -2.656  1.00  0.00     0.293 HD
ENDBRANCH   8  20
BRANCH   6  22
ATOM     22  O   UNL     1      20.076 -17.855   1.037  1.00  0.00    -0.508 OA
ATOM     23  H   UNL     1      19.971 -18.701   1.587  1.00  0.00     0.293 HD
ENDBRANCH   6  22
TORSDOF 4
ENDMDL
MODEL 7
REMARK VINA RESULT:    -5.412      7.800      8.918
REMARK INTER + INTRA:          -6.511
REMARK INTER:                  -6.218
REMARK INTRA:                  -0.293
REMARK UNBOUND:                -0.308
REMARK SMILES O=C1C[C@@H](c2ccc(O)cc2)Oc2cc(O)cc(O)c21
REMARK SMILES IDX 3 1 4 2 12 3 13 4 14 5 15 6 17 7 18 8 20 9 2 10 1 11 5 12
REMARK SMILES IDX 6 13 11 14 7 15 10 16 8 17 9 18 19 20 16 22
REMARK H PARENT 9 19 19 21 16 23
REMARK Flexibility Score: inf
ROOT
ATOM      1  C   UNL     1      16.943 -21.685  -4.822  1.00  0.00     0.131 C 
ATOM      2  C   UNL     1      18.407 -21.248  -4.670  1.00  0.00     0.211 C 
ATOM      3  O   UNL     1      19.043 -21.974  -3.614  1.00  0.00    -0.484 OA
ATOM      4  C   UNL     1      18.806 -23.337  -3.385  1.00  0.00     0.138 A 
ATOM      5  C   UNL     1      19.658 -24.037  -2.527  1.00  0.00     0.093 A 
ATOM      6  C   UNL     1      19.455 -25.399  -2.291  1.00  0.00     0.123 A 
ATOM      7  C   UNL     1      18.380 -26.056  -2.891  1.00  0.00     0.093 A 
ATOM      8  C   UNL     1      17.490 -25.365  -3.723  1.00  0.00     0.133 A 
ATOM      9  C   UNL     1      17.719 -23.992  -4.004  1.00  0.00     0.102 A 
ATOM     10  C   UNL     1      16.885 -23.180  -4.924  1.00  0.00     0.174 C 
ATOM     11  O   UNL     1      16.174 -23.710  -5.818  1.00  0.00    -0.294 OA
ENDROOT
BRANCH   2  12
ATOM     12  C   UNL     1      18.497 -19.765  -4.405  1.00  0.00    -0.007 A 
ATOM     13  C   UNL     1      17.986 -19.219  -3.214  1.00  0.00     0.011 A 
ATOM     14  C   UNL     1      19.044 -18.905  -5.373  1.00  0.00     0.011 A 
ATOM     15  C   UNL     1      18.045 -17.841  -2.986  1.00  0.00     0.046 A 
ATOM     16  C   UNL     1      19.101 -17.528  -5.143  1.00  0.00     0.046 A 
ATOM     17  C   UNL     1      18.603 -16.993  -3.948  1.00  0.00     0.115 A 
BRANCH  17  18
ATOM     18  O   UNL     1      18.654 -15.621  -3.708  1.00  0.00    -0.508 OA
ATOM     19  H   UNL     1      17.858 -15.021  -3.894  1.00  0.00     0.293 HD
ENDBRANCH  17  18
ENDBRANCH   2  12
BRANCH   8  20
ATOM     20  O   UNL     1      16.387 -26.070  -4.211  1.00  0.00    -0.507 OA
ATOM     21  H   UNL     1      16.169 -27.023  -3.958  1.00  0.00     0.293 HD
ENDBRANCH   8  20
BRANCH   6  22
ATOM     22  O   UNL     1      20.313 -26.110  -1.453  1.00  0.00    -0.508 OA
ATOM     23  H   UNL     1      20.471 -27.104  -1.577  1.00  0.00     0.293 HD
ENDBRANCH   6  22
TORSDOF 4
ENDMDL
MODEL 8
REMARK VINA RESULT:    -5.380     11.399     12.788
REMARK INTER + INTRA:          -6.474
REMARK INTER:                  -6.159
REMARK INTRA:                  -0.315
REMARK UNBOUND:                -0.308
REMARK SMILES O=C1C[C@@H](c2ccc(O)cc2)Oc2cc(O)cc(O)c21
REMARK SMILES IDX 3 1 4 2 12 3 13 4 14 5 15 6 17 7 18 8 20 9 2 10 1 11 5 12
REMARK SMILES IDX 6 13 11 14 7 15 10 16 8 17 9 18 19 20 16 22
REMARK H PARENT 9 19 19 21 16 23
REMARK Flexibility Score: inf
ROOT
ATOM      1  C   UNL     1       5.683 -20.150  -5.561  1.00  0.00     0.131 C 
ATOM      2  C   UNL     1       5.955 -20.894  -4.246  1.00  0.00     0.211 C 
ATOM      3  O   UNL     1       6.523 -20.010  -3.275  1.00  0.00    -0.484 OA
ATOM      4  C   UNL     1       6.101 -18.681  -3.125  1.00  0.00     0.138 A 
ATOM      5  C   UNL     1       6.496 -17.970  -1.989  1.00  0.00     0.093 A 
ATOM      6  C   UNL     1       6.080 -16.649  -1.805  1.00  0.00     0.123 A 
ATOM      7  C   UNL     1       5.291 -16.028  -2.775  1.00  0.00     0.093 A 
ATOM      8  C   UNL     1       4.917 -16.709  -3.941  1.00  0.00     0.133 A 
ATOM      9  C   UNL     1       5.298 -18.067  -4.109  1.00  0.00     0.102 A 
ATOM     10  C   UNL     1       4.899 -18.905  -5.267  1.00  0.00     0.174 C 
ATOM     11  O   UNL     1       3.894 -18.628  -5.972  1.00  0.00    -0.294 OA
ENDROOT
BRANCH   2  12
ATOM     12  C   UNL     1       6.876 -22.067  -4.477  1.00  0.00    -0.007 A 
ATOM     13  C   UNL     1       8.152 -22.102  -3.887  1.00  0.00     0.011 A 
ATOM     14  C   UNL     1       6.488 -23.113  -5.333  1.00  0.00     0.011 A 
ATOM     15  C   UNL     1       9.013 -23.177  -4.129  1.00  0.00     0.046 A 
ATOM     16  C   UNL     1       7.352 -24.185  -5.573  1.00  0.00     0.046 A 
ATOM     17  C   UNL     1       8.615 -24.221  -4.970  1.00  0.00     0.115 A 
BRANCH  17  18
ATOM     18  O   UNL     1       9.484 -25.285  -5.202  1.00  0.00    -0.508 OA
ATOM     19  H   UNL     1       9.439 -26.136  -4.652  1.00  0.00     0.293 HD
ENDBRANCH  17  18
ENDBRANCH   2  12
BRANCH   8  20
ATOM     20  O   UNL     1       4.206 -15.990  -4.905  1.00  0.00    -0.507 OA
ATOM     21  H   UNL     1       4.144 -16.257  -5.876  1.00  0.00     0.293 HD
ENDBRANCH   8  20
BRANCH   6  22
ATOM     22  O   UNL     1       6.451 -15.939  -0.665  1.00  0.00    -0.508 OA
ATOM     23  H   UNL     1       6.730 -14.966  -0.714  1.00  0.00     0.293 HD
ENDBRANCH   6  22
TORSDOF 4
ENDMDL
MODEL 9
REMARK VINA RESULT:    -5.340      4.070      5.818
REMARK INTER + INTRA:          -6.428
REMARK INTER:                  -6.139
REMARK INTRA:                  -0.289
REMARK UNBOUND:                -0.308
REMARK SMILES O=C1C[C@@H](c2ccc(O)cc2)Oc2cc(O)cc(O)c21
REMARK SMILES IDX 3 1 4 2 12 3 13 4 14 5 15 6 17 7 18 8 20 9 2 10 1 11 5 12
REMARK SMILES IDX 6 13 11 14 7 15 10 16 8 17 9 18 19 20 16 22
REMARK H PARENT 9 19 19 21 16 23
REMARK Flexibility Score: inf
ROOT
ATOM      1  C   UNL     1      16.507 -17.109  -2.918  1.00  0.00     0.131 C 
ATOM      2  C   UNL     1      18.007 -16.786  -2.890  1.00  0.00     0.211 C 
ATOM      3  O   UNL     1      18.441 -16.296  -4.163  1.00  0.00    -0.484 OA
ATOM      4  C   UNL     1      17.664 -15.427  -4.942  1.00  0.00     0.138 A 
ATOM      5  C   UNL     1      18.259 -14.777  -6.025  1.00  0.00     0.093 A 
ATOM      6  C   UNL     1      17.514 -13.894  -6.812  1.00  0.00     0.123 A 
ATOM      7  C   UNL     1      16.163 -13.685  -6.531  1.00  0.00     0.093 A 
ATOM      8  C   UNL     1      15.536 -14.357  -5.475  1.00  0.00     0.133 A 
ATOM      9  C   UNL     1      16.301 -15.218  -4.643  1.00  0.00     0.102 A 
ATOM     10  C   UNL     1      15.760 -15.925  -3.457  1.00  0.00     0.174 C 
ATOM     11  O   UNL     1      14.725 -15.525  -2.861  1.00  0.00    -0.294 OA
ENDROOT
BRANCH   2  12
ATOM     12  C   UNL     1      18.808 -18.006  -2.506  1.00  0.00    -0.007 A 
ATOM     13  C   UNL     1      19.694 -17.966  -1.414  1.00  0.00     0.011 A 
ATOM     14  C   UNL     1      18.719 -19.182  -3.272  1.00  0.00     0.011 A 
ATOM     15  C   UNL     1      20.456 -19.090  -1.080  1.00  0.00     0.046 A 
ATOM     16  C   UNL     1      19.483 -20.303  -2.936  1.00  0.00     0.046 A 
ATOM     17  C   UNL     1      20.352 -20.260  -1.838  1.00  0.00     0.115 A 
BRANCH  17  18
ATOM     18  O   UNL     1      21.118 -21.372  -1.494  1.00  0.00    -0.508 OA
ATOM     19  H   UNL     1      20.827 -22.312  -1.738  1.00  0.00     0.293 HD
ENDBRANCH  17  18
ENDBRANCH   2  12
BRANCH   8  20
ATOM     20  O   UNL     1      14.162 -14.165  -5.316  1.00  0.00    -0.507 OA
ATOM     21  H   UNL     1      13.682 -13.306  -5.541  1.00  0.00     0.293 HD
ENDBRANCH   8  20
BRANCH   6  22
ATOM     22  O   UNL     1      18.105 -13.224  -7.882  1.00  0.00    -0.508 OA
ATOM     23  H   UNL     1      18.379 -12.250  -7.811  1.00  0.00     0.293 HD
ENDBRANCH   6  22
TORSDOF 4
ENDMDL
