MODEL 1
REMARK VINA RESULT:    -3.161      0.000      0.000
REMARK INTER + INTRA:          -5.165
REMARK INTER:                  -4.824
REMARK INTRA:                  -0.341
REMARK UNBOUND:                -0.341
REMARK SMILES CC1=CCC[C@H](C)C(=O)C[C@@H](C(C)C)C(=O)C1
REMARK SMILES IDX 8 1 9 2 6 3 7 4 5 5 4 6 3 7 2 8 1 9 10 11 11 12 15 13 16 14
REMARK SMILES IDX 17 15 12 17 13 18 14 19
REMARK H PARENT
REMARK Flexibility Score: 70.00
ROOT
ATOM      1  C   UNL     1      69.276  69.311  31.397  1.00  0.00     0.136 C 
ATOM      2  O   UNL     1      70.208  69.154  32.172  1.00  0.00    -0.299 OA
ENDROOT
BRANCH   1   3
ATOM      3  C   UNL     1      69.432  70.240  30.215  1.00  0.00     0.053 C 
ATOM      4  C   UNL     1      69.496  71.704  30.664  1.00  0.00     0.016 C 
BRANCH   3   5
ATOM      5  C   UNL     1      70.695  69.834  29.415  1.00  0.00     0.015 C 
BRANCH   5   6
ATOM      6  C   UNL     1      70.557  68.572  28.539  1.00  0.00     0.028 C 
BRANCH   6   7
ATOM      7  C   UNL     1      69.268  68.414  27.761  1.00  0.00    -0.028 C 
ATOM      8  C   UNL     1      68.396  67.380  27.832  1.00  0.00    -0.070 CG0
ATOM      9  C   UNL     1      67.223  67.386  26.882  1.00  0.00     0.039 C 
ATOM     10  G   UNL     1      68.485  66.258  28.852  1.00  0.00     0.000 G0
ENDBRANCH   6   7
ENDBRANCH   5   6
ENDBRANCH   3   5
ENDBRANCH   1   3
BRANCH   1  11
ATOM     11  C   UNL     1      68.012  68.507  31.587  1.00  0.00     0.087 C 
BRANCH  11  12
ATOM     12  C   UNL     1      68.253  66.977  31.396  1.00  0.00     0.066 C 
BRANCH  12  13
ATOM     13  C   UNL     1      67.638  66.531  30.075  1.00  0.00     0.140 C 
ATOM     14  O   UNL     1      66.431  66.340  30.021  1.00  0.00    -0.299 OA
BRANCH  13  15
ATOM     15  C   UNL     1      68.480  66.245  28.848  1.00  0.00     0.106 CG0
ATOM     16  G   UNL     1      68.382  67.381  27.845  1.00  0.00     0.000 G0
ENDBRANCH  13  15
ENDBRANCH  12  13
BRANCH  12  17
ATOM     17  C   UNL     1      67.683  66.139  32.589  1.00  0.00    -0.006 C 
ATOM     18  C   UNL     1      68.513  64.865  32.850  1.00  0.00     0.008 C 
ATOM     19  C   UNL     1      67.642  66.959  33.894  1.00  0.00     0.008 C 
ENDBRANCH  12  17
ENDBRANCH  11  12
ENDBRANCH   1  11
TORSDOF 1
ENDMDL
MODEL 2
REMARK VINA RESULT:    -3.001      2.105      4.470
REMARK INTER + INTRA:          -4.922
REMARK INTER:                  -4.538
REMARK INTRA:                  -0.384
REMARK UNBOUND:                -0.341
REMARK SMILES CC1=CCC[C@H](C)C(=O)C[C@@H](C(C)C)C(=O)C1
REMARK SMILES IDX 8 1 9 2 6 3 7 4 5 5 4 6 3 7 2 8 1 9 10 11 11 12 15 13 16 14
REMARK SMILES IDX 17 15 12 17 13 18 14 19
REMARK H PARENT
REMARK Flexibility Score: 70.00
ROOT
ATOM      1  C   UNL     1      68.311  66.779  30.874  1.00  0.00     0.136 C 
ATOM      2  O   UNL     1      68.601  65.592  30.914  1.00  0.00    -0.299 OA
ENDROOT
BRANCH   1   3
ATOM      3  C   UNL     1      68.294  67.591  32.149  1.00  0.00     0.053 C 
ATOM      4  C   UNL     1      67.314  67.001  33.170  1.00  0.00     0.016 C 
BRANCH   3   5
ATOM      5  C   UNL     1      69.732  67.667  32.719  1.00  0.00     0.015 C 
BRANCH   5   6
ATOM      6  C   UNL     1      70.612  68.809  32.170  1.00  0.00     0.028 C 
BRANCH   6   7
ATOM      7  C   UNL     1      69.895  70.001  31.570  1.00  0.00    -0.028 C 
ATOM      8  C   UNL     1      69.972  70.437  30.290  1.00  0.00    -0.070 CG0
ATOM      9  C   UNL     1      69.247  71.713  29.941  1.00  0.00     0.039 C 
ATOM     10  G   UNL     1      70.678  69.686  29.174  1.00  0.00     0.000 G0
ENDBRANCH   6   7
ENDBRANCH   5   6
ENDBRANCH   3   5
ENDBRANCH   1   3
BRANCH   1  11
ATOM     11  C   UNL     1      68.057  67.435  29.537  1.00  0.00     0.087 C 
BRANCH  11  12
ATOM     12  C   UNL     1      69.334  67.455  28.639  1.00  0.00     0.066 C 
BRANCH  12  13
ATOM     13  C   UNL     1      69.701  68.898  28.319  1.00  0.00     0.140 C 
ATOM     14  O   UNL     1      69.234  69.417  27.313  1.00  0.00    -0.299 OA
BRANCH  13  15
ATOM     15  C   UNL     1      70.681  69.689  29.161  1.00  0.00     0.106 CG0
ATOM     16  G   UNL     1      69.965  70.435  30.273  1.00  0.00     0.000 G0
ENDBRANCH  13  15
ENDBRANCH  12  13
BRANCH  12  17
ATOM     17  C   UNL     1      69.144  66.621  27.328  1.00  0.00    -0.006 C 
ATOM     18  C   UNL     1      70.077  65.394  27.283  1.00  0.00     0.008 C 
ATOM     19  C   UNL     1      67.692  66.124  27.173  1.00  0.00     0.008 C 
ENDBRANCH  12  17
ENDBRANCH  11  12
ENDBRANCH   1  11
TORSDOF 1
ENDMDL
MODEL 3
REMARK VINA RESULT:    -2.966      9.400     10.865
REMARK INTER + INTRA:          -4.868
REMARK INTER:                  -4.652
REMARK INTRA:                  -0.216
REMARK UNBOUND:                -0.341
REMARK SMILES CC1=CCC[C@H](C)C(=O)C[C@@H](C(C)C)C(=O)C1
REMARK SMILES IDX 8 1 9 2 6 3 7 4 5 5 4 6 3 7 2 8 1 9 10 11 11 12 15 13 16 14
REMARK SMILES IDX 17 15 12 17 13 18 14 19
REMARK H PARENT
REMARK Flexibility Score: 70.00
ROOT
ATOM      1  C   UNL     1      67.187  67.543  39.700  1.00  0.00     0.136 C 
ATOM      2  O   UNL     1      67.294  67.739  38.498  1.00  0.00    -0.299 OA
ENDROOT
BRANCH   1   3
ATOM      3  C   UNL     1      66.076  66.659  40.221  1.00  0.00     0.053 C 
ATOM      4  C   UNL     1      64.701  67.281  39.952  1.00  0.00     0.016 C 
BRANCH   3   5
ATOM      5  C   UNL     1      66.203  65.256  39.577  1.00  0.00     0.015 C 
BRANCH   5   6
ATOM      6  C   UNL     1      67.277  64.333  40.187  1.00  0.00     0.028 C 
BRANCH   6   7
ATOM      7  C   UNL     1      68.588  64.216  39.437  1.00  0.00    -0.028 C 
ATOM      8  C   UNL     1      69.745  64.864  39.713  1.00  0.00    -0.070 CG0
ATOM      9  C   UNL     1      70.900  64.669  38.763  1.00  0.00     0.039 C 
ATOM     10  G   UNL     1      69.972  65.712  40.952  1.00  0.00     0.000 G0
ENDBRANCH   6   7
ENDBRANCH   5   6
ENDBRANCH   3   5
ENDBRANCH   1   3
BRANCH   1  11
ATOM     11  C   UNL     1      68.220  68.119  40.639  1.00  0.00     0.087 C 
BRANCH  11  12
ATOM     12  C   UNL     1      69.638  68.182  39.989  1.00  0.00     0.066 C 
BRANCH  12  13
ATOM     13  C   UNL     1      70.518  67.095  40.592  1.00  0.00     0.140 C 
ATOM     14  O   UNL     1      71.714  67.315  40.732  1.00  0.00    -0.299 OA
BRANCH  13  15
ATOM     15  C   UNL     1      69.977  65.727  40.955  1.00  0.00     0.106 CG0
ATOM     16  G   UNL     1      69.744  64.887  39.711  1.00  0.00     0.000 G0
ENDBRANCH  13  15
ENDBRANCH  12  13
BRANCH  12  17
ATOM     17  C   UNL     1      70.297  69.592  40.153  1.00  0.00    -0.006 C 
ATOM     18  C   UNL     1      70.042  70.497  38.929  1.00  0.00     0.008 C 
ATOM     19  C   UNL     1      69.775  70.324  41.406  1.00  0.00     0.008 C 
ENDBRANCH  12  17
ENDBRANCH  11  12
ENDBRANCH   1  11
TORSDOF 1
ENDMDL
MODEL 4
REMARK VINA RESULT:    -2.825      2.073      4.940
REMARK INTER + INTRA:          -4.653
REMARK INTER:                  -4.745
REMARK INTRA:                   0.093
REMARK UNBOUND:                -0.341
REMARK SMILES CC1=CCC[C@H](C)C(=O)C[C@@H](C(C)C)C(=O)C1
REMARK SMILES IDX 8 1 9 2 6 3 7 4 5 5 4 6 3 7 2 8 1 9 10 11 11 12 15 13 16 14
REMARK SMILES IDX 17 15 12 17 13 18 14 19
REMARK H PARENT
REMARK Flexibility Score: 70.00
ROOT
ATOM      1  C   UNL     1      68.996  68.070  29.112  1.00  0.00     0.136 C 
ATOM      2  O   UNL     1      69.959  67.846  28.394  1.00  0.00    -0.299 OA
ENDROOT
BRANCH   1   3
ATOM      3  C   UNL     1      67.807  67.136  29.088  1.00  0.00     0.053 C 
ATOM      4  C   UNL     1      67.219  67.023  27.677  1.00  0.00     0.016 C 
BRANCH   3   5
ATOM      5  C   UNL     1      68.240  65.753  29.636  1.00  0.00     0.015 C 
BRANCH   5   6
ATOM      6  C   UNL     1      69.123  65.780  30.900  1.00  0.00     0.028 C 
BRANCH   6   7
ATOM      7  C   UNL     1      68.414  65.707  32.236  1.00  0.00    -0.028 C 
ATOM      8  C   UNL     1      68.057  66.748  33.027  1.00  0.00    -0.070 CG0
ATOM      9  C   UNL     1      67.449  66.431  34.370  1.00  0.00     0.039 C 
ATOM     10  G   UNL     1      68.165  68.206  32.616  1.00  0.00     0.000 G0
ENDBRANCH   6   7
ENDBRANCH   5   6
ENDBRANCH   3   5
ENDBRANCH   1   3
BRANCH   1  11
ATOM     11  C   UNL     1      69.046  69.231  30.078  1.00  0.00     0.087 C 
BRANCH  11  12
ATOM     12  C   UNL     1      70.198  69.081  31.120  1.00  0.00     0.066 C 
BRANCH  12  13
ATOM     13  C   UNL     1      69.612  68.664  32.462  1.00  0.00     0.140 C 
ATOM     14  O   UNL     1      70.348  68.619  33.439  1.00  0.00    -0.299 OA
BRANCH  13  15
ATOM     15  C   UNL     1      68.168  68.232  32.613  1.00  0.00     0.106 CG0
ATOM     16  G   UNL     1      68.077  66.771  33.022  1.00  0.00     0.000 G0
ENDBRANCH  13  15
ENDBRANCH  12  13
BRANCH  12  17
ATOM     17  C   UNL     1      71.039  70.394  31.259  1.00  0.00    -0.006 C 
ATOM     18  C   UNL     1      71.953  70.629  30.039  1.00  0.00     0.008 C 
ATOM     19  C   UNL     1      70.137  71.634  31.428  1.00  0.00     0.008 C 
ENDBRANCH  12  17
ENDBRANCH  11  12
ENDBRANCH   1  11
TORSDOF 1
ENDMDL
MODEL 5
REMARK VINA RESULT:    -2.788      9.628     11.456
REMARK INTER + INTRA:          -4.596
REMARK INTER:                  -4.526
REMARK INTRA:                  -0.070
REMARK UNBOUND:                -0.341
REMARK SMILES CC1=CCC[C@H](C)C(=O)C[C@@H](C(C)C)C(=O)C1
REMARK SMILES IDX 8 1 9 2 6 3 7 4 5 5 4 6 3 7 2 8 1 9 10 11 11 12 15 13 16 14
REMARK SMILES IDX 17 15 12 17 13 18 14 19
REMARK H PARENT
REMARK Flexibility Score: 70.00
ROOT
ATOM      1  C   UNL     1      67.966  67.024  42.965  1.00  0.00     0.136 C 
ATOM      2  O   UNL     1      67.247  66.339  43.678  1.00  0.00    -0.299 OA
ENDROOT
BRANCH   1   3
ATOM      3  C   UNL     1      67.443  68.326  42.402  1.00  0.00     0.053 C 
ATOM      4  C   UNL     1      68.462  69.457  42.582  1.00  0.00     0.016 C 
BRANCH   3   5
ATOM      5  C   UNL     1      67.077  68.122  40.911  1.00  0.00     0.015 C 
BRANCH   5   6
ATOM      6  C   UNL     1      66.058  67.001  40.618  1.00  0.00     0.028 C 
BRANCH   6   7
ATOM      7  C   UNL     1      66.375  66.069  39.467  1.00  0.00    -0.028 C 
ATOM      8  C   UNL     1      67.211  65.004  39.489  1.00  0.00    -0.070 CG0
ATOM      9  C   UNL     1      67.453  64.277  38.189  1.00  0.00     0.039 C 
ATOM     10  G   UNL     1      67.861  64.455  40.747  1.00  0.00     0.000 G0
ENDBRANCH   6   7
ENDBRANCH   5   6
ENDBRANCH   3   5
ENDBRANCH   1   3
BRANCH   1  11
ATOM     11  C   UNL     1      69.395  66.597  42.726  1.00  0.00     0.087 C 
BRANCH  11  12
ATOM     12  C   UNL     1      69.693  66.353  41.214  1.00  0.00     0.066 C 
BRANCH  12  13
ATOM     13  C   UNL     1      69.327  64.919  40.853  1.00  0.00     0.140 C 
ATOM     14  O   UNL     1      70.223  64.133  40.578  1.00  0.00    -0.299 OA
BRANCH  13  15
ATOM     15  C   UNL     1      67.888  64.454  40.752  1.00  0.00     0.106 CG0
ATOM     16  G   UNL     1      67.230  64.993  39.494  1.00  0.00     0.000 G0
ENDBRANCH  13  15
ENDBRANCH  12  13
BRANCH  12  17
ATOM     17  C   UNL     1      71.185  66.659  40.852  1.00  0.00    -0.006 C 
ATOM     18  C   UNL     1      71.330  67.971  40.054  1.00  0.00     0.008 C 
ATOM     19  C   UNL     1      72.068  66.764  42.112  1.00  0.00     0.008 C 
ENDBRANCH  12  17
ENDBRANCH  11  12
ENDBRANCH   1  11
TORSDOF 1
ENDMDL
MODEL 6
REMARK VINA RESULT:    -2.775      9.161     11.541
REMARK INTER + INTRA:          -4.576
REMARK INTER:                  -4.598
REMARK INTRA:                   0.022
REMARK UNBOUND:                -0.341
REMARK SMILES CC1=CCC[C@H](C)C(=O)C[C@@H](C(C)C)C(=O)C1
REMARK SMILES IDX 8 1 9 2 6 3 7 4 5 5 4 6 3 7 2 8 1 9 10 11 11 12 15 13 16 14
REMARK SMILES IDX 17 15 12 17 13 18 14 19
REMARK H PARENT
REMARK Flexibility Score: 70.00
ROOT
ATOM      1  C   UNL     1      69.043  67.246  38.762  1.00  0.00     0.136 C 
ATOM      2  O   UNL     1      68.254  67.406  37.843  1.00  0.00    -0.299 OA
ENDROOT
BRANCH   1   3
ATOM      3  C   UNL     1      70.491  67.648  38.588  1.00  0.00     0.053 C 
ATOM      4  C   UNL     1      70.609  69.084  38.064  1.00  0.00     0.016 C 
BRANCH   3   5
ATOM      5  C   UNL     1      71.230  67.470  39.937  1.00  0.00     0.015 C 
BRANCH   5   6
ATOM      6  C   UNL     1      71.160  68.670  40.903  1.00  0.00     0.028 C 
BRANCH   6   7
ATOM      7  C   UNL     1      70.852  68.367  42.355  1.00  0.00    -0.028 C 
ATOM      8  C   UNL     1      69.694  68.615  43.011  1.00  0.00    -0.070 CG0
ATOM      9  C   UNL     1      69.650  68.321  44.489  1.00  0.00     0.039 C 
ATOM     10  G   UNL     1      68.421  69.101  42.339  1.00  0.00     0.000 G0
ENDBRANCH   6   7
ENDBRANCH   5   6
ENDBRANCH   3   5
ENDBRANCH   1   3
BRANCH   1  11
ATOM     11  C   UNL     1      68.540  66.728  40.088  1.00  0.00     0.087 C 
BRANCH  11  12
ATOM     12  C   UNL     1      67.266  67.488  40.573  1.00  0.00     0.066 C 
BRANCH  12  13
ATOM     13  C   UNL     1      67.478  67.967  42.003  1.00  0.00     0.140 C 
ATOM     14  O   UNL     1      66.826  67.451  42.901  1.00  0.00    -0.299 OA
BRANCH  13  15
ATOM     15  C   UNL     1      68.413  69.111  42.341  1.00  0.00     0.106 CG0
ATOM     16  G   UNL     1      69.690  68.597  42.983  1.00  0.00     0.000 G0
ENDBRANCH  13  15
ENDBRANCH  12  13
BRANCH  12  17
ATOM     17  C   UNL     1      65.978  66.605  40.463  1.00  0.00    -0.006 C 
ATOM     18  C   UNL     1      64.820  67.352  39.769  1.00  0.00     0.008 C 
ATOM     19  C   UNL     1      66.243  65.302  39.681  1.00  0.00     0.008 C 
ENDBRANCH  12  17
ENDBRANCH  11  12
ENDBRANCH   1  11
TORSDOF 1
ENDMDL
MODEL 7
REMARK VINA RESULT:    -2.750      8.595     11.794
REMARK INTER + INTRA:          -4.539
REMARK INTER:                  -4.545
REMARK INTRA:                   0.007
REMARK UNBOUND:                -0.341
REMARK SMILES CC1=CCC[C@H](C)C(=O)C[C@@H](C(C)C)C(=O)C1
REMARK SMILES IDX 8 1 9 2 6 3 7 4 5 5 4 6 3 7 2 8 1 9 10 11 11 12 15 13 16 14
REMARK SMILES IDX 17 15 12 17 13 18 14 19
REMARK H PARENT
REMARK Flexibility Score: 70.00
ROOT
ATOM      1  C   UNL     1      67.917  68.322  40.554  1.00  0.00     0.136 C 
ATOM      2  O   UNL     1      68.545  69.251  41.040  1.00  0.00    -0.299 OA
ENDROOT
BRANCH   1   3
ATOM      3  C   UNL     1      66.600  67.903  41.168  1.00  0.00     0.053 C 
ATOM      4  C   UNL     1      65.998  66.704  40.427  1.00  0.00     0.016 C 
BRANCH   3   5
ATOM      5  C   UNL     1      66.818  67.593  42.670  1.00  0.00     0.015 C 
BRANCH   5   6
ATOM      6  C   UNL     1      67.843  66.485  42.984  1.00  0.00     0.028 C 
BRANCH   6   7
ATOM      7  C   UNL     1      69.222  66.929  43.426  1.00  0.00    -0.028 C 
ATOM      8  C   UNL     1      70.410  66.520  42.922  1.00  0.00    -0.070 CG0
ATOM      9  C   UNL     1      71.665  67.022  43.592  1.00  0.00     0.039 C 
ATOM     10  G   UNL     1      70.558  65.649  41.686  1.00  0.00     0.000 G0
ENDBRANCH   6   7
ENDBRANCH   5   6
ENDBRANCH   3   5
ENDBRANCH   1   3
BRANCH   1  11
ATOM     11  C   UNL     1      68.426  67.661  39.295  1.00  0.00     0.087 C 
BRANCH  11  12
ATOM     12  C   UNL     1      69.062  66.265  39.579  1.00  0.00     0.066 C 
BRANCH  12  13
ATOM     13  C   UNL     1      70.320  66.446  40.418  1.00  0.00     0.140 C 
ATOM     14  O   UNL     1      71.184  67.221  40.028  1.00  0.00    -0.299 OA
BRANCH  13  15
ATOM     15  C   UNL     1      70.572  65.644  41.679  1.00  0.00     0.106 CG0
ATOM     16  G   UNL     1      70.418  66.513  42.915  1.00  0.00     0.000 G0
ENDBRANCH  13  15
ENDBRANCH  12  13
BRANCH  12  17
ATOM     17  C   UNL     1      69.377  65.483  38.259  1.00  0.00    -0.006 C 
ATOM     18  C   UNL     1      68.657  64.120  38.208  1.00  0.00     0.008 C 
ATOM     19  C   UNL     1      68.968  66.288  37.008  1.00  0.00     0.008 C 
ENDBRANCH  12  17
ENDBRANCH  11  12
ENDBRANCH   1  11
TORSDOF 1
ENDMDL
MODEL 8
REMARK VINA RESULT:    -2.660      9.075     11.189
REMARK INTER + INTRA:          -4.401
REMARK INTER:                  -4.368
REMARK INTRA:                  -0.033
REMARK UNBOUND:                -0.341
REMARK SMILES CC1=CCC[C@H](C)C(=O)C[C@@H](C(C)C)C(=O)C1
REMARK SMILES IDX 8 1 9 2 6 3 7 4 5 5 4 6 3 7 2 8 1 9 10 11 11 12 15 13 16 14
REMARK SMILES IDX 17 15 12 17 13 18 14 19
REMARK H PARENT
REMARK Flexibility Score: 70.00
ROOT
ATOM      1  C   UNL     1      67.124  67.187  41.313  1.00  0.00     0.136 C 
ATOM      2  O   UNL     1      67.054  68.383  41.558  1.00  0.00    -0.299 OA
ENDROOT
BRANCH   1   3
ATOM      3  C   UNL     1      66.276  66.597  40.208  1.00  0.00     0.053 C 
ATOM      4  C   UNL     1      64.877  67.222  40.188  1.00  0.00     0.016 C 
BRANCH   3   5
ATOM      5  C   UNL     1      67.005  66.788  38.855  1.00  0.00     0.015 C 
BRANCH   5   6
ATOM      6  C   UNL     1      67.669  65.526  38.267  1.00  0.00     0.028 C 
BRANCH   6   7
ATOM      7  C   UNL     1      69.153  65.604  37.975  1.00  0.00    -0.028 C 
ATOM      8  C   UNL     1      70.166  65.448  38.861  1.00  0.00    -0.070 CG0
ATOM      9  C   UNL     1      71.572  65.671  38.362  1.00  0.00     0.039 C 
ATOM     10  G   UNL     1      69.980  64.995  40.298  1.00  0.00     0.000 G0
ENDBRANCH   6   7
ENDBRANCH   5   6
ENDBRANCH   3   5
ENDBRANCH   1   3
BRANCH   1  11
ATOM     11  C   UNL     1      68.120  66.335  42.062  1.00  0.00     0.087 C 
BRANCH  11  12
ATOM     12  C   UNL     1      69.556  66.947  42.038  1.00  0.00     0.066 C 
BRANCH  12  13
ATOM     13  C   UNL     1      70.492  66.007  41.289  1.00  0.00     0.140 C 
ATOM     14  O   UNL     1      71.699  66.130  41.444  1.00  0.00    -0.299 OA
BRANCH  13  15
ATOM     15  C   UNL     1      69.982  64.975  40.304  1.00  0.00     0.106 CG0
ATOM     16  G   UNL     1      70.168  65.450  38.873  1.00  0.00     0.000 G0
ENDBRANCH  13  15
ENDBRANCH  12  13
BRANCH  12  17
ATOM     17  C   UNL     1      70.093  67.242  43.478  1.00  0.00    -0.006 C 
ATOM     18  C   UNL     1      70.257  68.754  43.736  1.00  0.00     0.008 C 
ATOM     19  C   UNL     1      69.159  66.670  44.564  1.00  0.00     0.008 C 
ENDBRANCH  12  17
ENDBRANCH  11  12
ENDBRANCH   1  11
TORSDOF 1
ENDMDL
MODEL 9
REMARK VINA RESULT:    -2.555      8.935     11.317
REMARK INTER + INTRA:          -4.240
REMARK INTER:                  -4.525
REMARK INTRA:                   0.284
REMARK UNBOUND:                -0.341
REMARK SMILES CC1=CCC[C@H](C)C(=O)C[C@@H](C(C)C)C(=O)C1
REMARK SMILES IDX 8 1 9 2 6 3 7 4 5 5 4 6 3 7 2 8 1 9 10 11 11 12 15 13 16 14
REMARK SMILES IDX 17 15 12 17 13 18 14 19
REMARK H PARENT
REMARK Flexibility Score: 70.00
ROOT
ATOM      1  C   UNL     1      66.858  66.520  39.529  1.00  0.00     0.136 C 
ATOM      2  O   UNL     1      66.678  65.337  39.776  1.00  0.00    -0.299 OA
ENDROOT
BRANCH   1   3
ATOM      3  C   UNL     1      66.061  67.572  40.267  1.00  0.00     0.053 C 
ATOM      4  C   UNL     1      64.561  67.427  39.990  1.00  0.00     0.016 C 
BRANCH   3   5
ATOM      5  C   UNL     1      66.373  67.472  41.781  1.00  0.00     0.015 C 
BRANCH   5   6
ATOM      6  C   UNL     1      67.461  68.430  42.307  1.00  0.00     0.028 C 
BRANCH   6   7
ATOM      7  C   UNL     1      68.778  67.811  42.725  1.00  0.00    -0.028 C 
ATOM      8  C   UNL     1      69.977  67.958  42.113  1.00  0.00    -0.070 CG0
ATOM      9  C   UNL     1      71.139  67.160  42.650  1.00  0.00     0.039 C 
ATOM     10  G   UNL     1      70.240  68.926  40.972  1.00  0.00     0.000 G0
ENDBRANCH   6   7
ENDBRANCH   5   6
ENDBRANCH   3   5
ENDBRANCH   1   3
BRANCH   1  11
ATOM     11  C   UNL     1      67.938  66.915  38.549  1.00  0.00     0.087 C 
BRANCH  11  12
ATOM     12  C   UNL     1      69.322  67.110  39.244  1.00  0.00     0.066 C 
BRANCH  12  13
ATOM     13  C   UNL     1      69.443  68.548  39.731  1.00  0.00     0.140 C 
ATOM     14  O   UNL     1      68.924  69.440  39.072  1.00  0.00    -0.299 OA
BRANCH  13  15
ATOM     15  C   UNL     1      70.246  68.919  40.961  1.00  0.00     0.106 CG0
ATOM     16  G   UNL     1      69.965  67.960  42.104  1.00  0.00     0.000 G0
ENDBRANCH  13  15
ENDBRANCH  12  13
BRANCH  12  17
ATOM     17  C   UNL     1      70.512  66.737  38.298  1.00  0.00    -0.006 C 
ATOM     18  C   UNL     1      71.833  66.557  39.074  1.00  0.00     0.008 C 
ATOM     19  C   UNL     1      70.235  65.436  37.518  1.00  0.00     0.008 C 
ENDBRANCH  12  17
ENDBRANCH  11  12
ENDBRANCH   1  11
TORSDOF 1
ENDMDL
