MODEL 1
REMARK VINA RESULT:    15.905      0.000      0.000
REMARK INTER + INTRA:          26.045
REMARK INTER:                  24.274
REMARK INTRA:                   1.771
REMARK UNBOUND:                 1.771
REMARK SMILES CC1=CCC[C@@H](C)C(=O)C[C@@H](C(C)C)C(=O)C1
REMARK SMILES IDX 8 1 9 2 6 3 7 4 5 5 4 6 3 7 2 8 1 9 10 11 11 12 15 13 16 14
REMARK SMILES IDX 17 15 12 17 13 18 14 19
REMARK H PARENT
REMARK Flexibility Score: 70.00
ROOT
ATOM      1  C   UNL     1      17.901  18.696 -12.014  1.00  0.00     0.136 C 
ATOM      2  O   UNL     1      17.411  18.314 -10.960  1.00  0.00    -0.299 OA
ENDROOT
BRANCH   1   3
ATOM      3  C   UNL     1      18.218  20.177 -12.151  1.00  0.00     0.053 C 
ATOM      4  C   UNL     1      17.463  20.872 -13.298  1.00  0.00     0.016 C 
BRANCH   3   5
ATOM      5  C   UNL     1      19.739  20.445 -12.165  1.00  0.00     0.015 C 
BRANCH   5   6
ATOM      6  C   UNL     1      20.520  19.596 -13.187  1.00  0.00     0.028 C 
BRANCH   6   7
ATOM      7  C   UNL     1      21.756  18.959 -12.600  1.00  0.00    -0.028 C 
ATOM      8  C   UNL     1      21.769  17.869 -11.792  1.00  0.00    -0.070 CG0
ATOM      9  C   UNL     1      23.113  17.326 -11.371  1.00  0.00     0.039 C 
ATOM     10  G   UNL     1      20.509  17.194 -11.263  1.00  0.00     0.000 G0
ENDBRANCH   6   7
ENDBRANCH   5   6
ENDBRANCH   3   5
ENDBRANCH   1   3
BRANCH   1  11
ATOM     11  C   UNL     1      18.127  17.671 -13.110  1.00  0.00     0.087 C 
BRANCH  11  12
ATOM     12  C   UNL     1      18.410  16.254 -12.537  1.00  0.00     0.066 C 
BRANCH  12  13
ATOM     13  C   UNL     1      19.883  16.148 -12.173  1.00  0.00     0.140 C 
ATOM     14  O   UNL     1      20.558  15.229 -12.621  1.00  0.00    -0.299 OA
BRANCH  13  15
ATOM     15  C   UNL     1      20.510  17.153 -11.241  1.00  0.00     0.106 CG0
ATOM     16  G   UNL     1      21.762  17.814 -11.806  1.00  0.00     0.000 G0
ENDBRANCH  13  15
ENDBRANCH  12  13
BRANCH  12  17
ATOM     17  C   UNL     1      17.981  15.099 -13.503  1.00  0.00    -0.006 C 
ATOM     18  C   UNL     1      16.451  14.951 -13.604  1.00  0.00     0.008 C 
ATOM     19  C   UNL     1      18.573  13.750 -13.050  1.00  0.00     0.008 C 
ENDBRANCH  12  17
ENDBRANCH  11  12
ENDBRANCH   1  11
TORSDOF 1
ENDMDL
MODEL 2
REMARK VINA RESULT:    16.423      1.384      4.068
REMARK INTER + INTRA:          26.834
REMARK INTER:                  23.646
REMARK INTRA:                   3.188
REMARK UNBOUND:                 1.771
REMARK SMILES CC1=CCC[C@@H](C)C(=O)C[C@@H](C(C)C)C(=O)C1
REMARK SMILES IDX 8 1 9 2 6 3 7 4 5 5 4 6 3 7 2 8 1 9 10 11 11 12 15 13 16 14
REMARK SMILES IDX 17 15 12 17 13 18 14 19
REMARK H PARENT
REMARK Flexibility Score: 70.00
ROOT
ATOM      1  C   UNL     1      17.244  16.537 -12.904  1.00  0.00     0.136 C 
ATOM      2  O   UNL     1      16.703  16.608 -11.809  1.00  0.00    -0.299 OA
ENDROOT
BRANCH   1   3
ATOM      3  C   UNL     1      17.259  15.185 -13.600  1.00  0.00     0.053 C 
ATOM      4  C   UNL     1      16.277  14.164 -13.000  1.00  0.00     0.016 C 
BRANCH   3   5
ATOM      5  C   UNL     1      18.692  14.636 -13.767  1.00  0.00     0.015 C 
BRANCH   5   6
ATOM      6  C   UNL     1      19.488  14.535 -12.451  1.00  0.00     0.028 C 
BRANCH   6   7
ATOM      7  C   UNL     1      20.655  15.492 -12.395  1.00  0.00    -0.028 C 
ATOM      8  C   UNL     1      20.784  16.522 -11.523  1.00  0.00    -0.070 CG0
ATOM      9  C   UNL     1      22.065  17.319 -11.566  1.00  0.00     0.039 C 
ATOM     10  G   UNL     1      19.697  16.936 -10.537  1.00  0.00     0.000 G0
ENDBRANCH   6   7
ENDBRANCH   5   6
ENDBRANCH   3   5
ENDBRANCH   1   3
BRANCH   1  11
ATOM     11  C   UNL     1      17.882  17.793 -13.468  1.00  0.00     0.087 C 
BRANCH  11  12
ATOM     12  C   UNL     1      18.810  18.493 -12.435  1.00  0.00     0.066 C 
BRANCH  12  13
ATOM     13  C   UNL     1      18.625  17.841 -11.074  1.00  0.00     0.140 C 
ATOM     14  O   UNL     1      17.608  18.057 -10.426  1.00  0.00    -0.299 OA
BRANCH  13  15
ATOM     15  C   UNL     1      19.700  16.950 -10.507  1.00  0.00     0.106 CG0
ATOM     16  G   UNL     1      20.752  16.533 -11.528  1.00  0.00     0.000 G0
ENDBRANCH  13  15
ENDBRANCH  12  13
BRANCH  12  17
ATOM     17  C   UNL     1      18.590  20.041 -12.356  1.00  0.00    -0.006 C 
ATOM     18  C   UNL     1      17.537  20.542 -13.363  1.00  0.00     0.008 C 
ATOM     19  C   UNL     1      19.907  20.802 -12.609  1.00  0.00     0.008 C 
ENDBRANCH  12  17
ENDBRANCH  11  12
ENDBRANCH   1  11
TORSDOF 1
ENDMDL
MODEL 3
REMARK VINA RESULT:    16.717      1.753      4.975
REMARK INTER + INTRA:          27.284
REMARK INTER:                  26.022
REMARK INTRA:                   1.262
REMARK UNBOUND:                 1.771
REMARK SMILES CC1=CCC[C@@H](C)C(=O)C[C@@H](C(C)C)C(=O)C1
REMARK SMILES IDX 8 1 9 2 6 3 7 4 5 5 4 6 3 7 2 8 1 9 10 11 11 12 15 13 16 14
REMARK SMILES IDX 17 15 12 17 13 18 14 19
REMARK H PARENT
REMARK Flexibility Score: 70.00
ROOT
ATOM      1  C   UNL     1      20.989  17.524 -11.849  1.00  0.00     0.136 C 
ATOM      2  O   UNL     1      22.211  17.592 -11.835  1.00  0.00    -0.299 OA
ENDROOT
BRANCH   1   3
ATOM      3  C   UNL     1      20.339  16.325 -11.178  1.00  0.00     0.053 C 
ATOM      4  C   UNL     1      20.602  16.239  -9.664  1.00  0.00     0.016 C 
BRANCH   3   5
ATOM      5  C   UNL     1      20.636  15.008 -11.929  1.00  0.00     0.015 C 
BRANCH   5   6
ATOM      6  C   UNL     1      19.931  14.886 -13.294  1.00  0.00     0.028 C 
BRANCH   6   7
ATOM      7  C   UNL     1      18.447  14.637 -13.169  1.00  0.00    -0.028 C 
ATOM      8  C   UNL     1      17.483  15.589 -13.238  1.00  0.00    -0.070 CG0
ATOM      9  C   UNL     1      16.045  15.134 -13.174  1.00  0.00     0.039 C 
ATOM     10  G   UNL     1      17.775  17.082 -13.338  1.00  0.00     0.000 G0
ENDBRANCH   6   7
ENDBRANCH   5   6
ENDBRANCH   3   5
ENDBRANCH   1   3
BRANCH   1  11
ATOM     11  C   UNL     1      20.220  18.624 -12.559  1.00  0.00     0.087 C 
BRANCH  11  12
ATOM     12  C   UNL     1      18.886  18.965 -11.837  1.00  0.00     0.066 C 
BRANCH  12  13
ATOM     13  C   UNL     1      17.919  17.803 -11.998  1.00  0.00     0.140 C 
ATOM     14  O   UNL     1      17.258  17.421 -11.040  1.00  0.00    -0.299 OA
BRANCH  13  15
ATOM     15  C   UNL     1      17.789  17.101 -13.326  1.00  0.00     0.106 CG0
ATOM     16  G   UNL     1      17.492  15.611 -13.204  1.00  0.00     0.000 G0
ENDBRANCH  13  15
ENDBRANCH  12  13
BRANCH  12  17
ATOM     17  C   UNL     1      18.245  20.308 -12.325  1.00  0.00    -0.006 C 
ATOM     18  C   UNL     1      17.517  20.160 -13.674  1.00  0.00     0.008 C 
ATOM     19  C   UNL     1      19.311  21.412 -12.464  1.00  0.00     0.008 C 
ENDBRANCH  12  17
ENDBRANCH  11  12
ENDBRANCH   1  11
TORSDOF 1
ENDMDL
MODEL 4
REMARK VINA RESULT:    16.741      1.900      3.708
REMARK INTER + INTRA:          27.320
REMARK INTER:                  26.328
REMARK INTRA:                   0.992
REMARK UNBOUND:                 1.771
REMARK SMILES CC1=CCC[C@@H](C)C(=O)C[C@@H](C(C)C)C(=O)C1
REMARK SMILES IDX 8 1 9 2 6 3 7 4 5 5 4 6 3 7 2 8 1 9 10 11 11 12 15 13 16 14
REMARK SMILES IDX 17 15 12 17 13 18 14 19
REMARK H PARENT
REMARK Flexibility Score: 70.00
ROOT
ATOM      1  C   UNL     1      21.274  18.324 -12.155  1.00  0.00     0.136 C 
ATOM      2  O   UNL     1      22.427  18.107 -11.810  1.00  0.00    -0.299 OA
ENDROOT
BRANCH   1   3
ATOM      3  C   UNL     1      20.989  19.618 -12.901  1.00  0.00     0.053 C 
ATOM      4  C   UNL     1      21.823  19.794 -14.183  1.00  0.00     0.016 C 
BRANCH   3   5
ATOM      5  C   UNL     1      21.031  20.847 -11.967  1.00  0.00     0.015 C 
BRANCH   5   6
ATOM      6  C   UNL     1      19.736  21.682 -11.963  1.00  0.00     0.028 C 
BRANCH   6   7
ATOM      7  C   UNL     1      18.723  21.201 -12.973  1.00  0.00    -0.028 C 
ATOM      8  C   UNL     1      17.716  20.327 -12.721  1.00  0.00    -0.070 CG0
ATOM      9  C   UNL     1      16.750  20.030 -13.841  1.00  0.00     0.039 C 
ATOM     10  G   UNL     1      17.535  19.609 -11.388  1.00  0.00     0.000 G0
ENDBRANCH   6   7
ENDBRANCH   5   6
ENDBRANCH   3   5
ENDBRANCH   1   3
BRANCH   1  11
ATOM     11  C   UNL     1      20.213  17.301 -11.788  1.00  0.00     0.087 C 
BRANCH  11  12
ATOM     12  C   UNL     1      18.849  17.602 -12.470  1.00  0.00     0.066 C 
BRANCH  12  13
ATOM     13  C   UNL     1      17.877  18.136 -11.429  1.00  0.00     0.140 C 
ATOM     14  O   UNL     1      17.349  17.367 -10.635  1.00  0.00    -0.299 OA
BRANCH  13  15
ATOM     15  C   UNL     1      17.538  19.604 -11.389  1.00  0.00     0.106 CG0
ATOM     16  G   UNL     1      17.726  20.313 -12.726  1.00  0.00     0.000 G0
ENDBRANCH  13  15
ENDBRANCH  12  13
BRANCH  12  17
ATOM     17  C   UNL     1      18.249  16.368 -13.225  1.00  0.00    -0.006 C 
ATOM     18  C   UNL     1      16.762  16.140 -12.897  1.00  0.00     0.008 C 
ATOM     19  C   UNL     1      19.027  15.081 -12.886  1.00  0.00     0.008 C 
ENDBRANCH  12  17
ENDBRANCH  11  12
ENDBRANCH   1  11
TORSDOF 1
ENDMDL
MODEL 5
REMARK VINA RESULT:    17.986      1.574      3.551
REMARK INTER + INTRA:          29.220
REMARK INTER:                  28.174
REMARK INTRA:                   1.046
REMARK UNBOUND:                 1.771
REMARK SMILES CC1=CCC[C@@H](C)C(=O)C[C@@H](C(C)C)C(=O)C1
REMARK SMILES IDX 8 1 9 2 6 3 7 4 5 5 4 6 3 7 2 8 1 9 10 11 11 12 15 13 16 14
REMARK SMILES IDX 17 15 12 17 13 18 14 19
REMARK H PARENT
REMARK Flexibility Score: 70.00
ROOT
ATOM      1  C   UNL     1      20.730  16.644 -11.334  1.00  0.00     0.136 C 
ATOM      2  O   UNL     1      20.658  16.698 -10.114  1.00  0.00    -0.299 OA
ENDROOT
BRANCH   1   3
ATOM      3  C   UNL     1      21.570  17.696 -12.041  1.00  0.00     0.053 C 
ATOM      4  C   UNL     1      23.075  17.380 -12.065  1.00  0.00     0.016 C 
BRANCH   3   5
ATOM      5  C   UNL     1      21.249  19.123 -11.543  1.00  0.00     0.015 C 
BRANCH   5   6
ATOM      6  C   UNL     1      20.793  20.091 -12.652  1.00  0.00     0.028 C 
BRANCH   6   7
ATOM      7  C   UNL     1      19.378  20.581 -12.460  1.00  0.00    -0.028 C 
ATOM      8  C   UNL     1      18.257  19.902 -12.814  1.00  0.00    -0.070 CG0
ATOM      9  C   UNL     1      16.926  20.519 -12.464  1.00  0.00     0.039 C 
ATOM     10  G   UNL     1      18.275  18.580 -13.573  1.00  0.00     0.000 G0
ENDBRANCH   6   7
ENDBRANCH   5   6
ENDBRANCH   3   5
ENDBRANCH   1   3
BRANCH   1  11
ATOM     11  C   UNL     1      19.955  15.551 -12.048  1.00  0.00     0.087 C 
BRANCH  11  12
ATOM     12  C   UNL     1      19.053  16.118 -13.180  1.00  0.00     0.066 C 
BRANCH  12  13
ATOM     13  C   UNL     1      18.350  17.370 -12.680  1.00  0.00     0.140 C 
ATOM     14  O   UNL     1      17.846  17.383 -11.563  1.00  0.00    -0.299 OA
BRANCH  13  15
ATOM     15  C   UNL     1      18.246  18.587 -13.563  1.00  0.00     0.106 CG0
ATOM     16  G   UNL     1      18.277  19.904 -12.796  1.00  0.00     0.000 G0
ENDBRANCH  13  15
ENDBRANCH  12  13
BRANCH  12  17
ATOM     17  C   UNL     1      18.025  15.074 -13.733  1.00  0.00    -0.006 C 
ATOM     18  C   UNL     1      16.607  15.285 -13.171  1.00  0.00     0.008 C 
ATOM     19  C   UNL     1      18.470  13.634 -13.409  1.00  0.00     0.008 C 
ENDBRANCH  12  17
ENDBRANCH  11  12
ENDBRANCH   1  11
TORSDOF 1
ENDMDL
MODEL 6
REMARK VINA RESULT:    18.122      1.433      1.955
REMARK INTER + INTRA:          29.428
REMARK INTER:                  26.154
REMARK INTRA:                   3.274
REMARK UNBOUND:                 1.771
REMARK SMILES CC1=CCC[C@@H](C)C(=O)C[C@@H](C(C)C)C(=O)C1
REMARK SMILES IDX 8 1 9 2 6 3 7 4 5 5 4 6 3 7 2 8 1 9 10 11 11 12 15 13 16 14
REMARK SMILES IDX 17 15 12 17 13 18 14 19
REMARK H PARENT
REMARK Flexibility Score: 70.00
ROOT
ATOM      1  C   UNL     1      18.158  19.748 -13.255  1.00  0.00     0.136 C 
ATOM      2  O   UNL     1      17.185  20.390 -13.627  1.00  0.00    -0.299 OA
ENDROOT
BRANCH   1   3
ATOM      3  C   UNL     1      19.198  20.465 -12.408  1.00  0.00     0.053 C 
ATOM      4  C   UNL     1      18.846  21.930 -12.098  1.00  0.00     0.016 C 
BRANCH   3   5
ATOM      5  C   UNL     1      20.626  20.280 -12.966  1.00  0.00     0.015 C 
BRANCH   5   6
ATOM      6  C   UNL     1      21.615  19.642 -11.970  1.00  0.00     0.028 C 
BRANCH   6   7
ATOM      7  C   UNL     1      21.549  18.134 -11.960  1.00  0.00    -0.028 C 
ATOM      8  C   UNL     1      20.461  17.398 -11.620  1.00  0.00    -0.070 CG0
ATOM      9  C   UNL     1      20.562  15.898 -11.752  1.00  0.00     0.039 C 
ATOM     10  G   UNL     1      19.169  18.001 -11.082  1.00  0.00     0.000 G0
ENDBRANCH   6   7
ENDBRANCH   5   6
ENDBRANCH   3   5
ENDBRANCH   1   3
BRANCH   1  11
ATOM     11  C   UNL     1      18.267  18.298 -13.691  1.00  0.00     0.087 C 
BRANCH  11  12
ATOM     12  C   UNL     1      17.352  17.363 -12.850  1.00  0.00     0.066 C 
BRANCH  12  13
ATOM     13  C   UNL     1      17.892  17.281 -11.430  1.00  0.00     0.140 C 
ATOM     14  O   UNL     1      17.282  16.643 -10.581  1.00  0.00    -0.299 OA
BRANCH  13  15
ATOM     15  C   UNL     1      19.160  18.005 -11.056  1.00  0.00     0.106 CG0
ATOM     16  G   UNL     1      20.422  17.358 -11.617  1.00  0.00     0.000 G0
ENDBRANCH  13  15
ENDBRANCH  12  13
BRANCH  12  17
ATOM     17  C   UNL     1      17.182  15.938 -13.474  1.00  0.00    -0.006 C 
ATOM     18  C   UNL     1      15.962  15.186 -12.908  1.00  0.00     0.008 C 
ATOM     19  C   UNL     1      18.438  15.077 -13.239  1.00  0.00     0.008 C 
ENDBRANCH  12  17
ENDBRANCH  11  12
ENDBRANCH   1  11
TORSDOF 1
ENDMDL
MODEL 7
REMARK VINA RESULT:    18.293      2.287      5.421
REMARK INTER + INTRA:          29.688
REMARK INTER:                  28.137
REMARK INTRA:                   1.551
REMARK UNBOUND:                 1.771
REMARK SMILES CC1=CCC[C@@H](C)C(=O)C[C@@H](C(C)C)C(=O)C1
REMARK SMILES IDX 8 1 9 2 6 3 7 4 5 5 4 6 3 7 2 8 1 9 10 11 11 12 15 13 16 14
REMARK SMILES IDX 17 15 12 17 13 18 14 19
REMARK H PARENT
REMARK Flexibility Score: 70.00
ROOT
ATOM      1  C   UNL     1      18.728  16.295 -12.612  1.00  0.00     0.136 C 
ATOM      2  O   UNL     1      19.884  16.274 -12.214  1.00  0.00    -0.299 OA
ENDROOT
BRANCH   1   3
ATOM      3  C   UNL     1      18.029  14.962 -12.829  1.00  0.00     0.053 C 
ATOM      4  C   UNL     1      18.804  13.993 -13.740  1.00  0.00     0.016 C 
BRANCH   3   5
ATOM      5  C   UNL     1      16.551  15.142 -13.240  1.00  0.00     0.015 C 
BRANCH   5   6
ATOM      6  C   UNL     1      15.854  16.346 -12.576  1.00  0.00     0.028 C 
BRANCH   6   7
ATOM      7  C   UNL     1      15.336  16.035 -11.193  1.00  0.00    -0.028 C 
ATOM      8  C   UNL     1      15.922  16.418 -10.031  1.00  0.00    -0.070 CG0
ATOM      9  C   UNL     1      15.208  16.085  -8.744  1.00  0.00     0.039 C 
ATOM     10  G   UNL     1      17.269  17.128  -9.958  1.00  0.00     0.000 G0
ENDBRANCH   6   7
ENDBRANCH   5   6
ENDBRANCH   3   5
ENDBRANCH   1   3
BRANCH   1  11
ATOM     11  C   UNL     1      18.090  17.645 -12.885  1.00  0.00     0.087 C 
BRANCH  11  12
ATOM     12  C   UNL     1      18.384  18.671 -11.754  1.00  0.00     0.066 C 
BRANCH  12  13
ATOM     13  C   UNL     1      17.402  18.452 -10.613  1.00  0.00     0.140 C 
ATOM     14  O   UNL     1      16.698  19.377 -10.228  1.00  0.00    -0.299 OA
BRANCH  13  15
ATOM     15  C   UNL     1      17.313  17.109  -9.935  1.00  0.00     0.106 CG0
ATOM     16  G   UNL     1      15.943  16.452 -10.056  1.00  0.00     0.000 G0
ENDBRANCH  13  15
ENDBRANCH  12  13
BRANCH  12  17
ATOM     17  C   UNL     1      18.359  20.157 -12.245  1.00  0.00    -0.006 C 
ATOM     18  C   UNL     1      17.534  20.341 -13.534  1.00  0.00     0.008 C 
ATOM     19  C   UNL     1      19.787  20.680 -12.501  1.00  0.00     0.008 C 
ENDBRANCH  12  17
ENDBRANCH  11  12
ENDBRANCH   1  11
TORSDOF 1
ENDMDL
MODEL 8
REMARK VINA RESULT:    18.705      1.816      2.900
REMARK INTER + INTRA:          30.317
REMARK INTER:                  27.864
REMARK INTRA:                   2.454
REMARK UNBOUND:                 1.771
REMARK SMILES CC1=CCC[C@@H](C)C(=O)C[C@@H](C(C)C)C(=O)C1
REMARK SMILES IDX 8 1 9 2 6 3 7 4 5 5 4 6 3 7 2 8 1 9 10 11 11 12 15 13 16 14
REMARK SMILES IDX 17 15 12 17 13 18 14 19
REMARK H PARENT
REMARK Flexibility Score: 70.00
ROOT
ATOM      1  C   UNL     1      18.061  19.375 -13.821  1.00  0.00     0.136 C 
ATOM      2  O   UNL     1      16.937  19.815 -14.017  1.00  0.00    -0.299 OA
ENDROOT
BRANCH   1   3
ATOM      3  C   UNL     1      19.103  20.325 -13.250  1.00  0.00     0.053 C 
ATOM      4  C   UNL     1      20.399  19.629 -12.799  1.00  0.00     0.016 C 
BRANCH   3   5
ATOM      5  C   UNL     1      18.506  21.266 -12.181  1.00  0.00     0.015 C 
BRANCH   5   6
ATOM      6  C   UNL     1      18.532  20.694 -10.750  1.00  0.00     0.028 C 
BRANCH   6   7
ATOM      7  C   UNL     1      17.464  19.655 -10.512  1.00  0.00    -0.028 C 
ATOM      8  C   UNL     1      17.663  18.313 -10.500  1.00  0.00    -0.070 CG0
ATOM      9  C   UNL     1      16.484  17.434 -10.160  1.00  0.00     0.039 C 
ATOM     10  G   UNL     1      18.993  17.653 -10.845  1.00  0.00     0.000 G0
ENDBRANCH   6   7
ENDBRANCH   5   6
ENDBRANCH   3   5
ENDBRANCH   1   3
BRANCH   1  11
ATOM     11  C   UNL     1      18.337  17.928 -14.188  1.00  0.00     0.087 C 
BRANCH  11  12
ATOM     12  C   UNL     1      17.849  16.942 -13.089  1.00  0.00     0.066 C 
BRANCH  12  13
ATOM     13  C   UNL     1      18.949  16.764 -12.053  1.00  0.00     0.140 C 
ATOM     14  O   UNL     1      19.792  15.889 -12.203  1.00  0.00    -0.299 OA
BRANCH  13  15
ATOM     15  C   UNL     1      18.989  17.643 -10.829  1.00  0.00     0.106 CG0
ATOM     16  G   UNL     1      17.652  18.298 -10.502  1.00  0.00     0.000 G0
ENDBRANCH  13  15
ENDBRANCH  12  13
BRANCH  12  17
ATOM     17  C   UNL     1      17.380  15.562 -13.660  1.00  0.00    -0.006 C 
ATOM     18  C   UNL     1      16.147  15.005 -12.923  1.00  0.00     0.008 C 
ATOM     19  C   UNL     1      18.510  14.517 -13.580  1.00  0.00     0.008 C 
ENDBRANCH  12  17
ENDBRANCH  11  12
ENDBRANCH   1  11
TORSDOF 1
ENDMDL
