MODEL 1
REMARK VINA RESULT:    -0.817      0.000      0.000
REMARK INTER + INTRA:          -0.989
REMARK INTER:                  -0.960
REMARK INTRA:                  -0.029
REMARK UNBOUND:                -0.029
REMARK SMILES O=C([O-])CCC(=O)[O-]
REMARK SMILES IDX 4 1 2 2 1 3 3 4 5 5 6 6 7 7 8 8
REMARK H PARENT
REMARK Flexibility Score: inf
ROOT
ATOM      1  C   UNL     1     -19.074  17.471  12.335  1.00  0.00     0.059 C 
ENDROOT
BRANCH   1   2
ATOM      2  C   UNL     1     -19.122  17.301  13.822  1.00  0.00     0.042 C 
ATOM      3  O   UNL     1     -19.125  18.310  14.575  1.00  0.00    -0.550 OA
ATOM      4  O   UNL     1     -19.123  16.027  14.378  1.00  0.00    -0.550 OA
ENDBRANCH   1   2
BRANCH   1   5
ATOM      5  C   UNL     1     -17.665  17.223  11.784  1.00  0.00     0.059 C 
BRANCH   5   6
ATOM      6  C   UNL     1     -17.703  16.762  10.358  1.00  0.00     0.042 C 
ATOM      7  O   UNL     1     -18.202  17.497   9.468  1.00  0.00    -0.550 OA
ATOM      8  O   UNL     1     -17.222  15.502  10.023  1.00  0.00    -0.550 OA
ENDBRANCH   5   6
ENDBRANCH   1   5
TORSDOF 3
ENDMDL
MODEL 2
REMARK VINA RESULT:    -0.047      6.649      8.411
REMARK INTER + INTRA:          -0.083
REMARK INTER:                  -0.046
REMARK INTRA:                  -0.038
REMARK UNBOUND:                -0.029
REMARK SMILES O=C([O-])CCC(=O)[O-]
REMARK SMILES IDX 4 1 2 2 1 3 3 4 5 5 6 6 7 7 8 8
REMARK H PARENT
REMARK Flexibility Score: inf
ROOT
ATOM      1  C   UNL     1     -19.035  19.164  20.001  1.00  0.00     0.059 C 
ENDROOT
BRANCH   1   2
ATOM      2  C   UNL     1     -18.685  19.885  21.267  1.00  0.00     0.042 C 
ATOM      3  O   UNL     1     -18.030  19.300  22.168  1.00  0.00    -0.550 OA
ATOM      4  O   UNL     1     -19.119  21.189  21.467  1.00  0.00    -0.550 OA
ENDBRANCH   1   2
BRANCH   1   5
ATOM      5  C   UNL     1     -18.961  17.643  20.179  1.00  0.00     0.059 C 
BRANCH   5   6
ATOM      6  C   UNL     1     -19.075  16.928  18.867  1.00  0.00     0.042 C 
ATOM      7  O   UNL     1     -19.125  15.670  18.833  1.00  0.00    -0.550 OA
ATOM      8  O   UNL     1     -19.085  17.650  17.679  1.00  0.00    -0.550 OA
ENDBRANCH   5   6
ENDBRANCH   1   5
TORSDOF 3
ENDMDL
MODEL 3
REMARK VINA RESULT:     0.182      9.814     10.507
REMARK INTER + INTRA:           0.186
REMARK INTER:                   0.225
REMARK INTRA:                  -0.039
REMARK UNBOUND:                -0.029
REMARK SMILES O=C([O-])CCC(=O)[O-]
REMARK SMILES IDX 4 1 2 2 1 3 3 4 5 5 6 6 7 7 8 8
REMARK H PARENT
REMARK Flexibility Score: inf
ROOT
ATOM      1  C   UNL     1     -15.732  26.106  16.757  1.00  0.00     0.059 C 
ENDROOT
BRANCH   1   2
ATOM      2  C   UNL     1     -14.529  25.255  16.488  1.00  0.00     0.042 C 
ATOM      3  O   UNL     1     -14.192  24.359  17.305  1.00  0.00    -0.550 OA
ATOM      4  O   UNL     1     -13.757  25.480  15.355  1.00  0.00    -0.550 OA
ENDBRANCH   1   2
BRANCH   1   5
ATOM      5  C   UNL     1     -16.877  25.789  15.788  1.00  0.00     0.059 C 
BRANCH   5   6
ATOM      6  C   UNL     1     -18.212  25.873  16.464  1.00  0.00     0.042 C 
ATOM      7  O   UNL     1     -18.526  25.039  17.353  1.00  0.00    -0.550 OA
ATOM      8  O   UNL     1     -19.123  26.850  16.083  1.00  0.00    -0.550 OA
ENDBRANCH   5   6
ENDBRANCH   1   5
TORSDOF 3
ENDMDL
MODEL 4
REMARK VINA RESULT:     0.186      9.825     10.204
REMARK INTER + INTRA:           0.190
REMARK INTER:                   0.230
REMARK INTRA:                  -0.040
REMARK UNBOUND:                -0.029
REMARK SMILES O=C([O-])CCC(=O)[O-]
REMARK SMILES IDX 4 1 2 2 1 3 3 4 5 5 6 6 7 7 8 8
REMARK H PARENT
REMARK Flexibility Score: inf
ROOT
ATOM      1  C   UNL     1     -16.881  25.802  15.797  1.00  0.00     0.059 C 
ENDROOT
BRANCH   1   2
ATOM      2  C   UNL     1     -18.208  25.893  16.485  1.00  0.00     0.042 C 
ATOM      3  O   UNL     1     -18.518  25.057  17.374  1.00  0.00    -0.550 OA
ATOM      4  O   UNL     1     -19.117  26.876  16.117  1.00  0.00    -0.550 OA
ENDBRANCH   1   2
BRANCH   1   5
ATOM      5  C   UNL     1     -15.725  26.109  16.756  1.00  0.00     0.059 C 
BRANCH   5   6
ATOM      6  C   UNL     1     -14.531  25.248  16.476  1.00  0.00     0.042 C 
ATOM      7  O   UNL     1     -14.212  24.328  17.274  1.00  0.00    -0.550 OA
ATOM      8  O   UNL     1     -13.749  25.488  15.352  1.00  0.00    -0.550 OA
ENDBRANCH   5   6
ENDBRANCH   1   5
TORSDOF 3
ENDMDL
MODEL 5
REMARK VINA RESULT:     0.641      0.271      4.249
REMARK INTER + INTRA:           0.724
REMARK INTER:                   0.750
REMARK INTRA:                  -0.026
REMARK UNBOUND:                -0.029
REMARK SMILES O=C([O-])CCC(=O)[O-]
REMARK SMILES IDX 4 1 2 2 1 3 3 4 5 5 6 6 7 7 8 8
REMARK H PARENT
REMARK Flexibility Score: inf
ROOT
ATOM      1  C   UNL     1     -17.693  17.289  11.642  1.00  0.00     0.059 C 
ENDROOT
BRANCH   1   2
ATOM      2  C   UNL     1     -17.642  16.714  10.260  1.00  0.00     0.042 C 
ATOM      3  O   UNL     1     -17.251  15.531  10.080  1.00  0.00    -0.550 OA
ATOM      4  O   UNL     1     -17.989  17.498   9.167  1.00  0.00    -0.550 OA
ENDBRANCH   1   2
BRANCH   1   5
ATOM      5  C   UNL     1     -19.119  17.282  12.205  1.00  0.00     0.059 C 
BRANCH   5   6
ATOM      6  C   UNL     1     -19.125  17.440  13.695  1.00  0.00     0.042 C 
ATOM      7  O   UNL     1     -19.123  18.589  14.210  1.00  0.00    -0.550 OA
ATOM      8  O   UNL     1     -19.094  16.318  14.514  1.00  0.00    -0.550 OA
ENDBRANCH   5   6
ENDBRANCH   1   5
TORSDOF 3
ENDMDL
