MODEL 1
REMARK VINA RESULT:    -4.747      0.000      0.000
REMARK INTER + INTRA:          -6.536
REMARK INTER:                  -5.996
REMARK INTRA:                  -0.540
REMARK UNBOUND:                -0.540
REMARK SMILES Oc1ccc(CCc2cc(O)cc(O)c2)cc1
REMARK SMILES IDX 6 1 5 2 4 3 3 4 2 5 16 6 17 7 1 8 7 10 8 11 15 12 9 13 13 14
REMARK SMILES IDX 10 15 12 16 14 17 11 19
REMARK H PARENT 1 9 14 18 11 20
REMARK Flexibility Score: inf
ROOT
ATOM      1  C   UNL     1      -4.638   5.309  -3.434  1.00  0.00     0.040 C 
ENDROOT
BRANCH   1   2
ATOM      2  C   UNL     1      -5.740   6.327  -3.548  1.00  0.00    -0.047 A 
ATOM      3  C   UNL     1      -6.826   6.102  -4.409  1.00  0.00     0.007 A 
ATOM      4  C   UNL     1      -7.867   7.032  -4.490  1.00  0.00     0.046 A 
ATOM      5  C   UNL     1      -7.837   8.191  -3.702  1.00  0.00     0.115 A 
ATOM      6  C   UNL     1      -5.722   7.483  -2.751  1.00  0.00     0.007 A 
ATOM      7  C   UNL     1      -6.764   8.413  -2.833  1.00  0.00     0.046 A 
BRANCH   5   8
ATOM      8  O   UNL     1      -8.868   9.125  -3.774  1.00  0.00    -0.508 OA
ATOM      9  H   UNL     1      -8.907   9.816  -4.514  1.00  0.00     0.293 HD
ENDBRANCH   5   8
ENDBRANCH   1   2
BRANCH   1  10
ATOM     10  C   UNL     1      -4.758   4.259  -4.541  1.00  0.00     0.040 C 
BRANCH  10  11
ATOM     11  C   UNL     1      -5.026   2.899  -3.953  1.00  0.00    -0.040 A 
ATOM     12  C   UNL     1      -4.395   1.762  -4.483  1.00  0.00     0.050 A 
ATOM     13  C   UNL     1      -5.950   2.750  -2.906  1.00  0.00     0.050 A 
ATOM     14  C   UNL     1      -4.669   0.492  -3.958  1.00  0.00     0.119 A 
ATOM     15  C   UNL     1      -6.225   1.483  -2.380  1.00  0.00     0.119 A 
ATOM     16  C   UNL     1      -5.581   0.356  -2.906  1.00  0.00     0.092 A 
BRANCH  14  17
ATOM     17  O   UNL     1      -4.043  -0.640  -4.475  1.00  0.00    -0.508 OA
ATOM     18  H   UNL     1      -3.670  -0.656  -5.417  1.00  0.00     0.293 HD
ENDBRANCH  14  17
BRANCH  15  19
ATOM     19  O   UNL     1      -7.139   1.356  -1.337  1.00  0.00    -0.508 OA
ATOM     20  H   UNL     1      -8.087   1.705  -1.419  1.00  0.00     0.293 HD
ENDBRANCH  15  19
ENDBRANCH  10  11
ENDBRANCH   1  10
TORSDOF 6
ENDMDL
MODEL 2
REMARK VINA RESULT:    -4.715      0.052      2.035
REMARK INTER + INTRA:          -6.495
REMARK INTER:                  -5.955
REMARK INTRA:                  -0.540
REMARK UNBOUND:                -0.540
REMARK SMILES Oc1ccc(CCc2cc(O)cc(O)c2)cc1
REMARK SMILES IDX 6 1 5 2 4 3 3 4 2 5 16 6 17 7 1 8 7 10 8 11 15 12 9 13 13 14
REMARK SMILES IDX 10 15 12 16 14 17 11 19
REMARK H PARENT 1 9 14 18 11 20
REMARK Flexibility Score: inf
ROOT
ATOM      1  C   UNL     1      -4.651   5.282  -3.399  1.00  0.00     0.040 C 
ENDROOT
BRANCH   1   2
ATOM      2  C   UNL     1      -5.748   6.305  -3.517  1.00  0.00    -0.047 A 
ATOM      3  C   UNL     1      -6.810   6.105  -4.414  1.00  0.00     0.007 A 
ATOM      4  C   UNL     1      -7.847   7.040  -4.500  1.00  0.00     0.046 A 
ATOM      5  C   UNL     1      -7.836   8.179  -3.682  1.00  0.00     0.115 A 
ATOM      6  C   UNL     1      -5.750   7.441  -2.691  1.00  0.00     0.007 A 
ATOM      7  C   UNL     1      -6.787   8.375  -2.779  1.00  0.00     0.046 A 
BRANCH   5   8
ATOM      8  O   UNL     1      -8.863   9.117  -3.759  1.00  0.00    -0.508 OA
ATOM      9  H   UNL     1      -9.111   9.697  -2.965  1.00  0.00     0.293 HD
ENDBRANCH   5   8
ENDBRANCH   1   2
BRANCH   1  10
ATOM     10  C   UNL     1      -4.747   4.257  -4.532  1.00  0.00     0.040 C 
BRANCH  10  11
ATOM     11  C   UNL     1      -5.038   2.886  -3.983  1.00  0.00    -0.040 A 
ATOM     12  C   UNL     1      -5.932   2.729  -2.912  1.00  0.00     0.050 A 
ATOM     13  C   UNL     1      -4.377   1.761  -4.500  1.00  0.00     0.050 A 
ATOM     14  C   UNL     1      -6.179   1.456  -2.378  1.00  0.00     0.119 A 
ATOM     15  C   UNL     1      -4.621   0.490  -3.969  1.00  0.00     0.119 A 
ATOM     16  C   UNL     1      -5.525   0.340  -2.910  1.00  0.00     0.092 A 
BRANCH  14  17
ATOM     17  O   UNL     1      -7.070   1.291  -1.319  1.00  0.00    -0.508 OA
ATOM     18  H   UNL     1      -8.070   1.242  -1.471  1.00  0.00     0.293 HD
ENDBRANCH  14  17
BRANCH  15  19
ATOM     19  O   UNL     1      -3.960  -0.615  -4.500  1.00  0.00    -0.508 OA
ATOM     20  H   UNL     1      -4.453  -1.320  -5.035  1.00  0.00     0.293 HD
ENDBRANCH  15  19
ENDBRANCH  10  11
ENDBRANCH   1  10
TORSDOF 6
ENDMDL
MODEL 3
REMARK VINA RESULT:    -4.662      2.198      6.716
REMARK INTER + INTRA:          -6.429
REMARK INTER:                  -5.985
REMARK INTRA:                  -0.444
REMARK UNBOUND:                -0.540
REMARK SMILES Oc1ccc(CCc2cc(O)cc(O)c2)cc1
REMARK SMILES IDX 6 1 5 2 4 3 3 4 2 5 16 6 17 7 1 8 7 10 8 11 15 12 9 13 13 14
REMARK SMILES IDX 10 15 12 16 14 17 11 19
REMARK H PARENT 1 9 14 18 11 20
REMARK Flexibility Score: inf
ROOT
ATOM      1  C   UNL     1      -5.089   2.258  -2.748  1.00  0.00     0.040 C 
ENDROOT
BRANCH   1   2
ATOM      2  C   UNL     1      -5.778   0.937  -2.958  1.00  0.00    -0.047 A 
ATOM      3  C   UNL     1      -7.102   0.753  -2.529  1.00  0.00     0.007 A 
ATOM      4  C   UNL     1      -7.754  -0.464  -2.753  1.00  0.00     0.046 A 
ATOM      5  C   UNL     1      -7.091  -1.504  -3.420  1.00  0.00     0.115 A 
ATOM      6  C   UNL     1      -5.124  -0.103  -3.638  1.00  0.00     0.007 A 
ATOM      7  C   UNL     1      -5.777  -1.320  -3.862  1.00  0.00     0.046 A 
BRANCH   5   8
ATOM      8  O   UNL     1      -7.730  -2.720  -3.650  1.00  0.00    -0.508 OA
ATOM      9  H   UNL     1      -7.512  -3.288  -4.461  1.00  0.00     0.293 HD
ENDBRANCH   5   8
ENDBRANCH   1   2
BRANCH   1  10
ATOM     10  C   UNL     1      -4.817   2.944  -4.089  1.00  0.00     0.040 C 
BRANCH  10  11
ATOM     11  C   UNL     1      -5.114   4.416  -4.000  1.00  0.00    -0.040 A 
ATOM     12  C   UNL     1      -4.105   5.321  -3.635  1.00  0.00     0.050 A 
ATOM     13  C   UNL     1      -6.416   4.890  -4.227  1.00  0.00     0.050 A 
ATOM     14  C   UNL     1      -4.389   6.690  -3.520  1.00  0.00     0.119 A 
ATOM     15  C   UNL     1      -6.703   6.255  -4.112  1.00  0.00     0.119 A 
ATOM     16  C   UNL     1      -5.686   7.153  -3.762  1.00  0.00     0.092 A 
BRANCH  14  17
ATOM     17  O   UNL     1      -3.391   7.594  -3.164  1.00  0.00    -0.508 OA
ATOM     18  H   UNL     1      -2.432   7.473  -3.469  1.00  0.00     0.293 HD
ENDBRANCH  14  17
BRANCH  15  19
ATOM     19  O   UNL     1      -7.999   6.707  -4.348  1.00  0.00    -0.508 OA
ATOM     20  H   UNL     1      -8.784   6.368  -3.805  1.00  0.00     0.293 HD
ENDBRANCH  15  19
ENDBRANCH  10  11
ENDBRANCH   1  10
TORSDOF 6
ENDMDL
MODEL 4
REMARK VINA RESULT:    -4.661      2.148      6.843
REMARK INTER + INTRA:          -6.428
REMARK INTER:                  -5.991
REMARK INTRA:                  -0.436
REMARK UNBOUND:                -0.540
REMARK SMILES Oc1ccc(CCc2cc(O)cc(O)c2)cc1
REMARK SMILES IDX 6 1 5 2 4 3 3 4 2 5 16 6 17 7 1 8 7 10 8 11 15 12 9 13 13 14
REMARK SMILES IDX 10 15 12 16 14 17 11 19
REMARK H PARENT 1 9 14 18 11 20
REMARK Flexibility Score: inf
ROOT
ATOM      1  C   UNL     1      -5.093   2.266  -2.801  1.00  0.00     0.040 C 
ENDROOT
BRANCH   1   2
ATOM      2  C   UNL     1      -5.775   0.946  -3.042  1.00  0.00    -0.047 A 
ATOM      3  C   UNL     1      -5.082  -0.106  -3.662  1.00  0.00     0.007 A 
ATOM      4  C   UNL     1      -5.704  -1.343  -3.857  1.00  0.00     0.046 A 
ATOM      5  C   UNL     1      -7.022  -1.543  -3.422  1.00  0.00     0.115 A 
ATOM      6  C   UNL     1      -7.090   0.736  -2.597  1.00  0.00     0.007 A 
ATOM      7  C   UNL     1      -7.711  -0.502  -2.792  1.00  0.00     0.046 A 
BRANCH   5   8
ATOM      8  O   UNL     1      -7.653  -2.771  -3.610  1.00  0.00    -0.508 OA
ATOM      9  H   UNL     1      -8.150  -2.985  -4.466  1.00  0.00     0.293 HD
ENDBRANCH   5   8
ENDBRANCH   1   2
BRANCH   1  10
ATOM     10  C   UNL     1      -4.874   3.008  -4.122  1.00  0.00     0.040 C 
BRANCH  10  11
ATOM     11  C   UNL     1      -5.242   4.461  -3.980  1.00  0.00    -0.040 A 
ATOM     12  C   UNL     1      -6.554   4.887  -4.241  1.00  0.00     0.050 A 
ATOM     13  C   UNL     1      -4.264   5.409  -3.641  1.00  0.00     0.050 A 
ATOM     14  C   UNL     1      -6.890   6.244  -4.142  1.00  0.00     0.119 A 
ATOM     15  C   UNL     1      -4.596   6.764  -3.541  1.00  0.00     0.119 A 
ATOM     16  C   UNL     1      -5.911   7.179  -3.789  1.00  0.00     0.092 A 
BRANCH  14  17
ATOM     17  O   UNL     1      -8.191   6.674  -4.393  1.00  0.00    -0.508 OA
ATOM     18  H   UNL     1      -8.395   7.348  -5.122  1.00  0.00     0.293 HD
ENDBRANCH  14  17
BRANCH  15  19
ATOM     19  O   UNL     1      -3.613   7.689  -3.197  1.00  0.00    -0.508 OA
ATOM     20  H   UNL     1      -3.827   8.674  -3.091  1.00  0.00     0.293 HD
ENDBRANCH  15  19
ENDBRANCH  10  11
ENDBRANCH   1  10
TORSDOF 6
ENDMDL
MODEL 5
REMARK VINA RESULT:    -4.626      1.548      6.043
REMARK INTER + INTRA:          -6.383
REMARK INTER:                  -5.703
REMARK INTRA:                  -0.681
REMARK UNBOUND:                -0.540
REMARK SMILES Oc1ccc(CCc2cc(O)cc(O)c2)cc1
REMARK SMILES IDX 6 1 5 2 4 3 3 4 2 5 16 6 17 7 1 8 7 10 8 11 15 12 9 13 13 14
REMARK SMILES IDX 10 15 12 16 14 17 11 19
REMARK H PARENT 1 9 14 18 11 20
REMARK Flexibility Score: inf
ROOT
ATOM      1  C   UNL     1      -4.234   6.225  -2.698  1.00  0.00     0.040 C 
ENDROOT
BRANCH   1   2
ATOM      2  C   UNL     1      -4.405   4.807  -3.171  1.00  0.00    -0.047 A 
ATOM      3  C   UNL     1      -5.045   3.861  -2.355  1.00  0.00     0.007 A 
ATOM      4  C   UNL     1      -5.233   2.550  -2.807  1.00  0.00     0.046 A 
ATOM      5  C   UNL     1      -4.791   2.178  -4.084  1.00  0.00     0.115 A 
ATOM      6  C   UNL     1      -3.977   4.431  -4.454  1.00  0.00     0.007 A 
ATOM      7  C   UNL     1      -4.165   3.121  -4.905  1.00  0.00     0.046 A 
BRANCH   5   8
ATOM      8  O   UNL     1      -4.973   0.876  -4.546  1.00  0.00    -0.508 OA
ATOM      9  H   UNL     1      -4.280   0.154  -4.381  1.00  0.00     0.293 HD
ENDBRANCH   5   8
ENDBRANCH   1   2
BRANCH   1  10
ATOM     10  C   UNL     1      -4.826   7.206  -3.714  1.00  0.00     0.040 C 
BRANCH  10  11
ATOM     11  C   UNL     1      -6.323   7.271  -3.577  1.00  0.00    -0.040 A 
ATOM     12  C   UNL     1      -7.145   6.490  -4.406  1.00  0.00     0.050 A 
ATOM     13  C   UNL     1      -6.912   8.153  -2.657  1.00  0.00     0.050 A 
ATOM     14  C   UNL     1      -8.540   6.574  -4.302  1.00  0.00     0.119 A 
ATOM     15  C   UNL     1      -8.305   8.239  -2.551  1.00  0.00     0.119 A 
ATOM     16  C   UNL     1      -9.116   7.447  -3.372  1.00  0.00     0.092 A 
BRANCH  14  17
ATOM     17  O   UNL     1      -9.361   5.799  -5.117  1.00  0.00    -0.508 OA
ATOM     18  H   UNL     1      -9.408   4.791  -5.017  1.00  0.00     0.293 HD
ENDBRANCH  14  17
BRANCH  15  19
ATOM     19  O   UNL     1      -8.870   9.116  -1.628  1.00  0.00    -0.508 OA
ATOM     20  H   UNL     1      -8.430   9.299  -0.734  1.00  0.00     0.293 HD
ENDBRANCH  15  19
ENDBRANCH  10  11
ENDBRANCH   1  10
TORSDOF 6
ENDMDL
MODEL 6
REMARK VINA RESULT:    -4.604      1.501      6.298
REMARK INTER + INTRA:          -6.355
REMARK INTER:                  -5.671
REMARK INTRA:                  -0.684
REMARK UNBOUND:                -0.540
REMARK SMILES Oc1ccc(CCc2cc(O)cc(O)c2)cc1
REMARK SMILES IDX 6 1 5 2 4 3 3 4 2 5 16 6 17 7 1 8 7 10 8 11 15 12 9 13 13 14
REMARK SMILES IDX 10 15 12 16 14 17 11 19
REMARK H PARENT 1 9 14 18 11 20
REMARK Flexibility Score: inf
ROOT
ATOM      1  C   UNL     1      -4.307   6.097  -2.669  1.00  0.00     0.040 C 
ENDROOT
BRANCH   1   2
ATOM      2  C   UNL     1      -4.440   4.673  -3.139  1.00  0.00    -0.047 A 
ATOM      3  C   UNL     1      -5.063   3.714  -2.325  1.00  0.00     0.007 A 
ATOM      4  C   UNL     1      -5.216   2.399  -2.774  1.00  0.00     0.046 A 
ATOM      5  C   UNL     1      -4.756   2.033  -4.047  1.00  0.00     0.115 A 
ATOM      6  C   UNL     1      -3.994   4.305  -4.418  1.00  0.00     0.007 A 
ATOM      7  C   UNL     1      -4.147   2.989  -4.866  1.00  0.00     0.046 A 
BRANCH   5   8
ATOM      8  O   UNL     1      -4.902   0.726  -4.506  1.00  0.00    -0.508 OA
ATOM      9  H   UNL     1      -4.421  -0.048  -4.063  1.00  0.00     0.293 HD
ENDBRANCH   5   8
ENDBRANCH   1   2
BRANCH   1  10
ATOM     10  C   UNL     1      -4.796   7.067  -3.747  1.00  0.00     0.040 C 
BRANCH  10  11
ATOM     11  C   UNL     1      -6.292   7.220  -3.683  1.00  0.00    -0.040 A 
ATOM     12  C   UNL     1      -6.874   8.115  -2.771  1.00  0.00     0.050 A 
ATOM     13  C   UNL     1      -7.120   6.428  -4.494  1.00  0.00     0.050 A 
ATOM     14  C   UNL     1      -8.268   8.234  -2.687  1.00  0.00     0.119 A 
ATOM     15  C   UNL     1      -8.512   6.544  -4.412  1.00  0.00     0.119 A 
ATOM     16  C   UNL     1      -9.083   7.450  -3.510  1.00  0.00     0.092 A 
BRANCH  14  17
ATOM     17  O   UNL     1      -8.852   9.125  -1.789  1.00  0.00    -0.508 OA
ATOM     18  H   UNL     1      -8.413   9.349  -0.904  1.00  0.00     0.293 HD
ENDBRANCH  14  17
BRANCH  15  19
ATOM     19  O   UNL     1      -9.316   5.754  -5.230  1.00  0.00    -0.508 OA
ATOM     20  H   UNL     1     -10.298   5.609  -5.026  1.00  0.00     0.293 HD
ENDBRANCH  15  19
ENDBRANCH  10  11
ENDBRANCH   1  10
TORSDOF 6
ENDMDL
MODEL 7
REMARK VINA RESULT:    -4.535      1.423      6.567
REMARK INTER + INTRA:          -6.268
REMARK INTER:                  -5.688
REMARK INTRA:                  -0.580
REMARK UNBOUND:                -0.540
REMARK SMILES Oc1ccc(CCc2cc(O)cc(O)c2)cc1
REMARK SMILES IDX 6 1 5 2 4 3 3 4 2 5 16 6 17 7 1 8 7 10 8 11 15 12 9 13 13 14
REMARK SMILES IDX 10 15 12 16 14 17 11 19
REMARK H PARENT 1 9 14 18 11 20
REMARK Flexibility Score: inf
ROOT
ATOM      1  C   UNL     1      -4.470   4.093  -2.656  1.00  0.00     0.040 C 
ENDROOT
BRANCH   1   2
ATOM      2  C   UNL     1      -4.664   2.669  -3.104  1.00  0.00    -0.047 A 
ATOM      3  C   UNL     1      -3.687   2.034  -3.889  1.00  0.00     0.007 A 
ATOM      4  C   UNL     1      -3.851   0.701  -4.278  1.00  0.00     0.046 A 
ATOM      5  C   UNL     1      -4.990  -0.013  -3.876  1.00  0.00     0.115 A 
ATOM      6  C   UNL     1      -5.794   1.945  -2.694  1.00  0.00     0.007 A 
ATOM      7  C   UNL     1      -5.957   0.612  -3.084  1.00  0.00     0.046 A 
BRANCH   5   8
ATOM      8  O   UNL     1      -5.164  -1.341  -4.257  1.00  0.00    -0.508 OA
ATOM      9  H   UNL     1      -4.562  -2.077  -3.906  1.00  0.00     0.293 HD
ENDBRANCH   5   8
ENDBRANCH   1   2
BRANCH   1  10
ATOM     10  C   UNL     1      -4.449   5.038  -3.859  1.00  0.00     0.040 C 
BRANCH  10  11
ATOM     11  C   UNL     1      -5.708   5.861  -3.908  1.00  0.00    -0.040 A 
ATOM     12  C   UNL     1      -5.756   7.120  -3.288  1.00  0.00     0.050 A 
ATOM     13  C   UNL     1      -6.862   5.353  -4.525  1.00  0.00     0.050 A 
ATOM     14  C   UNL     1      -6.938   7.872  -3.304  1.00  0.00     0.119 A 
ATOM     15  C   UNL     1      -8.044   6.102  -4.543  1.00  0.00     0.119 A 
ATOM     16  C   UNL     1      -8.078   7.363  -3.934  1.00  0.00     0.092 A 
BRANCH  14  17
ATOM     17  O   UNL     1      -6.991   9.125  -2.696  1.00  0.00    -0.508 OA
ATOM     18  H   UNL     1      -7.670   9.822  -2.979  1.00  0.00     0.293 HD
ENDBRANCH  14  17
BRANCH  15  19
ATOM     19  O   UNL     1      -9.176   5.583  -5.166  1.00  0.00    -0.508 OA
ATOM     20  H   UNL     1      -9.507   5.948  -6.052  1.00  0.00     0.293 HD
ENDBRANCH  15  19
ENDBRANCH  10  11
ENDBRANCH   1  10
TORSDOF 6
ENDMDL
MODEL 8
REMARK VINA RESULT:    -4.464      1.423      6.455
REMARK INTER + INTRA:          -6.179
REMARK INTER:                  -5.595
REMARK INTRA:                  -0.583
REMARK UNBOUND:                -0.540
REMARK SMILES Oc1ccc(CCc2cc(O)cc(O)c2)cc1
REMARK SMILES IDX 6 1 5 2 4 3 3 4 2 5 16 6 17 7 1 8 7 10 8 11 15 12 9 13 13 14
REMARK SMILES IDX 10 15 12 16 14 17 11 19
REMARK H PARENT 1 9 14 18 11 20
REMARK Flexibility Score: inf
ROOT
ATOM      1  C   UNL     1      -4.645   4.037  -2.485  1.00  0.00     0.040 C 
ENDROOT
BRANCH   1   2
ATOM      2  C   UNL     1      -4.789   2.606  -2.928  1.00  0.00    -0.047 A 
ATOM      3  C   UNL     1      -5.916   1.858  -2.551  1.00  0.00     0.007 A 
ATOM      4  C   UNL     1      -6.066   0.539  -2.990  1.00  0.00     0.046 A 
ATOM      5  C   UNL     1      -5.095  -0.041  -3.819  1.00  0.00     0.115 A 
ATOM      6  C   UNL     1      -3.827   2.025  -3.769  1.00  0.00     0.007 A 
ATOM      7  C   UNL     1      -3.979   0.705  -4.207  1.00  0.00     0.046 A 
BRANCH   5   8
ATOM      8  O   UNL     1      -5.234  -1.354  -4.262  1.00  0.00    -0.508 OA
ATOM      9  H   UNL     1      -4.810  -2.129  -3.765  1.00  0.00     0.293 HD
ENDBRANCH   5   8
ENDBRANCH   1   2
BRANCH   1  10
ATOM     10  C   UNL     1      -4.556   4.969  -3.695  1.00  0.00     0.040 C 
BRANCH  10  11
ATOM     11  C   UNL     1      -5.812   5.790  -3.825  1.00  0.00    -0.040 A 
ATOM     12  C   UNL     1      -6.904   5.301  -4.559  1.00  0.00     0.050 A 
ATOM     13  C   UNL     1      -5.880   7.073  -3.260  1.00  0.00     0.050 A 
ATOM     14  C   UNL     1      -8.061   6.078  -4.707  1.00  0.00     0.119 A 
ATOM     15  C   UNL     1      -7.033   7.851  -3.406  1.00  0.00     0.119 A 
ATOM     16  C   UNL     1      -8.124   7.350  -4.128  1.00  0.00     0.092 A 
BRANCH  14  17
ATOM     17  O   UNL     1      -9.152   5.597  -5.429  1.00  0.00    -0.508 OA
ATOM     18  H   UNL     1      -9.391   4.612  -5.434  1.00  0.00     0.293 HD
ENDBRANCH  14  17
BRANCH  15  19
ATOM     19  O   UNL     1      -7.085   9.119  -2.833  1.00  0.00    -0.508 OA
ATOM     20  H   UNL     1      -7.936   9.667  -2.836  1.00  0.00     0.293 HD
ENDBRANCH  15  19
ENDBRANCH  10  11
ENDBRANCH   1  10
TORSDOF 6
ENDMDL
