MODEL 1
REMARK VINA RESULT:    -6.285      0.000      0.000
REMARK INTER + INTRA:          -6.285
REMARK INTER:                  -6.285
REMARK INTRA:                   0.000
REMARK UNBOUND:                 0.000
REMARK SMILES O=c1ccc2ccc3occc3c2o1
REMARK SMILES IDX 6 1 7 2 8 3 12 4 11 5 10 6 9 7 13 8 5 9 4 10 3 11 2 12 1 13
REMARK SMILES IDX 14 14
REMARK H PARENT
REMARK Flexibility Score: inf
ROOT
ATOM      1  C   UNL     1      11.131  -5.896  19.747  1.00  0.00     0.016 A 
ATOM      2  C   UNL     1       9.937  -6.612  19.957  1.00  0.00     0.048 A 
ATOM      3  C   UNL     1       8.737  -5.901  19.951  1.00  0.00     0.137 A 
ATOM      4  C   UNL     1       8.699  -4.548  19.750  1.00  0.00     0.064 A 
ATOM      5  C   UNL     1       7.376  -4.172  19.804  1.00  0.00     0.054 A 
ATOM      6  C   UNL     1       6.686  -5.357  20.043  1.00  0.00     0.196 A 
ATOM      7  O   UNL     1       7.527  -6.373  20.125  1.00  0.00    -0.464 OA
ATOM      8  C   UNL     1       9.859  -3.805  19.539  1.00  0.00     0.149 A 
ATOM      9  C   UNL     1      11.097  -4.496  19.539  1.00  0.00     0.018 A 
ATOM     10  C   UNL     1      12.263  -3.756  19.327  1.00  0.00     0.019 A 
ATOM     11  C   UNL     1      12.173  -2.377  19.127  1.00  0.00     0.094 A 
ATOM     12  C   UNL     1      10.913  -1.767  19.141  1.00  0.00     0.336 A 
ATOM     13  O   UNL     1      10.815  -0.524  18.960  1.00  0.00    -0.246 OA
ATOM     14  O   UNL     1       9.815  -2.490  19.343  1.00  0.00    -0.422 OA
ENDROOT
TORSDOF 0
ENDMDL
MODEL 2
REMARK VINA RESULT:    -6.197      1.087      4.237
REMARK INTER + INTRA:          -6.197
REMARK INTER:                  -6.197
REMARK INTRA:                   0.000
REMARK UNBOUND:                 0.000
REMARK SMILES O=c1ccc2ccc3occc3c2o1
REMARK SMILES IDX 6 1 7 2 8 3 12 4 11 5 10 6 9 7 13 8 5 9 4 10 3 11 2 12 1 13
REMARK SMILES IDX 14 14
REMARK H PARENT
REMARK Flexibility Score: inf
ROOT
ATOM      1  C   UNL     1      12.061  -3.934  19.302  1.00  0.00     0.016 A 
ATOM      2  C   UNL     1      12.092  -2.539  19.115  1.00  0.00     0.048 A 
ATOM      3  C   UNL     1      10.883  -1.845  19.152  1.00  0.00     0.137 A 
ATOM      4  C   UNL     1       9.690  -2.483  19.362  1.00  0.00     0.064 A 
ATOM      5  C   UNL     1       8.710  -1.517  19.339  1.00  0.00     0.054 A 
ATOM      6  C   UNL     1       9.397  -0.329  19.110  1.00  0.00     0.196 A 
ATOM      7  O   UNL     1      10.693  -0.558  19.003  1.00  0.00    -0.464 OA
ATOM      8  C   UNL     1       9.618  -3.862  19.550  1.00  0.00     0.149 A 
ATOM      9  C   UNL     1      10.830  -4.599  19.519  1.00  0.00     0.018 A 
ATOM     10  C   UNL     1      10.764  -5.982  19.707  1.00  0.00     0.019 A 
ATOM     11  C   UNL     1       9.523  -6.586  19.917  1.00  0.00     0.094 A 
ATOM     12  C   UNL     1       8.371  -5.791  19.935  1.00  0.00     0.336 A 
ATOM     13  O   UNL     1       7.245  -6.322  20.125  1.00  0.00    -0.246 OA
ATOM     14  O   UNL     1       8.456  -4.476  19.754  1.00  0.00    -0.422 OA
ENDROOT
TORSDOF 0
ENDMDL
MODEL 3
REMARK VINA RESULT:    -6.076      1.438      2.736
REMARK INTER + INTRA:          -6.076
REMARK INTER:                  -6.076
REMARK INTRA:                   0.000
REMARK UNBOUND:                 0.000
REMARK SMILES O=c1ccc2ccc3occc3c2o1
REMARK SMILES IDX 6 1 7 2 8 3 12 4 11 5 10 6 9 7 13 8 5 9 4 10 3 11 2 12 1 13
REMARK SMILES IDX 14 14
REMARK H PARENT
REMARK Flexibility Score: inf
ROOT
ATOM      1  C   UNL     1       8.558  -2.663  19.547  1.00  0.00     0.016 A 
ATOM      2  C   UNL     1       8.138  -3.984  19.796  1.00  0.00     0.048 A 
ATOM      3  C   UNL     1       9.115  -4.975  19.889  1.00  0.00     0.137 A 
ATOM      4  C   UNL     1      10.447  -4.694  19.746  1.00  0.00     0.064 A 
ATOM      5  C   UNL     1      11.125  -5.882  19.895  1.00  0.00     0.054 A 
ATOM      6  C   UNL     1      10.129  -6.826  20.123  1.00  0.00     0.196 A 
ATOM      7  O   UNL     1       8.938  -6.253  20.115  1.00  0.00    -0.464 OA
ATOM      8  C   UNL     1      10.901  -3.400  19.499  1.00  0.00     0.149 A 
ATOM      9  C   UNL     1       9.935  -2.367  19.397  1.00  0.00     0.018 A 
ATOM     10  C   UNL     1      10.384  -1.067  19.149  1.00  0.00     0.019 A 
ATOM     11  C   UNL     1      11.753  -0.831  19.011  1.00  0.00     0.094 A 
ATOM     12  C   UNL     1      12.646  -1.904  19.124  1.00  0.00     0.336 A 
ATOM     13  O   UNL     1      13.884  -1.706  19.003  1.00  0.00    -0.246 OA
ATOM     14  O   UNL     1      12.197  -3.134  19.361  1.00  0.00    -0.422 OA
ENDROOT
TORSDOF 0
ENDMDL
MODEL 4
REMARK VINA RESULT:    -5.950      1.300      4.281
REMARK INTER + INTRA:          -5.950
REMARK INTER:                  -5.950
REMARK INTRA:                   0.000
REMARK UNBOUND:                 0.000
REMARK SMILES O=c1ccc2ccc3occc3c2o1
REMARK SMILES IDX 6 1 7 2 8 3 12 4 11 5 10 6 9 7 13 8 5 9 4 10 3 11 2 12 1 13
REMARK SMILES IDX 14 14
REMARK H PARENT
REMARK Flexibility Score: inf
ROOT
ATOM      1  C   UNL     1      11.245  -5.189  19.587  1.00  0.00     0.016 A 
ATOM      2  C   UNL     1      12.054  -4.042  19.464  1.00  0.00     0.048 A 
ATOM      3  C   UNL     1      11.430  -2.795  19.488  1.00  0.00     0.137 A 
ATOM      4  C   UNL     1      10.074  -2.667  19.625  1.00  0.00     0.064 A 
ATOM      5  C   UNL     1       9.796  -1.319  19.610  1.00  0.00     0.054 A 
ATOM      6  C   UNL     1      11.037  -0.709  19.459  1.00  0.00     0.196 A 
ATOM      7  O   UNL     1      11.994  -1.617  19.390  1.00  0.00    -0.464 OA
ATOM      8  C   UNL     1       9.241  -3.777  19.748  1.00  0.00     0.149 A 
ATOM      9  C   UNL     1       9.842  -5.062  19.728  1.00  0.00     0.018 A 
ATOM     10  C   UNL     1       9.012  -6.179  19.852  1.00  0.00     0.019 A 
ATOM     11  C   UNL     1       7.635  -5.996  19.989  1.00  0.00     0.094 A 
ATOM     12  C   UNL     1       7.116  -4.696  20.001  1.00  0.00     0.336 A 
ATOM     13  O   UNL     1       5.876  -4.516  20.125  1.00  0.00    -0.246 OA
ATOM     14  O   UNL     1       7.924  -3.646  19.882  1.00  0.00    -0.422 OA
ENDROOT
TORSDOF 0
ENDMDL
MODEL 5
REMARK VINA RESULT:    -5.746      1.585      5.018
REMARK INTER + INTRA:          -5.746
REMARK INTER:                  -5.746
REMARK INTRA:                   0.000
REMARK UNBOUND:                 0.000
REMARK SMILES O=c1ccc2ccc3occc3c2o1
REMARK SMILES IDX 6 1 7 2 8 3 12 4 11 5 10 6 9 7 13 8 5 9 4 10 3 11 2 12 1 13
REMARK SMILES IDX 14 14
REMARK H PARENT
REMARK Flexibility Score: inf
ROOT
ATOM      1  C   UNL     1       8.821  -2.234  19.508  1.00  0.00     0.016 A 
ATOM      2  C   UNL     1       9.616  -1.114  19.196  1.00  0.00     0.048 A 
ATOM      3  C   UNL     1      10.982  -1.314  19.001  1.00  0.00     0.137 A 
ATOM      4  C   UNL     1      11.554  -2.554  19.104  1.00  0.00     0.064 A 
ATOM      5  C   UNL     1      12.898  -2.397  18.853  1.00  0.00     0.054 A 
ATOM      6  C   UNL     1      13.051  -1.035  18.611  1.00  0.00     0.196 A 
ATOM      7  O   UNL     1      11.888  -0.415  18.706  1.00  0.00    -0.464 OA
ATOM      8  C   UNL     1      10.801  -3.686  19.410  1.00  0.00     0.149 A 
ATOM      9  C   UNL     1       9.408  -3.519  19.616  1.00  0.00     0.018 A 
ATOM     10  C   UNL     1       8.648  -4.650  19.923  1.00  0.00     0.019 A 
ATOM     11  C   UNL     1       9.277  -5.893  20.017  1.00  0.00     0.094 A 
ATOM     12  C   UNL     1      10.657  -5.977  19.800  1.00  0.00     0.336 A 
ATOM     13  O   UNL     1      11.239  -7.092  19.880  1.00  0.00    -0.246 OA
ATOM     14  O   UNL     1      11.363  -4.887  19.508  1.00  0.00    -0.422 OA
ENDROOT
TORSDOF 0
ENDMDL
MODEL 6
REMARK VINA RESULT:    -5.623      1.882      3.320
REMARK INTER + INTRA:          -5.623
REMARK INTER:                  -5.623
REMARK INTRA:                   0.000
REMARK UNBOUND:                 0.000
REMARK SMILES O=c1ccc2ccc3occc3c2o1
REMARK SMILES IDX 6 1 7 2 8 3 12 4 11 5 10 6 9 7 13 8 5 9 4 10 3 11 2 12 1 13
REMARK SMILES IDX 14 14
REMARK H PARENT
REMARK Flexibility Score: inf
ROOT
ATOM      1  C   UNL     1      12.127  -2.062  18.205  1.00  0.00     0.016 A 
ATOM      2  C   UNL     1      12.417  -3.407  18.506  1.00  0.00     0.048 A 
ATOM      3  C   UNL     1      11.440  -4.158  19.159  1.00  0.00     0.137 A 
ATOM      4  C   UNL     1      10.229  -3.623  19.506  1.00  0.00     0.064 A 
ATOM      5  C   UNL     1       9.513  -4.622  20.125  1.00  0.00     0.054 A 
ATOM      6  C   UNL     1      10.365  -5.722  20.111  1.00  0.00     0.196 A 
ATOM      7  O   UNL     1      11.509  -5.413  19.526  1.00  0.00    -0.464 OA
ATOM      8  C   UNL     1       9.904  -2.297  19.226  1.00  0.00     0.149 A 
ATOM      9  C   UNL     1      10.875  -1.504  18.562  1.00  0.00     0.018 A 
ATOM     10  C   UNL     1      10.556  -0.174  18.278  1.00  0.00     0.019 A 
ATOM     11  C   UNL     1       9.307   0.325  18.652  1.00  0.00     0.094 A 
ATOM     12  C   UNL     1       8.401  -0.521  19.304  1.00  0.00     0.336 A 
ATOM     13  O   UNL     1       7.270  -0.085  19.647  1.00  0.00    -0.246 OA
ATOM     14  O   UNL     1       8.725  -1.784  19.565  1.00  0.00    -0.422 OA
ENDROOT
TORSDOF 0
ENDMDL
MODEL 7
REMARK VINA RESULT:    -5.257      1.667      4.771
REMARK INTER + INTRA:          -5.257
REMARK INTER:                  -5.257
REMARK INTRA:                   0.000
REMARK UNBOUND:                 0.000
REMARK SMILES O=c1ccc2ccc3occc3c2o1
REMARK SMILES IDX 6 1 7 2 8 3 12 4 11 5 10 6 9 7 13 8 5 9 4 10 3 11 2 12 1 13
REMARK SMILES IDX 14 14
REMARK H PARENT
REMARK Flexibility Score: inf
ROOT
ATOM      1  C   UNL     1      12.724  -1.496  18.630  1.00  0.00     0.016 A 
ATOM      2  C   UNL     1      12.313  -0.154  18.511  1.00  0.00     0.048 A 
ATOM      3  C   UNL     1      10.971   0.144  18.745  1.00  0.00     0.137 A 
ATOM      4  C   UNL     1      10.063  -0.824  19.081  1.00  0.00     0.064 A 
ATOM      5  C   UNL     1       8.849  -0.196  19.239  1.00  0.00     0.054 A 
ATOM      6  C   UNL     1       9.113   1.145  18.979  1.00  0.00     0.196 A 
ATOM      7  O   UNL     1      10.390   1.316  18.688  1.00  0.00    -0.464 OA
ATOM      8  C   UNL     1      10.431  -2.162  19.209  1.00  0.00     0.149 A 
ATOM      9  C   UNL     1      11.788  -2.501  18.978  1.00  0.00     0.018 A 
ATOM     10  C   UNL     1      12.163  -3.841  19.104  1.00  0.00     0.019 A 
ATOM     11  C   UNL     1      11.200  -4.791  19.449  1.00  0.00     0.094 A 
ATOM     12  C   UNL     1       9.880  -4.379  19.661  1.00  0.00     0.336 A 
ATOM     13  O   UNL     1       9.001  -5.225  19.974  1.00  0.00    -0.246 OA
ATOM     14  O   UNL     1       9.544  -3.098  19.536  1.00  0.00    -0.422 OA
ENDROOT
TORSDOF 0
ENDMDL
MODEL 8
REMARK VINA RESULT:    -4.927      3.861      5.991
REMARK INTER + INTRA:          -4.927
REMARK INTER:                  -4.927
REMARK INTRA:                   0.000
REMARK UNBOUND:                 0.000
REMARK SMILES O=c1ccc2ccc3occc3c2o1
REMARK SMILES IDX 6 1 7 2 8 3 12 4 11 5 10 6 9 7 13 8 5 9 4 10 3 11 2 12 1 13
REMARK SMILES IDX 14 14
REMARK H PARENT
REMARK Flexibility Score: inf
ROOT
ATOM      1  C   UNL     1      11.553   1.915  19.161  1.00  0.00     0.016 A 
ATOM      2  C   UNL     1      12.648   1.038  19.041  1.00  0.00     0.048 A 
ATOM      3  C   UNL     1      12.389  -0.291  18.705  1.00  0.00     0.137 A 
ATOM      4  C   UNL     1      11.117  -0.749  18.494  1.00  0.00     0.064 A 
ATOM      5  C   UNL     1      11.219  -2.086  18.184  1.00  0.00     0.054 A 
ATOM      6  C   UNL     1      12.583  -2.352  18.232  1.00  0.00     0.196 A 
ATOM      7  O   UNL     1      13.257  -1.259  18.545  1.00  0.00    -0.464 OA
ATOM      8  C   UNL     1      10.008   0.088  18.603  1.00  0.00     0.149 A 
ATOM      9  C   UNL     1      10.235   1.446  18.943  1.00  0.00     0.018 A 
ATOM     10  C   UNL     1       9.127   2.291  19.054  1.00  0.00     0.019 A 
ATOM     11  C   UNL     1       7.849   1.776  18.829  1.00  0.00     0.094 A 
ATOM     12  C   UNL     1       7.706   0.424  18.497  1.00  0.00     0.336 A 
ATOM     13  O   UNL     1       6.559  -0.054  18.290  1.00  0.00    -0.246 OA
ATOM     14  O   UNL     1       8.774  -0.363  18.396  1.00  0.00    -0.422 OA
ENDROOT
TORSDOF 0
ENDMDL
MODEL 9
REMARK VINA RESULT:    -4.915      3.483      5.494
REMARK INTER + INTRA:          -4.915
REMARK INTER:                  -4.915
REMARK INTRA:                   0.000
REMARK UNBOUND:                 0.000
REMARK SMILES O=c1ccc2ccc3occc3c2o1
REMARK SMILES IDX 6 1 7 2 8 3 12 4 11 5 10 6 9 7 13 8 5 9 4 10 3 11 2 12 1 13
REMARK SMILES IDX 14 14
REMARK H PARENT
REMARK Flexibility Score: inf
ROOT
ATOM      1  C   UNL     1      12.522   1.308  19.389  1.00  0.00     0.016 A 
ATOM      2  C   UNL     1      11.388   2.136  19.287  1.00  0.00     0.048 A 
ATOM      3  C   UNL     1      10.165   1.538  18.980  1.00  0.00     0.137 A 
ATOM      4  C   UNL     1      10.051   0.188  18.780  1.00  0.00     0.064 A 
ATOM      5  C   UNL     1       8.727  -0.064  18.501  1.00  0.00     0.054 A 
ATOM      6  C   UNL     1       8.116   1.185  18.552  1.00  0.00     0.196 A 
ATOM      7  O   UNL     1       9.001   2.122  18.841  1.00  0.00    -0.464 OA
ATOM      8  C   UNL     1      11.150  -0.663  18.872  1.00  0.00     0.149 A 
ATOM      9  C   UNL     1      12.409  -0.088  19.183  1.00  0.00     0.018 A 
ATOM     10  C   UNL     1      13.515  -0.937  19.277  1.00  0.00     0.019 A 
ATOM     11  C   UNL     1      13.347  -2.307  19.064  1.00  0.00     0.094 A 
ATOM     12  C   UNL     1      12.071  -2.799  18.762  1.00  0.00     0.336 A 
ATOM     13  O   UNL     1      11.904  -4.032  18.569  1.00  0.00    -0.246 OA
ATOM     14  O   UNL     1      11.032  -1.973  18.678  1.00  0.00    -0.422 OA
ENDROOT
TORSDOF 0
ENDMDL
