MODEL 1
REMARK VINA RESULT:    -2.962      0.000      0.000
REMARK INTER + INTRA:          -3.152
REMARK INTER:                  -3.135
REMARK INTRA:                  -0.017
REMARK UNBOUND:                -0.017
REMARK SMILES O=C([O-])c1cccnc1
REMARK SMILES IDX 4 1 5 2 9 3 6 4 8 5 7 6 2 7 1 8 3 9
REMARK H PARENT
REMARK Flexibility Score: inf
ROOT
ATOM      1  C   UNL     1      -6.179  22.483  10.973  1.00  0.00     0.016 A 
ATOM      2  C   UNL     1      -6.769  22.146   9.743  1.00  0.00     0.013 A 
ATOM      3  C   UNL     1      -5.134  23.422  10.978  1.00  0.00     0.120 A 
ATOM      4  C   UNL     1      -6.318  22.739   8.564  1.00  0.00     0.021 A 
ATOM      5  N   UNL     1      -4.713  23.985   9.814  1.00  0.00    -0.264 NA
ATOM      6  C   UNL     1      -5.277  23.666   8.619  1.00  0.00     0.111 A 
ENDROOT
BRANCH   1   7
ATOM      7  C   UNL     1      -6.643  21.865  12.235  1.00  0.00     0.073 C 
ATOM      8  O   UNL     1      -6.356  20.669  12.506  1.00  0.00    -0.545 OA
ATOM      9  O   UNL     1      -7.403  22.599  13.139  1.00  0.00    -0.545 OA
ENDBRANCH   1   7
TORSDOF 1
ENDMDL
MODEL 2
REMARK VINA RESULT:    -2.919      3.528      4.205
REMARK INTER + INTRA:          -3.107
REMARK INTER:                  -3.084
REMARK INTRA:                  -0.022
REMARK UNBOUND:                -0.017
REMARK SMILES O=C([O-])c1cccnc1
REMARK SMILES IDX 4 1 5 2 9 3 6 4 8 5 7 6 2 7 1 8 3 9
REMARK H PARENT
REMARK Flexibility Score: inf
ROOT
ATOM      1  C   UNL     1      -4.131  23.946   9.578  1.00  0.00     0.016 A 
ATOM      2  C   UNL     1      -5.159  23.555   8.704  1.00  0.00     0.013 A 
ATOM      3  C   UNL     1      -4.239  23.597  10.935  1.00  0.00     0.120 A 
ATOM      4  C   UNL     1      -6.254  22.836   9.186  1.00  0.00     0.021 A 
ATOM      5  N   UNL     1      -5.316  22.896  11.379  1.00  0.00    -0.264 NA
ATOM      6  C   UNL     1      -6.316  22.513  10.542  1.00  0.00     0.111 A 
ENDROOT
BRANCH   1   7
ATOM      7  C   UNL     1      -2.962  24.708   9.086  1.00  0.00     0.073 C 
ATOM      8  O   UNL     1      -2.260  25.387   9.882  1.00  0.00    -0.545 OA
ATOM      9  O   UNL     1      -2.624  24.684   7.738  1.00  0.00    -0.545 OA
ENDBRANCH   1   7
TORSDOF 1
ENDMDL
MODEL 3
REMARK VINA RESULT:    -2.863      3.806      5.312
REMARK INTER + INTRA:          -3.047
REMARK INTER:                  -3.027
REMARK INTRA:                  -0.020
REMARK UNBOUND:                -0.017
REMARK SMILES O=C([O-])c1cccnc1
REMARK SMILES IDX 4 1 5 2 9 3 6 4 8 5 7 6 2 7 1 8 3 9
REMARK H PARENT
REMARK Flexibility Score: inf
ROOT
ATOM      1  C   UNL     1      -8.285  21.348  13.523  1.00  0.00     0.016 A 
ATOM      2  C   UNL     1      -9.040  20.196  13.246  1.00  0.00     0.013 A 
ATOM      3  C   UNL     1      -8.675  22.157  14.604  1.00  0.00     0.120 A 
ATOM      4  C   UNL     1     -10.147  19.876  14.034  1.00  0.00     0.021 A 
ATOM      5  N   UNL     1      -9.757  21.823  15.356  1.00  0.00    -0.264 NA
ATOM      6  C   UNL     1     -10.494  20.712  15.096  1.00  0.00     0.111 A 
ENDROOT
BRANCH   1   7
ATOM      7  C   UNL     1      -7.109  21.704  12.700  1.00  0.00     0.073 C 
ATOM      8  O   UNL     1      -6.243  20.836  12.413  1.00  0.00    -0.545 OA
ATOM      9  O   UNL     1      -6.945  23.003  12.233  1.00  0.00    -0.545 OA
ENDBRANCH   1   7
TORSDOF 1
ENDMDL
MODEL 4
REMARK VINA RESULT:    -2.828      2.859      4.069
REMARK INTER + INTRA:          -3.010
REMARK INTER:                  -2.986
REMARK INTRA:                  -0.023
REMARK UNBOUND:                -0.017
REMARK SMILES O=C([O-])c1cccnc1
REMARK SMILES IDX 4 1 5 2 9 3 6 4 8 5 7 6 2 7 1 8 3 9
REMARK H PARENT
REMARK Flexibility Score: inf
ROOT
ATOM      1  C   UNL     1      -7.164  22.041  11.230  1.00  0.00     0.016 A 
ATOM      2  C   UNL     1      -7.042  21.404  12.476  1.00  0.00     0.013 A 
ATOM      3  C   UNL     1      -8.421  22.044  10.601  1.00  0.00     0.120 A 
ATOM      4  C   UNL     1      -8.151  20.793  13.063  1.00  0.00     0.021 A 
ATOM      5  N   UNL     1      -9.486  21.440  11.194  1.00  0.00    -0.264 NA
ATOM      6  C   UNL     1      -9.378  20.821  12.399  1.00  0.00     0.111 A 
ENDROOT
BRANCH   1   7
ATOM      7  C   UNL     1      -6.000  22.695  10.592  1.00  0.00     0.073 C 
ATOM      8  O   UNL     1      -6.030  23.005   9.371  1.00  0.00    -0.545 OA
ATOM      9  O   UNL     1      -4.858  22.977  11.333  1.00  0.00    -0.545 OA
ENDBRANCH   1   7
TORSDOF 1
ENDMDL
MODEL 5
REMARK VINA RESULT:    -2.809      3.043      4.506
REMARK INTER + INTRA:          -2.990
REMARK INTER:                  -2.971
REMARK INTRA:                  -0.019
REMARK UNBOUND:                -0.017
REMARK SMILES O=C([O-])c1cccnc1
REMARK SMILES IDX 4 1 5 2 9 3 6 4 8 5 7 6 2 7 1 8 3 9
REMARK H PARENT
REMARK Flexibility Score: inf
ROOT
ATOM      1  C   UNL     1      -7.433  21.983  12.628  1.00  0.00     0.016 A 
ATOM      2  C   UNL     1      -8.116  20.767  12.800  1.00  0.00     0.013 A 
ATOM      3  C   UNL     1      -7.601  22.986  13.598  1.00  0.00     0.120 A 
ATOM      4  C   UNL     1      -8.938  20.575  13.912  1.00  0.00     0.021 A 
ATOM      5  N   UNL     1      -8.408  22.774  14.672  1.00  0.00    -0.264 NA
ATOM      6  C   UNL     1      -9.073  21.602  14.847  1.00  0.00     0.111 A 
ENDROOT
BRANCH   1   7
ATOM      7  C   UNL     1      -6.557  22.205  11.457  1.00  0.00     0.073 C 
ATOM      8  O   UNL     1      -5.376  22.616  11.610  1.00  0.00    -0.545 OA
ATOM      9  O   UNL     1      -7.028  21.963  10.171  1.00  0.00    -0.545 OA
ENDBRANCH   1   7
TORSDOF 1
ENDMDL
MODEL 6
REMARK VINA RESULT:    -2.782      4.707      5.839
REMARK INTER + INTRA:          -2.962
REMARK INTER:                  -2.946
REMARK INTRA:                  -0.016
REMARK UNBOUND:                -0.017
REMARK SMILES O=C([O-])c1cccnc1
REMARK SMILES IDX 4 1 5 2 9 3 6 4 8 5 7 6 2 7 1 8 3 9
REMARK H PARENT
REMARK Flexibility Score: inf
ROOT
ATOM      1  C   UNL     1      -2.183  24.917  11.851  1.00  0.00     0.016 A 
ATOM      2  C   UNL     1      -1.084  24.316  12.489  1.00  0.00     0.013 A 
ATOM      3  C   UNL     1      -2.610  26.177  12.304  1.00  0.00     0.120 A 
ATOM      4  C   UNL     1      -0.442  24.967  13.543  1.00  0.00     0.021 A 
ATOM      5  N   UNL     1      -1.967  26.790  13.334  1.00  0.00    -0.264 NA
ATOM      6  C   UNL     1      -0.904  26.217  13.956  1.00  0.00     0.111 A 
ENDROOT
BRANCH   1   7
ATOM      7  C   UNL     1      -2.877  24.243  10.732  1.00  0.00     0.073 C 
ATOM      8  O   UNL     1      -2.590  24.526   9.538  1.00  0.00    -0.545 OA
ATOM      9  O   UNL     1      -3.854  23.287  10.984  1.00  0.00    -0.545 OA
ENDBRANCH   1   7
TORSDOF 1
ENDMDL
MODEL 7
REMARK VINA RESULT:    -2.753      3.067      3.759
REMARK INTER + INTRA:          -2.930
REMARK INTER:                  -2.910
REMARK INTRA:                  -0.020
REMARK UNBOUND:                -0.017
REMARK SMILES O=C([O-])c1cccnc1
REMARK SMILES IDX 4 1 5 2 9 3 6 4 8 5 7 6 2 7 1 8 3 9
REMARK H PARENT
REMARK Flexibility Score: inf
ROOT
ATOM      1  C   UNL     1      -3.851  23.810   9.314  1.00  0.00     0.016 A 
ATOM      2  C   UNL     1      -3.332  23.821   8.008  1.00  0.00     0.013 A 
ATOM      3  C   UNL     1      -5.223  23.557   9.485  1.00  0.00     0.120 A 
ATOM      4  C   UNL     1      -4.171  23.582   6.919  1.00  0.00     0.021 A 
ATOM      5  N   UNL     1      -6.018  23.327   8.406  1.00  0.00    -0.264 NA
ATOM      6  C   UNL     1      -5.526  23.335   7.140  1.00  0.00     0.111 A 
ENDROOT
BRANCH   1   7
ATOM      7  C   UNL     1      -2.979  24.061  10.482  1.00  0.00     0.073 C 
ATOM      8  O   UNL     1      -3.136  23.410  11.549  1.00  0.00    -0.545 OA
ATOM      9  O   UNL     1      -1.973  25.018  10.417  1.00  0.00    -0.545 OA
ENDBRANCH   1   7
TORSDOF 1
ENDMDL
MODEL 8
REMARK VINA RESULT:    -2.668      2.221      2.849
REMARK INTER + INTRA:          -2.840
REMARK INTER:                  -2.821
REMARK INTRA:                  -0.019
REMARK UNBOUND:                -0.017
REMARK SMILES O=C([O-])c1cccnc1
REMARK SMILES IDX 4 1 5 2 9 3 6 4 8 5 7 6 2 7 1 8 3 9
REMARK H PARENT
REMARK Flexibility Score: inf
ROOT
ATOM      1  C   UNL     1      -8.106  21.416  12.439  1.00  0.00     0.016 A 
ATOM      2  C   UNL     1      -8.777  21.682  11.233  1.00  0.00     0.013 A 
ATOM      3  C   UNL     1      -6.720  21.641  12.495  1.00  0.00     0.120 A 
ATOM      4  C   UNL     1      -8.071  22.159  10.128  1.00  0.00     0.021 A 
ATOM      5  N   UNL     1      -6.055  22.105  11.404  1.00  0.00    -0.264 NA
ATOM      6  C   UNL     1      -6.695  22.366  10.234  1.00  0.00     0.111 A 
ENDROOT
BRANCH   1   7
ATOM      7  C   UNL     1      -8.837  20.910  13.622  1.00  0.00     0.073 C 
ATOM      8  O   UNL     1      -8.636  21.411  14.760  1.00  0.00    -0.545 OA
ATOM      9  O   UNL     1      -9.755  19.875  13.491  1.00  0.00    -0.545 OA
ENDBRANCH   1   7
TORSDOF 1
ENDMDL
MODEL 9
REMARK VINA RESULT:    -2.642      1.336      2.322
REMARK INTER + INTRA:          -2.814
REMARK INTER:                  -2.798
REMARK INTRA:                  -0.016
REMARK UNBOUND:                -0.017
REMARK SMILES O=C([O-])c1cccnc1
REMARK SMILES IDX 4 1 5 2 9 3 6 4 8 5 7 6 2 7 1 8 3 9
REMARK H PARENT
REMARK Flexibility Score: inf
ROOT
ATOM      1  C   UNL     1      -5.315  23.228  10.718  1.00  0.00     0.016 A 
ATOM      2  C   UNL     1      -4.019  23.681  11.015  1.00  0.00     0.013 A 
ATOM      3  C   UNL     1      -5.724  23.210   9.373  1.00  0.00     0.120 A 
ATOM      4  C   UNL     1      -3.170  24.099   9.990  1.00  0.00     0.021 A 
ATOM      5  N   UNL     1      -4.877  23.624   8.393  1.00  0.00    -0.264 NA
ATOM      6  C   UNL     1      -3.622  24.063   8.670  1.00  0.00     0.111 A 
ENDROOT
BRANCH   1   7
ATOM      7  C   UNL     1      -6.230  22.780  11.790  1.00  0.00     0.073 C 
ATOM      8  O   UNL     1      -7.051  23.583  12.308  1.00  0.00    -0.545 OA
ATOM      9  O   UNL     1      -6.196  21.465  12.240  1.00  0.00    -0.545 OA
ENDBRANCH   1   7
TORSDOF 1
ENDMDL
