MODEL 1
REMARK VINA RESULT:    -2.218      0.000      0.000
REMARK INTER + INTRA:          -2.218
REMARK INTER:                  -2.218
REMARK INTRA:                   0.000
REMARK UNBOUND:                 0.000
REMARK SMILES CC(=O)[O-]
REMARK SMILES IDX 1 1 2 2 3 3 4 4
REMARK H PARENT
REMARK Flexibility Score: inf
ROOT
ATOM      1  C   UNL     1      15.380  14.030 163.201  1.00  0.00     0.063 C 
ATOM      2  C   UNL     1      13.926  13.713 163.266  1.00  0.00     0.038 C 
ATOM      3  O   UNL     1      13.441  12.811 162.532  1.00  0.00    -0.550 OA
ATOM      4  O   UNL     1      13.109  14.371 164.177  1.00  0.00    -0.550 OA
ENDROOT
TORSDOF 0
ENDMDL
MODEL 2
REMARK VINA RESULT:    -2.209      0.127      1.622
REMARK INTER + INTRA:          -2.209
REMARK INTER:                  -2.209
REMARK INTRA:                   0.000
REMARK UNBOUND:                 0.000
REMARK SMILES CC(=O)[O-]
REMARK SMILES IDX 1 1 2 2 3 3 4 4
REMARK H PARENT
REMARK Flexibility Score: inf
ROOT
ATOM      1  C   UNL     1      15.383  14.181 163.188  1.00  0.00     0.063 C 
ATOM      2  C   UNL     1      13.942  13.818 163.308  1.00  0.00     0.038 C 
ATOM      3  O   UNL     1      13.186  14.473 164.072  1.00  0.00    -0.550 OA
ATOM      4  O   UNL     1      13.417  12.790 162.535  1.00  0.00    -0.550 OA
ENDROOT
TORSDOF 0
ENDMDL
MODEL 3
REMARK VINA RESULT:    -2.197      1.934      2.310
REMARK INTER + INTRA:          -2.197
REMARK INTER:                  -2.197
REMARK INTRA:                   0.000
REMARK UNBOUND:                 0.000
REMARK SMILES CC(=O)[O-]
REMARK SMILES IDX 1 1 2 2 3 3 4 4
REMARK H PARENT
REMARK Flexibility Score: inf
ROOT
ATOM      1  C   UNL     1      12.612  12.845 162.062  1.00  0.00     0.063 C 
ATOM      2  C   UNL     1      12.512  13.286 163.483  1.00  0.00     0.038 C 
ATOM      3  O   UNL     1      13.350  14.101 163.952  1.00  0.00    -0.550 OA
ATOM      4  O   UNL     1      11.463  12.843 164.278  1.00  0.00    -0.550 OA
ENDROOT
TORSDOF 0
ENDMDL
MODEL 4
REMARK VINA RESULT:    -2.197      1.864      2.441
REMARK INTER + INTRA:          -2.197
REMARK INTER:                  -2.197
REMARK INTRA:                   0.000
REMARK UNBOUND:                 0.000
REMARK SMILES CC(=O)[O-]
REMARK SMILES IDX 1 1 2 2 3 3 4 4
REMARK H PARENT
REMARK Flexibility Score: inf
ROOT
ATOM      1  C   UNL     1      15.063  13.901 163.260  1.00  0.00     0.063 C 
ATOM      2  C   UNL     1      14.360  15.022 162.575  1.00  0.00     0.038 C 
ATOM      3  O   UNL     1      14.222  16.131 163.155  1.00  0.00    -0.550 OA
ATOM      4  O   UNL     1      13.903  14.865 161.272  1.00  0.00    -0.550 OA
ENDROOT
TORSDOF 0
ENDMDL
MODEL 5
REMARK VINA RESULT:    -2.187      1.945      2.217
REMARK INTER + INTRA:          -2.187
REMARK INTER:                  -2.187
REMARK INTRA:                   0.000
REMARK UNBOUND:                 0.000
REMARK SMILES CC(=O)[O-]
REMARK SMILES IDX 1 1 2 2 3 3 4 4
REMARK H PARENT
REMARK Flexibility Score: inf
ROOT
ATOM      1  C   UNL     1      14.255  15.677 162.960  1.00  0.00     0.063 C 
ATOM      2  C   UNL     1      14.933  14.350 162.920  1.00  0.00     0.038 C 
ATOM      3  O   UNL     1      16.190  14.280 162.955  1.00  0.00    -0.550 OA
ATOM      4  O   UNL     1      14.179  13.183 162.901  1.00  0.00    -0.550 OA
ENDROOT
TORSDOF 0
ENDMDL
MODEL 6
REMARK VINA RESULT:    -2.184      2.971      3.734
REMARK INTER + INTRA:          -2.184
REMARK INTER:                  -2.184
REMARK INTRA:                   0.000
REMARK UNBOUND:                 0.000
REMARK SMILES CC(=O)[O-]
REMARK SMILES IDX 1 1 2 2 3 3 4 4
REMARK H PARENT
REMARK Flexibility Score: inf
ROOT
ATOM      1  C   UNL     1      10.445  11.997 161.275  1.00  0.00     0.063 C 
ATOM      2  C   UNL     1      11.381  12.681 162.212  1.00  0.00     0.038 C 
ATOM      3  O   UNL     1      10.938  13.261 163.238  1.00  0.00    -0.550 OA
ATOM      4  O   UNL     1      12.751  12.634 161.986  1.00  0.00    -0.550 OA
ENDROOT
TORSDOF 0
ENDMDL
MODEL 7
REMARK VINA RESULT:    -2.175      2.078      2.590
REMARK INTER + INTRA:          -2.175
REMARK INTER:                  -2.175
REMARK INTRA:                   0.000
REMARK UNBOUND:                 0.000
REMARK SMILES CC(=O)[O-]
REMARK SMILES IDX 1 1 2 2 3 3 4 4
REMARK H PARENT
REMARK Flexibility Score: inf
ROOT
ATOM      1  C   UNL     1      13.983  13.496 162.937  1.00  0.00     0.063 C 
ATOM      2  C   UNL     1      14.931  14.644 162.859  1.00  0.00     0.038 C 
ATOM      3  O   UNL     1      14.499  15.825 162.918  1.00  0.00    -0.550 OA
ATOM      4  O   UNL     1      16.298  14.414 162.778  1.00  0.00    -0.550 OA
ENDROOT
TORSDOF 0
ENDMDL
MODEL 8
REMARK VINA RESULT:    -2.123      1.925      2.237
REMARK INTER + INTRA:          -2.123
REMARK INTER:                  -2.123
REMARK INTRA:                   0.000
REMARK UNBOUND:                 0.000
REMARK SMILES CC(=O)[O-]
REMARK SMILES IDX 1 1 2 2 3 3 4 4
REMARK H PARENT
REMARK Flexibility Score: inf
ROOT
ATOM      1  C   UNL     1      14.240  15.386 162.862  1.00  0.00     0.063 C 
ATOM      2  C   UNL     1      13.599  14.551 161.807  1.00  0.00     0.038 C 
ATOM      3  O   UNL     1      13.511  14.980 160.627  1.00  0.00    -0.550 OA
ATOM      4  O   UNL     1      13.147  13.273 162.111  1.00  0.00    -0.550 OA
ENDROOT
TORSDOF 0
ENDMDL
MODEL 9
REMARK VINA RESULT:    -2.118      2.582      2.862
REMARK INTER + INTRA:          -2.118
REMARK INTER:                  -2.118
REMARK INTRA:                   0.000
REMARK UNBOUND:                 0.000
REMARK SMILES CC(=O)[O-]
REMARK SMILES IDX 1 1 2 2 3 3 4 4
REMARK H PARENT
REMARK Flexibility Score: inf
ROOT
ATOM      1  C   UNL     1      13.183  13.125 162.494  1.00  0.00     0.063 C 
ATOM      2  C   UNL     1      12.553  13.880 161.374  1.00  0.00     0.038 C 
ATOM      3  O   UNL     1      13.224  14.728 160.727  1.00  0.00    -0.550 OA
ATOM      4  O   UNL     1      11.242  13.612 161.003  1.00  0.00    -0.550 OA
ENDROOT
TORSDOF 0
ENDMDL
