MODEL 1
REMARK VINA RESULT:    -5.055      0.000      0.000
REMARK INTER + INTRA:          -5.524
REMARK INTER:                  -5.498
REMARK INTRA:                  -0.026
REMARK UNBOUND:                -0.026
REMARK SMILES COc1ccccc1O
REMARK SMILES IDX 3 1 4 2 5 3 6 4 7 5 8 6 2 7 1 8 9 9
REMARK H PARENT 9 10
REMARK Flexibility Score: inf
ROOT
ATOM      1  C   UNL     1       9.446   5.444  79.628  1.00  0.00     0.160 A 
ATOM      2  C   UNL     1      10.041   6.654  79.217  1.00  0.00     0.050 A 
ATOM      3  C   UNL     1       9.286   7.830  79.160  1.00  0.00     0.004 A 
ATOM      4  C   UNL     1       7.935   7.811  79.511  1.00  0.00     0.004 A 
ATOM      5  C   UNL     1       7.335   6.620  79.920  1.00  0.00     0.050 A 
ATOM      6  C   UNL     1       8.081   5.436  79.980  1.00  0.00     0.157 A 
ENDROOT
BRANCH   1   7
ATOM      7  O   UNL     1      10.171   4.245  79.698  1.00  0.00    -0.493 OA
ATOM      8  C   UNL     1      11.593   4.161  79.714  1.00  0.00     0.278 C 
ENDBRANCH   1   7
BRANCH   6   9
ATOM      9  O   UNL     1       7.450   4.263  80.393  1.00  0.00    -0.504 OA
ATOM     10  H   UNL     1       7.898   3.599  81.014  1.00  0.00     0.293 HD
ENDBRANCH   6   9
TORSDOF 2
ENDMDL
MODEL 2
REMARK VINA RESULT:    -5.036      1.869      3.620
REMARK INTER + INTRA:          -5.503
REMARK INTER:                  -5.477
REMARK INTRA:                  -0.026
REMARK UNBOUND:                -0.026
REMARK SMILES COc1ccccc1O
REMARK SMILES IDX 3 1 4 2 5 3 6 4 7 5 8 6 2 7 1 8 9 9
REMARK H PARENT 9 10
REMARK Flexibility Score: inf
ROOT
ATOM      1  C   UNL     1       7.499   7.659  80.357  1.00  0.00     0.160 A 
ATOM      2  C   UNL     1       8.375   8.754  80.215  1.00  0.00     0.050 A 
ATOM      3  C   UNL     1       9.617   8.590  79.593  1.00  0.00     0.004 A 
ATOM      4  C   UNL     1       9.996   7.337  79.108  1.00  0.00     0.004 A 
ATOM      5  C   UNL     1       9.136   6.246  79.242  1.00  0.00     0.050 A 
ATOM      6  C   UNL     1       7.891   6.399  79.864  1.00  0.00     0.157 A 
ENDROOT
BRANCH   1   7
ATOM      7  O   UNL     1       6.245   7.786  80.975  1.00  0.00    -0.493 OA
ATOM      8  C   UNL     1       5.877   8.853  81.844  1.00  0.00     0.278 C 
ENDBRANCH   1   7
BRANCH   6   9
ATOM      9  O   UNL     1       7.056   5.288  79.981  1.00  0.00    -0.504 OA
ATOM     10  H   UNL     1       7.324   4.372  79.638  1.00  0.00     0.293 HD
ENDBRANCH   6   9
TORSDOF 2
ENDMDL
MODEL 3
REMARK VINA RESULT:    -4.841      1.676      2.730
REMARK INTER + INTRA:          -5.292
REMARK INTER:                  -5.255
REMARK INTRA:                  -0.037
REMARK UNBOUND:                -0.026
REMARK SMILES COc1ccccc1O
REMARK SMILES IDX 3 1 4 2 5 3 6 4 7 5 8 6 2 7 1 8 9 9
REMARK H PARENT 9 10
REMARK Flexibility Score: inf
ROOT
ATOM      1  C   UNL     1       8.412   6.548  79.585  1.00  0.00     0.160 A 
ATOM      2  C   UNL     1       7.142   6.676  80.184  1.00  0.00     0.050 A 
ATOM      3  C   UNL     1       6.692   7.923  80.627  1.00  0.00     0.004 A 
ATOM      4  C   UNL     1       7.499   9.052  80.477  1.00  0.00     0.004 A 
ATOM      5  C   UNL     1       8.758   8.938  79.885  1.00  0.00     0.050 A 
ATOM      6  C   UNL     1       9.219   7.693  79.439  1.00  0.00     0.157 A 
ENDROOT
BRANCH   1   7
ATOM      7  O   UNL     1       8.897   5.313  79.128  1.00  0.00    -0.493 OA
ATOM      8  C   UNL     1       9.636   4.392  79.924  1.00  0.00     0.278 C 
ENDBRANCH   1   7
BRANCH   6   9
ATOM      9  O   UNL     1      10.482   7.615  78.851  1.00  0.00    -0.504 OA
ATOM     10  H   UNL     1      10.618   7.705  77.851  1.00  0.00     0.293 HD
ENDBRANCH   6   9
TORSDOF 2
ENDMDL
MODEL 4
REMARK VINA RESULT:    -4.739      2.570      4.376
REMARK INTER + INTRA:          -5.180
REMARK INTER:                  -5.147
REMARK INTRA:                  -0.033
REMARK UNBOUND:                -0.026
REMARK SMILES COc1ccccc1O
REMARK SMILES IDX 3 1 4 2 5 3 6 4 7 5 8 6 2 7 1 8 9 9
REMARK H PARENT 9 10
REMARK Flexibility Score: inf
ROOT
ATOM      1  C   UNL     1       7.675   7.992  79.666  1.00  0.00     0.160 A 
ATOM      2  C   UNL     1       6.945   6.824  79.962  1.00  0.00     0.050 A 
ATOM      3  C   UNL     1       7.544   5.566  79.841  1.00  0.00     0.004 A 
ATOM      4  C   UNL     1       8.872   5.461  79.425  1.00  0.00     0.004 A 
ATOM      5  C   UNL     1       9.605   6.611  79.130  1.00  0.00     0.050 A 
ATOM      6  C   UNL     1       9.015   7.876  79.247  1.00  0.00     0.157 A 
ENDROOT
BRANCH   1   7
ATOM      7  O   UNL     1       7.108   9.271  79.776  1.00  0.00    -0.493 OA
ATOM      8  C   UNL     1       6.377   9.736  80.907  1.00  0.00     0.278 C 
ENDBRANCH   1   7
BRANCH   6   9
ATOM      9  O   UNL     1       9.777   9.005  78.944  1.00  0.00    -0.504 OA
ATOM     10  H   UNL     1      10.396   9.039  78.143  1.00  0.00     0.293 HD
ENDBRANCH   6   9
TORSDOF 2
ENDMDL
MODEL 5
REMARK VINA RESULT:    -4.717      2.320      3.830
REMARK INTER + INTRA:          -5.157
REMARK INTER:                  -5.117
REMARK INTRA:                  -0.039
REMARK UNBOUND:                -0.026
REMARK SMILES COc1ccccc1O
REMARK SMILES IDX 3 1 4 2 5 3 6 4 7 5 8 6 2 7 1 8 9 9
REMARK H PARENT 9 10
REMARK Flexibility Score: inf
ROOT
ATOM      1  C   UNL     1       8.002   8.310  79.983  1.00  0.00     0.160 A 
ATOM      2  C   UNL     1       9.286   8.248  79.404  1.00  0.00     0.050 A 
ATOM      3  C   UNL     1       9.841   7.016  79.045  1.00  0.00     0.004 A 
ATOM      4  C   UNL     1       9.125   5.837  79.258  1.00  0.00     0.004 A 
ATOM      5  C   UNL     1       7.853   5.886  79.830  1.00  0.00     0.050 A 
ATOM      6  C   UNL     1       7.288   7.114  80.195  1.00  0.00     0.157 A 
ENDROOT
BRANCH   1   7
ATOM      7  O   UNL     1       7.413   9.527  80.356  1.00  0.00    -0.493 OA
ATOM      8  C   UNL     1       7.112  10.589  79.455  1.00  0.00     0.278 C 
ENDBRANCH   1   7
BRANCH   6   9
ATOM      9  O   UNL     1       6.014   7.127  80.764  1.00  0.00    -0.504 OA
ATOM     10  H   UNL     1       5.699   7.880  81.364  1.00  0.00     0.293 HD
ENDBRANCH   6   9
TORSDOF 2
ENDMDL
MODEL 6
REMARK VINA RESULT:    -4.635      2.467      3.967
REMARK INTER + INTRA:          -5.068
REMARK INTER:                  -5.027
REMARK INTRA:                  -0.040
REMARK UNBOUND:                -0.026
REMARK SMILES COc1ccccc1O
REMARK SMILES IDX 3 1 4 2 5 3 6 4 7 5 8 6 2 7 1 8 9 9
REMARK H PARENT 9 10
REMARK Flexibility Score: inf
ROOT
ATOM      1  C   UNL     1       8.943   8.488  80.014  1.00  0.00     0.160 A 
ATOM      2  C   UNL     1       7.614   8.447  80.483  1.00  0.00     0.050 A 
ATOM      3  C   UNL     1       6.855   7.280  80.357  1.00  0.00     0.004 A 
ATOM      4  C   UNL     1       7.411   6.145  79.765  1.00  0.00     0.004 A 
ATOM      5  C   UNL     1       8.725   6.173  79.296  1.00  0.00     0.050 A 
ATOM      6  C   UNL     1       9.494   7.337  79.416  1.00  0.00     0.157 A 
ENDROOT
BRANCH   1   7
ATOM      7  O   UNL     1       9.734   9.641  80.123  1.00  0.00    -0.493 OA
ATOM      8  C   UNL     1       9.451  10.879  79.478  1.00  0.00     0.278 C 
ENDBRANCH   1   7
BRANCH   6   9
ATOM      9  O   UNL     1      10.804   7.331  78.938  1.00  0.00    -0.504 OA
ATOM     10  H   UNL     1      11.426   8.123  79.055  1.00  0.00     0.293 HD
ENDBRANCH   6   9
TORSDOF 2
ENDMDL
MODEL 7
REMARK VINA RESULT:    -4.247      1.769      2.386
REMARK INTER + INTRA:          -4.645
REMARK INTER:                  -4.687
REMARK INTRA:                   0.042
REMARK UNBOUND:                -0.026
REMARK SMILES COc1ccccc1O
REMARK SMILES IDX 3 1 4 2 5 3 6 4 7 5 8 6 2 7 1 8 9 9
REMARK H PARENT 9 10
REMARK Flexibility Score: inf
ROOT
ATOM      1  C   UNL     1       9.139   7.689  79.598  1.00  0.00     0.160 A 
ATOM      2  C   UNL     1       8.654   8.799  80.319  1.00  0.00     0.050 A 
ATOM      3  C   UNL     1       7.357   8.789  80.843  1.00  0.00     0.004 A 
ATOM      4  C   UNL     1       6.535   7.677  80.654  1.00  0.00     0.004 A 
ATOM      5  C   UNL     1       7.004   6.573  79.942  1.00  0.00     0.050 A 
ATOM      6  C   UNL     1       8.301   6.572  79.412  1.00  0.00     0.157 A 
ENDROOT
BRANCH   1   7
ATOM      7  O   UNL     1      10.434   7.662  79.058  1.00  0.00    -0.493 OA
ATOM      8  C   UNL     1      11.529   6.946  79.620  1.00  0.00     0.278 C 
ENDBRANCH   1   7
BRANCH   6   9
ATOM      9  O   UNL     1       8.739   5.451  78.706  1.00  0.00    -0.504 OA
ATOM     10  H   UNL     1       9.661   5.404  78.288  1.00  0.00     0.293 HD
ENDBRANCH   6   9
TORSDOF 2
ENDMDL
MODEL 8
REMARK VINA RESULT:    -4.162      9.393     11.039
REMARK INTER + INTRA:          -4.552
REMARK INTER:                  -4.507
REMARK INTRA:                  -0.045
REMARK UNBOUND:                -0.026
REMARK SMILES COc1ccccc1O
REMARK SMILES IDX 3 1 4 2 5 3 6 4 7 5 8 6 2 7 1 8 9 9
REMARK H PARENT 9 10
REMARK Flexibility Score: inf
ROOT
ATOM      1  C   UNL     1       1.451   4.566  87.070  1.00  0.00     0.160 A 
ATOM      2  C   UNL     1       1.083   3.769  88.174  1.00  0.00     0.050 A 
ATOM      3  C   UNL     1       1.839   2.643  88.516  1.00  0.00     0.004 A 
ATOM      4  C   UNL     1       2.966   2.303  87.765  1.00  0.00     0.004 A 
ATOM      5  C   UNL     1       3.340   3.085  86.671  1.00  0.00     0.050 A 
ATOM      6  C   UNL     1       2.589   4.213  86.319  1.00  0.00     0.157 A 
ENDROOT
BRANCH   1   7
ATOM      7  O   UNL     1       0.716   5.701  86.697  1.00  0.00    -0.493 OA
ATOM      8  C   UNL     1       0.730   6.940  87.401  1.00  0.00     0.278 C 
ENDBRANCH   1   7
BRANCH   6   9
ATOM      9  O   UNL     1       2.991   4.973  85.220  1.00  0.00    -0.504 OA
ATOM     10  H   UNL     1       3.960   5.035  84.932  1.00  0.00     0.293 HD
ENDBRANCH   6   9
TORSDOF 2
ENDMDL
MODEL 9
REMARK VINA RESULT:    -3.941      8.762     10.259
REMARK INTER + INTRA:          -4.312
REMARK INTER:                  -4.281
REMARK INTRA:                  -0.032
REMARK UNBOUND:                -0.026
REMARK SMILES COc1ccccc1O
REMARK SMILES IDX 3 1 4 2 5 3 6 4 7 5 8 6 2 7 1 8 9 9
REMARK H PARENT 9 10
REMARK Flexibility Score: inf
ROOT
ATOM      1  C   UNL     1       1.532   5.000  86.846  1.00  0.00     0.160 A 
ATOM      2  C   UNL     1       0.871   6.208  87.151  1.00  0.00     0.050 A 
ATOM      3  C   UNL     1       1.263   7.402  86.537  1.00  0.00     0.004 A 
ATOM      4  C   UNL     1       2.312   7.404  85.617  1.00  0.00     0.004 A 
ATOM      5  C   UNL     1       2.974   6.215  85.308  1.00  0.00     0.050 A 
ATOM      6  C   UNL     1       2.591   5.014  85.917  1.00  0.00     0.157 A 
ENDROOT
BRANCH   1   7
ATOM      7  O   UNL     1       1.168   3.783  87.442  1.00  0.00    -0.493 OA
ATOM      8  C   UNL     1       0.922   3.606  88.834  1.00  0.00     0.278 C 
ENDBRANCH   1   7
BRANCH   6   9
ATOM      9  O   UNL     1       3.273   3.843  85.584  1.00  0.00    -0.504 OA
ATOM     10  H   UNL     1       3.076   2.957  86.035  1.00  0.00     0.293 HD
ENDBRANCH   6   9
TORSDOF 2
ENDMDL
