MODEL 1
REMARK VINA RESULT:    -4.345      0.000      0.000
REMARK INTER + INTRA:          -6.302
REMARK INTER:                  -5.869
REMARK INTRA:                  -0.433
REMARK UNBOUND:                -0.433
REMARK SMILES CCCCCCCC(=O)[O-]
REMARK SMILES IDX 5 1 6 2 7 3 8 4 9 5 10 6 4 7 3 8 2 9 1 10
REMARK H PARENT
REMARK Flexibility Score: inf
ROOT
ATOM      1  C   UNL     1       4.994 -33.904  22.875  1.00  0.00     0.000 C 
ENDROOT
BRANCH   1   2
ATOM      2  C   UNL     1       5.969 -35.086  22.991  1.00  0.00     0.006 C 
BRANCH   2   3
ATOM      3  C   UNL     1       5.958 -35.721  24.388  1.00  0.00     0.053 C 
BRANCH   3   4
ATOM      4  C   UNL     1       4.959 -36.834  24.448  1.00  0.00     0.041 C 
ATOM      5  O   UNL     1       4.663 -37.476  23.407  1.00  0.00    -0.550 OA
ATOM      6  O   UNL     1       4.394 -37.195  25.664  1.00  0.00    -0.550 OA
ENDBRANCH   3   4
ENDBRANCH   2   3
ENDBRANCH   1   2
BRANCH   1   7
ATOM      7  C   UNL     1       4.246 -33.885  21.531  1.00  0.00     0.000 C 
BRANCH   7   8
ATOM      8  C   UNL     1       5.031 -34.612  20.417  1.00  0.00    -0.000 C 
BRANCH   8   9
ATOM      9  C   UNL     1       4.236 -35.744  19.744  1.00  0.00    -0.003 C 
ATOM     10  C   UNL     1       4.903 -37.110  19.885  1.00  0.00     0.004 C 
ENDBRANCH   8   9
ENDBRANCH   7   8
ENDBRANCH   1   7
TORSDOF 6
ENDMDL
MODEL 2
REMARK VINA RESULT:    -4.277      3.151      5.061
REMARK INTER + INTRA:          -6.210
REMARK INTER:                  -5.867
REMARK INTRA:                  -0.343
REMARK UNBOUND:                -0.433
REMARK SMILES CCCCCCCC(=O)[O-]
REMARK SMILES IDX 5 1 6 2 7 3 8 4 9 5 10 6 4 7 3 8 2 9 1 10
REMARK H PARENT
REMARK Flexibility Score: inf
ROOT
ATOM      1  C   UNL     1       4.893 -37.052  21.332  1.00  0.00     0.000 C 
ENDROOT
BRANCH   1   2
ATOM      2  C   UNL     1       4.696 -37.517  19.881  1.00  0.00     0.006 C 
BRANCH   2   3
ATOM      3  C   UNL     1       3.823 -36.552  19.067  1.00  0.00     0.053 C 
BRANCH   3   4
ATOM      4  C   UNL     1       2.833 -37.312  18.243  1.00  0.00     0.041 C 
ATOM      5  O   UNL     1       1.820 -37.828  18.784  1.00  0.00    -0.550 OA
ATOM      6  O   UNL     1       3.002 -37.408  16.868  1.00  0.00    -0.550 OA
ENDBRANCH   3   4
ENDBRANCH   2   3
ENDBRANCH   1   2
BRANCH   1   7
ATOM      7  C   UNL     1       5.633 -35.706  21.426  1.00  0.00     0.000 C 
BRANCH   7   8
ATOM      8  C   UNL     1       5.339 -34.971  22.751  1.00  0.00    -0.000 C 
BRANCH   8   9
ATOM      9  C   UNL     1       4.758 -33.561  22.556  1.00  0.00    -0.003 C 
ATOM     10  C   UNL     1       3.687 -33.498  21.470  1.00  0.00     0.004 C 
ENDBRANCH   8   9
ENDBRANCH   7   8
ENDBRANCH   1   7
TORSDOF 6
ENDMDL
MODEL 3
REMARK VINA RESULT:    -4.271      2.086      3.974
REMARK INTER + INTRA:          -6.202
REMARK INTER:                  -5.746
REMARK INTRA:                  -0.456
REMARK UNBOUND:                -0.433
REMARK SMILES CCCCCCCC(=O)[O-]
REMARK SMILES IDX 5 1 6 2 7 3 8 4 9 5 10 6 4 7 3 8 2 9 1 10
REMARK H PARENT
REMARK Flexibility Score: inf
ROOT
ATOM      1  C   UNL     1       4.239 -34.071  21.960  1.00  0.00     0.000 C 
ENDROOT
BRANCH   1   2
ATOM      2  C   UNL     1       4.651 -33.954  20.484  1.00  0.00     0.006 C 
BRANCH   2   3
ATOM      3  C   UNL     1       5.555 -35.108  20.033  1.00  0.00     0.053 C 
BRANCH   3   4
ATOM      4  C   UNL     1       4.751 -36.354  19.831  1.00  0.00     0.041 C 
ATOM      5  O   UNL     1       3.687 -36.319  19.159  1.00  0.00    -0.550 OA
ATOM      6  O   UNL     1       5.203 -37.563  20.342  1.00  0.00    -0.550 OA
ENDBRANCH   3   4
ENDBRANCH   2   3
ENDBRANCH   1   2
BRANCH   1   7
ATOM      7  C   UNL     1       5.328 -33.559  22.920  1.00  0.00     0.000 C 
BRANCH   7   8
ATOM      8  C   UNL     1       5.850 -34.671  23.854  1.00  0.00    -0.000 C 
BRANCH   8   9
ATOM      9  C   UNL     1       5.199 -36.042  23.602  1.00  0.00    -0.003 C 
ATOM     10  C   UNL     1       4.935 -36.826  24.885  1.00  0.00     0.004 C 
ENDBRANCH   8   9
ENDBRANCH   7   8
ENDBRANCH   1   7
TORSDOF 6
ENDMDL
MODEL 4
REMARK VINA RESULT:    -4.243      2.811      4.483
REMARK INTER + INTRA:          -6.164
REMARK INTER:                  -5.741
REMARK INTRA:                  -0.423
REMARK UNBOUND:                -0.433
REMARK SMILES CCCCCCCC(=O)[O-]
REMARK SMILES IDX 5 1 6 2 7 3 8 4 9 5 10 6 4 7 3 8 2 9 1 10
REMARK H PARENT
REMARK Flexibility Score: inf
ROOT
ATOM      1  C   UNL     1       4.990 -33.974  22.882  1.00  0.00     0.000 C 
ENDROOT
BRANCH   1   2
ATOM      2  C   UNL     1       4.383 -34.101  21.476  1.00  0.00     0.006 C 
BRANCH   2   3
ATOM      3  C   UNL     1       5.135 -35.113  20.600  1.00  0.00     0.053 C 
BRANCH   3   4
ATOM      4  C   UNL     1       4.595 -35.099  19.205  1.00  0.00     0.041 C 
ATOM      5  O   UNL     1       4.945 -34.198  18.399  1.00  0.00    -0.550 OA
ATOM      6  O   UNL     1       3.745 -36.111  18.779  1.00  0.00    -0.550 OA
ENDBRANCH   3   4
ENDBRANCH   2   3
ENDBRANCH   1   2
BRANCH   1   7
ATOM      7  C   UNL     1       6.080 -35.026  23.152  1.00  0.00     0.000 C 
BRANCH   7   8
ATOM      8  C   UNL     1       5.951 -35.648  24.559  1.00  0.00    -0.000 C 
BRANCH   8   9
ATOM      9  C   UNL     1       4.944 -36.808  24.629  1.00  0.00    -0.003 C 
ATOM     10  C   UNL     1       4.916 -37.655  23.359  1.00  0.00     0.004 C 
ENDBRANCH   8   9
ENDBRANCH   7   8
ENDBRANCH   1   7
TORSDOF 6
ENDMDL
MODEL 5
REMARK VINA RESULT:    -4.234      2.816      3.901
REMARK INTER + INTRA:          -6.152
REMARK INTER:                  -5.948
REMARK INTRA:                  -0.203
REMARK UNBOUND:                -0.433
REMARK SMILES CCCCCCCC(=O)[O-]
REMARK SMILES IDX 5 1 6 2 7 3 8 4 9 5 10 6 4 7 3 8 2 9 1 10
REMARK H PARENT
REMARK Flexibility Score: inf
ROOT
ATOM      1  C   UNL     1       4.821 -37.089  20.161  1.00  0.00     0.000 C 
ENDROOT
BRANCH   1   2
ATOM      2  C   UNL     1       5.002 -36.361  21.502  1.00  0.00     0.006 C 
BRANCH   2   3
ATOM      3  C   UNL     1       5.615 -34.964  21.334  1.00  0.00     0.053 C 
BRANCH   3   4
ATOM      4  C   UNL     1       4.803 -33.945  22.068  1.00  0.00     0.041 C 
ATOM      5  O   UNL     1       5.254 -33.408  23.113  1.00  0.00    -0.550 OA
ATOM      6  O   UNL     1       3.568 -33.550  21.570  1.00  0.00    -0.550 OA
ENDBRANCH   3   4
ENDBRANCH   2   3
ENDBRANCH   1   2
BRANCH   1   7
ATOM      7  C   UNL     1       3.993 -36.274  19.152  1.00  0.00     0.000 C 
BRANCH   7   8
ATOM      8  C   UNL     1       3.147 -37.177  18.229  1.00  0.00    -0.000 C 
BRANCH   8   9
ATOM      9  C   UNL     1       2.713 -36.487  16.925  1.00  0.00    -0.003 C 
ATOM     10  C   UNL     1       3.122 -37.258  15.673  1.00  0.00     0.004 C 
ENDBRANCH   8   9
ENDBRANCH   7   8
ENDBRANCH   1   7
TORSDOF 6
ENDMDL
MODEL 6
REMARK VINA RESULT:    -4.180      4.333      6.019
REMARK INTER + INTRA:          -6.078
REMARK INTER:                  -5.786
REMARK INTRA:                  -0.292
REMARK UNBOUND:                -0.433
REMARK SMILES CCCCCCCC(=O)[O-]
REMARK SMILES IDX 5 1 6 2 7 3 8 4 9 5 10 6 4 7 3 8 2 9 1 10
REMARK H PARENT
REMARK Flexibility Score: inf
ROOT
ATOM      1  C   UNL     1       4.493 -37.493  19.706  1.00  0.00     0.000 C 
ENDROOT
BRANCH   1   2
ATOM      2  C   UNL     1       3.653 -36.559  18.821  1.00  0.00     0.006 C 
BRANCH   2   3
ATOM      3  C   UNL     1       2.551 -37.305  18.057  1.00  0.00     0.053 C 
BRANCH   3   4
ATOM      4  C   UNL     1       2.594 -36.955  16.603  1.00  0.00     0.041 C 
ATOM      5  O   UNL     1       3.244 -37.671  15.798  1.00  0.00    -0.550 OA
ATOM      6  O   UNL     1       1.873 -35.867  16.130  1.00  0.00    -0.550 OA
ENDBRANCH   3   4
ENDBRANCH   2   3
ENDBRANCH   1   2
BRANCH   1   7
ATOM      7  C   UNL     1       4.976 -36.808  20.996  1.00  0.00     0.000 C 
BRANCH   7   8
ATOM      8  C   UNL     1       5.317 -35.319  20.772  1.00  0.00    -0.000 C 
BRANCH   8   9
ATOM      9  C   UNL     1       4.807 -34.396  21.891  1.00  0.00    -0.003 C 
ATOM     10  C   UNL     1       3.663 -33.489  21.446  1.00  0.00     0.004 C 
ENDBRANCH   8   9
ENDBRANCH   7   8
ENDBRANCH   1   7
TORSDOF 6
ENDMDL
MODEL 7
REMARK VINA RESULT:    -4.094      1.800      2.534
REMARK INTER + INTRA:          -5.963
REMARK INTER:                  -5.555
REMARK INTRA:                  -0.408
REMARK UNBOUND:                -0.433
REMARK SMILES CCCCCCCC(=O)[O-]
REMARK SMILES IDX 5 1 6 2 7 3 8 4 9 5 10 6 4 7 3 8 2 9 1 10
REMARK H PARENT
REMARK Flexibility Score: inf
ROOT
ATOM      1  C   UNL     1       6.042 -35.413  23.801  1.00  0.00     0.000 C 
ENDROOT
BRANCH   1   2
ATOM      2  C   UNL     1       4.749 -36.240  23.880  1.00  0.00     0.006 C 
BRANCH   2   3
ATOM      3  C   UNL     1       5.020 -37.747  23.973  1.00  0.00     0.053 C 
BRANCH   3   4
ATOM      4  C   UNL     1       4.861 -38.390  22.631  1.00  0.00     0.041 C 
ATOM      5  O   UNL     1       4.604 -37.689  21.619  1.00  0.00    -0.550 OA
ATOM      6  O   UNL     1       5.048 -39.759  22.491  1.00  0.00    -0.550 OA
ENDBRANCH   3   4
ENDBRANCH   2   3
ENDBRANCH   1   2
BRANCH   1   7
ATOM      7  C   UNL     1       6.071 -34.477  22.580  1.00  0.00     0.000 C 
BRANCH   7   8
ATOM      8  C   UNL     1       4.864 -33.515  22.555  1.00  0.00    -0.000 C 
BRANCH   8   9
ATOM      9  C   UNL     1       3.979 -33.671  21.307  1.00  0.00    -0.003 C 
ATOM     10  C   UNL     1       4.698 -34.346  20.143  1.00  0.00     0.004 C 
ENDBRANCH   8   9
ENDBRANCH   7   8
ENDBRANCH   1   7
TORSDOF 6
ENDMDL
MODEL 8
REMARK VINA RESULT:    -4.022      3.584      5.162
REMARK INTER + INTRA:          -5.865
REMARK INTER:                  -5.536
REMARK INTRA:                  -0.329
REMARK UNBOUND:                -0.433
REMARK SMILES CCCCCCCC(=O)[O-]
REMARK SMILES IDX 5 1 6 2 7 3 8 4 9 5 10 6 4 7 3 8 2 9 1 10
REMARK H PARENT
REMARK Flexibility Score: inf
ROOT
ATOM      1  C   UNL     1       2.829 -37.072  19.217  1.00  0.00     0.000 C 
ENDROOT
BRANCH   1   2
ATOM      2  C   UNL     1       4.356 -37.234  19.283  1.00  0.00     0.006 C 
BRANCH   2   3
ATOM      3  C   UNL     1       4.999 -36.327  20.341  1.00  0.00     0.053 C 
BRANCH   3   4
ATOM      4  C   UNL     1       4.607 -34.901  20.114  1.00  0.00     0.041 C 
ATOM      5  O   UNL     1       3.958 -34.275  20.992  1.00  0.00    -0.550 OA
ATOM      6  O   UNL     1       5.002 -34.248  18.954  1.00  0.00    -0.550 OA
ENDBRANCH   3   4
ENDBRANCH   2   3
ENDBRANCH   1   2
BRANCH   1   7
ATOM      7  C   UNL     1       2.277 -37.250  17.792  1.00  0.00     0.000 C 
BRANCH   7   8
ATOM      8  C   UNL     1       3.089 -36.451  16.750  1.00  0.00    -0.000 C 
BRANCH   8   9
ATOM      9  C   UNL     1       2.489 -36.500  15.334  1.00  0.00    -0.003 C 
ATOM     10  C   UNL     1       3.501 -36.914  14.269  1.00  0.00     0.004 C 
ENDBRANCH   8   9
ENDBRANCH   7   8
ENDBRANCH   1   7
TORSDOF 6
ENDMDL
MODEL 9
REMARK VINA RESULT:    -3.997      3.044      4.966
REMARK INTER + INTRA:          -5.832
REMARK INTER:                  -5.583
REMARK INTRA:                  -0.249
REMARK UNBOUND:                -0.433
REMARK SMILES CCCCCCCC(=O)[O-]
REMARK SMILES IDX 5 1 6 2 7 3 8 4 9 5 10 6 4 7 3 8 2 9 1 10
REMARK H PARENT
REMARK Flexibility Score: inf
ROOT
ATOM      1  C   UNL     1       4.481 -34.943  20.820  1.00  0.00     0.000 C 
ENDROOT
BRANCH   1   2
ATOM      2  C   UNL     1       4.625 -35.708  19.496  1.00  0.00     0.006 C 
BRANCH   2   3
ATOM      3  C   UNL     1       3.988 -37.103  19.550  1.00  0.00     0.053 C 
BRANCH   3   4
ATOM      4  C   UNL     1       2.946 -37.244  18.486  1.00  0.00     0.041 C 
ATOM      5  O   UNL     1       1.848 -37.802  18.745  1.00  0.00    -0.550 OA
ATOM      6  O   UNL     1       3.167 -36.712  17.223  1.00  0.00    -0.550 OA
ENDBRANCH   3   4
ENDBRANCH   2   3
ENDBRANCH   1   2
BRANCH   1   7
ATOM      7  C   UNL     1       5.745 -35.030  21.693  1.00  0.00     0.000 C 
BRANCH   7   8
ATOM      8  C   UNL     1       5.407 -35.216  23.189  1.00  0.00    -0.000 C 
BRANCH   8   9
ATOM      9  C   UNL     1       5.084 -36.670  23.570  1.00  0.00    -0.003 C 
ATOM     10  C   UNL     1       4.823 -36.854  25.063  1.00  0.00     0.004 C 
ENDBRANCH   8   9
ENDBRANCH   7   8
ENDBRANCH   1   7
TORSDOF 6
ENDMDL
