MODEL 1
REMARK VINA RESULT:    -3.968      0.000      0.000
REMARK INTER + INTRA:          -4.538
REMARK INTER:                  -4.432
REMARK INTRA:                  -0.106
REMARK UNBOUND:                -0.106
REMARK SMILES CCc1ccc(O)cc1O
REMARK SMILES IDX 3 1 9 2 8 3 6 4 5 5 4 6 2 7 1 8 10 9 7 11
REMARK H PARENT 10 10 7 12
REMARK Flexibility Score: inf
ROOT
ATOM      1  C   UNL     1     160.397 175.617 152.207  1.00  0.00    -0.006 A 
ATOM      2  C   UNL     1     160.701 175.981 153.543  1.00  0.00     0.122 A 
ATOM      3  C   UNL     1     161.790 176.821 153.802  1.00  0.00     0.092 A 
ATOM      4  C   UNL     1     162.593 177.292 152.760  1.00  0.00     0.119 A 
ATOM      5  C   UNL     1     162.307 176.920 151.442  1.00  0.00     0.047 A 
ATOM      6  C   UNL     1     161.222 176.086 151.169  1.00  0.00     0.011 A 
ENDROOT
BRANCH   1   7
ATOM      7  C   UNL     1     159.242 174.706 151.863  1.00  0.00     0.036 C 
ATOM      8  C   UNL     1     159.701 173.252 151.779  1.00  0.00     0.009 C 
ENDBRANCH   1   7
BRANCH   2   9
ATOM      9  O   UNL     1     159.952 175.528 154.631  1.00  0.00    -0.508 OA
ATOM     10  H   UNL     1     160.327 174.939 155.363  1.00  0.00     0.293 HD
ENDBRANCH   2   9
BRANCH   4  11
ATOM     11  O   UNL     1     163.672 178.125 153.045  1.00  0.00    -0.508 OA
ATOM     12  H   UNL     1     163.541 179.040 153.460  1.00  0.00     0.293 HD
ENDBRANCH   4  11
TORSDOF 3
ENDMDL
MODEL 2
REMARK VINA RESULT:    -3.966      1.818      3.438
REMARK INTER + INTRA:          -4.536
REMARK INTER:                  -4.452
REMARK INTRA:                  -0.084
REMARK UNBOUND:                -0.106
REMARK SMILES CCc1ccc(O)cc1O
REMARK SMILES IDX 3 1 9 2 8 3 6 4 5 5 4 6 2 7 1 8 10 9 7 11
REMARK H PARENT 10 10 7 12
REMARK Flexibility Score: inf
ROOT
ATOM      1  C   UNL     1     160.213 176.811 152.318  1.00  0.00    -0.006 A 
ATOM      2  C   UNL     1     160.564 176.810 153.692  1.00  0.00     0.122 A 
ATOM      3  C   UNL     1     160.569 175.604 154.403  1.00  0.00     0.092 A 
ATOM      4  C   UNL     1     160.217 174.404 153.780  1.00  0.00     0.119 A 
ATOM      5  C   UNL     1     159.853 174.405 152.430  1.00  0.00     0.047 A 
ATOM      6  C   UNL     1     159.847 175.599 151.706  1.00  0.00     0.011 A 
ENDROOT
BRANCH   1   7
ATOM      7  C   UNL     1     160.178 178.080 151.498  1.00  0.00     0.036 C 
ATOM      8  C   UNL     1     160.570 177.803 150.049  1.00  0.00     0.009 C 
ENDBRANCH   1   7
BRANCH   2   9
ATOM      9  O   UNL     1     160.904 177.976 154.379  1.00  0.00    -0.508 OA
ATOM     10  H   UNL     1     160.727 178.907 154.025  1.00  0.00     0.293 HD
ENDBRANCH   2   9
BRANCH   4  11
ATOM     11  O   UNL     1     160.229 173.219 154.512  1.00  0.00    -0.508 OA
ATOM     12  H   UNL     1     159.379 172.694 154.684  1.00  0.00     0.293 HD
ENDBRANCH   4  11
TORSDOF 3
ENDMDL
MODEL 3
REMARK VINA RESULT:    -3.950      2.610      3.762
REMARK INTER + INTRA:          -4.517
REMARK INTER:                  -4.433
REMARK INTRA:                  -0.084
REMARK UNBOUND:                -0.106
REMARK SMILES CCc1ccc(O)cc1O
REMARK SMILES IDX 3 1 9 2 8 3 6 4 5 5 4 6 2 7 1 8 10 9 7 11
REMARK H PARENT 10 10 7 12
REMARK Flexibility Score: inf
ROOT
ATOM      1  C   UNL     1     162.084 177.884 153.513  1.00  0.00    -0.006 A 
ATOM      2  C   UNL     1     160.678 177.930 153.331  1.00  0.00     0.122 A 
ATOM      3  C   UNL     1     160.141 177.782 152.047  1.00  0.00     0.092 A 
ATOM      4  C   UNL     1     160.973 177.606 150.939  1.00  0.00     0.119 A 
ATOM      5  C   UNL     1     162.361 177.579 151.112  1.00  0.00     0.047 A 
ATOM      6  C   UNL     1     162.911 177.721 152.387  1.00  0.00     0.011 A 
ENDROOT
BRANCH   1   7
ATOM      7  C   UNL     1     162.726 178.048 154.870  1.00  0.00     0.036 C 
ATOM      8  C   UNL     1     164.093 177.370 154.912  1.00  0.00     0.009 C 
ENDBRANCH   1   7
BRANCH   2   9
ATOM      9  O   UNL     1     159.792 178.125 154.393  1.00  0.00    -0.508 OA
ATOM     10  H   UNL     1     159.380 179.020 154.621  1.00  0.00     0.293 HD
ENDBRANCH   2   9
BRANCH   4  11
ATOM     11  O   UNL     1     160.413 177.463 149.673  1.00  0.00    -0.508 OA
ATOM     12  H   UNL     1     160.068 178.262 149.152  1.00  0.00     0.293 HD
ENDBRANCH   4  11
TORSDOF 3
ENDMDL
MODEL 4
REMARK VINA RESULT:    -3.914     14.330     15.488
REMARK INTER + INTRA:          -4.478
REMARK INTER:                  -4.392
REMARK INTRA:                  -0.085
REMARK UNBOUND:                -0.106
REMARK SMILES CCc1ccc(O)cc1O
REMARK SMILES IDX 3 1 9 2 8 3 6 4 5 5 4 6 2 7 1 8 10 9 7 11
REMARK H PARENT 10 10 7 12
REMARK Flexibility Score: inf
ROOT
ATOM      1  C   UNL     1     175.952 172.438 150.117  1.00  0.00    -0.006 A 
ATOM      2  C   UNL     1     177.038 173.350 150.125  1.00  0.00     0.122 A 
ATOM      3  C   UNL     1     177.078 174.371 151.082  1.00  0.00     0.092 A 
ATOM      4  C   UNL     1     176.053 174.512 152.020  1.00  0.00     0.119 A 
ATOM      5  C   UNL     1     174.971 173.626 152.004  1.00  0.00     0.047 A 
ATOM      6  C   UNL     1     174.919 172.601 151.057  1.00  0.00     0.011 A 
ENDROOT
BRANCH   1   7
ATOM      7  C   UNL     1     175.845 171.323 149.104  1.00  0.00     0.036 C 
ATOM      8  C   UNL     1     174.387 170.931 148.876  1.00  0.00     0.009 C 
ENDBRANCH   1   7
BRANCH   2   9
ATOM      9  O   UNL     1     178.084 173.278 149.202  1.00  0.00    -0.508 OA
ATOM     10  H   UNL     1     178.885 172.669 149.311  1.00  0.00     0.293 HD
ENDBRANCH   2   9
BRANCH   4  11
ATOM     11  O   UNL     1     176.116 175.537 152.960  1.00  0.00    -0.508 OA
ATOM     12  H   UNL     1     176.995 175.980 153.204  1.00  0.00     0.293 HD
ENDBRANCH   4  11
TORSDOF 3
ENDMDL
MODEL 5
REMARK VINA RESULT:    -3.866      2.667      4.050
REMARK INTER + INTRA:          -4.424
REMARK INTER:                  -4.336
REMARK INTRA:                  -0.088
REMARK UNBOUND:                -0.106
REMARK SMILES CCc1ccc(O)cc1O
REMARK SMILES IDX 3 1 9 2 8 3 6 4 5 5 4 6 2 7 1 8 10 9 7 11
REMARK H PARENT 10 10 7 12
REMARK Flexibility Score: inf
ROOT
ATOM      1  C   UNL     1     162.035 177.897 153.577  1.00  0.00    -0.006 A 
ATOM      2  C   UNL     1     162.925 177.799 152.477  1.00  0.00     0.122 A 
ATOM      3  C   UNL     1     162.411 177.662 151.181  1.00  0.00     0.092 A 
ATOM      4  C   UNL     1     161.033 177.604 150.961  1.00  0.00     0.119 A 
ATOM      5  C   UNL     1     160.154 177.682 152.046  1.00  0.00     0.047 A 
ATOM      6  C   UNL     1     160.651 177.822 153.343  1.00  0.00     0.011 A 
ENDROOT
BRANCH   1   7
ATOM      7  C   UNL     1     162.526 178.035 154.999  1.00  0.00     0.036 C 
ATOM      8  C   UNL     1     161.848 177.017 155.911  1.00  0.00     0.009 C 
ENDBRANCH   1   7
BRANCH   2   9
ATOM      9  O   UNL     1     164.312 177.829 152.630  1.00  0.00    -0.508 OA
ATOM     10  H   UNL     1     164.822 177.199 153.235  1.00  0.00     0.293 HD
ENDBRANCH   2   9
BRANCH   4  11
ATOM     11  O   UNL     1     160.548 177.465 149.663  1.00  0.00    -0.508 OA
ATOM     12  H   UNL     1     160.196 178.259 149.141  1.00  0.00     0.293 HD
ENDBRANCH   4  11
TORSDOF 3
ENDMDL
MODEL 6
REMARK VINA RESULT:    -3.866      2.649      4.063
REMARK INTER + INTRA:          -4.424
REMARK INTER:                  -4.339
REMARK INTRA:                  -0.084
REMARK UNBOUND:                -0.106
REMARK SMILES CCc1ccc(O)cc1O
REMARK SMILES IDX 3 1 9 2 8 3 6 4 5 5 4 6 2 7 1 8 10 9 7 11
REMARK H PARENT 10 10 7 12
REMARK Flexibility Score: inf
ROOT
ATOM      1  C   UNL     1     162.596 177.557 152.001  1.00  0.00    -0.006 A 
ATOM      2  C   UNL     1     161.213 177.604 151.691  1.00  0.00     0.122 A 
ATOM      3  C   UNL     1     160.280 177.800 152.717  1.00  0.00     0.092 A 
ATOM      4  C   UNL     1     160.694 177.933 154.044  1.00  0.00     0.119 A 
ATOM      5  C   UNL     1     162.056 177.869 154.355  1.00  0.00     0.047 A 
ATOM      6  C   UNL     1     162.998 177.678 153.343  1.00  0.00     0.011 A 
ENDROOT
BRANCH   1   7
ATOM      7  C   UNL     1     163.651 177.338 150.942  1.00  0.00     0.036 C 
ATOM      8  C   UNL     1     164.919 178.124 151.265  1.00  0.00     0.009 C 
ENDBRANCH   1   7
BRANCH   2   9
ATOM      9  O   UNL     1     160.732 177.456 150.389  1.00  0.00    -0.508 OA
ATOM     10  H   UNL     1     160.269 176.621 150.054  1.00  0.00     0.293 HD
ENDBRANCH   2   9
BRANCH   4  11
ATOM     11  O   UNL     1     159.745 178.125 155.045  1.00  0.00    -0.508 OA
ATOM     12  H   UNL     1     159.927 177.860 156.006  1.00  0.00     0.293 HD
ENDBRANCH   4  11
TORSDOF 3
ENDMDL
MODEL 7
REMARK VINA RESULT:    -3.849     10.768     12.408
REMARK INTER + INTRA:          -4.404
REMARK INTER:                  -4.299
REMARK INTRA:                  -0.106
REMARK UNBOUND:                -0.106
REMARK SMILES CCc1ccc(O)cc1O
REMARK SMILES IDX 3 1 9 2 8 3 6 4 5 5 4 6 2 7 1 8 10 9 7 11
REMARK H PARENT 10 10 7 12
REMARK Flexibility Score: inf
ROOT
ATOM      1  C   UNL     1     172.667 177.436 152.189  1.00  0.00    -0.006 A 
ATOM      2  C   UNL     1     173.167 177.443 153.517  1.00  0.00     0.122 A 
ATOM      3  C   UNL     1     174.364 176.779 153.809  1.00  0.00     0.092 A 
ATOM      4  C   UNL     1     175.064 176.095 152.813  1.00  0.00     0.119 A 
ATOM      5  C   UNL     1     174.565 176.070 151.507  1.00  0.00     0.047 A 
ATOM      6  C   UNL     1     173.375 176.731 151.199  1.00  0.00     0.011 A 
ENDROOT
BRANCH   1   7
ATOM      7  C   UNL     1     171.377 178.124 151.811  1.00  0.00     0.036 C 
ATOM      8  C   UNL     1     170.193 177.170 151.939  1.00  0.00     0.009 C 
ENDBRANCH   1   7
BRANCH   2   9
ATOM      9  O   UNL     1     172.505 178.089 154.562  1.00  0.00    -0.508 OA
ATOM     10  H   UNL     1     172.430 177.709 155.497  1.00  0.00     0.293 HD
ENDBRANCH   2   9
BRANCH   4  11
ATOM     11  O   UNL     1     176.252 175.440 153.132  1.00  0.00    -0.508 OA
ATOM     12  H   UNL     1     177.147 175.912 153.082  1.00  0.00     0.293 HD
ENDBRANCH   4  11
TORSDOF 3
ENDMDL
MODEL 8
REMARK VINA RESULT:    -3.842      1.485      3.966
REMARK INTER + INTRA:          -4.397
REMARK INTER:                  -4.298
REMARK INTRA:                  -0.100
REMARK UNBOUND:                -0.106
REMARK SMILES CCc1ccc(O)cc1O
REMARK SMILES IDX 3 1 9 2 8 3 6 4 5 5 4 6 2 7 1 8 10 9 7 11
REMARK H PARENT 10 10 7 12
REMARK Flexibility Score: inf
ROOT
ATOM      1  C   UNL     1     163.105 177.479 151.606  1.00  0.00    -0.006 A 
ATOM      2  C   UNL     1     162.966 177.500 153.017  1.00  0.00     0.122 A 
ATOM      3  C   UNL     1     161.834 176.929 153.610  1.00  0.00     0.092 A 
ATOM      4  C   UNL     1     160.831 176.352 152.828  1.00  0.00     0.119 A 
ATOM      5  C   UNL     1     160.956 176.345 151.435  1.00  0.00     0.047 A 
ATOM      6  C   UNL     1     162.080 176.908 150.829  1.00  0.00     0.011 A 
ENDROOT
BRANCH   1   7
ATOM      7  C   UNL     1     164.296 178.087 150.905  1.00  0.00     0.036 C 
ATOM      8  C   UNL     1     165.447 177.088 150.818  1.00  0.00     0.009 C 
ENDBRANCH   1   7
BRANCH   2   9
ATOM      9  O   UNL     1     163.922 178.079 153.855  1.00  0.00    -0.508 OA
ATOM     10  H   UNL     1     164.902 177.832 153.840  1.00  0.00     0.293 HD
ENDBRANCH   2   9
BRANCH   4  11
ATOM     11  O   UNL     1     159.714 175.792 153.443  1.00  0.00    -0.508 OA
ATOM     12  H   UNL     1     159.267 174.960 153.075  1.00  0.00     0.293 HD
ENDBRANCH   4  11
TORSDOF 3
ENDMDL
