MODEL 1
REMARK VINA RESULT:    -5.377      0.000      0.000
REMARK INTER + INTRA:          -6.049
REMARK INTER:                  -6.005
REMARK INTRA:                  -0.044
REMARK UNBOUND:                -0.044
REMARK SMILES COc1cc2ccc(=O)oc2c(O)c1O
REMARK SMILES IDX 3 1 14 2 12 3 11 4 5 5 4 6 6 7 7 8 8 9 9 10 10 11 2 12 1 13
REMARK SMILES IDX 15 14 13 16
REMARK H PARENT 15 15 13 17
REMARK Flexibility Score: inf
ROOT
ATOM      1  C   UNL     1       8.597  -5.824  -6.568  1.00  0.00     0.165 A 
ATOM      2  C   UNL     1       9.922  -5.507  -6.902  1.00  0.00     0.204 A 
ATOM      3  C   UNL     1      10.526  -6.074  -8.039  1.00  0.00     0.205 A 
ATOM      4  C   UNL     1       9.798  -6.964  -8.847  1.00  0.00     0.184 A 
ATOM      5  C   UNL     1       8.465  -7.285  -8.512  1.00  0.00     0.025 A 
ATOM      6  C   UNL     1       7.870  -6.717  -7.379  1.00  0.00     0.062 A 
ATOM      7  C   UNL     1       7.765  -8.173  -9.333  1.00  0.00     0.020 A 
ATOM      8  C   UNL     1       8.395  -8.715 -10.452  1.00  0.00     0.094 A 
ATOM      9  C   UNL     1       9.718  -8.353 -10.724  1.00  0.00     0.336 A 
ATOM     10  O   UNL     1      10.306  -8.831 -11.729  1.00  0.00    -0.246 OA
ATOM     11  O   UNL     1      10.362  -7.506  -9.926  1.00  0.00    -0.419 OA
ENDROOT
BRANCH   1  12
ATOM     12  O   UNL     1       8.039  -5.233  -5.423  1.00  0.00    -0.493 OA
ATOM     13  C   UNL     1       8.070  -5.809  -4.121  1.00  0.00     0.278 C 
ENDBRANCH   1  12
BRANCH   2  14
ATOM     14  O   UNL     1      10.630  -4.621  -6.088  1.00  0.00    -0.502 OA
ATOM     15  H   UNL     1      11.083  -3.794  -6.456  1.00  0.00     0.293 HD
ENDBRANCH   2  14
BRANCH   3  16
ATOM     16  O   UNL     1      11.846  -5.745  -8.355  1.00  0.00    -0.502 OA
ATOM     17  H   UNL     1      12.111  -4.819  -8.669  1.00  0.00     0.293 HD
ENDBRANCH   3  16
TORSDOF 3
ENDMDL
MODEL 2
REMARK VINA RESULT:    -5.322      2.254      2.553
REMARK INTER + INTRA:          -5.988
REMARK INTER:                  -5.934
REMARK INTRA:                  -0.054
REMARK UNBOUND:                -0.044
REMARK SMILES COc1cc2ccc(=O)oc2c(O)c1O
REMARK SMILES IDX 3 1 14 2 12 3 11 4 5 5 4 6 6 7 7 8 8 9 9 10 10 11 2 12 1 13
REMARK SMILES IDX 15 14 13 16
REMARK H PARENT 15 15 13 17
REMARK Flexibility Score: inf
ROOT
ATOM      1  C   UNL     1       7.768  -6.890  -6.166  1.00  0.00     0.165 A 
ATOM      2  C   UNL     1       7.655  -5.517  -6.430  1.00  0.00     0.204 A 
ATOM      3  C   UNL     1       7.788  -5.030  -7.743  1.00  0.00     0.205 A 
ATOM      4  C   UNL     1       8.035  -5.923  -8.798  1.00  0.00     0.184 A 
ATOM      5  C   UNL     1       8.150  -7.305  -8.534  1.00  0.00     0.025 A 
ATOM      6  C   UNL     1       8.016  -7.784  -7.225  1.00  0.00     0.062 A 
ATOM      7  C   UNL     1       8.397  -8.171  -9.604  1.00  0.00     0.020 A 
ATOM      8  C   UNL     1       8.522  -7.653 -10.892  1.00  0.00     0.094 A 
ATOM      9  C   UNL     1       8.397  -6.272 -11.080  1.00  0.00     0.336 A 
ATOM     10  O   UNL     1       8.507  -5.784 -12.234  1.00  0.00    -0.246 OA
ATOM     11  O   UNL     1       8.163  -5.471 -10.045  1.00  0.00    -0.419 OA
ENDROOT
BRANCH   1  12
ATOM     12  O   UNL     1       7.628  -7.327  -4.839  1.00  0.00    -0.493 OA
ATOM     13  C   UNL     1       7.068  -8.580  -4.457  1.00  0.00     0.278 C 
ENDBRANCH   1  12
BRANCH   2  14
ATOM     14  O   UNL     1       7.409  -4.644  -5.368  1.00  0.00    -0.502 OA
ATOM     15  H   UNL     1       6.490  -4.258  -5.187  1.00  0.00     0.293 HD
ENDBRANCH   2  14
BRANCH   3  16
ATOM     16  O   UNL     1       7.671  -3.659  -7.984  1.00  0.00    -0.502 OA
ATOM     17  H   UNL     1       7.679  -2.976  -7.236  1.00  0.00     0.293 HD
ENDBRANCH   3  16
TORSDOF 3
ENDMDL
MODEL 3
REMARK VINA RESULT:    -5.155     16.044     17.448
REMARK INTER + INTRA:          -5.802
REMARK INTER:                  -5.734
REMARK INTRA:                  -0.069
REMARK UNBOUND:                -0.044
REMARK SMILES COc1cc2ccc(=O)oc2c(O)c1O
REMARK SMILES IDX 3 1 14 2 12 3 11 4 5 5 4 6 6 7 7 8 8 9 9 10 10 11 2 12 1 13
REMARK SMILES IDX 15 14 13 16
REMARK H PARENT 15 15 13 17
REMARK Flexibility Score: inf
ROOT
ATOM      1  C   UNL     1      19.595  -0.874 -18.043  1.00  0.00     0.165 A 
ATOM      2  C   UNL     1      20.741  -0.132 -17.717  1.00  0.00     0.204 A 
ATOM      3  C   UNL     1      21.665   0.229 -18.714  1.00  0.00     0.205 A 
ATOM      4  C   UNL     1      21.442  -0.156 -20.046  1.00  0.00     0.184 A 
ATOM      5  C   UNL     1      20.290  -0.903 -20.377  1.00  0.00     0.025 A 
ATOM      6  C   UNL     1      19.373  -1.258 -19.379  1.00  0.00     0.062 A 
ATOM      7  C   UNL     1      20.093  -1.272 -21.711  1.00  0.00     0.020 A 
ATOM      8  C   UNL     1      21.030  -0.897 -22.672  1.00  0.00     0.094 A 
ATOM      9  C   UNL     1      22.148  -0.157 -22.273  1.00  0.00     0.336 A 
ATOM     10  O   UNL     1      23.007   0.191 -23.125  1.00  0.00    -0.246 OA
ATOM     11  O   UNL     1      22.312   0.180 -20.997  1.00  0.00    -0.419 OA
ENDROOT
BRANCH   1  12
ATOM     12  O   UNL     1      18.702  -1.209 -17.013  1.00  0.00    -0.493 OA
ATOM     13  C   UNL     1      18.490  -2.531 -16.528  1.00  0.00     0.278 C 
ENDBRANCH   1  12
BRANCH   2  14
ATOM     14  O   UNL     1      20.947   0.242 -16.387  1.00  0.00    -0.502 OA
ATOM     15  H   UNL     1      21.220  -0.423 -15.675  1.00  0.00     0.293 HD
ENDBRANCH   2  14
BRANCH   3  16
ATOM     16  O   UNL     1      22.799   0.968 -18.368  1.00  0.00    -0.502 OA
ATOM     17  H   UNL     1      23.295   1.542 -19.039  1.00  0.00     0.293 HD
ENDBRANCH   3  16
TORSDOF 3
ENDMDL
MODEL 4
REMARK VINA RESULT:    -5.116      2.922      3.510
REMARK INTER + INTRA:          -5.758
REMARK INTER:                  -5.705
REMARK INTRA:                  -0.053
REMARK UNBOUND:                -0.044
REMARK SMILES COc1cc2ccc(=O)oc2c(O)c1O
REMARK SMILES IDX 3 1 14 2 12 3 11 4 5 5 4 6 6 7 7 8 8 9 9 10 10 11 2 12 1 13
REMARK SMILES IDX 15 14 13 16
REMARK H PARENT 15 15 13 17
REMARK Flexibility Score: inf
ROOT
ATOM      1  C   UNL     1       8.116  -6.330  -7.310  1.00  0.00     0.165 A 
ATOM      2  C   UNL     1       7.405  -5.121  -7.288  1.00  0.00     0.204 A 
ATOM      3  C   UNL     1       7.191  -4.398  -8.475  1.00  0.00     0.205 A 
ATOM      4  C   UNL     1       7.691  -4.888  -9.692  1.00  0.00     0.184 A 
ATOM      5  C   UNL     1       8.408  -6.104  -9.717  1.00  0.00     0.025 A 
ATOM      6  C   UNL     1       8.617  -6.820  -8.531  1.00  0.00     0.062 A 
ATOM      7  C   UNL     1       8.895  -6.569 -10.943  1.00  0.00     0.020 A 
ATOM      8  C   UNL     1       8.662  -5.826 -12.098  1.00  0.00     0.094 A 
ATOM      9  C   UNL     1       7.945  -4.629 -12.000  1.00  0.00     0.336 A 
ATOM     10  O   UNL     1       7.726  -3.942 -13.032  1.00  0.00    -0.246 OA
ATOM     11  O   UNL     1       7.494  -4.210 -10.822  1.00  0.00    -0.419 OA
ENDROOT
BRANCH   1  12
ATOM     12  O   UNL     1       8.304  -7.015  -6.099  1.00  0.00    -0.493 OA
ATOM     13  C   UNL     1       7.450  -8.046  -5.614  1.00  0.00     0.278 C 
ENDBRANCH   1  12
BRANCH   2  14
ATOM     14  O   UNL     1       6.915  -4.649  -6.068  1.00  0.00    -0.502 OA
ATOM     15  H   UNL     1       7.055  -5.149  -5.199  1.00  0.00     0.293 HD
ENDBRANCH   2  14
BRANCH   3  16
ATOM     16  O   UNL     1       6.480  -3.196  -8.431  1.00  0.00    -0.502 OA
ATOM     17  H   UNL     1       5.522  -3.148  -8.106  1.00  0.00     0.293 HD
ENDBRANCH   3  16
TORSDOF 3
ENDMDL
MODEL 5
REMARK VINA RESULT:    -5.014      1.660      4.524
REMARK INTER + INTRA:          -5.644
REMARK INTER:                  -5.583
REMARK INTRA:                  -0.061
REMARK UNBOUND:                -0.044
REMARK SMILES COc1cc2ccc(=O)oc2c(O)c1O
REMARK SMILES IDX 3 1 14 2 12 3 11 4 5 5 4 6 6 7 7 8 8 9 9 10 10 11 2 12 1 13
REMARK SMILES IDX 15 14 13 16
REMARK H PARENT 15 15 13 17
REMARK Flexibility Score: inf
ROOT
ATOM      1  C   UNL     1      10.773  -7.399  -9.760  1.00  0.00     0.165 A 
ATOM      2  C   UNL     1      11.036  -6.291  -8.940  1.00  0.00     0.204 A 
ATOM      3  C   UNL     1      10.353  -6.127  -7.722  1.00  0.00     0.205 A 
ATOM      4  C   UNL     1       9.401  -7.079  -7.320  1.00  0.00     0.184 A 
ATOM      5  C   UNL     1       9.134  -8.194  -8.144  1.00  0.00     0.025 A 
ATOM      6  C   UNL     1       9.818  -8.351  -9.356  1.00  0.00     0.062 A 
ATOM      7  C   UNL     1       8.181  -9.125  -7.720  1.00  0.00     0.020 A 
ATOM      8  C   UNL     1       7.524  -8.930  -6.507  1.00  0.00     0.094 A 
ATOM      9  C   UNL     1       7.838  -7.802  -5.742  1.00  0.00     0.336 A 
ATOM     10  O   UNL     1       7.256  -7.607  -4.643  1.00  0.00    -0.246 OA
ATOM     11  O   UNL     1       8.748  -6.932  -6.168  1.00  0.00    -0.419 OA
ENDROOT
BRANCH   1  12
ATOM     12  O   UNL     1      11.480  -7.518 -10.967  1.00  0.00    -0.493 OA
ATOM     13  C   UNL     1      10.878  -7.755 -12.235  1.00  0.00     0.278 C 
ENDBRANCH   1  12
BRANCH   2  14
ATOM     14  O   UNL     1      11.986  -5.355  -9.355  1.00  0.00    -0.502 OA
ATOM     15  H   UNL     1      12.329  -4.625  -8.743  1.00  0.00     0.293 HD
ENDBRANCH   2  14
BRANCH   3  16
ATOM     16  O   UNL     1      10.630  -5.017  -6.920  1.00  0.00    -0.502 OA
ATOM     17  H   UNL     1      11.391  -5.011  -6.252  1.00  0.00     0.293 HD
ENDBRANCH   3  16
TORSDOF 3
ENDMDL
MODEL 6
REMARK VINA RESULT:    -4.986      1.612      4.859
REMARK INTER + INTRA:          -5.613
REMARK INTER:                  -5.544
REMARK INTRA:                  -0.069
REMARK UNBOUND:                -0.044
REMARK SMILES COc1cc2ccc(=O)oc2c(O)c1O
REMARK SMILES IDX 3 1 14 2 12 3 11 4 5 5 4 6 6 7 7 8 8 9 9 10 10 11 2 12 1 13
REMARK SMILES IDX 15 14 13 16
REMARK H PARENT 15 15 13 17
REMARK Flexibility Score: inf
ROOT
ATOM      1  C   UNL     1       9.356  -6.644 -11.046  1.00  0.00     0.165 A 
ATOM      2  C   UNL     1      10.655  -6.379 -10.588  1.00  0.00     0.204 A 
ATOM      3  C   UNL     1      10.873  -5.958  -9.263  1.00  0.00     0.205 A 
ATOM      4  C   UNL     1       9.783  -5.802  -8.391  1.00  0.00     0.184 A 
ATOM      5  C   UNL     1       8.475  -6.066  -8.850  1.00  0.00     0.025 A 
ATOM      6  C   UNL     1       8.264  -6.486 -10.170  1.00  0.00     0.062 A 
ATOM      7  C   UNL     1       7.408  -5.902  -7.961  1.00  0.00     0.020 A 
ATOM      8  C   UNL     1       7.662  -5.484  -6.656  1.00  0.00     0.094 A 
ATOM      9  C   UNL     1       8.984  -5.239  -6.270  1.00  0.00     0.336 A 
ATOM     10  O   UNL     1       9.235  -4.860  -5.096  1.00  0.00    -0.246 OA
ATOM     11  O   UNL     1       9.979  -5.403  -7.135  1.00  0.00    -0.419 OA
ENDROOT
BRANCH   1  12
ATOM     12  O   UNL     1       9.190  -7.061 -12.376  1.00  0.00    -0.493 OA
ATOM     13  C   UNL     1       8.859  -8.389 -12.769  1.00  0.00     0.278 C 
ENDBRANCH   1  12
BRANCH   2  14
ATOM     14  O   UNL     1      11.727  -6.541 -11.468  1.00  0.00    -0.502 OA
ATOM     15  H   UNL     1      11.828  -7.362 -12.052  1.00  0.00     0.293 HD
ENDBRANCH   2  14
BRANCH   3  16
ATOM     16  O   UNL     1      12.175  -5.701  -8.828  1.00  0.00    -0.502 OA
ATOM     17  H   UNL     1      12.881  -5.307  -9.438  1.00  0.00     0.293 HD
ENDBRANCH   3  16
TORSDOF 3
ENDMDL
MODEL 7
REMARK VINA RESULT:    -4.963      2.272      4.899
REMARK INTER + INTRA:          -5.587
REMARK INTER:                  -5.533
REMARK INTRA:                  -0.053
REMARK UNBOUND:                -0.044
REMARK SMILES COc1cc2ccc(=O)oc2c(O)c1O
REMARK SMILES IDX 3 1 14 2 12 3 11 4 5 5 4 6 6 7 7 8 8 9 9 10 10 11 2 12 1 13
REMARK SMILES IDX 15 14 13 16
REMARK H PARENT 15 15 13 17
REMARK Flexibility Score: inf
ROOT
ATOM      1  C   UNL     1       8.391  -6.517 -10.583  1.00  0.00     0.165 A 
ATOM      2  C   UNL     1       8.104  -5.265 -10.019  1.00  0.00     0.204 A 
ATOM      3  C   UNL     1       7.880  -5.139  -8.636  1.00  0.00     0.205 A 
ATOM      4  C   UNL     1       7.946  -6.275  -7.812  1.00  0.00     0.184 A 
ATOM      5  C   UNL     1       8.234  -7.536  -8.377  1.00  0.00     0.025 A 
ATOM      6  C   UNL     1       8.456  -7.654  -9.755  1.00  0.00     0.062 A 
ATOM      7  C   UNL     1       8.292  -8.650  -7.533  1.00  0.00     0.020 A 
ATOM      8  C   UNL     1       8.066  -8.487  -6.168  1.00  0.00     0.094 A 
ATOM      9  C   UNL     1       7.785  -7.208  -5.676  1.00  0.00     0.336 A 
ATOM     10  O   UNL     1       7.577  -7.040  -4.446  1.00  0.00    -0.246 OA
ATOM     11  O   UNL     1       7.735  -6.166  -6.501  1.00  0.00    -0.419 OA
ENDROOT
BRANCH   1  12
ATOM     12  O   UNL     1       8.606  -6.590 -11.969  1.00  0.00    -0.493 OA
ATOM     13  C   UNL     1       9.452  -7.544 -12.604  1.00  0.00     0.278 C 
ENDBRANCH   1  12
BRANCH   2  14
ATOM     14  O   UNL     1       8.043  -4.147 -10.854  1.00  0.00    -0.502 OA
ATOM     15  H   UNL     1       7.181  -3.643 -11.021  1.00  0.00     0.293 HD
ENDBRANCH   2  14
BRANCH   3  16
ATOM     16  O   UNL     1       7.596  -3.884  -8.095  1.00  0.00    -0.502 OA
ATOM     17  H   UNL     1       6.791  -3.341  -8.384  1.00  0.00     0.293 HD
ENDBRANCH   3  16
TORSDOF 3
ENDMDL
MODEL 8
REMARK VINA RESULT:    -4.912      2.253      2.835
REMARK INTER + INTRA:          -5.531
REMARK INTER:                  -5.474
REMARK INTRA:                  -0.056
REMARK UNBOUND:                -0.044
REMARK SMILES COc1cc2ccc(=O)oc2c(O)c1O
REMARK SMILES IDX 3 1 14 2 12 3 11 4 5 5 4 6 6 7 7 8 8 9 9 10 10 11 2 12 1 13
REMARK SMILES IDX 15 14 13 16
REMARK H PARENT 15 15 13 17
REMARK Flexibility Score: inf
ROOT
ATOM      1  C   UNL     1       8.044  -6.305  -6.694  1.00  0.00     0.165 A 
ATOM      2  C   UNL     1       8.354  -7.592  -7.158  1.00  0.00     0.204 A 
ATOM      3  C   UNL     1       8.512  -7.835  -8.534  1.00  0.00     0.205 A 
ATOM      4  C   UNL     1       8.360  -6.783  -9.452  1.00  0.00     0.184 A 
ATOM      5  C   UNL     1       8.047  -5.487  -8.987  1.00  0.00     0.025 A 
ATOM      6  C   UNL     1       7.892  -5.251  -7.615  1.00  0.00     0.062 A 
ATOM      7  C   UNL     1       7.901  -4.458  -9.923  1.00  0.00     0.020 A 
ATOM      8  C   UNL     1       8.066  -4.736 -11.279  1.00  0.00     0.094 A 
ATOM      9  C   UNL     1       8.375  -6.043 -11.668  1.00  0.00     0.336 A 
ATOM     10  O   UNL     1       8.526  -6.315 -12.888  1.00  0.00    -0.246 OA
ATOM     11  O   UNL     1       8.507  -7.003 -10.758  1.00  0.00    -0.419 OA
ENDROOT
BRANCH   1  12
ATOM     12  O   UNL     1       7.896  -6.113  -5.311  1.00  0.00    -0.493 OA
ATOM     13  C   UNL     1       8.368  -4.973  -4.599  1.00  0.00     0.278 C 
ENDBRANCH   1  12
BRANCH   2  14
ATOM     14  O   UNL     1       8.501  -8.626  -6.231  1.00  0.00    -0.502 OA
ATOM     15  H   UNL     1       7.909  -8.709  -5.414  1.00  0.00     0.293 HD
ENDBRANCH   2  14
BRANCH   3  16
ATOM     16  O   UNL     1       8.820  -9.124  -8.975  1.00  0.00    -0.502 OA
ATOM     17  H   UNL     1       9.750  -9.516  -8.888  1.00  0.00     0.293 HD
ENDBRANCH   3  16
TORSDOF 3
ENDMDL
MODEL 9
REMARK VINA RESULT:    -4.870      1.953      2.512
REMARK INTER + INTRA:          -5.484
REMARK INTER:                  -5.429
REMARK INTRA:                  -0.055
REMARK UNBOUND:                -0.044
REMARK SMILES COc1cc2ccc(=O)oc2c(O)c1O
REMARK SMILES IDX 3 1 14 2 12 3 11 4 5 5 4 6 6 7 7 8 8 9 9 10 10 11 2 12 1 13
REMARK SMILES IDX 15 14 13 16
REMARK H PARENT 15 15 13 17
REMARK Flexibility Score: inf
ROOT
ATOM      1  C   UNL     1       8.142  -5.364  -7.142  1.00  0.00     0.165 A 
ATOM      2  C   UNL     1       7.685  -4.718  -8.301  1.00  0.00     0.204 A 
ATOM      3  C   UNL     1       8.227  -5.041  -9.558  1.00  0.00     0.205 A 
ATOM      4  C   UNL     1       9.232  -6.017  -9.657  1.00  0.00     0.184 A 
ATOM      5  C   UNL     1       9.694  -6.668  -8.492  1.00  0.00     0.025 A 
ATOM      6  C   UNL     1       9.150  -6.342  -7.243  1.00  0.00     0.062 A 
ATOM      7  C   UNL     1      10.695  -7.635  -8.619  1.00  0.00     0.020 A 
ATOM      8  C   UNL     1      11.207  -7.930  -9.881  1.00  0.00     0.094 A 
ATOM      9  C   UNL     1      10.703  -7.245 -10.992  1.00  0.00     0.336 A 
ATOM     10  O   UNL     1      11.153  -7.495 -12.141  1.00  0.00    -0.246 OA
ATOM     11  O   UNL     1       9.751  -6.329 -10.843  1.00  0.00    -0.419 OA
ENDROOT
BRANCH   1  12
ATOM     12  O   UNL     1       7.570  -5.006  -5.911  1.00  0.00    -0.493 OA
ATOM     13  C   UNL     1       8.274  -4.976  -4.673  1.00  0.00     0.278 C 
ENDBRANCH   1  12
BRANCH   2  14
ATOM     14  O   UNL     1       6.685  -3.750  -8.184  1.00  0.00    -0.502 OA
ATOM     15  H   UNL     1       6.515  -3.059  -8.904  1.00  0.00     0.293 HD
ENDBRANCH   2  14
BRANCH   3  16
ATOM     16  O   UNL     1       7.757  -4.386 -10.699  1.00  0.00    -0.502 OA
ATOM     17  H   UNL     1       7.695  -3.376 -10.755  1.00  0.00     0.293 HD
ENDBRANCH   3  16
TORSDOF 3
ENDMDL
