MODEL 1
REMARK VINA RESULT:    -5.039      0.000      0.000
REMARK INTER + INTRA:         -15.602
REMARK INTER:                 -11.519
REMARK INTRA:                  -4.083
REMARK UNBOUND:                -4.083
REMARK SMILES CCCCCCCCCCCCCCCCCCCCCCCC(=O)[O-]
REMARK SMILES IDX 13 1 14 2 15 3 16 4 17 5 18 6 19 7 20 8 21 9 22 10 23 11
REMARK SMILES IDX 24 12 25 13 26 14 12 15 11 16 10 17 9 18 8 19 7 20 6 21 5 22
REMARK SMILES IDX 4 23 3 24 2 25 1 26
REMARK H PARENT
REMARK Flexibility Score: inf
ROOT
ATOM      1  C   UNL     1      77.892  13.892  17.670  1.00  0.00     0.000 C 
ENDROOT
BRANCH   1   2
ATOM      2  C   UNL     1      79.132  13.460  18.478  1.00  0.00     0.000 C 
BRANCH   2   3
ATOM      3  C   UNL     1      79.094  13.815  19.979  1.00  0.00     0.000 C 
BRANCH   3   4
ATOM      4  C   UNL     1      80.218  14.752  20.457  1.00  0.00     0.000 C 
BRANCH   4   5
ATOM      5  C   UNL     1      80.018  16.206  19.999  1.00  0.00     0.000 C 
BRANCH   5   6
ATOM      6  C   UNL     1      81.028  16.632  18.919  1.00  0.00     0.000 C 
BRANCH   6   7
ATOM      7  C   UNL     1      80.537  17.831  18.089  1.00  0.00     0.000 C 
BRANCH   7   8
ATOM      8  C   UNL     1      79.021  17.793  17.838  1.00  0.00     0.000 C 
BRANCH   8   9
ATOM      9  C   UNL     1      78.508  19.045  17.109  1.00  0.00     0.000 C 
BRANCH   9  10
ATOM     10  C   UNL     1      78.675  18.902  15.589  1.00  0.00     0.006 C 
BRANCH  10  11
ATOM     11  C   UNL     1      77.327  18.879  14.856  1.00  0.00     0.053 C 
BRANCH  11  12
ATOM     12  C   UNL     1      76.544  17.641  15.171  1.00  0.00     0.041 C 
ATOM     13  O   UNL     1      77.064  16.505  15.016  1.00  0.00    -0.550 OA
ATOM     14  O   UNL     1      75.227  17.742  15.602  1.00  0.00    -0.550 OA
ENDBRANCH  11  12
ENDBRANCH  10  11
ENDBRANCH   9  10
ENDBRANCH   8   9
ENDBRANCH   7   8
ENDBRANCH   6   7
ENDBRANCH   5   6
ENDBRANCH   4   5
ENDBRANCH   3   4
ENDBRANCH   2   3
ENDBRANCH   1   2
BRANCH   1  15
ATOM     15  C   UNL     1      77.053  15.014  18.309  1.00  0.00     0.000 C 
BRANCH  15  16
ATOM     16  C   UNL     1      75.593  15.015  17.825  1.00  0.00     0.000 C 
BRANCH  16  17
ATOM     17  C   UNL     1      75.327  13.950  16.749  1.00  0.00     0.000 C 
BRANCH  17  18
ATOM     18  C   UNL     1      74.354  12.858  17.219  1.00  0.00    -0.000 C 
BRANCH  18  19
ATOM     19  C   UNL     1      73.954  13.076  18.686  1.00  0.00    -0.000 C 
BRANCH  19  20
ATOM     20  C   UNL     1      74.384  11.919  19.605  1.00  0.00    -0.000 C 
BRANCH  20  21
ATOM     21  C   UNL     1      75.817  12.027  20.166  1.00  0.00    -0.000 C 
BRANCH  21  22
ATOM     22  C   UNL     1      76.736  10.834  19.846  1.00  0.00    -0.000 C 
BRANCH  22  23
ATOM     23  C   UNL     1      76.449  10.141  18.501  1.00  0.00    -0.000 C 
BRANCH  23  24
ATOM     24  C   UNL     1      77.685   9.452  17.881  1.00  0.00    -0.000 C 
BRANCH  24  25
ATOM     25  C   UNL     1      78.331  10.292  16.771  1.00  0.00    -0.003 C 
ATOM     26  C   UNL     1      77.287  10.780  15.770  1.00  0.00     0.004 C 
ENDBRANCH  24  25
ENDBRANCH  23  24
ENDBRANCH  22  23
ENDBRANCH  21  22
ENDBRANCH  20  21
ENDBRANCH  19  20
ENDBRANCH  18  19
ENDBRANCH  17  18
ENDBRANCH  16  17
ENDBRANCH  15  16
ENDBRANCH   1  15
TORSDOF 22
ENDMDL
MODEL 2
REMARK VINA RESULT:    -4.953      1.839      6.292
REMARK INTER + INTRA:         -15.405
REMARK INTER:                 -11.404
REMARK INTRA:                  -4.002
REMARK UNBOUND:                -4.083
REMARK SMILES CCCCCCCCCCCCCCCCCCCCCCCC(=O)[O-]
REMARK SMILES IDX 13 1 14 2 15 3 16 4 17 5 18 6 19 7 20 8 21 9 22 10 23 11
REMARK SMILES IDX 24 12 25 13 26 14 12 15 11 16 10 17 9 18 8 19 7 20 6 21 5 22
REMARK SMILES IDX 4 23 3 24 2 25 1 26
REMARK H PARENT
REMARK Flexibility Score: inf
ROOT
ATOM      1  C   UNL     1      75.043  14.640  16.140  1.00  0.00     0.000 C 
ENDROOT
BRANCH   1   2
ATOM      2  C   UNL     1      75.318  14.927  17.630  1.00  0.00     0.000 C 
BRANCH   2   3
ATOM      3  C   UNL     1      74.479  14.098  18.624  1.00  0.00     0.000 C 
BRANCH   3   4
ATOM      4  C   UNL     1      74.037  12.715  18.114  1.00  0.00     0.000 C 
BRANCH   4   5
ATOM      5  C   UNL     1      74.391  11.579  19.088  1.00  0.00     0.000 C 
BRANCH   5   6
ATOM      6  C   UNL     1      75.425  12.004  20.144  1.00  0.00     0.000 C 
BRANCH   6   7
ATOM      7  C   UNL     1      76.824  11.425  19.870  1.00  0.00     0.000 C 
BRANCH   7   8
ATOM      8  C   UNL     1      77.804  12.481  19.334  1.00  0.00     0.000 C 
BRANCH   8   9
ATOM      9  C   UNL     1      78.370  12.120  17.952  1.00  0.00     0.000 C 
BRANCH   9  10
ATOM     10  C   UNL     1      77.507  11.047  17.269  1.00  0.00     0.006 C 
BRANCH  10  11
ATOM     11  C   UNL     1      76.890  11.547  15.956  1.00  0.00     0.053 C 
BRANCH  11  12
ATOM     12  C   UNL     1      77.939  11.994  14.984  1.00  0.00     0.041 C 
ATOM     13  O   UNL     1      78.871  11.214  14.654  1.00  0.00    -0.550 OA
ATOM     14  O   UNL     1      77.906  13.285  14.469  1.00  0.00    -0.550 OA
ENDBRANCH  11  12
ENDBRANCH  10  11
ENDBRANCH   9  10
ENDBRANCH   8   9
ENDBRANCH   7   8
ENDBRANCH   6   7
ENDBRANCH   5   6
ENDBRANCH   4   5
ENDBRANCH   3   4
ENDBRANCH   2   3
ENDBRANCH   1   2
BRANCH   1  15
ATOM     15  C   UNL     1      74.897  15.888  15.250  1.00  0.00     0.000 C 
BRANCH  15  16
ATOM     16  C   UNL     1      75.413  17.168  15.930  1.00  0.00     0.000 C 
BRANCH  16  17
ATOM     17  C   UNL     1      76.026  18.162  14.930  1.00  0.00     0.000 C 
BRANCH  17  18
ATOM     18  C   UNL     1      77.504  18.464  15.219  1.00  0.00    -0.000 C 
BRANCH  18  19
ATOM     19  C   UNL     1      78.378  17.230  14.946  1.00  0.00    -0.000 C 
BRANCH  19  20
ATOM     20  C   UNL     1      79.312  16.884  16.119  1.00  0.00    -0.000 C 
BRANCH  20  21
ATOM     21  C   UNL     1      78.929  15.616  16.909  1.00  0.00    -0.000 C 
BRANCH  21  22
ATOM     22  C   UNL     1      78.551  15.855  18.382  1.00  0.00    -0.000 C 
BRANCH  22  23
ATOM     23  C   UNL     1      79.624  16.578  19.217  1.00  0.00    -0.000 C 
BRANCH  23  24
ATOM     24  C   UNL     1      80.230  15.708  20.340  1.00  0.00    -0.000 C 
BRANCH  24  25
ATOM     25  C   UNL     1      81.328  14.767  19.827  1.00  0.00    -0.003 C 
ATOM     26  C   UNL     1      82.039  14.067  20.982  1.00  0.00     0.004 C 
ENDBRANCH  24  25
ENDBRANCH  23  24
ENDBRANCH  22  23
ENDBRANCH  21  22
ENDBRANCH  20  21
ENDBRANCH  19  20
ENDBRANCH  18  19
ENDBRANCH  17  18
ENDBRANCH  16  17
ENDBRANCH  15  16
ENDBRANCH   1  15
TORSDOF 22
ENDMDL
MODEL 3
REMARK VINA RESULT:    -4.950      2.205      6.149
REMARK INTER + INTRA:         -15.398
REMARK INTER:                 -11.823
REMARK INTRA:                  -3.575
REMARK UNBOUND:                -4.083
REMARK SMILES CCCCCCCCCCCCCCCCCCCCCCCC(=O)[O-]
REMARK SMILES IDX 13 1 14 2 15 3 16 4 17 5 18 6 19 7 20 8 21 9 22 10 23 11
REMARK SMILES IDX 24 12 25 13 26 14 12 15 11 16 10 17 9 18 8 19 7 20 6 21 5 22
REMARK SMILES IDX 4 23 3 24 2 25 1 26
REMARK H PARENT
REMARK Flexibility Score: inf
ROOT
ATOM      1  C   UNL     1      75.060  14.147  16.227  1.00  0.00     0.000 C 
ENDROOT
BRANCH   1   2
ATOM      2  C   UNL     1      74.312  13.174  17.161  1.00  0.00     0.000 C 
BRANCH   2   3
ATOM      3  C   UNL     1      74.733  13.232  18.644  1.00  0.00     0.000 C 
BRANCH   3   4
ATOM      4  C   UNL     1      74.824  11.869  19.352  1.00  0.00     0.000 C 
BRANCH   4   5
ATOM      5  C   UNL     1      75.919  11.830  20.432  1.00  0.00     0.000 C 
BRANCH   5   6
ATOM      6  C   UNL     1      77.010  10.788  20.133  1.00  0.00     0.000 C 
BRANCH   6   7
ATOM      7  C   UNL     1      76.808  10.091  18.776  1.00  0.00     0.000 C 
BRANCH   7   8
ATOM      8  C   UNL     1      77.847  10.524  17.731  1.00  0.00     0.000 C 
BRANCH   8   9
ATOM      9  C   UNL     1      77.466  10.101  16.303  1.00  0.00     0.000 C 
BRANCH   9  10
ATOM     10  C   UNL     1      77.029  11.315  15.469  1.00  0.00     0.006 C 
BRANCH  10  11
ATOM     11  C   UNL     1      78.224  12.080  14.886  1.00  0.00     0.053 C 
BRANCH  11  12
ATOM     12  C   UNL     1      78.489  11.696  13.463  1.00  0.00     0.041 C 
ATOM     13  O   UNL     1      78.091  10.586  13.020  1.00  0.00    -0.550 OA
ATOM     14  O   UNL     1      79.209  12.549  12.635  1.00  0.00    -0.550 OA
ENDBRANCH  11  12
ENDBRANCH  10  11
ENDBRANCH   9  10
ENDBRANCH   8   9
ENDBRANCH   7   8
ENDBRANCH   6   7
ENDBRANCH   5   6
ENDBRANCH   4   5
ENDBRANCH   3   4
ENDBRANCH   2   3
ENDBRANCH   1   2
BRANCH   1  15
ATOM     15  C   UNL     1      74.822  15.641  16.514  1.00  0.00     0.000 C 
BRANCH  15  16
ATOM     16  C   UNL     1      74.733  16.486  15.232  1.00  0.00     0.000 C 
BRANCH  16  17
ATOM     17  C   UNL     1      75.770  17.621  15.199  1.00  0.00     0.000 C 
BRANCH  17  18
ATOM     18  C   UNL     1      76.878  17.447  16.249  1.00  0.00    -0.000 C 
BRANCH  18  19
ATOM     19  C   UNL     1      78.117  16.782  15.630  1.00  0.00    -0.000 C 
BRANCH  19  20
ATOM     20  C   UNL     1      78.597  15.553  16.422  1.00  0.00    -0.000 C 
BRANCH  20  21
ATOM     21  C   UNL     1      78.313  15.598  17.938  1.00  0.00    -0.000 C 
BRANCH  21  22
ATOM     22  C   UNL     1      78.085  14.227  18.601  1.00  0.00    -0.000 C 
BRANCH  22  23
ATOM     23  C   UNL     1      79.264  13.715  19.449  1.00  0.00    -0.000 C 
BRANCH  23  24
ATOM     24  C   UNL     1      79.806  14.757  20.452  1.00  0.00    -0.000 C 
BRANCH  24  25
ATOM     25  C   UNL     1      81.294  15.066  20.232  1.00  0.00    -0.003 C 
ATOM     26  C   UNL     1      82.180  14.047  20.943  1.00  0.00     0.004 C 
ENDBRANCH  24  25
ENDBRANCH  23  24
ENDBRANCH  22  23
ENDBRANCH  21  22
ENDBRANCH  20  21
ENDBRANCH  19  20
ENDBRANCH  18  19
ENDBRANCH  17  18
ENDBRANCH  16  17
ENDBRANCH  15  16
ENDBRANCH   1  15
TORSDOF 22
ENDMDL
MODEL 4
REMARK VINA RESULT:    -4.904      2.284      6.140
REMARK INTER + INTRA:         -15.294
REMARK INTER:                 -10.886
REMARK INTRA:                  -4.408
REMARK UNBOUND:                -4.083
REMARK SMILES CCCCCCCCCCCCCCCCCCCCCCCC(=O)[O-]
REMARK SMILES IDX 13 1 14 2 15 3 16 4 17 5 18 6 19 7 20 8 21 9 22 10 23 11
REMARK SMILES IDX 24 12 25 13 26 14 12 15 11 16 10 17 9 18 8 19 7 20 6 21 5 22
REMARK SMILES IDX 4 23 3 24 2 25 1 26
REMARK H PARENT
REMARK Flexibility Score: inf
ROOT
ATOM      1  C   UNL     1      74.704  12.861  17.141  1.00  0.00     0.000 C 
ENDROOT
BRANCH   1   2
ATOM      2  C   UNL     1      73.961  13.026  18.482  1.00  0.00     0.000 C 
BRANCH   2   3
ATOM      3  C   UNL     1      74.348  12.012  19.578  1.00  0.00     0.000 C 
BRANCH   3   4
ATOM      4  C   UNL     1      75.739  11.374  19.417  1.00  0.00     0.000 C 
BRANCH   4   5
ATOM      5  C   UNL     1      76.793  11.999  20.347  1.00  0.00     0.000 C 
BRANCH   5   6
ATOM      6  C   UNL     1      77.705  13.001  19.620  1.00  0.00     0.000 C 
BRANCH   6   7
ATOM      7  C   UNL     1      78.844  12.313  18.848  1.00  0.00     0.000 C 
BRANCH   7   8
ATOM      8  C   UNL     1      78.585  12.267  17.333  1.00  0.00     0.000 C 
BRANCH   8   9
ATOM      9  C   UNL     1      78.434  10.834  16.800  1.00  0.00     0.000 C 
BRANCH   9  10
ATOM     10  C   UNL     1      77.351  10.764  15.712  1.00  0.00     0.006 C 
BRANCH  10  11
ATOM     11  C   UNL     1      77.616  11.748  14.565  1.00  0.00     0.053 C 
BRANCH  11  12
ATOM     12  C   UNL     1      78.353  11.098  13.434  1.00  0.00     0.041 C 
ATOM     13  O   UNL     1      78.013   9.955  13.028  1.00  0.00    -0.550 OA
ATOM     14  O   UNL     1      79.439  11.741  12.852  1.00  0.00    -0.550 OA
ENDBRANCH  11  12
ENDBRANCH  10  11
ENDBRANCH   9  10
ENDBRANCH   8   9
ENDBRANCH   7   8
ENDBRANCH   6   7
ENDBRANCH   5   6
ENDBRANCH   4   5
ENDBRANCH   3   4
ENDBRANCH   2   3
ENDBRANCH   1   2
BRANCH   1  15
ATOM     15  C   UNL     1      75.440  14.118  16.643  1.00  0.00     0.000 C 
BRANCH  15  16
ATOM     16  C   UNL     1      75.478  15.241  17.692  1.00  0.00     0.000 C 
BRANCH  16  17
ATOM     17  C   UNL     1      74.997  16.590  17.132  1.00  0.00     0.000 C 
BRANCH  17  18
ATOM     18  C   UNL     1      74.762  16.555  15.614  1.00  0.00    -0.000 C 
BRANCH  18  19
ATOM     19  C   UNL     1      75.524  17.692  14.916  1.00  0.00    -0.000 C 
BRANCH  19  20
ATOM     20  C   UNL     1      76.825  18.078  15.643  1.00  0.00    -0.000 C 
BRANCH  20  21
ATOM     21  C   UNL     1      78.103  17.406  15.099  1.00  0.00    -0.000 C 
BRANCH  21  22
ATOM     22  C   UNL     1      78.537  16.130  15.843  1.00  0.00    -0.000 C 
BRANCH  22  23
ATOM     23  C   UNL     1      78.991  16.354  17.298  1.00  0.00    -0.000 C 
BRANCH  23  24
ATOM     24  C   UNL     1      80.267  15.571  17.678  1.00  0.00    -0.000 C 
BRANCH  24  25
ATOM     25  C   UNL     1      80.763  15.906  19.092  1.00  0.00    -0.003 C 
ATOM     26  C   UNL     1      79.595  16.171  20.037  1.00  0.00     0.004 C 
ENDBRANCH  24  25
ENDBRANCH  23  24
ENDBRANCH  22  23
ENDBRANCH  21  22
ENDBRANCH  20  21
ENDBRANCH  19  20
ENDBRANCH  18  19
ENDBRANCH  17  18
ENDBRANCH  16  17
ENDBRANCH  15  16
ENDBRANCH   1  15
TORSDOF 22
ENDMDL
MODEL 5
REMARK VINA RESULT:    -4.902      2.274      6.445
REMARK INTER + INTRA:         -15.289
REMARK INTER:                 -11.643
REMARK INTRA:                  -3.646
REMARK UNBOUND:                -4.083
REMARK SMILES CCCCCCCCCCCCCCCCCCCCCCCC(=O)[O-]
REMARK SMILES IDX 13 1 14 2 15 3 16 4 17 5 18 6 19 7 20 8 21 9 22 10 23 11
REMARK SMILES IDX 24 12 25 13 26 14 12 15 11 16 10 17 9 18 8 19 7 20 6 21 5 22
REMARK SMILES IDX 4 23 3 24 2 25 1 26
REMARK H PARENT
REMARK Flexibility Score: inf
ROOT
ATOM      1  C   UNL     1      79.770  12.072  18.197  1.00  0.00     0.000 C 
ENDROOT
BRANCH   1   2
ATOM      2  C   UNL     1      78.657  11.397  19.023  1.00  0.00     0.000 C 
BRANCH   2   3
ATOM      3  C   UNL     1      77.734  12.362  19.795  1.00  0.00     0.000 C 
BRANCH   3   4
ATOM      4  C   UNL     1      76.463  11.723  20.383  1.00  0.00     0.000 C 
BRANCH   4   5
ATOM      5  C   UNL     1      75.378  11.471  19.322  1.00  0.00     0.000 C 
BRANCH   5   6
ATOM      6  C   UNL     1      74.048  12.168  19.657  1.00  0.00     0.000 C 
BRANCH   6   7
ATOM      7  C   UNL     1      73.610  13.163  18.568  1.00  0.00     0.000 C 
BRANCH   7   8
ATOM      8  C   UNL     1      74.716  14.169  18.210  1.00  0.00     0.000 C 
BRANCH   8   9
ATOM      9  C   UNL     1      75.069  14.157  16.715  1.00  0.00     0.000 C 
BRANCH   9  10
ATOM     10  C   UNL     1      76.453  13.531  16.483  1.00  0.00     0.006 C 
BRANCH  10  11
ATOM     11  C   UNL     1      76.630  13.031  15.043  1.00  0.00     0.053 C 
BRANCH  11  12
ATOM     12  C   UNL     1      77.200  11.646  15.003  1.00  0.00     0.041 C 
ATOM     13  O   UNL     1      77.915  11.282  14.032  1.00  0.00    -0.550 OA
ATOM     14  O   UNL     1      76.912  10.745  16.021  1.00  0.00    -0.550 OA
ENDBRANCH  11  12
ENDBRANCH  10  11
ENDBRANCH   9  10
ENDBRANCH   8   9
ENDBRANCH   7   8
ENDBRANCH   6   7
ENDBRANCH   5   6
ENDBRANCH   4   5
ENDBRANCH   3   4
ENDBRANCH   2   3
ENDBRANCH   1   2
BRANCH   1  15
ATOM     15  C   UNL     1      81.206  11.682  18.594  1.00  0.00     0.000 C 
BRANCH  15  16
ATOM     16  C   UNL     1      82.127  12.901  18.771  1.00  0.00     0.000 C 
BRANCH  16  17
ATOM     17  C   UNL     1      82.328  13.280  20.248  1.00  0.00     0.000 C 
BRANCH  17  18
ATOM     18  C   UNL     1      81.805  14.685  20.579  1.00  0.00    -0.000 C 
BRANCH  18  19
ATOM     19  C   UNL     1      80.304  14.647  20.906  1.00  0.00    -0.000 C 
BRANCH  19  20
ATOM     20  C   UNL     1      79.484  15.657  20.084  1.00  0.00    -0.000 C 
BRANCH  20  21
ATOM     21  C   UNL     1      80.314  16.732  19.352  1.00  0.00    -0.000 C 
BRANCH  21  22
ATOM     22  C   UNL     1      79.689  17.264  18.049  1.00  0.00    -0.000 C 
BRANCH  22  23
ATOM     23  C   UNL     1      78.766  16.269  17.321  1.00  0.00    -0.000 C 
BRANCH  23  24
ATOM     24  C   UNL     1      78.130  16.838  16.034  1.00  0.00    -0.000 C 
BRANCH  24  25
ATOM     25  C   UNL     1      77.007  17.842  16.329  1.00  0.00    -0.003 C 
ATOM     26  C   UNL     1      75.806  17.608  15.416  1.00  0.00     0.004 C 
ENDBRANCH  24  25
ENDBRANCH  23  24
ENDBRANCH  22  23
ENDBRANCH  21  22
ENDBRANCH  20  21
ENDBRANCH  19  20
ENDBRANCH  18  19
ENDBRANCH  17  18
ENDBRANCH  16  17
ENDBRANCH  15  16
ENDBRANCH   1  15
TORSDOF 22
ENDMDL
MODEL 6
REMARK VINA RESULT:    -4.877      1.787      5.010
REMARK INTER + INTRA:         -15.232
REMARK INTER:                 -11.684
REMARK INTRA:                  -3.549
REMARK UNBOUND:                -4.083
REMARK SMILES CCCCCCCCCCCCCCCCCCCCCCCC(=O)[O-]
REMARK SMILES IDX 13 1 14 2 15 3 16 4 17 5 18 6 19 7 20 8 21 9 22 10 23 11
REMARK SMILES IDX 24 12 25 13 26 14 12 15 11 16 10 17 9 18 8 19 7 20 6 21 5 22
REMARK SMILES IDX 4 23 3 24 2 25 1 26
REMARK H PARENT
REMARK Flexibility Score: inf
ROOT
ATOM      1  C   UNL     1      74.695  11.849  19.016  1.00  0.00     0.000 C 
ENDROOT
BRANCH   1   2
ATOM      2  C   UNL     1      73.992  13.160  18.611  1.00  0.00     0.000 C 
BRANCH   2   3
ATOM      3  C   UNL     1      74.870  14.166  17.839  1.00  0.00     0.000 C 
BRANCH   3   4
ATOM      4  C   UNL     1      75.017  13.884  16.333  1.00  0.00     0.000 C 
BRANCH   4   5
ATOM      5  C   UNL     1      75.407  15.136  15.528  1.00  0.00     0.000 C 
BRANCH   5   6
ATOM      6  C   UNL     1      74.340  16.242  15.599  1.00  0.00     0.000 C 
BRANCH   6   7
ATOM      7  C   UNL     1      74.893  17.562  16.164  1.00  0.00     0.000 C 
BRANCH   7   8
ATOM      8  C   UNL     1      76.429  17.616  16.137  1.00  0.00     0.000 C 
BRANCH   8   9
ATOM      9  C   UNL     1      76.977  18.355  14.906  1.00  0.00     0.000 C 
BRANCH   9  10
ATOM     10  C   UNL     1      78.448  17.988  14.655  1.00  0.00     0.006 C 
BRANCH  10  11
ATOM     11  C   UNL     1      78.670  16.471  14.617  1.00  0.00     0.053 C 
BRANCH  11  12
ATOM     12  C   UNL     1      79.699  16.035  15.615  1.00  0.00     0.041 C 
ATOM     13  O   UNL     1      79.904  16.717  16.654  1.00  0.00    -0.550 OA
ATOM     14  O   UNL     1      80.456  14.894  15.380  1.00  0.00    -0.550 OA
ENDBRANCH  11  12
ENDBRANCH  10  11
ENDBRANCH   9  10
ENDBRANCH   8   9
ENDBRANCH   7   8
ENDBRANCH   6   7
ENDBRANCH   5   6
ENDBRANCH   4   5
ENDBRANCH   3   4
ENDBRANCH   2   3
ENDBRANCH   1   2
BRANCH   1  15
ATOM     15  C   UNL     1      75.722  11.983  20.155  1.00  0.00     0.000 C 
BRANCH  15  16
ATOM     16  C   UNL     1      76.799  10.885  20.118  1.00  0.00     0.000 C 
BRANCH  16  17
ATOM     17  C   UNL     1      76.628   9.930  18.925  1.00  0.00     0.000 C 
BRANCH  17  18
ATOM     18  C   UNL     1      77.821   9.965  17.958  1.00  0.00    -0.000 C 
BRANCH  18  19
ATOM     19  C   UNL     1      77.457  10.716  16.667  1.00  0.00    -0.000 C 
BRANCH  19  20
ATOM     20  C   UNL     1      77.958  12.170  16.657  1.00  0.00    -0.000 C 
BRANCH  20  21
ATOM     21  C   UNL     1      79.047  12.495  17.700  1.00  0.00    -0.000 C 
BRANCH  21  22
ATOM     22  C   UNL     1      78.805  13.777  18.519  1.00  0.00    -0.000 C 
BRANCH  22  23
ATOM     23  C   UNL     1      79.204  13.680  20.004  1.00  0.00    -0.000 C 
BRANCH  23  24
ATOM     24  C   UNL     1      79.908  14.945  20.542  1.00  0.00    -0.000 C 
BRANCH  24  25
ATOM     25  C   UNL     1      81.402  14.980  20.191  1.00  0.00    -0.003 C 
ATOM     26  C   UNL     1      82.149  13.819  20.841  1.00  0.00     0.004 C 
ENDBRANCH  24  25
ENDBRANCH  23  24
ENDBRANCH  22  23
ENDBRANCH  21  22
ENDBRANCH  20  21
ENDBRANCH  19  20
ENDBRANCH  18  19
ENDBRANCH  17  18
ENDBRANCH  16  17
ENDBRANCH  15  16
ENDBRANCH   1  15
TORSDOF 22
ENDMDL
MODEL 7
REMARK VINA RESULT:    -4.869      1.612      5.136
REMARK INTER + INTRA:         -15.215
REMARK INTER:                 -11.389
REMARK INTRA:                  -3.825
REMARK UNBOUND:                -4.083
REMARK SMILES CCCCCCCCCCCCCCCCCCCCCCCC(=O)[O-]
REMARK SMILES IDX 13 1 14 2 15 3 16 4 17 5 18 6 19 7 20 8 21 9 22 10 23 11
REMARK SMILES IDX 24 12 25 13 26 14 12 15 11 16 10 17 9 18 8 19 7 20 6 21 5 22
REMARK SMILES IDX 4 23 3 24 2 25 1 26
REMARK H PARENT
REMARK Flexibility Score: inf
ROOT
ATOM      1  C   UNL     1      76.674  10.792  20.058  1.00  0.00     0.000 C 
ENDROOT
BRANCH   1   2
ATOM      2  C   UNL     1      75.794  12.057  20.096  1.00  0.00     0.000 C 
BRANCH   2   3
ATOM      3  C   UNL     1      74.455  11.950  19.336  1.00  0.00     0.000 C 
BRANCH   3   4
ATOM      4  C   UNL     1      73.996  13.242  18.637  1.00  0.00     0.000 C 
BRANCH   4   5
ATOM      5  C   UNL     1      75.166  14.058  18.063  1.00  0.00     0.000 C 
BRANCH   5   6
ATOM      6  C   UNL     1      75.327  13.878  16.544  1.00  0.00     0.000 C 
BRANCH   6   7
ATOM      7  C   UNL     1      75.393  15.219  15.792  1.00  0.00     0.000 C 
BRANCH   7   8
ATOM      8  C   UNL     1      75.163  16.425  16.717  1.00  0.00     0.000 C 
BRANCH   8   9
ATOM      9  C   UNL     1      76.126  17.586  16.429  1.00  0.00     0.000 C 
BRANCH   9  10
ATOM     10  C   UNL     1      76.106  17.961  14.939  1.00  0.00     0.006 C 
BRANCH  10  11
ATOM     11  C   UNL     1      77.356  18.746  14.520  1.00  0.00     0.053 C 
BRANCH  11  12
ATOM     12  C   UNL     1      78.613  17.981  14.801  1.00  0.00     0.041 C 
ATOM     13  O   UNL     1      78.874  16.931  14.157  1.00  0.00    -0.550 OA
ATOM     14  O   UNL     1      79.479  18.410  15.800  1.00  0.00    -0.550 OA
ENDBRANCH  11  12
ENDBRANCH  10  11
ENDBRANCH   9  10
ENDBRANCH   8   9
ENDBRANCH   7   8
ENDBRANCH   6   7
ENDBRANCH   5   6
ENDBRANCH   4   5
ENDBRANCH   3   4
ENDBRANCH   2   3
ENDBRANCH   1   2
BRANCH   1  15
ATOM     15  C   UNL     1      77.600  10.676  18.833  1.00  0.00     0.000 C 
BRANCH  15  16
ATOM     16  C   UNL     1      78.593  11.846  18.725  1.00  0.00     0.000 C 
BRANCH  16  17
ATOM     17  C   UNL     1      78.529  12.550  17.359  1.00  0.00     0.000 C 
BRANCH  17  18
ATOM     18  C   UNL     1      79.854  13.225  16.974  1.00  0.00    -0.000 C 
BRANCH  18  19
ATOM     19  C   UNL     1      79.682  14.748  16.871  1.00  0.00    -0.000 C 
BRANCH  19  20
ATOM     20  C   UNL     1      78.744  15.321  17.947  1.00  0.00    -0.000 C 
BRANCH  20  21
ATOM     21  C   UNL     1      79.308  16.520  18.737  1.00  0.00    -0.000 C 
BRANCH  21  22
ATOM     22  C   UNL     1      79.762  16.201  20.173  1.00  0.00    -0.000 C 
BRANCH  22  23
ATOM     23  C   UNL     1      80.008  14.707  20.457  1.00  0.00    -0.000 C 
BRANCH  23  24
ATOM     24  C   UNL     1      81.436  14.396  20.957  1.00  0.00    -0.000 C 
BRANCH  24  25
ATOM     25  C   UNL     1      82.288  13.685  19.896  1.00  0.00    -0.003 C 
ATOM     26  C   UNL     1      82.887  14.684  18.910  1.00  0.00     0.004 C 
ENDBRANCH  24  25
ENDBRANCH  23  24
ENDBRANCH  22  23
ENDBRANCH  21  22
ENDBRANCH  20  21
ENDBRANCH  19  20
ENDBRANCH  18  19
ENDBRANCH  17  18
ENDBRANCH  16  17
ENDBRANCH  15  16
ENDBRANCH   1  15
TORSDOF 22
ENDMDL
MODEL 8
REMARK VINA RESULT:    -4.834      1.914      5.690
REMARK INTER + INTRA:         -15.133
REMARK INTER:                 -10.949
REMARK INTRA:                  -4.184
REMARK UNBOUND:                -4.083
REMARK SMILES CCCCCCCCCCCCCCCCCCCCCCCC(=O)[O-]
REMARK SMILES IDX 13 1 14 2 15 3 16 4 17 5 18 6 19 7 20 8 21 9 22 10 23 11
REMARK SMILES IDX 24 12 25 13 26 14 12 15 11 16 10 17 9 18 8 19 7 20 6 21 5 22
REMARK SMILES IDX 4 23 3 24 2 25 1 26
REMARK H PARENT
REMARK Flexibility Score: inf
ROOT
ATOM      1  C   UNL     1      76.070  11.875  20.274  1.00  0.00     0.000 C 
ENDROOT
BRANCH   1   2
ATOM      2  C   UNL     1      76.795  10.520  20.148  1.00  0.00     0.000 C 
BRANCH   2   3
ATOM      3  C   UNL     1      76.705   9.854  18.760  1.00  0.00     0.000 C 
BRANCH   3   4
ATOM      4  C   UNL     1      77.969   9.978  17.891  1.00  0.00     0.000 C 
BRANCH   4   5
ATOM      5  C   UNL     1      77.690  10.620  16.521  1.00  0.00     0.000 C 
BRANCH   5   6
ATOM      6  C   UNL     1      78.378  11.986  16.355  1.00  0.00     0.000 C 
BRANCH   6   7
ATOM      7  C   UNL     1      79.159  12.412  17.610  1.00  0.00     0.000 C 
BRANCH   7   8
ATOM      8  C   UNL     1      78.589  13.686  18.254  1.00  0.00     0.000 C 
BRANCH   8   9
ATOM      9  C   UNL     1      78.861  13.762  19.765  1.00  0.00     0.000 C 
BRANCH   9  10
ATOM     10  C   UNL     1      80.111  14.606  20.056  1.00  0.00     0.006 C 
BRANCH  10  11
ATOM     11  C   UNL     1      79.783  16.098  20.199  1.00  0.00     0.053 C 
BRANCH  11  12
ATOM     12  C   UNL     1      80.332  16.900  19.059  1.00  0.00     0.041 C 
ATOM     13  O   UNL     1      79.608  17.747  18.472  1.00  0.00    -0.550 OA
ATOM     14  O   UNL     1      81.633  16.685  18.621  1.00  0.00    -0.550 OA
ENDBRANCH  11  12
ENDBRANCH  10  11
ENDBRANCH   9  10
ENDBRANCH   8   9
ENDBRANCH   7   8
ENDBRANCH   6   7
ENDBRANCH   5   6
ENDBRANCH   4   5
ENDBRANCH   3   4
ENDBRANCH   2   3
ENDBRANCH   1   2
BRANCH   1  15
ATOM     15  C   UNL     1      74.800  12.020  19.414  1.00  0.00     0.000 C 
BRANCH  15  16
ATOM     16  C   UNL     1      74.860  13.228  18.463  1.00  0.00     0.000 C 
BRANCH  16  17
ATOM     17  C   UNL     1      74.783  12.818  16.983  1.00  0.00     0.000 C 
BRANCH  17  18
ATOM     18  C   UNL     1      75.406  13.861  16.043  1.00  0.00    -0.000 C 
BRANCH  18  19
ATOM     19  C   UNL     1      75.231  15.279  16.608  1.00  0.00    -0.000 C 
BRANCH  19  20
ATOM     20  C   UNL     1      74.474  16.217  15.651  1.00  0.00    -0.000 C 
BRANCH  20  21
ATOM     21  C   UNL     1      75.194  17.543  15.327  1.00  0.00    -0.000 C 
BRANCH  21  22
ATOM     22  C   UNL     1      76.521  17.765  16.075  1.00  0.00    -0.000 C 
BRANCH  22  23
ATOM     23  C   UNL     1      77.613  18.479  15.256  1.00  0.00    -0.000 C 
BRANCH  23  24
ATOM     24  C   UNL     1      78.786  17.560  14.850  1.00  0.00    -0.000 C 
BRANCH  24  25
ATOM     25  C   UNL     1      78.703  16.176  15.509  1.00  0.00    -0.003 C 
ATOM     26  C   UNL     1      78.591  15.072  14.460  1.00  0.00     0.004 C 
ENDBRANCH  24  25
ENDBRANCH  23  24
ENDBRANCH  22  23
ENDBRANCH  21  22
ENDBRANCH  20  21
ENDBRANCH  19  20
ENDBRANCH  18  19
ENDBRANCH  17  18
ENDBRANCH  16  17
ENDBRANCH  15  16
ENDBRANCH   1  15
TORSDOF 22
ENDMDL
MODEL 9
REMARK VINA RESULT:    -4.823      3.257      6.176
REMARK INTER + INTRA:         -15.110
REMARK INTER:                 -11.595
REMARK INTRA:                  -3.515
REMARK UNBOUND:                -4.083
REMARK SMILES CCCCCCCCCCCCCCCCCCCCCCCC(=O)[O-]
REMARK SMILES IDX 13 1 14 2 15 3 16 4 17 5 18 6 19 7 20 8 21 9 22 10 23 11
REMARK SMILES IDX 24 12 25 13 26 14 12 15 11 16 10 17 9 18 8 19 7 20 6 21 5 22
REMARK SMILES IDX 4 23 3 24 2 25 1 26
REMARK H PARENT
REMARK Flexibility Score: inf
ROOT
ATOM      1  C   UNL     1      77.740  12.255  20.147  1.00  0.00     0.000 C 
ENDROOT
BRANCH   1   2
ATOM      2  C   UNL     1      78.188  12.262  18.672  1.00  0.00     0.000 C 
BRANCH   2   3
ATOM      3  C   UNL     1      78.406  13.659  18.057  1.00  0.00     0.000 C 
BRANCH   3   4
ATOM      4  C   UNL     1      78.064  14.841  18.981  1.00  0.00     0.000 C 
BRANCH   4   5
ATOM      5  C   UNL     1      79.069  16.000  18.865  1.00  0.00     0.000 C 
BRANCH   5   6
ATOM      6  C   UNL     1      79.953  16.145  20.116  1.00  0.00     0.000 C 
BRANCH   6   7
ATOM      7  C   UNL     1      80.167  14.809  20.849  1.00  0.00     0.000 C 
BRANCH   7   8
ATOM      8  C   UNL     1      81.643  14.381  20.874  1.00  0.00     0.000 C 
BRANCH   8   9
ATOM      9  C   UNL     1      82.024  13.492  19.680  1.00  0.00     0.000 C 
BRANCH   9  10
ATOM     10  C   UNL     1      82.664  12.179  20.156  1.00  0.00     0.006 C 
BRANCH  10  11
ATOM     11  C   UNL     1      83.219  11.349  18.991  1.00  0.00     0.053 C 
BRANCH  11  12
ATOM     12  C   UNL     1      82.460  10.071  18.808  1.00  0.00     0.041 C 
ATOM     13  O   UNL     1      81.217  10.094  18.609  1.00  0.00    -0.550 OA
ATOM     14  O   UNL     1      83.121   8.851  18.892  1.00  0.00    -0.550 OA
ENDBRANCH  11  12
ENDBRANCH  10  11
ENDBRANCH   9  10
ENDBRANCH   8   9
ENDBRANCH   7   8
ENDBRANCH   6   7
ENDBRANCH   5   6
ENDBRANCH   4   5
ENDBRANCH   3   4
ENDBRANCH   2   3
ENDBRANCH   1   2
BRANCH   1  15
ATOM     15  C   UNL     1      76.356  11.631  20.407  1.00  0.00     0.000 C 
BRANCH  15  16
ATOM     16  C   UNL     1      75.487  11.561  19.140  1.00  0.00     0.000 C 
BRANCH  16  17
ATOM     17  C   UNL     1      74.097  12.187  19.341  1.00  0.00     0.000 C 
BRANCH  17  18
ATOM     18  C   UNL     1      73.713  13.159  18.215  1.00  0.00    -0.000 C 
BRANCH  18  19
ATOM     19  C   UNL     1      74.881  13.351  17.236  1.00  0.00    -0.000 C 
BRANCH  19  20
ATOM     20  C   UNL     1      74.851  14.715  16.525  1.00  0.00    -0.000 C 
BRANCH  20  21
ATOM     21  C   UNL     1      74.949  15.941  17.456  1.00  0.00    -0.000 C 
BRANCH  21  22
ATOM     22  C   UNL     1      75.201  17.283  16.744  1.00  0.00    -0.000 C 
BRANCH  22  23
ATOM     23  C   UNL     1      75.485  17.171  15.235  1.00  0.00    -0.000 C 
BRANCH  23  24
ATOM     24  C   UNL     1      76.875  17.704  14.822  1.00  0.00    -0.000 C 
BRANCH  24  25
ATOM     25  C   UNL     1      78.022  16.947  15.507  1.00  0.00    -0.003 C 
ATOM     26  C   UNL     1      78.265  15.596  14.840  1.00  0.00     0.004 C 
ENDBRANCH  24  25
ENDBRANCH  23  24
ENDBRANCH  22  23
ENDBRANCH  21  22
ENDBRANCH  20  21
ENDBRANCH  19  20
ENDBRANCH  18  19
ENDBRANCH  17  18
ENDBRANCH  16  17
ENDBRANCH  15  16
ENDBRANCH   1  15
TORSDOF 22
ENDMDL
