MODEL 1
REMARK VINA RESULT:    -5.199      0.000      0.000
REMARK INTER + INTRA:          -5.782
REMARK INTER:                  -5.655
REMARK INTRA:                  -0.128
REMARK UNBOUND:                -0.128
REMARK SMILES Cc1ccc(C(C)C)cc1O
REMARK SMILES IDX 1 1 2 2 10 3 9 4 5 5 4 6 3 7 11 8 6 10 7 11 8 12
REMARK H PARENT 11 9
REMARK Flexibility Score: inf
ROOT
ATOM      1  C   UNL     1      18.131  30.684  31.958  1.00  0.00     0.048 C 
ATOM      2  C   UNL     1      18.187  29.945  30.651  1.00  0.00    -0.009 A 
ATOM      3  C   UNL     1      18.346  30.649  29.445  1.00  0.00     0.118 A 
ATOM      4  C   UNL     1      18.397  29.953  28.229  1.00  0.00     0.050 A 
ATOM      5  C   UNL     1      18.291  28.550  28.201  1.00  0.00    -0.042 A 
ATOM      6  C   UNL     1      18.133  27.856  29.411  1.00  0.00     0.004 A 
ATOM      7  C   UNL     1      18.080  28.546  30.624  1.00  0.00     0.007 A 
ENDROOT
BRANCH   3   8
ATOM      8  O   UNL     1      18.453  32.040  29.459  1.00  0.00    -0.508 OA
ATOM      9  H   UNL     1      18.914  32.544  28.711  1.00  0.00     0.293 HD
ENDBRANCH   3   8
BRANCH   5  10
ATOM     10  C   UNL     1      18.345  27.787  26.889  1.00  0.00     0.013 C 
ATOM     11  C   UNL     1      18.325  26.273  27.130  1.00  0.00     0.012 C 
ATOM     12  C   UNL     1      19.566  28.198  26.060  1.00  0.00     0.012 C 
ENDBRANCH   5  10
TORSDOF 2
ENDMDL
MODEL 2
REMARK VINA RESULT:    -5.017      2.248      3.133
REMARK INTER + INTRA:          -5.585
REMARK INTER:                  -5.478
REMARK INTRA:                  -0.107
REMARK UNBOUND:                -0.128
REMARK SMILES Cc1ccc(C(C)C)cc1O
REMARK SMILES IDX 1 1 2 2 10 3 9 4 5 5 4 6 3 7 11 8 6 10 7 11 8 12
REMARK H PARENT 11 9
REMARK Flexibility Score: inf
ROOT
ATOM      1  C   UNL     1      18.711  28.499  34.811  1.00  0.00     0.048 C 
ATOM      2  C   UNL     1      18.697  28.439  33.310  1.00  0.00    -0.009 A 
ATOM      3  C   UNL     1      17.926  29.354  32.572  1.00  0.00     0.118 A 
ATOM      4  C   UNL     1      17.917  29.291  31.171  1.00  0.00     0.050 A 
ATOM      5  C   UNL     1      18.675  28.320  30.491  1.00  0.00    -0.042 A 
ATOM      6  C   UNL     1      19.442  27.411  31.238  1.00  0.00     0.004 A 
ATOM      7  C   UNL     1      19.452  27.469  32.634  1.00  0.00     0.007 A 
ENDROOT
BRANCH   3   8
ATOM      8  O   UNL     1      17.171  30.322  33.233  1.00  0.00    -0.508 OA
ATOM      9  H   UNL     1      16.203  30.498  32.989  1.00  0.00     0.293 HD
ENDBRANCH   3   8
BRANCH   5  10
ATOM     10  C   UNL     1      18.672  28.244  28.975  1.00  0.00     0.013 C 
ATOM     11  C   UNL     1      18.304  29.597  28.356  1.00  0.00     0.012 C 
ATOM     12  C   UNL     1      17.737  27.136  28.479  1.00  0.00     0.012 C 
ENDBRANCH   5  10
TORSDOF 2
ENDMDL
MODEL 3
REMARK VINA RESULT:    -5.013      2.787      3.701
REMARK INTER + INTRA:          -5.581
REMARK INTER:                  -5.453
REMARK INTRA:                  -0.127
REMARK UNBOUND:                -0.128
REMARK SMILES Cc1ccc(C(C)C)cc1O
REMARK SMILES IDX 1 1 2 2 10 3 9 4 5 5 4 6 3 7 11 8 6 10 7 11 8 12
REMARK H PARENT 11 9
REMARK Flexibility Score: inf
ROOT
ATOM      1  C   UNL     1      18.738  28.488  34.753  1.00  0.00     0.048 C 
ATOM      2  C   UNL     1      18.718  28.409  33.253  1.00  0.00    -0.009 A 
ATOM      3  C   UNL     1      19.447  27.408  32.587  1.00  0.00     0.118 A 
ATOM      4  C   UNL     1      19.424  27.340  31.186  1.00  0.00     0.050 A 
ATOM      5  C   UNL     1      18.677  28.266  30.435  1.00  0.00    -0.042 A 
ATOM      6  C   UNL     1      17.952  29.262  31.109  1.00  0.00     0.004 A 
ATOM      7  C   UNL     1      17.973  29.333  32.505  1.00  0.00     0.007 A 
ENDROOT
BRANCH   3   8
ATOM      8  O   UNL     1      20.191  26.484  33.319  1.00  0.00    -0.508 OA
ATOM      9  H   UNL     1      20.141  26.443  34.330  1.00  0.00     0.293 HD
ENDBRANCH   3   8
BRANCH   5  10
ATOM     10  C   UNL     1      18.647  28.201  28.918  1.00  0.00     0.013 C 
ATOM     11  C   UNL     1      18.298  29.566  28.314  1.00  0.00     0.012 C 
ATOM     12  C   UNL     1      17.678  27.118  28.430  1.00  0.00     0.012 C 
ENDBRANCH   5  10
TORSDOF 2
ENDMDL
MODEL 4
REMARK VINA RESULT:    -5.005      1.356      1.987
REMARK INTER + INTRA:          -5.572
REMARK INTER:                  -5.452
REMARK INTRA:                  -0.119
REMARK UNBOUND:                -0.128
REMARK SMILES Cc1ccc(C(C)C)cc1O
REMARK SMILES IDX 1 1 2 2 10 3 9 4 5 5 4 6 3 7 11 8 6 10 7 11 8 12
REMARK H PARENT 11 9
REMARK Flexibility Score: inf
ROOT
ATOM      1  C   UNL     1      18.378  31.340  31.602  1.00  0.00     0.048 C 
ATOM      2  C   UNL     1      18.368  30.420  30.414  1.00  0.00    -0.009 A 
ATOM      3  C   UNL     1      18.298  29.028  30.597  1.00  0.00     0.118 A 
ATOM      4  C   UNL     1      18.290  28.175  29.484  1.00  0.00     0.050 A 
ATOM      5  C   UNL     1      18.350  28.698  28.179  1.00  0.00    -0.042 A 
ATOM      6  C   UNL     1      18.419  30.090  28.007  1.00  0.00     0.004 A 
ATOM      7  C   UNL     1      18.429  30.943  29.114  1.00  0.00     0.007 A 
ENDROOT
BRANCH   3   8
ATOM      8  O   UNL     1      18.238  28.496  31.884  1.00  0.00    -0.508 OA
ATOM      9  H   UNL     1      17.354  28.339  32.354  1.00  0.00     0.293 HD
ENDBRANCH   3   8
BRANCH   5  10
ATOM     10  C   UNL     1      18.342  27.783  26.967  1.00  0.00     0.013 C 
ATOM     11  C   UNL     1      18.308  26.310  27.389  1.00  0.00     0.012 C 
ATOM     12  C   UNL     1      19.537  28.068  26.051  1.00  0.00     0.012 C 
ENDBRANCH   5  10
TORSDOF 2
ENDMDL
MODEL 5
REMARK VINA RESULT:    -4.947      2.924      5.386
REMARK INTER + INTRA:          -5.508
REMARK INTER:                  -5.385
REMARK INTRA:                  -0.124
REMARK UNBOUND:                -0.128
REMARK SMILES Cc1ccc(C(C)C)cc1O
REMARK SMILES IDX 1 1 2 2 10 3 9 4 5 5 4 6 3 7 11 8 6 10 7 11 8 12
REMARK H PARENT 11 9
REMARK Flexibility Score: inf
ROOT
ATOM      1  C   UNL     1      18.322  28.152  28.388  1.00  0.00     0.048 C 
ATOM      2  C   UNL     1      18.503  28.253  29.876  1.00  0.00    -0.009 A 
ATOM      3  C   UNL     1      19.299  27.316  30.557  1.00  0.00     0.118 A 
ATOM      4  C   UNL     1      19.463  27.416  31.946  1.00  0.00     0.050 A 
ATOM      5  C   UNL     1      18.838  28.448  32.670  1.00  0.00    -0.042 A 
ATOM      6  C   UNL     1      18.045  29.378  31.980  1.00  0.00     0.004 A 
ATOM      7  C   UNL     1      17.878  29.282  30.597  1.00  0.00     0.007 A 
ENDROOT
BRANCH   3   8
ATOM      8  O   UNL     1      19.925  26.288  29.852  1.00  0.00    -0.508 OA
ATOM      9  H   UNL     1      20.347  25.499  30.327  1.00  0.00     0.293 HD
ENDBRANCH   3   8
BRANCH   5  10
ATOM     10  C   UNL     1      19.010  28.564  34.174  1.00  0.00     0.013 C 
ATOM     11  C   UNL     1      19.617  27.284  34.761  1.00  0.00     0.012 C 
ATOM     12  C   UNL     1      17.681  28.908  34.858  1.00  0.00     0.012 C 
ENDBRANCH   5  10
TORSDOF 2
ENDMDL
MODEL 6
REMARK VINA RESULT:    -4.841      1.608      4.715
REMARK INTER + INTRA:          -5.393
REMARK INTER:                  -5.266
REMARK INTRA:                  -0.127
REMARK UNBOUND:                -0.128
REMARK SMILES Cc1ccc(C(C)C)cc1O
REMARK SMILES IDX 1 1 2 2 10 3 9 4 5 5 4 6 3 7 11 8 6 10 7 11 8 12
REMARK H PARENT 11 9
REMARK Flexibility Score: inf
ROOT
ATOM      1  C   UNL     1      18.416  29.581  28.003  1.00  0.00     0.048 C 
ATOM      2  C   UNL     1      18.360  29.622  29.504  1.00  0.00    -0.009 A 
ATOM      3  C   UNL     1      18.312  30.855  30.178  1.00  0.00     0.118 A 
ATOM      4  C   UNL     1      18.261  30.885  31.579  1.00  0.00     0.050 A 
ATOM      5  C   UNL     1      18.255  29.691  32.323  1.00  0.00    -0.042 A 
ATOM      6  C   UNL     1      18.303  28.465  31.641  1.00  0.00     0.004 A 
ATOM      7  C   UNL     1      18.355  28.430  30.245  1.00  0.00     0.007 A 
ENDROOT
BRANCH   3   8
ATOM      8  O   UNL     1      18.317  32.046  29.453  1.00  0.00    -0.508 OA
ATOM      9  H   UNL     1      17.886  32.889  29.813  1.00  0.00     0.293 HD
ENDBRANCH   3   8
BRANCH   5  10
ATOM     10  C   UNL     1      18.200  29.714  33.840  1.00  0.00     0.013 C 
ATOM     11  C   UNL     1      18.617  28.361  34.428  1.00  0.00     0.012 C 
ATOM     12  C   UNL     1      16.810  30.127  34.336  1.00  0.00     0.012 C 
ENDBRANCH   5  10
TORSDOF 2
ENDMDL
MODEL 7
REMARK VINA RESULT:    -4.839      2.202      4.694
REMARK INTER + INTRA:          -5.391
REMARK INTER:                  -5.264
REMARK INTRA:                  -0.128
REMARK UNBOUND:                -0.128
REMARK SMILES Cc1ccc(C(C)C)cc1O
REMARK SMILES IDX 1 1 2 2 10 3 9 4 5 5 4 6 3 7 11 8 6 10 7 11 8 12
REMARK H PARENT 11 9
REMARK Flexibility Score: inf
ROOT
ATOM      1  C   UNL     1      19.484  28.101  25.745  1.00  0.00     0.048 C 
ATOM      2  C   UNL     1      19.114  28.257  27.192  1.00  0.00    -0.009 A 
ATOM      3  C   UNL     1      19.085  27.136  28.041  1.00  0.00     0.118 A 
ATOM      4  C   UNL     1      18.738  27.290  29.391  1.00  0.00     0.050 A 
ATOM      5  C   UNL     1      18.418  28.557  29.910  1.00  0.00    -0.042 A 
ATOM      6  C   UNL     1      18.449  29.670  29.055  1.00  0.00     0.004 A 
ATOM      7  C   UNL     1      18.793  29.522  27.709  1.00  0.00     0.007 A 
ENDROOT
BRANCH   3   8
ATOM      8  O   UNL     1      19.401  25.874  27.540  1.00  0.00    -0.508 OA
ATOM      9  H   UNL     1      19.346  25.667  26.549  1.00  0.00     0.293 HD
ENDBRANCH   3   8
BRANCH   5  10
ATOM     10  C   UNL     1      18.041  28.733  31.370  1.00  0.00     0.013 C 
ATOM     11  C   UNL     1      17.924  30.217  31.735  1.00  0.00     0.012 C 
ATOM     12  C   UNL     1      19.035  28.015  32.289  1.00  0.00     0.012 C 
ENDBRANCH   5  10
TORSDOF 2
ENDMDL
MODEL 8
REMARK VINA RESULT:    -4.808      2.229      4.336
REMARK INTER + INTRA:          -5.357
REMARK INTER:                  -5.251
REMARK INTRA:                  -0.106
REMARK UNBOUND:                -0.128
REMARK SMILES Cc1ccc(C(C)C)cc1O
REMARK SMILES IDX 1 1 2 2 10 3 9 4 5 5 4 6 3 7 11 8 6 10 7 11 8 12
REMARK H PARENT 11 9
REMARK Flexibility Score: inf
ROOT
ATOM      1  C   UNL     1      18.759  24.488  28.311  1.00  0.00     0.048 C 
ATOM      2  C   UNL     1      18.670  25.988  28.319  1.00  0.00    -0.009 A 
ATOM      3  C   UNL     1      19.235  26.725  29.375  1.00  0.00     0.118 A 
ATOM      4  C   UNL     1      19.147  28.124  29.377  1.00  0.00     0.050 A 
ATOM      5  C   UNL     1      18.499  28.804  28.329  1.00  0.00    -0.042 A 
ATOM      6  C   UNL     1      17.939  28.059  27.279  1.00  0.00     0.004 A 
ATOM      7  C   UNL     1      18.023  26.664  27.274  1.00  0.00     0.007 A 
ENDROOT
BRANCH   3   8
ATOM      8  O   UNL     1      19.880  26.064  30.419  1.00  0.00    -0.508 OA
ATOM      9  H   UNL     1      19.404  25.371  30.985  1.00  0.00     0.293 HD
ENDBRANCH   3   8
BRANCH   5  10
ATOM     10  C   UNL     1      18.399  30.319  28.322  1.00  0.00     0.013 C 
ATOM     11  C   UNL     1      19.493  30.940  27.447  1.00  0.00     0.012 C 
ATOM     12  C   UNL     1      18.445  30.883  29.747  1.00  0.00     0.012 C 
ENDBRANCH   5  10
TORSDOF 2
ENDMDL
MODEL 9
REMARK VINA RESULT:    -4.777      4.106      6.343
REMARK INTER + INTRA:          -5.324
REMARK INTER:                  -5.198
REMARK INTRA:                  -0.126
REMARK UNBOUND:                -0.128
REMARK SMILES Cc1ccc(C(C)C)cc1O
REMARK SMILES IDX 1 1 2 2 10 3 9 4 5 5 4 6 3 7 11 8 6 10 7 11 8 12
REMARK H PARENT 11 9
REMARK Flexibility Score: inf
ROOT
ATOM      1  C   UNL     1      19.909  26.879  32.856  1.00  0.00     0.048 C 
ATOM      2  C   UNL     1      19.021  28.008  33.296  1.00  0.00    -0.009 A 
ATOM      3  C   UNL     1      18.420  28.850  32.344  1.00  0.00     0.118 A 
ATOM      4  C   UNL     1      17.593  29.902  32.763  1.00  0.00     0.050 A 
ATOM      5  C   UNL     1      17.355  30.127  34.131  1.00  0.00    -0.042 A 
ATOM      6  C   UNL     1      17.959  29.280  35.075  1.00  0.00     0.004 A 
ATOM      7  C   UNL     1      18.785  28.232  34.661  1.00  0.00     0.007 A 
ENDROOT
BRANCH   3   8
ATOM      8  O   UNL     1      18.647  28.639  30.985  1.00  0.00    -0.508 OA
ATOM      9  H   UNL     1      18.455  29.357  30.296  1.00  0.00     0.293 HD
ENDBRANCH   3   8
BRANCH   5  10
ATOM     10  C   UNL     1      16.461  31.263  34.595  1.00  0.00     0.013 C 
ATOM     11  C   UNL     1      16.461  32.414  33.581  1.00  0.00     0.012 C 
ATOM     12  C   UNL     1      16.869  31.755  35.988  1.00  0.00     0.012 C 
ENDBRANCH   5  10
TORSDOF 2
ENDMDL
