MODEL 1
REMARK VINA RESULT:    -4.596      0.000      0.000
REMARK INTER + INTRA:          -9.658
REMARK INTER:                  -7.282
REMARK INTRA:                  -2.375
REMARK UNBOUND:                -2.375
REMARK SMILES C[C@@H]1O[C@H](O[C@@H]2[C@H](Oc3cc(O)c4c(c3)O[C@H](c3ccc(O)cc3)CC4=O)O[C@@H](CO)[C@H](O)[C@H]2O)[C@H](O)[C@H](O)[C@H]1O
REMARK SMILES IDX 6 1 34 2 32 3 29 4 28 5 7 6 5 7 4 8 1 9 2 10 40 11 3 12
REMARK SMILES IDX 38 13 36 14 41 15 39 17 37 19 35 21 8 23 9 24 10 25 15 26
REMARK SMILES IDX 11 27 14 28 13 29 16 30 26 31 17 32 27 33 25 34 12 35 18 37
REMARK SMILES IDX 19 38 24 39 20 40 23 41 21 42 22 43 33 45 30 47 31 48
REMARK H PARENT 41 16 39 18 37 20 35 22 12 36 22 44 33 46 31 49
REMARK Flexibility Score: inf
ROOT
ATOM      1  C   UNL     1      25.474  27.695  40.124  1.00  0.00     0.221 C 
ATOM      2  C   UNL     1      26.669  27.574  39.158  1.00  0.00     0.181 C 
ATOM      3  C   UNL     1      28.013  27.946  39.838  1.00  0.00     0.177 C 
ATOM      4  C   UNL     1      28.042  27.707  41.397  1.00  0.00     0.179 C 
ATOM      5  O   UNL     1      26.806  27.825  42.108  1.00  0.00    -0.332 OA
ATOM      6  C   UNL     1      25.800  28.507  41.393  1.00  0.00     0.339 C 
ENDROOT
BRANCH   1   7
ATOM      7  O   UNL     1      24.223  27.861  39.456  1.00  0.00    -0.337 OA
BRANCH   7   8
ATOM      8  C   UNL     1      23.097  27.022  39.692  1.00  0.00     0.282 C 
ATOM      9  C   UNL     1      20.029  26.006  38.147  1.00  0.00     0.041 C 
ATOM     10  C   UNL     1      20.785  26.601  39.342  1.00  0.00     0.150 C 
ATOM     11  C   UNL     1      20.980  25.497  40.445  1.00  0.00     0.174 C 
ATOM     12  O   UNL     1      21.970  27.259  38.874  1.00  0.00    -0.344 OA
ATOM     13  C   UNL     1      22.285  24.681  40.260  1.00  0.00     0.179 C 
ATOM     14  C   UNL     1      23.464  25.532  39.687  1.00  0.00     0.202 C 
BRANCH  11  15
ATOM     15  O   UNL     1      20.990  26.099  41.717  1.00  0.00    -0.388 OA
ATOM     16  H   UNL     1      21.104  25.368  42.384  1.00  0.00     0.211 HD
ENDBRANCH  11  15
BRANCH  13  17
ATOM     17  O   UNL     1      22.025  23.544  39.469  1.00  0.00    -0.387 OA
ATOM     18  H   UNL     1      22.360  23.739  38.554  1.00  0.00     0.211 HD
ENDBRANCH  13  17
BRANCH  14  19
ATOM     19  O   UNL     1      23.833  25.107  38.396  1.00  0.00    -0.385 OA
ATOM     20  H   UNL     1      24.484  25.756  38.036  1.00  0.00     0.211 HD
ENDBRANCH  14  19
ENDBRANCH   7   8
ENDBRANCH   1   7
BRANCH   2  21
ATOM     21  O   UNL     1      26.751  26.252  38.678  1.00  0.00    -0.387 OA
ATOM     22  H   UNL     1      27.181  26.277  37.782  1.00  0.00     0.211 HD
ENDBRANCH   2  21
BRANCH   6  23
ATOM     23  O   UNL     1      26.234  29.840  41.109  1.00  0.00    -0.462 OA
BRANCH  23  24
ATOM     24  C   UNL     1      25.369  30.848  40.659  1.00  0.00     0.130 A 
ATOM     25  C   UNL     1      24.143  31.029  41.312  1.00  0.00     0.093 A 
ATOM     26  C   UNL     1      25.712  31.694  39.597  1.00  0.00     0.094 A 
ATOM     27  C   UNL     1      23.243  32.018  40.899  1.00  0.00     0.133 A 
ATOM     28  C   UNL     1      24.875  32.752  39.241  1.00  0.00     0.138 A 
ATOM     29  C   UNL     1      23.624  32.923  39.880  1.00  0.00     0.102 A 
ATOM     30  O   UNL     1      25.324  33.678  38.284  1.00  0.00    -0.484 OA
ATOM     31  C   UNL     1      22.824  34.111  39.481  1.00  0.00     0.174 C 
ATOM     32  C   UNL     1      24.691  34.944  38.062  1.00  0.00     0.211 C 
ATOM     33  O   UNL     1      21.914  34.581  40.212  1.00  0.00    -0.294 OA
ATOM     34  C   UNL     1      23.164  34.811  38.199  1.00  0.00     0.131 C 
BRANCH  27  35
ATOM     35  O   UNL     1      21.987  32.045  41.510  1.00  0.00    -0.507 OA
ATOM     36  H   UNL     1      21.217  32.608  41.186  1.00  0.00     0.293 HD
ENDBRANCH  27  35
BRANCH  32  37
ATOM     37  C   UNL     1      25.234  36.018  38.992  1.00  0.00    -0.007 A 
ATOM     38  C   UNL     1      24.665  37.302  39.070  1.00  0.00     0.011 A 
ATOM     39  C   UNL     1      26.390  35.750  39.749  1.00  0.00     0.011 A 
ATOM     40  C   UNL     1      25.236  38.293  39.881  1.00  0.00     0.046 A 
ATOM     41  C   UNL     1      26.959  36.733  40.565  1.00  0.00     0.046 A 
ATOM     42  C   UNL     1      26.388  38.012  40.622  1.00  0.00     0.115 A 
BRANCH  42  43
ATOM     43  O   UNL     1      26.961  39.013  41.402  1.00  0.00    -0.508 OA
ATOM     44  H   UNL     1      26.488  39.896  41.554  1.00  0.00     0.293 HD
ENDBRANCH  42  43
ENDBRANCH  32  37
ENDBRANCH  23  24
ENDBRANCH   6  23
BRANCH   3  45
ATOM     45  O   UNL     1      28.313  29.289  39.549  1.00  0.00    -0.387 OA
ATOM     46  H   UNL     1      27.452  29.778  39.478  1.00  0.00     0.211 HD
ENDBRANCH   3  45
BRANCH   4  47
ATOM     47  C   UNL     1      28.659  26.342  41.734  1.00  0.00     0.191 C 
BRANCH  47  48
ATOM     48  O   UNL     1      27.775  25.300  41.418  1.00  0.00    -0.394 OA
ATOM     49  H   UNL     1      27.461  24.927  42.282  1.00  0.00     0.210 HD
ENDBRANCH  47  48
ENDBRANCH   4  47
TORSDOF 14
ENDMDL
MODEL 2
REMARK VINA RESULT:    -4.516      3.857     10.279
REMARK INTER + INTRA:          -9.530
REMARK INTER:                  -7.631
REMARK INTRA:                  -1.900
REMARK UNBOUND:                -2.375
REMARK SMILES C[C@@H]1O[C@H](O[C@@H]2[C@H](Oc3cc(O)c4c(c3)O[C@H](c3ccc(O)cc3)CC4=O)O[C@@H](CO)[C@H](O)[C@H]2O)[C@H](O)[C@H](O)[C@H]1O
REMARK SMILES IDX 6 1 34 2 32 3 29 4 28 5 7 6 5 7 4 8 1 9 2 10 40 11 3 12
REMARK SMILES IDX 38 13 36 14 41 15 39 17 37 19 35 21 8 23 9 24 10 25 15 26
REMARK SMILES IDX 11 27 14 28 13 29 16 30 26 31 17 32 27 33 25 34 12 35 18 37
REMARK SMILES IDX 19 38 24 39 20 40 23 41 21 42 22 43 33 45 30 47 31 48
REMARK H PARENT 41 16 39 18 37 20 35 22 12 36 22 44 33 46 31 49
REMARK Flexibility Score: inf
ROOT
ATOM      1  C   UNL     1      20.692  35.064  41.806  1.00  0.00     0.221 C 
ATOM      2  C   UNL     1      19.984  36.427  41.931  1.00  0.00     0.181 C 
ATOM      3  C   UNL     1      18.931  36.438  43.070  1.00  0.00     0.177 C 
ATOM      4  C   UNL     1      19.231  35.427  44.243  1.00  0.00     0.179 C 
ATOM      5  O   UNL     1      19.945  34.231  43.921  1.00  0.00    -0.332 OA
ATOM      6  C   UNL     1      19.956  33.928  42.543  1.00  0.00     0.339 C 
ENDROOT
BRANCH   1   7
ATOM      7  O   UNL     1      21.264  34.841  40.516  1.00  0.00    -0.337 OA
BRANCH   7   8
ATOM      8  C   UNL     1      22.423  35.525  40.050  1.00  0.00     0.282 C 
ATOM      9  C   UNL     1      25.734  36.397  41.105  1.00  0.00     0.041 C 
ATOM     10  C   UNL     1      24.356  36.806  40.569  1.00  0.00     0.150 C 
ATOM     11  C   UNL     1      24.437  37.023  39.014  1.00  0.00     0.174 C 
ATOM     12  O   UNL     1      23.370  35.877  41.039  1.00  0.00    -0.344 OA
ATOM     13  C   UNL     1      24.163  35.728  38.207  1.00  0.00     0.179 C 
ATOM     14  C   UNL     1      23.106  34.796  38.885  1.00  0.00     0.202 C 
BRANCH  11  15
ATOM     15  O   UNL     1      23.513  38.011  38.628  1.00  0.00    -0.388 OA
ATOM     16  H   UNL     1      22.883  38.133  39.390  1.00  0.00     0.211 HD
ENDBRANCH  11  15
BRANCH  13  17
ATOM     17  O   UNL     1      25.377  35.055  37.963  1.00  0.00    -0.387 OA
ATOM     18  H   UNL     1      25.865  35.006  38.828  1.00  0.00     0.211 HD
ENDBRANCH  13  17
BRANCH  14  19
ATOM     19  O   UNL     1      23.680  33.584  39.313  1.00  0.00    -0.385 OA
ATOM     20  H   UNL     1      23.566  33.523  40.292  1.00  0.00     0.211 HD
ENDBRANCH  14  19
ENDBRANCH   7   8
ENDBRANCH   1   7
BRANCH   2  21
ATOM     21  O   UNL     1      20.941  37.430  42.184  1.00  0.00    -0.387 OA
ATOM     22  H   UNL     1      21.633  37.049  42.787  1.00  0.00     0.211 HD
ENDBRANCH   2  21
BRANCH   6  23
ATOM     23  O   UNL     1      18.615  33.737  42.083  1.00  0.00    -0.462 OA
BRANCH  23  24
ATOM     24  C   UNL     1      18.183  32.565  41.448  1.00  0.00     0.130 A 
ATOM     25  C   UNL     1      17.535  32.665  40.210  1.00  0.00     0.093 A 
ATOM     26  C   UNL     1      18.409  31.299  42.004  1.00  0.00     0.094 A 
ATOM     27  C   UNL     1      17.082  31.524  39.537  1.00  0.00     0.133 A 
ATOM     28  C   UNL     1      18.059  30.147  41.298  1.00  0.00     0.138 A 
ATOM     29  C   UNL     1      17.381  30.243  40.060  1.00  0.00     0.102 A 
ATOM     30  O   UNL     1      18.446  28.897  41.808  1.00  0.00    -0.484 OA
ATOM     31  C   UNL     1      17.101  28.968  39.348  1.00  0.00     0.174 C 
ATOM     32  C   UNL     1      18.406  27.690  41.038  1.00  0.00     0.211 C 
ATOM     33  O   UNL     1      16.866  28.929  38.112  1.00  0.00    -0.294 OA
ATOM     34  C   UNL     1      17.173  27.683  40.118  1.00  0.00     0.131 C 
BRANCH  27  35
ATOM     35  O   UNL     1      16.325  31.715  38.378  1.00  0.00    -0.507 OA
ATOM     36  H   UNL     1      15.496  31.189  38.156  1.00  0.00     0.293 HD
ENDBRANCH  27  35
BRANCH  32  37
ATOM     37  C   UNL     1      19.686  27.484  40.242  1.00  0.00    -0.007 A 
ATOM     38  C   UNL     1      19.682  26.967  38.934  1.00  0.00     0.011 A 
ATOM     39  C   UNL     1      20.925  27.748  40.854  1.00  0.00     0.011 A 
ATOM     40  C   UNL     1      20.884  26.718  38.256  1.00  0.00     0.046 A 
ATOM     41  C   UNL     1      22.126  27.509  40.180  1.00  0.00     0.046 A 
ATOM     42  C   UNL     1      22.107  26.981  38.881  1.00  0.00     0.115 A 
BRANCH  42  43
ATOM     43  O   UNL     1      23.293  26.703  38.208  1.00  0.00    -0.508 OA
ATOM     44  H   UNL     1      24.179  27.080  38.525  1.00  0.00     0.293 HD
ENDBRANCH  42  43
ENDBRANCH  32  37
ENDBRANCH  23  24
ENDBRANCH   6  23
BRANCH   3  45
ATOM     45  O   UNL     1      17.663  36.180  42.521  1.00  0.00    -0.387 OA
ATOM     46  H   UNL     1      17.449  35.227  42.700  1.00  0.00     0.211 HD
ENDBRANCH   3  45
BRANCH   4  47
ATOM     47  C   UNL     1      19.963  36.124  45.399  1.00  0.00     0.191 C 
BRANCH  47  48
ATOM     48  O   UNL     1      21.303  36.374  45.064  1.00  0.00    -0.394 OA
ATOM     49  H   UNL     1      21.817  35.573  45.345  1.00  0.00     0.210 HD
ENDBRANCH  47  48
ENDBRANCH   4  47
TORSDOF 14
ENDMDL
MODEL 3
REMARK VINA RESULT:    -4.506     12.151     14.750
REMARK INTER + INTRA:          -9.515
REMARK INTER:                  -6.964
REMARK INTRA:                  -2.551
REMARK UNBOUND:                -2.375
REMARK SMILES C[C@@H]1O[C@H](O[C@@H]2[C@H](Oc3cc(O)c4c(c3)O[C@H](c3ccc(O)cc3)CC4=O)O[C@@H](CO)[C@H](O)[C@H]2O)[C@H](O)[C@H](O)[C@H]1O
REMARK SMILES IDX 6 1 34 2 32 3 29 4 28 5 7 6 5 7 4 8 1 9 2 10 40 11 3 12
REMARK SMILES IDX 38 13 36 14 41 15 39 17 37 19 35 21 8 23 9 24 10 25 15 26
REMARK SMILES IDX 11 27 14 28 13 29 16 30 26 31 17 32 27 33 25 34 12 35 18 37
REMARK SMILES IDX 19 38 24 39 20 40 23 41 21 42 22 43 33 45 30 47 31 48
REMARK H PARENT 41 16 39 18 37 20 35 22 12 36 22 44 33 46 31 49
REMARK Flexibility Score: inf
ROOT
ATOM      1  C   UNL     1      26.345  28.364  52.611  1.00  0.00     0.221 C 
ATOM      2  C   UNL     1      26.670  28.987  53.983  1.00  0.00     0.181 C 
ATOM      3  C   UNL     1      26.422  27.996  55.151  1.00  0.00     0.177 C 
ATOM      4  C   UNL     1      26.564  26.476  54.755  1.00  0.00     0.179 C 
ATOM      5  O   UNL     1      26.254  26.110  53.408  1.00  0.00    -0.332 OA
ATOM      6  C   UNL     1      25.501  27.079  52.713  1.00  0.00     0.339 C 
ENDROOT
BRANCH   1   7
ATOM      7  O   UNL     1      26.071  29.335  51.601  1.00  0.00    -0.337 OA
BRANCH   7   8
ATOM      8  C   UNL     1      25.620  30.654  51.892  1.00  0.00     0.282 C 
ATOM      9  C   UNL     1      26.839  34.017  52.093  1.00  0.00     0.041 C 
ATOM     10  C   UNL     1      26.121  32.820  52.731  1.00  0.00     0.150 C 
ATOM     11  C   UNL     1      24.566  33.037  52.657  1.00  0.00     0.174 C 
ATOM     12  O   UNL     1      26.629  31.605  52.163  1.00  0.00    -0.344 OA
ATOM     13  C   UNL     1      23.939  32.484  51.352  1.00  0.00     0.179 C 
ATOM     14  C   UNL     1      24.645  31.189  50.834  1.00  0.00     0.202 C 
BRANCH  11  15
ATOM     15  O   UNL     1      23.952  32.419  53.761  1.00  0.00    -0.388 OA
ATOM     16  H   UNL     1      23.115  31.994  53.428  1.00  0.00     0.211 HD
ENDBRANCH  11  15
BRANCH  13  17
ATOM     17  O   UNL     1      23.913  33.496  50.371  1.00  0.00    -0.387 OA
ATOM     18  H   UNL     1      24.149  33.071  49.503  1.00  0.00     0.211 HD
ENDBRANCH  13  17
BRANCH  14  19
ATOM     19  O   UNL     1      25.301  31.409  49.608  1.00  0.00    -0.385 OA
ATOM     20  H   UNL     1      25.185  30.602  49.051  1.00  0.00     0.211 HD
ENDBRANCH  14  19
ENDBRANCH   7   8
ENDBRANCH   1   7
BRANCH   2  21
ATOM     21  O   UNL     1      28.020  29.390  54.006  1.00  0.00    -0.387 OA
ATOM     22  H   UNL     1      28.187  29.856  54.868  1.00  0.00     0.211 HD
ENDBRANCH   2  21
BRANCH   6  23
ATOM     23  O   UNL     1      24.250  27.282  53.378  1.00  0.00    -0.462 OA
BRANCH  23  24
ATOM     24  C   UNL     1      23.178  27.973  52.798  1.00  0.00     0.130 A 
ATOM     25  C   UNL     1      22.468  27.368  51.753  1.00  0.00     0.093 A 
ATOM     26  C   UNL     1      22.781  29.236  53.256  1.00  0.00     0.094 A 
ATOM     27  C   UNL     1      21.392  28.019  51.138  1.00  0.00     0.133 A 
ATOM     28  C   UNL     1      21.646  29.853  52.727  1.00  0.00     0.138 A 
ATOM     29  C   UNL     1      20.942  29.258  51.653  1.00  0.00     0.102 A 
ATOM     30  O   UNL     1      21.182  31.039  53.319  1.00  0.00    -0.484 OA
ATOM     31  C   UNL     1      19.710  29.952  51.192  1.00  0.00     0.174 C 
ATOM     32  C   UNL     1      19.885  31.590  53.058  1.00  0.00     0.211 C 
ATOM     33  O   UNL     1      18.812  29.360  50.539  1.00  0.00    -0.294 OA
ATOM     34  C   UNL     1      19.504  31.385  51.582  1.00  0.00     0.131 C 
BRANCH  27  35
ATOM     35  O   UNL     1      20.824  27.410  50.015  1.00  0.00    -0.507 OA
ATOM     36  H   UNL     1      21.200  26.588  49.573  1.00  0.00     0.293 HD
ENDBRANCH  27  35
BRANCH  32  37
ATOM     37  C   UNL     1      18.828  31.007  53.984  1.00  0.00    -0.007 A 
ATOM     38  C   UNL     1      18.984  29.757  54.609  1.00  0.00     0.011 A 
ATOM     39  C   UNL     1      17.619  31.703  54.170  1.00  0.00     0.011 A 
ATOM     40  C   UNL     1      17.959  29.214  55.396  1.00  0.00     0.046 A 
ATOM     41  C   UNL     1      16.596  31.170  54.960  1.00  0.00     0.046 A 
ATOM     42  C   UNL     1      16.761  29.916  55.565  1.00  0.00     0.115 A 
BRANCH  42  43
ATOM     43  O   UNL     1      15.740  29.353  56.326  1.00  0.00    -0.508 OA
ATOM     44  H   UNL     1      15.120  29.930  56.884  1.00  0.00     0.293 HD
ENDBRANCH  42  43
ENDBRANCH  32  37
ENDBRANCH  23  24
ENDBRANCH   6  23
BRANCH   3  45
ATOM     45  O   UNL     1      25.146  28.238  55.689  1.00  0.00    -0.387 OA
ATOM     46  H   UNL     1      25.266  28.804  56.496  1.00  0.00     0.211 HD
ENDBRANCH   3  45
BRANCH   4  47
ATOM     47  C   UNL     1      27.970  25.951  55.081  1.00  0.00     0.191 C 
BRANCH  47  48
ATOM     48  O   UNL     1      28.698  26.894  55.821  1.00  0.00    -0.394 OA
ATOM     49  H   UNL     1      29.163  26.390  56.538  1.00  0.00     0.210 HD
ENDBRANCH  47  48
ENDBRANCH   4  47
TORSDOF 14
ENDMDL
MODEL 4
REMARK VINA RESULT:    -4.435      2.288      5.551
REMARK INTER + INTRA:          -9.402
REMARK INTER:                  -6.475
REMARK INTRA:                  -2.928
REMARK UNBOUND:                -2.375
REMARK SMILES C[C@@H]1O[C@H](O[C@@H]2[C@H](Oc3cc(O)c4c(c3)O[C@H](c3ccc(O)cc3)CC4=O)O[C@@H](CO)[C@H](O)[C@H]2O)[C@H](O)[C@H](O)[C@H]1O
REMARK SMILES IDX 6 1 34 2 32 3 29 4 28 5 7 6 5 7 4 8 1 9 2 10 40 11 3 12
REMARK SMILES IDX 38 13 36 14 41 15 39 17 37 19 35 21 8 23 9 24 10 25 15 26
REMARK SMILES IDX 11 27 14 28 13 29 16 30 26 31 17 32 27 33 25 34 12 35 18 37
REMARK SMILES IDX 19 38 24 39 20 40 23 41 21 42 22 43 33 45 30 47 31 48
REMARK H PARENT 41 16 39 18 37 20 35 22 12 36 22 44 33 46 31 49
REMARK Flexibility Score: inf
ROOT
ATOM      1  C   UNL     1      25.668  28.425  39.882  1.00  0.00     0.221 C 
ATOM      2  C   UNL     1      26.108  27.095  40.526  1.00  0.00     0.181 C 
ATOM      3  C   UNL     1      24.907  26.286  41.081  1.00  0.00     0.177 C 
ATOM      4  C   UNL     1      23.541  26.561  40.344  1.00  0.00     0.179 C 
ATOM      5  O   UNL     1      23.345  27.857  39.772  1.00  0.00    -0.332 OA
ATOM      6  C   UNL     1      24.233  28.837  40.265  1.00  0.00     0.339 C 
ENDROOT
BRANCH   1   7
ATOM      7  O   UNL     1      26.711  29.398  39.824  1.00  0.00    -0.337 OA
BRANCH   7   8
ATOM      8  C   UNL     1      26.478  30.774  39.545  1.00  0.00     0.282 C 
ATOM      9  C   UNL     1      26.045  33.906  41.230  1.00  0.00     0.041 C 
ATOM     10  C   UNL     1      25.543  32.844  40.243  1.00  0.00     0.150 C 
ATOM     11  C   UNL     1      25.857  33.302  38.771  1.00  0.00     0.174 C 
ATOM     12  O   UNL     1      26.040  31.558  40.636  1.00  0.00    -0.344 OA
ATOM     13  C   UNL     1      27.251  32.838  38.277  1.00  0.00     0.179 C 
ATOM     14  C   UNL     1      27.668  31.442  38.845  1.00  0.00     0.202 C 
BRANCH  11  15
ATOM     15  O   UNL     1      24.870  32.801  37.902  1.00  0.00    -0.388 OA
ATOM     16  H   UNL     1      24.037  33.318  38.079  1.00  0.00     0.211 HD
ENDBRANCH  11  15
BRANCH  13  17
ATOM     17  O   UNL     1      28.210  33.829  38.565  1.00  0.00    -0.387 OA
ATOM     18  H   UNL     1      27.894  34.322  39.369  1.00  0.00     0.211 HD
ENDBRANCH  13  17
BRANCH  14  19
ATOM     19  O   UNL     1      28.773  31.542  39.711  1.00  0.00    -0.385 OA
ATOM     20  H   UNL     1      28.613  32.300  40.322  1.00  0.00     0.211 HD
ENDBRANCH  14  19
ENDBRANCH   7   8
ENDBRANCH   1   7
BRANCH   2  21
ATOM     21  O   UNL     1      26.783  26.313  39.568  1.00  0.00    -0.387 OA
ATOM     22  H   UNL     1      27.435  25.736  40.046  1.00  0.00     0.211 HD
ENDBRANCH   2  21
BRANCH   6  23
ATOM     23  O   UNL     1      24.049  28.984  41.676  1.00  0.00    -0.462 OA
BRANCH  23  24
ATOM     24  C   UNL     1      23.527  30.145  42.263  1.00  0.00     0.130 A 
ATOM     25  C   UNL     1      24.152  30.666  43.403  1.00  0.00     0.093 A 
ATOM     26  C   UNL     1      22.419  30.810  41.723  1.00  0.00     0.094 A 
ATOM     27  C   UNL     1      23.668  31.821  44.029  1.00  0.00     0.133 A 
ATOM     28  C   UNL     1      21.989  32.020  42.270  1.00  0.00     0.138 A 
ATOM     29  C   UNL     1      22.600  32.537  43.438  1.00  0.00     0.102 A 
ATOM     30  O   UNL     1      20.982  32.742  41.608  1.00  0.00    -0.484 OA
ATOM     31  C   UNL     1      22.119  33.859  43.916  1.00  0.00     0.174 C 
ATOM     32  C   UNL     1      20.675  34.110  41.905  1.00  0.00     0.211 C 
ATOM     33  O   UNL     1      22.808  34.586  44.678  1.00  0.00    -0.294 OA
ATOM     34  C   UNL     1      20.801  34.370  43.416  1.00  0.00     0.131 C 
BRANCH  27  35
ATOM     35  O   UNL     1      24.261  32.199  45.237  1.00  0.00    -0.507 OA
ATOM     36  H   UNL     1      24.819  33.029  45.352  1.00  0.00     0.293 HD
ENDBRANCH  27  35
BRANCH  32  37
ATOM     37  C   UNL     1      21.544  35.070  41.108  1.00  0.00    -0.007 A 
ATOM     38  C   UNL     1      22.183  34.690  39.913  1.00  0.00     0.011 A 
ATOM     39  C   UNL     1      21.782  36.362  41.612  1.00  0.00     0.011 A 
ATOM     40  C   UNL     1      23.038  35.576  39.242  1.00  0.00     0.046 A 
ATOM     41  C   UNL     1      22.628  37.252  40.944  1.00  0.00     0.046 A 
ATOM     42  C   UNL     1      23.268  36.854  39.761  1.00  0.00     0.115 A 
BRANCH  42  43
ATOM     43  O   UNL     1      24.141  37.714  39.100  1.00  0.00    -0.508 OA
ATOM     44  H   UNL     1      24.555  38.509  39.573  1.00  0.00     0.293 HD
ENDBRANCH  42  43
ENDBRANCH  32  37
ENDBRANCH  23  24
ENDBRANCH   6  23
BRANCH   3  45
ATOM     45  O   UNL     1      24.777  26.550  42.456  1.00  0.00    -0.387 OA
ATOM     46  H   UNL     1      24.090  27.259  42.559  1.00  0.00     0.211 HD
ENDBRANCH   3  45
BRANCH   4  47
ATOM     47  C   UNL     1      23.282  25.513  39.252  1.00  0.00     0.191 C 
BRANCH  47  48
ATOM     48  O   UNL     1      24.038  25.791  38.103  1.00  0.00    -0.394 OA
ATOM     49  H   UNL     1      24.222  24.917  37.670  1.00  0.00     0.210 HD
ENDBRANCH  47  48
ENDBRANCH   4  47
TORSDOF 14
ENDMDL
MODEL 5
REMARK VINA RESULT:    -4.405      2.635      8.427
REMARK INTER + INTRA:          -9.356
REMARK INTER:                  -6.803
REMARK INTRA:                  -2.552
REMARK UNBOUND:                -2.375
REMARK SMILES C[C@@H]1O[C@H](O[C@@H]2[C@H](Oc3cc(O)c4c(c3)O[C@H](c3ccc(O)cc3)CC4=O)O[C@@H](CO)[C@H](O)[C@H]2O)[C@H](O)[C@H](O)[C@H]1O
REMARK SMILES IDX 6 1 34 2 32 3 29 4 28 5 7 6 5 7 4 8 1 9 2 10 40 11 3 12
REMARK SMILES IDX 38 13 36 14 41 15 39 17 37 19 35 21 8 23 9 24 10 25 15 26
REMARK SMILES IDX 11 27 14 28 13 29 16 30 26 31 17 32 27 33 25 34 12 35 18 37
REMARK SMILES IDX 19 38 24 39 20 40 23 41 21 42 22 43 33 45 30 47 31 48
REMARK H PARENT 41 16 39 18 37 20 35 22 12 36 22 44 33 46 31 49
REMARK Flexibility Score: inf
ROOT
ATOM      1  C   UNL     1      24.362  34.591  40.569  1.00  0.00     0.221 C 
ATOM      2  C   UNL     1      23.713  35.610  39.611  1.00  0.00     0.181 C 
ATOM      3  C   UNL     1      23.338  36.933  40.328  1.00  0.00     0.177 C 
ATOM      4  C   UNL     1      24.229  37.267  41.585  1.00  0.00     0.179 C 
ATOM      5  O   UNL     1      24.777  36.169  42.319  1.00  0.00    -0.332 OA
ATOM      6  C   UNL     1      24.146  34.935  42.056  1.00  0.00     0.339 C 
ENDROOT
BRANCH   1   7
ATOM      7  O   UNL     1      24.258  33.242  40.113  1.00  0.00    -0.337 OA
BRANCH   7   8
ATOM      8  C   UNL     1      25.369  32.498  39.625  1.00  0.00     0.282 C 
ATOM      9  C   UNL     1      28.548  32.981  38.045  1.00  0.00     0.041 C 
ATOM     10  C   UNL     1      27.160  32.327  38.073  1.00  0.00     0.150 C 
ATOM     11  C   UNL     1      27.281  30.856  38.613  1.00  0.00     0.174 C 
ATOM     12  O   UNL     1      26.242  33.191  38.757  1.00  0.00    -0.344 OA
ATOM     13  C   UNL     1      27.153  30.765  40.155  1.00  0.00     0.179 C 
ATOM     14  C   UNL     1      26.158  31.814  40.750  1.00  0.00     0.202 C 
BRANCH  11  15
ATOM     15  O   UNL     1      26.289  30.054  38.021  1.00  0.00    -0.388 OA
ATOM     16  H   UNL     1      26.535  29.948  37.061  1.00  0.00     0.211 HD
ENDBRANCH  11  15
BRANCH  13  17
ATOM     17  O   UNL     1      28.430  30.861  40.744  1.00  0.00    -0.387 OA
ATOM     18  H   UNL     1      29.091  30.556  40.065  1.00  0.00     0.211 HD
ENDBRANCH  13  17
BRANCH  14  19
ATOM     19  O   UNL     1      26.820  32.762  41.552  1.00  0.00    -0.385 OA
ATOM     20  H   UNL     1      26.678  33.653  41.151  1.00  0.00     0.211 HD
ENDBRANCH  14  19
ENDBRANCH   7   8
ENDBRANCH   1   7
BRANCH   2  21
ATOM     21  O   UNL     1      24.606  35.897  38.560  1.00  0.00    -0.387 OA
ATOM     22  H   UNL     1      24.684  35.085  37.992  1.00  0.00     0.211 HD
ENDBRANCH   2  21
BRANCH   6  23
ATOM     23  O   UNL     1      22.765  35.017  42.418  1.00  0.00    -0.462 OA
BRANCH  23  24
ATOM     24  C   UNL     1      21.909  33.907  42.426  1.00  0.00     0.130 A 
ATOM     25  C   UNL     1      20.653  34.015  41.813  1.00  0.00     0.093 A 
ATOM     26  C   UNL     1      22.288  32.687  43.002  1.00  0.00     0.094 A 
ATOM     27  C   UNL     1      19.761  32.937  41.798  1.00  0.00     0.133 A 
ATOM     28  C   UNL     1      21.456  31.572  42.902  1.00  0.00     0.138 A 
ATOM     29  C   UNL     1      20.176  31.683  42.309  1.00  0.00     0.102 A 
ATOM     30  O   UNL     1      21.935  30.328  43.345  1.00  0.00    -0.484 OA
ATOM     31  C   UNL     1      19.381  30.433  42.189  1.00  0.00     0.174 C 
ATOM     32  C   UNL     1      21.298  29.084  43.026  1.00  0.00     0.211 C 
ATOM     33  O   UNL     1      18.434  30.317  41.368  1.00  0.00    -0.294 OA
ATOM     34  C   UNL     1      19.768  29.251  43.027  1.00  0.00     0.131 C 
BRANCH  27  35
ATOM     35  O   UNL     1      18.479  33.165  41.291  1.00  0.00    -0.507 OA
ATOM     36  H   UNL     1      17.937  32.471  40.804  1.00  0.00     0.293 HD
ENDBRANCH  27  35
BRANCH  32  37
ATOM     37  C   UNL     1      21.788  28.522  41.700  1.00  0.00    -0.007 A 
ATOM     38  C   UNL     1      21.076  27.538  40.992  1.00  0.00     0.011 A 
ATOM     39  C   UNL     1      23.032  28.943  41.194  1.00  0.00     0.011 A 
ATOM     40  C   UNL     1      21.592  26.986  39.811  1.00  0.00     0.046 A 
ATOM     41  C   UNL     1      23.548  28.401  40.013  1.00  0.00     0.046 A 
ATOM     42  C   UNL     1      22.833  27.411  39.325  1.00  0.00     0.115 A 
BRANCH  42  43
ATOM     43  O   UNL     1      23.348  26.835  38.167  1.00  0.00    -0.508 OA
ATOM     44  H   UNL     1      23.333  25.831  38.028  1.00  0.00     0.293 HD
ENDBRANCH  42  43
ENDBRANCH  32  37
ENDBRANCH  23  24
ENDBRANCH   6  23
BRANCH   3  45
ATOM     45  O   UNL     1      21.982  36.882  40.695  1.00  0.00    -0.387 OA
ATOM     46  H   UNL     1      21.606  36.038  40.334  1.00  0.00     0.211 HD
ENDBRANCH   3  45
BRANCH   4  47
ATOM     47  C   UNL     1      25.379  38.213  41.211  1.00  0.00     0.191 C 
BRANCH  47  48
ATOM     48  O   UNL     1      25.259  38.645  39.882  1.00  0.00    -0.394 OA
ATOM     49  H   UNL     1      24.491  38.150  39.494  1.00  0.00     0.210 HD
ENDBRANCH  47  48
ENDBRANCH   4  47
TORSDOF 14
ENDMDL
MODEL 6
REMARK VINA RESULT:    -4.385      2.471      7.879
REMARK INTER + INTRA:          -9.324
REMARK INTER:                  -6.674
REMARK INTRA:                  -2.651
REMARK UNBOUND:                -2.375
REMARK SMILES C[C@@H]1O[C@H](O[C@@H]2[C@H](Oc3cc(O)c4c(c3)O[C@H](c3ccc(O)cc3)CC4=O)O[C@@H](CO)[C@H](O)[C@H]2O)[C@H](O)[C@H](O)[C@H]1O
REMARK SMILES IDX 6 1 34 2 32 3 29 4 28 5 7 6 5 7 4 8 1 9 2 10 40 11 3 12
REMARK SMILES IDX 38 13 36 14 41 15 39 17 37 19 35 21 8 23 9 24 10 25 15 26
REMARK SMILES IDX 11 27 14 28 13 29 16 30 26 31 17 32 27 33 25 34 12 35 18 37
REMARK SMILES IDX 19 38 24 39 20 40 23 41 21 42 22 43 33 45 30 47 31 48
REMARK H PARENT 41 16 39 18 37 20 35 22 12 36 22 44 33 46 31 49
REMARK Flexibility Score: inf
ROOT
ATOM      1  C   UNL     1      24.913  33.546  39.936  1.00  0.00     0.221 C 
ATOM      2  C   UNL     1      24.859  34.329  38.609  1.00  0.00     0.181 C 
ATOM      3  C   UNL     1      24.541  35.832  38.828  1.00  0.00     0.177 C 
ATOM      4  C   UNL     1      24.993  36.395  40.230  1.00  0.00     0.179 C 
ATOM      5  O   UNL     1      25.015  35.486  41.333  1.00  0.00    -0.332 OA
ATOM      6  C   UNL     1      24.274  34.306  41.115  1.00  0.00     0.339 C 
ENDROOT
BRANCH   1   7
ATOM      7  O   UNL     1      24.697  32.144  39.773  1.00  0.00    -0.337 OA
BRANCH   7   8
ATOM      8  C   UNL     1      25.590  31.155  40.276  1.00  0.00     0.282 C 
ATOM      9  C   UNL     1      25.830  27.608  40.717  1.00  0.00     0.041 C 
ATOM     10  C   UNL     1      25.880  29.029  41.295  1.00  0.00     0.150 C 
ATOM     11  C   UNL     1      27.377  29.482  41.451  1.00  0.00     0.174 C 
ATOM     12  O   UNL     1      25.025  29.884  40.525  1.00  0.00    -0.344 OA
ATOM     13  C   UNL     1      27.935  30.177  40.182  1.00  0.00     0.179 C 
ATOM     14  C   UNL     1      26.860  31.024  39.426  1.00  0.00     0.202 C 
BRANCH  11  15
ATOM     15  O   UNL     1      27.491  30.361  42.544  1.00  0.00    -0.388 OA
ATOM     16  H   UNL     1      27.476  29.802  43.369  1.00  0.00     0.211 HD
ENDBRANCH  11  15
BRANCH  13  17
ATOM     17  O   UNL     1      28.535  29.218  39.342  1.00  0.00    -0.387 OA
ATOM     18  H   UNL     1      29.426  29.573  39.079  1.00  0.00     0.211 HD
ENDBRANCH  13  17
BRANCH  14  19
ATOM     19  O   UNL     1      26.568  30.482  38.160  1.00  0.00    -0.385 OA
ATOM     20  H   UNL     1      26.574  29.498  38.241  1.00  0.00     0.211 HD
ENDBRANCH  14  19
ENDBRANCH   7   8
ENDBRANCH   1   7
BRANCH   2  21
ATOM     21  O   UNL     1      26.098  34.216  37.949  1.00  0.00    -0.387 OA
ATOM     22  H   UNL     1      26.622  35.040  38.134  1.00  0.00     0.211 HD
ENDBRANCH   2  21
BRANCH   6  23
ATOM     23  O   UNL     1      22.901  34.637  40.890  1.00  0.00    -0.462 OA
BRANCH  23  24
ATOM     24  C   UNL     1      21.845  33.763  41.180  1.00  0.00     0.130 A 
ATOM     25  C   UNL     1      20.593  33.995  40.597  1.00  0.00     0.093 A 
ATOM     26  C   UNL     1      22.018  32.650  42.013  1.00  0.00     0.094 A 
ATOM     27  C   UNL     1      19.506  33.153  40.858  1.00  0.00     0.133 A 
ATOM     28  C   UNL     1      20.975  31.741  42.200  1.00  0.00     0.138 A 
ATOM     29  C   UNL     1      19.701  31.986  41.634  1.00  0.00     0.102 A 
ATOM     30  O   UNL     1      21.230  30.553  42.905  1.00  0.00    -0.484 OA
ATOM     31  C   UNL     1      18.666  30.936  41.832  1.00  0.00     0.174 C 
ATOM     32  C   UNL     1      20.336  29.433  42.903  1.00  0.00     0.211 C 
ATOM     33  O   UNL     1      17.655  30.844  41.089  1.00  0.00    -0.294 OA
ATOM     34  C   UNL     1      18.875  29.915  42.910  1.00  0.00     0.131 C 
BRANCH  27  35
ATOM     35  O   UNL     1      18.259  33.529  40.350  1.00  0.00    -0.507 OA
ATOM     36  H   UNL     1      17.708  34.286  40.720  1.00  0.00     0.293 HD
ENDBRANCH  27  35
BRANCH  32  37
ATOM     37  C   UNL     1      20.602  28.501  41.730  1.00  0.00    -0.007 A 
ATOM     38  C   UNL     1      19.579  27.755  41.118  1.00  0.00     0.011 A 
ATOM     39  C   UNL     1      21.923  28.318  41.284  1.00  0.00     0.011 A 
ATOM     40  C   UNL     1      19.869  26.847  40.089  1.00  0.00     0.046 A 
ATOM     41  C   UNL     1      22.217  27.421  40.253  1.00  0.00     0.046 A 
ATOM     42  C   UNL     1      21.189  26.674  39.661  1.00  0.00     0.115 A 
BRANCH  42  43
ATOM     43  O   UNL     1      21.467  25.749  38.658  1.00  0.00    -0.508 OA
ATOM     44  H   UNL     1      22.346  25.245  38.636  1.00  0.00     0.293 HD
ENDBRANCH  42  43
ENDBRANCH  32  37
ENDBRANCH  23  24
ENDBRANCH   6  23
BRANCH   3  45
ATOM     45  O   UNL     1      23.162  36.036  38.645  1.00  0.00    -0.387 OA
ATOM     46  H   UNL     1      22.698  35.207  38.932  1.00  0.00     0.211 HD
ENDBRANCH   3  45
BRANCH   4  47
ATOM     47  C   UNL     1      26.370  37.068  40.136  1.00  0.00     0.191 C 
BRANCH  47  48
ATOM     48  O   UNL     1      27.395  36.111  40.134  1.00  0.00    -0.394 OA
ATOM     49  H   UNL     1      28.114  36.471  39.552  1.00  0.00     0.210 HD
ENDBRANCH  47  48
ENDBRANCH   4  47
TORSDOF 14
ENDMDL
MODEL 7
REMARK VINA RESULT:    -4.351      2.432      9.011
REMARK INTER + INTRA:          -9.269
REMARK INTER:                  -7.308
REMARK INTRA:                  -1.961
REMARK UNBOUND:                -2.375
REMARK SMILES C[C@@H]1O[C@H](O[C@@H]2[C@H](Oc3cc(O)c4c(c3)O[C@H](c3ccc(O)cc3)CC4=O)O[C@@H](CO)[C@H](O)[C@H]2O)[C@H](O)[C@H](O)[C@H]1O
REMARK SMILES IDX 6 1 34 2 32 3 29 4 28 5 7 6 5 7 4 8 1 9 2 10 40 11 3 12
REMARK SMILES IDX 38 13 36 14 41 15 39 17 37 19 35 21 8 23 9 24 10 25 15 26
REMARK SMILES IDX 11 27 14 28 13 29 16 30 26 31 17 32 27 33 25 34 12 35 18 37
REMARK SMILES IDX 19 38 24 39 20 40 23 41 21 42 22 43 33 45 30 47 31 48
REMARK H PARENT 41 16 39 18 37 20 35 22 12 36 22 44 33 46 31 49
REMARK Flexibility Score: inf
ROOT
ATOM      1  C   UNL     1      24.331  34.119  39.486  1.00  0.00     0.221 C 
ATOM      2  C   UNL     1      23.011  34.487  38.780  1.00  0.00     0.181 C 
ATOM      3  C   UNL     1      21.910  34.919  39.784  1.00  0.00     0.177 C 
ATOM      4  C   UNL     1      22.460  35.541  41.125  1.00  0.00     0.179 C 
ATOM      5  O   UNL     1      23.736  35.091  41.589  1.00  0.00    -0.332 OA
ATOM      6  C   UNL     1      24.164  33.884  40.999  1.00  0.00     0.339 C 
ENDROOT
BRANCH   1   7
ATOM      7  O   UNL     1      25.169  33.264  38.706  1.00  0.00    -0.337 OA
BRANCH   7   8
ATOM      8  C   UNL     1      26.536  33.018  39.019  1.00  0.00     0.282 C 
ATOM      9  C   UNL     1      28.561  31.200  41.348  1.00  0.00     0.041 C 
ATOM     10  C   UNL     1      28.171  32.519  40.669  1.00  0.00     0.150 C 
ATOM     11  C   UNL     1      29.198  32.846  39.524  1.00  0.00     0.174 C 
ATOM     12  O   UNL     1      26.787  32.470  40.297  1.00  0.00    -0.344 OA
ATOM     13  C   UNL     1      28.796  32.236  38.157  1.00  0.00     0.179 C 
ATOM     14  C   UNL     1      27.249  32.203  37.932  1.00  0.00     0.202 C 
BRANCH  11  15
ATOM     15  O   UNL     1      29.322  34.241  39.387  1.00  0.00    -0.388 OA
ATOM     16  H   UNL     1      28.469  34.641  39.710  1.00  0.00     0.211 HD
ENDBRANCH  11  15
BRANCH  13  17
ATOM     17  O   UNL     1      29.374  30.957  38.020  1.00  0.00    -0.387 OA
ATOM     18  H   UNL     1      29.014  30.391  38.754  1.00  0.00     0.211 HD
ENDBRANCH  13  17
BRANCH  14  19
ATOM     19  O   UNL     1      26.759  30.885  37.885  1.00  0.00    -0.385 OA
ATOM     20  H   UNL     1      27.085  30.410  38.687  1.00  0.00     0.211 HD
ENDBRANCH  14  19
ENDBRANCH   7   8
ENDBRANCH   1   7
BRANCH   2  21
ATOM     21  O   UNL     1      23.243  35.542  37.875  1.00  0.00    -0.387 OA
ATOM     22  H   UNL     1      23.504  36.345  38.399  1.00  0.00     0.211 HD
ENDBRANCH   2  21
BRANCH   6  23
ATOM     23  O   UNL     1      23.231  32.843  41.306  1.00  0.00    -0.462 OA
BRANCH  23  24
ATOM     24  C   UNL     1      23.613  31.513  41.527  1.00  0.00     0.130 A 
ATOM     25  C   UNL     1      23.538  30.994  42.826  1.00  0.00     0.093 A 
ATOM     26  C   UNL     1      24.037  30.684  40.480  1.00  0.00     0.094 A 
ATOM     27  C   UNL     1      23.912  29.673  43.099  1.00  0.00     0.133 A 
ATOM     28  C   UNL     1      24.311  29.336  40.716  1.00  0.00     0.138 A 
ATOM     29  C   UNL     1      24.263  28.814  42.031  1.00  0.00     0.102 A 
ATOM     30  O   UNL     1      24.574  28.497  39.620  1.00  0.00    -0.484 OA
ATOM     31  C   UNL     1      24.509  27.356  42.182  1.00  0.00     0.174 C 
ATOM     32  C   UNL     1      24.574  27.067  39.711  1.00  0.00     0.211 C 
ATOM     33  O   UNL     1      24.130  26.715  43.196  1.00  0.00    -0.294 OA
ATOM     34  C   UNL     1      25.169  26.616  41.057  1.00  0.00     0.131 C 
BRANCH  27  35
ATOM     35  O   UNL     1      23.941  29.273  44.438  1.00  0.00    -0.507 OA
ATOM     36  H   UNL     1      24.063  28.319  44.736  1.00  0.00     0.293 HD
ENDBRANCH  27  35
BRANCH  32  37
ATOM     37  C   UNL     1      23.182  26.488  39.504  1.00  0.00    -0.007 A 
ATOM     38  C   UNL     1      22.774  25.282  40.103  1.00  0.00     0.011 A 
ATOM     39  C   UNL     1      22.292  27.135  38.628  1.00  0.00     0.011 A 
ATOM     40  C   UNL     1      21.512  24.736  39.832  1.00  0.00     0.046 A 
ATOM     41  C   UNL     1      21.029  26.599  38.360  1.00  0.00     0.046 A 
ATOM     42  C   UNL     1      20.642  25.390  38.953  1.00  0.00     0.115 A 
BRANCH  42  43
ATOM     43  O   UNL     1      19.402  24.822  38.671  1.00  0.00    -0.508 OA
ATOM     44  H   UNL     1      19.048  24.038  39.206  1.00  0.00     0.293 HD
ENDBRANCH  42  43
ENDBRANCH  32  37
ENDBRANCH  23  24
ENDBRANCH   6  23
BRANCH   3  45
ATOM     45  O   UNL     1      21.090  33.812  40.064  1.00  0.00    -0.387 OA
ATOM     46  H   UNL     1      21.636  33.158  40.574  1.00  0.00     0.211 HD
ENDBRANCH   3  45
BRANCH   4  47
ATOM     47  C   UNL     1      22.491  37.074  41.050  1.00  0.00     0.191 C 
BRANCH  47  48
ATOM     48  O   UNL     1      23.252  37.506  39.953  1.00  0.00    -0.394 OA
ATOM     49  H   UNL     1      23.621  36.689  39.528  1.00  0.00     0.210 HD
ENDBRANCH  47  48
ENDBRANCH   4  47
TORSDOF 14
ENDMDL
MODEL 8
REMARK VINA RESULT:    -4.325      2.907      8.300
REMARK INTER + INTRA:          -9.229
REMARK INTER:                  -7.136
REMARK INTRA:                  -2.093
REMARK UNBOUND:                -2.375
REMARK SMILES C[C@@H]1O[C@H](O[C@@H]2[C@H](Oc3cc(O)c4c(c3)O[C@H](c3ccc(O)cc3)CC4=O)O[C@@H](CO)[C@H](O)[C@H]2O)[C@H](O)[C@H](O)[C@H]1O
REMARK SMILES IDX 6 1 34 2 32 3 29 4 28 5 7 6 5 7 4 8 1 9 2 10 40 11 3 12
REMARK SMILES IDX 38 13 36 14 41 15 39 17 37 19 35 21 8 23 9 24 10 25 15 26
REMARK SMILES IDX 11 27 14 28 13 29 16 30 26 31 17 32 27 33 25 34 12 35 18 37
REMARK SMILES IDX 19 38 24 39 20 40 23 41 21 42 22 43 33 45 30 47 31 48
REMARK H PARENT 41 16 39 18 37 20 35 22 12 36 22 44 33 46 31 49
REMARK Flexibility Score: inf
ROOT
ATOM      1  C   UNL     1      23.740  33.245  40.178  1.00  0.00     0.221 C 
ATOM      2  C   UNL     1      23.863  33.522  38.667  1.00  0.00     0.181 C 
ATOM      3  C   UNL     1      23.447  34.971  38.300  1.00  0.00     0.177 C 
ATOM      4  C   UNL     1      23.644  36.018  39.463  1.00  0.00     0.179 C 
ATOM      5  O   UNL     1      23.532  35.545  40.807  1.00  0.00    -0.332 OA
ATOM      6  C   UNL     1      22.888  34.294  40.919  1.00  0.00     0.339 C 
ENDROOT
BRANCH   1   7
ATOM      7  O   UNL     1      23.615  31.857  40.490  1.00  0.00    -0.337 OA
BRANCH   7   8
ATOM      8  C   UNL     1      24.643  30.906  40.230  1.00  0.00     0.282 C 
ATOM      9  C   UNL     1      28.153  30.412  40.744  1.00  0.00     0.041 C 
ATOM     10  C   UNL     1      26.942  30.484  39.805  1.00  0.00     0.150 C 
ATOM     11  C   UNL     1      26.450  29.029  39.466  1.00  0.00     0.174 C 
ATOM     12  O   UNL     1      25.968  31.380  40.356  1.00  0.00    -0.344 OA
ATOM     13  C   UNL     1      25.404  28.493  40.477  1.00  0.00     0.179 C 
ATOM     14  C   UNL     1      24.456  29.608  41.027  1.00  0.00     0.202 C 
BRANCH  11  15
ATOM     15  O   UNL     1      25.894  29.009  38.174  1.00  0.00    -0.388 OA
ATOM     16  H   UNL     1      26.098  29.891  37.757  1.00  0.00     0.211 HD
ENDBRANCH  11  15
BRANCH  13  17
ATOM     17  O   UNL     1      26.059  27.801  41.516  1.00  0.00    -0.387 OA
ATOM     18  H   UNL     1      26.892  28.302  41.724  1.00  0.00     0.211 HD
ENDBRANCH  13  17
BRANCH  14  19
ATOM     19  O   UNL     1      24.654  29.826  42.403  1.00  0.00    -0.385 OA
ATOM     20  H   UNL     1      25.175  29.068  42.760  1.00  0.00     0.211 HD
ENDBRANCH  14  19
ENDBRANCH   7   8
ENDBRANCH   1   7
BRANCH   2  21
ATOM     21  O   UNL     1      25.196  33.312  38.260  1.00  0.00    -0.387 OA
ATOM     22  H   UNL     1      25.673  34.183  38.311  1.00  0.00     0.211 HD
ENDBRANCH   2  21
BRANCH   6  23
ATOM     23  O   UNL     1      21.555  34.395  40.411  1.00  0.00    -0.462 OA
BRANCH  23  24
ATOM     24  C   UNL     1      20.539  33.487  40.742  1.00  0.00     0.130 A 
ATOM     25  C   UNL     1      19.361  33.482  39.983  1.00  0.00     0.093 A 
ATOM     26  C   UNL     1      20.684  32.569  41.790  1.00  0.00     0.094 A 
ATOM     27  C   UNL     1      18.316  32.598  40.276  1.00  0.00     0.133 A 
ATOM     28  C   UNL     1      19.698  31.610  42.027  1.00  0.00     0.138 A 
ATOM     29  C   UNL     1      18.495  31.618  41.282  1.00  0.00     0.102 A 
ATOM     30  O   UNL     1      19.947  30.604  42.975  1.00  0.00    -0.484 OA
ATOM     31  C   UNL     1      17.527  30.525  41.559  1.00  0.00     0.174 C 
ATOM     32  C   UNL     1      19.149  29.418  43.087  1.00  0.00     0.211 C 
ATOM     33  O   UNL     1      16.633  30.198  40.736  1.00  0.00    -0.294 OA
ATOM     34  C   UNL     1      17.667  29.745  42.832  1.00  0.00     0.131 C 
BRANCH  27  35
ATOM     35  O   UNL     1      17.124  32.749  39.564  1.00  0.00    -0.507 OA
ATOM     36  H   UNL     1      16.671  32.002  39.063  1.00  0.00     0.293 HD
ENDBRANCH  27  35
BRANCH  32  37
ATOM     37  C   UNL     1      19.638  28.318  42.157  1.00  0.00    -0.007 A 
ATOM     38  C   UNL     1      20.951  28.290  41.653  1.00  0.00     0.011 A 
ATOM     39  C   UNL     1      18.732  27.333  41.724  1.00  0.00     0.011 A 
ATOM     40  C   UNL     1      21.348  27.305  40.737  1.00  0.00     0.046 A 
ATOM     41  C   UNL     1      19.124  26.344  40.817  1.00  0.00     0.046 A 
ATOM     42  C   UNL     1      20.432  26.336  40.313  1.00  0.00     0.115 A 
BRANCH  42  43
ATOM     43  O   UNL     1      20.831  25.380  39.382  1.00  0.00    -0.508 OA
ATOM     44  H   UNL     1      20.934  24.405  39.640  1.00  0.00     0.293 HD
ENDBRANCH  42  43
ENDBRANCH  32  37
ENDBRANCH  23  24
ENDBRANCH   6  23
BRANCH   3  45
ATOM     45  O   UNL     1      22.107  34.966  37.875  1.00  0.00    -0.387 OA
ATOM     46  H   UNL     1      21.559  34.609  38.621  1.00  0.00     0.211 HD
ENDBRANCH   3  45
BRANCH   4  47
ATOM     47  C   UNL     1      24.987  36.750  39.325  1.00  0.00     0.191 C 
BRANCH  47  48
ATOM     48  O   UNL     1      24.809  38.140  39.384  1.00  0.00    -0.394 OA
ATOM     49  H   UNL     1      24.254  38.317  40.188  1.00  0.00     0.210 HD
ENDBRANCH  47  48
ENDBRANCH   4  47
TORSDOF 14
ENDMDL
MODEL 9
REMARK VINA RESULT:    -3.931     13.624     17.795
REMARK INTER + INTRA:          -8.605
REMARK INTER:                  -5.893
REMARK INTRA:                  -2.712
REMARK UNBOUND:                -2.375
REMARK SMILES C[C@@H]1O[C@H](O[C@@H]2[C@H](Oc3cc(O)c4c(c3)O[C@H](c3ccc(O)cc3)CC4=O)O[C@@H](CO)[C@H](O)[C@H]2O)[C@H](O)[C@H](O)[C@H]1O
REMARK SMILES IDX 6 1 34 2 32 3 29 4 28 5 7 6 5 7 4 8 1 9 2 10 40 11 3 12
REMARK SMILES IDX 38 13 36 14 41 15 39 17 37 19 35 21 8 23 9 24 10 25 15 26
REMARK SMILES IDX 11 27 14 28 13 29 16 30 26 31 17 32 27 33 25 34 12 35 18 37
REMARK SMILES IDX 19 38 24 39 20 40 23 41 21 42 22 43 33 45 30 47 31 48
REMARK H PARENT 41 16 39 18 37 20 35 22 12 36 22 44 33 46 31 49
REMARK Flexibility Score: inf
ROOT
ATOM      1  C   UNL     1      26.558  27.033  54.206  1.00  0.00     0.221 C 
ATOM      2  C   UNL     1      26.161  27.926  55.398  1.00  0.00     0.181 C 
ATOM      3  C   UNL     1      27.014  29.219  55.473  1.00  0.00     0.177 C 
ATOM      4  C   UNL     1      27.574  29.710  54.082  1.00  0.00     0.179 C 
ATOM      5  O   UNL     1      27.839  28.717  53.087  1.00  0.00    -0.332 OA
ATOM      6  C   UNL     1      27.925  27.406  53.599  1.00  0.00     0.339 C 
ENDROOT
BRANCH   1   7
ATOM      7  O   UNL     1      26.188  25.665  54.377  1.00  0.00    -0.337 OA
BRANCH   7   8
ATOM      8  C   UNL     1      25.243  25.004  53.542  1.00  0.00     0.282 C 
ATOM      9  C   UNL     1      22.907  22.289  53.612  1.00  0.00     0.041 C 
ATOM     10  C   UNL     1      24.110  22.994  52.973  1.00  0.00     0.150 C 
ATOM     11  C   UNL     1      23.638  23.803  51.710  1.00  0.00     0.174 C 
ATOM     12  O   UNL     1      24.819  23.729  53.980  1.00  0.00    -0.344 OA
ATOM     13  C   UNL     1      23.202  25.252  52.047  1.00  0.00     0.179 C 
ATOM     14  C   UNL     1      24.036  25.889  53.206  1.00  0.00     0.202 C 
BRANCH  11  15
ATOM     15  O   UNL     1      24.677  23.844  50.762  1.00  0.00    -0.388 OA
ATOM     16  H   UNL     1      25.134  24.723  50.869  1.00  0.00     0.211 HD
ENDBRANCH  11  15
BRANCH  13  17
ATOM     17  O   UNL     1      21.819  25.279  52.319  1.00  0.00    -0.387 OA
ATOM     18  H   UNL     1      21.713  25.295  53.308  1.00  0.00     0.211 HD
ENDBRANCH  13  17
BRANCH  14  19
ATOM     19  O   UNL     1      23.246  26.121  54.348  1.00  0.00    -0.385 OA
ATOM     20  H   UNL     1      23.401  27.051  54.641  1.00  0.00     0.211 HD
ENDBRANCH  14  19
ENDBRANCH   7   8
ENDBRANCH   1   7
BRANCH   2  21
ATOM     21  O   UNL     1      24.802  28.280  55.285  1.00  0.00    -0.387 OA
ATOM     22  H   UNL     1      24.548  28.220  54.326  1.00  0.00     0.211 HD
ENDBRANCH   2  21
BRANCH   6  23
ATOM     23  O   UNL     1      28.997  27.330  54.543  1.00  0.00    -0.462 OA
BRANCH  23  24
ATOM     24  C   UNL     1      29.529  26.116  55.001  1.00  0.00     0.130 A 
ATOM     25  C   UNL     1      30.004  26.039  56.317  1.00  0.00     0.093 A 
ATOM     26  C   UNL     1      29.570  24.976  54.188  1.00  0.00     0.094 A 
ATOM     27  C   UNL     1      30.548  24.851  56.820  1.00  0.00     0.133 A 
ATOM     28  C   UNL     1      30.010  23.757  54.707  1.00  0.00     0.138 A 
ATOM     29  C   UNL     1      30.516  23.680  56.027  1.00  0.00     0.102 A 
ATOM     30  O   UNL     1      29.884  22.601  53.919  1.00  0.00    -0.484 OA
ATOM     31  C   UNL     1      30.905  22.332  56.518  1.00  0.00     0.174 C 
ATOM     32  C   UNL     1      30.022  21.275  54.445  1.00  0.00     0.211 C 
ATOM     33  O   UNL     1      30.998  22.067  57.744  1.00  0.00    -0.294 OA
ATOM     34  C   UNL     1      31.125  21.237  55.517  1.00  0.00     0.131 C 
BRANCH  27  35
ATOM     35  O   UNL     1      31.125  24.893  58.092  1.00  0.00    -0.507 OA
ATOM     36  H   UNL     1      31.260  24.082  58.673  1.00  0.00     0.293 HD
ENDBRANCH  27  35
BRANCH  32  37
ATOM     37  C   UNL     1      28.705  20.745  54.992  1.00  0.00    -0.007 A 
ATOM     38  C   UNL     1      28.651  19.754  55.988  1.00  0.00     0.011 A 
ATOM     39  C   UNL     1      27.497  21.203  54.436  1.00  0.00     0.011 A 
ATOM     40  C   UNL     1      27.423  19.232  56.417  1.00  0.00     0.046 A 
ATOM     41  C   UNL     1      26.268  20.691  54.865  1.00  0.00     0.046 A 
ATOM     42  C   UNL     1      26.231  19.694  55.850  1.00  0.00     0.115 A 
BRANCH  42  43
ATOM     43  O   UNL     1      25.019  19.148  56.264  1.00  0.00    -0.508 OA
ATOM     44  H   UNL     1      24.135  19.563  55.994  1.00  0.00     0.293 HD
ENDBRANCH  42  43
ENDBRANCH  32  37
ENDBRANCH  23  24
ENDBRANCH   6  23
BRANCH   3  45
ATOM     45  O   UNL     1      28.072  29.016  56.376  1.00  0.00    -0.387 OA
ATOM     46  H   UNL     1      28.694  29.784  56.284  1.00  0.00     0.211 HD
ENDBRANCH   3  45
BRANCH   4  47
ATOM     47  C   UNL     1      26.659  30.775  53.463  1.00  0.00     0.191 C 
BRANCH  47  48
ATOM     48  O   UNL     1      25.378  30.256  53.222  1.00  0.00    -0.394 OA
ATOM     49  H   UNL     1      25.165  30.465  52.276  1.00  0.00     0.210 HD
ENDBRANCH  47  48
ENDBRANCH   4  47
TORSDOF 14
ENDMDL
