MODEL 1
REMARK VINA RESULT:    -4.150      0.000      0.000
REMARK INTER + INTRA:          -7.549
REMARK INTER:                  -5.727
REMARK INTRA:                  -1.822
REMARK UNBOUND:                -1.822
REMARK SMILES CC[C@H](CC[C@H](C)[C@@H]1CC[C@@H]2[C@H]3CC=C4C[C@@H](O)CC[C@]4(C)[C@@H]3CC[C@]21C)C(C)C
REMARK SMILES IDX 5 1 4 2 3 3 2 4 1 5 28 6 29 7 30 8 6 9 7 10 8 11 9 12 26 13
REMARK SMILES IDX 10 14 11 15 25 16 27 17 12 18 24 19 23 20 13 21 21 22 14 23
REMARK SMILES IDX 15 24 20 25 22 26 16 27 19 28 17 29 18 30
REMARK H PARENT 18 31
REMARK Flexibility Score: inf
ROOT
ATOM      1  C   UNL     1      37.512 -45.021  31.995  1.00  0.00     0.004 C 
ENDROOT
BRANCH   1   2
ATOM      2  C   UNL     1      37.676 -45.797  30.667  1.00  0.00     0.004 C 
BRANCH   2   3
ATOM      3  C   UNL     1      38.623 -45.129  29.634  1.00  0.00    -0.009 C 
BRANCH   3   4
ATOM      4  C   UNL     1      39.551 -46.166  28.932  1.00  0.00     0.000 C 
ATOM      5  C   UNL     1      41.019 -45.742  28.835  1.00  0.00     0.004 C 
ENDBRANCH   3   4
BRANCH   3   6
ATOM      6  C   UNL     1      37.829 -44.229  28.619  1.00  0.00    -0.014 C 
ATOM      7  C   UNL     1      37.580 -44.951  27.288  1.00  0.00     0.007 C 
ATOM      8  C   UNL     1      38.560 -42.901  28.336  1.00  0.00     0.007 C 
ENDBRANCH   3   6
ENDBRANCH   2   3
ENDBRANCH   1   2
BRANCH   1   9
ATOM      9  C   UNL     1      38.844 -44.801  32.786  1.00  0.00    -0.011 C 
ATOM     10  C   UNL     1      38.742 -45.547  34.125  1.00  0.00     0.008 C 
BRANCH   9  11
ATOM     11  C   UNL     1      39.128 -43.269  32.998  1.00  0.00    -0.002 C 
ATOM     12  C   UNL     1      38.100 -42.379  32.240  1.00  0.00     0.005 C 
ATOM     13  C   UNL     1      40.506 -42.667  32.572  1.00  0.00    -0.026 C 
ATOM     14  C   UNL     1      38.806 -41.077  31.857  1.00  0.00     0.005 C 
ATOM     15  C   UNL     1      40.147 -41.169  32.562  1.00  0.00    -0.001 C 
ATOM     16  C   UNL     1      41.677 -42.829  33.585  1.00  0.00     0.007 C 
ATOM     17  C   UNL     1      40.920 -43.192  31.164  1.00  0.00     0.012 C 
ATOM     18  C   UNL     1      41.284 -40.229  32.095  1.00  0.00     0.000 C 
ATOM     19  C   UNL     1      42.888 -41.947  33.203  1.00  0.00     0.005 C 
ATOM     20  C   UNL     1      42.500 -40.439  33.036  1.00  0.00     0.003 C 
ATOM     21  C   UNL     1      40.825 -38.766  32.222  1.00  0.00     0.031 C 
ATOM     22  C   UNL     1      43.705 -39.438  32.732  1.00  0.00    -0.008 C 
ATOM     23  C   UNL     1      41.938 -37.827  31.881  1.00  0.00    -0.027 C 
ATOM     24  C   UNL     1      43.240 -38.120  32.086  1.00  0.00    -0.065 C 
ATOM     25  C   UNL     1      44.817 -40.086  31.824  1.00  0.00     0.014 C 
ATOM     26  C   UNL     1      44.316 -39.069  34.113  1.00  0.00     0.016 C 
ATOM     27  C   UNL     1      44.260 -37.108  31.603  1.00  0.00     0.063 C 
ATOM     28  C   UNL     1      45.484 -39.161  30.784  1.00  0.00     0.033 C 
ATOM     29  C   UNL     1      45.628 -37.720  31.249  1.00  0.00     0.118 C 
BRANCH  29  30
ATOM     30  O   UNL     1      46.529 -37.643  32.326  1.00  0.00    -0.393 OA
ATOM     31  H   UNL     1      47.013 -36.778  32.241  1.00  0.00     0.210 HD
ENDBRANCH  29  30
ENDBRANCH   9  11
ENDBRANCH   1   9
TORSDOF 7
ENDMDL
MODEL 2
REMARK VINA RESULT:    -4.121      1.231      2.099
REMARK INTER + INTRA:          -7.509
REMARK INTER:                  -6.140
REMARK INTRA:                  -1.369
REMARK UNBOUND:                -1.822
REMARK SMILES CC[C@H](CC[C@H](C)[C@@H]1CC[C@@H]2[C@H]3CC=C4C[C@@H](O)CC[C@]4(C)[C@@H]3CC[C@]21C)C(C)C
REMARK SMILES IDX 5 1 4 2 3 3 2 4 1 5 28 6 29 7 30 8 6 9 7 10 8 11 9 12 26 13
REMARK SMILES IDX 10 14 11 15 25 16 27 17 12 18 24 19 23 20 13 21 21 22 14 23
REMARK SMILES IDX 15 24 20 25 22 26 16 27 19 28 17 29 18 30
REMARK H PARENT 18 31
REMARK Flexibility Score: inf
ROOT
ATOM      1  C   UNL     1      39.074 -45.516  31.799  1.00  0.00     0.004 C 
ENDROOT
BRANCH   1   2
ATOM      2  C   UNL     1      38.728 -45.903  30.341  1.00  0.00     0.004 C 
BRANCH   2   3
ATOM      3  C   UNL     1      39.916 -45.820  29.345  1.00  0.00    -0.009 C 
BRANCH   3   4
ATOM      4  C   UNL     1      39.630 -44.836  28.171  1.00  0.00     0.000 C 
ATOM      5  C   UNL     1      38.183 -44.849  27.669  1.00  0.00     0.004 C 
ENDBRANCH   3   4
BRANCH   3   6
ATOM      6  C   UNL     1      41.269 -45.515  30.086  1.00  0.00    -0.014 C 
ATOM      7  C   UNL     1      42.083 -44.431  29.367  1.00  0.00     0.007 C 
ATOM      8  C   UNL     1      42.142 -46.779  30.228  1.00  0.00     0.007 C 
ENDBRANCH   3   6
ENDBRANCH   2   3
ENDBRANCH   1   2
BRANCH   1   9
ATOM      9  C   UNL     1      37.990 -44.643  32.513  1.00  0.00    -0.011 C 
ATOM     10  C   UNL     1      36.983 -44.162  31.457  1.00  0.00     0.008 C 
BRANCH   9  11
ATOM     11  C   UNL     1      38.650 -43.435  33.275  1.00  0.00    -0.002 C 
ATOM     12  C   UNL     1      37.624 -42.301  33.562  1.00  0.00     0.005 C 
ATOM     13  C   UNL     1      39.854 -42.674  32.631  1.00  0.00    -0.026 C 
ATOM     14  C   UNL     1      38.387 -40.976  33.574  1.00  0.00     0.005 C 
ATOM     15  C   UNL     1      39.844 -41.394  33.486  1.00  0.00    -0.001 C 
ATOM     16  C   UNL     1      41.260 -43.315  32.820  1.00  0.00     0.007 C 
ATOM     17  C   UNL     1      39.577 -42.390  31.124  1.00  0.00     0.012 C 
ATOM     18  C   UNL     1      40.887 -40.327  33.076  1.00  0.00     0.000 C 
ATOM     19  C   UNL     1      42.391 -42.341  32.415  1.00  0.00     0.005 C 
ATOM     20  C   UNL     1      42.296 -40.972  33.168  1.00  0.00     0.003 C 
ATOM     21  C   UNL     1      40.832 -39.149  34.064  1.00  0.00     0.031 C 
ATOM     22  C   UNL     1      43.476 -39.935  32.881  1.00  0.00    -0.008 C 
ATOM     23  C   UNL     1      41.901 -38.149  33.760  1.00  0.00    -0.027 C 
ATOM     24  C   UNL     1      43.089 -38.482  33.211  1.00  0.00    -0.065 C 
ATOM     25  C   UNL     1      43.992 -40.000  31.394  1.00  0.00     0.014 C 
ATOM     26  C   UNL     1      44.631 -40.322  33.847  1.00  0.00     0.016 C 
ATOM     27  C   UNL     1      44.036 -37.348  32.873  1.00  0.00     0.063 C 
ATOM     28  C   UNL     1      44.391 -38.660  30.743  1.00  0.00     0.033 C 
ATOM     29  C   UNL     1      45.002 -37.663  31.716  1.00  0.00     0.118 C 
BRANCH  29  30
ATOM     30  O   UNL     1      46.240 -38.137  32.185  1.00  0.00    -0.393 OA
ATOM     31  H   UNL     1      46.064 -38.993  32.660  1.00  0.00     0.210 HD
ENDBRANCH  29  30
ENDBRANCH   9  11
ENDBRANCH   1   9
TORSDOF 7
ENDMDL
MODEL 3
REMARK VINA RESULT:    -3.468      3.264      8.563
REMARK INTER + INTRA:          -6.608
REMARK INTER:                  -6.191
REMARK INTRA:                  -0.416
REMARK UNBOUND:                -1.822
REMARK SMILES CC[C@H](CC[C@H](C)[C@@H]1CC[C@@H]2[C@H]3CC=C4C[C@@H](O)CC[C@]4(C)[C@@H]3CC[C@]21C)C(C)C
REMARK SMILES IDX 5 1 4 2 3 3 2 4 1 5 28 6 29 7 30 8 6 9 7 10 8 11 9 12 26 13
REMARK SMILES IDX 10 14 11 15 25 16 27 17 12 18 24 19 23 20 13 21 21 22 14 23
REMARK SMILES IDX 15 24 20 25 22 26 16 27 19 28 17 29 18 30
REMARK H PARENT 18 31
REMARK Flexibility Score: inf
ROOT
ATOM      1  C   UNL     1      44.437 -39.773  30.481  1.00  0.00     0.004 C 
ENDROOT
BRANCH   1   2
ATOM      2  C   UNL     1      45.577 -38.918  31.085  1.00  0.00     0.004 C 
BRANCH   2   3
ATOM      3  C   UNL     1      45.284 -37.395  31.152  1.00  0.00    -0.009 C 
BRANCH   3   4
ATOM      4  C   UNL     1      44.000 -37.010  30.357  1.00  0.00     0.000 C 
ATOM      5  C   UNL     1      44.185 -36.956  28.838  1.00  0.00     0.004 C 
ENDBRANCH   3   4
BRANCH   3   6
ATOM      6  C   UNL     1      45.268 -36.875  32.635  1.00  0.00    -0.014 C 
ATOM      7  C   UNL     1      46.670 -36.876  33.257  1.00  0.00     0.007 C 
ATOM      8  C   UNL     1      44.328 -37.713  33.527  1.00  0.00     0.007 C 
ENDBRANCH   3   6
ENDBRANCH   2   3
ENDBRANCH   1   2
BRANCH   1   9
ATOM      9  C   UNL     1      44.209 -41.146  31.195  1.00  0.00    -0.011 C 
ATOM     10  C   UNL     1      44.732 -42.263  30.278  1.00  0.00     0.008 C 
BRANCH   9  11
ATOM     11  C   UNL     1      42.690 -41.352  31.548  1.00  0.00    -0.002 C 
ATOM     12  C   UNL     1      42.268 -40.524  32.797  1.00  0.00     0.005 C 
ATOM     13  C   UNL     1      42.154 -42.785  31.871  1.00  0.00    -0.026 C 
ATOM     14  C   UNL     1      41.143 -41.284  33.500  1.00  0.00     0.005 C 
ATOM     15  C   UNL     1      40.819 -42.420  32.547  1.00  0.00    -0.001 C 
ATOM     16  C   UNL     1      41.795 -43.682  30.651  1.00  0.00     0.007 C 
ATOM     17  C   UNL     1      43.128 -43.528  32.834  1.00  0.00     0.012 C 
ATOM     18  C   UNL     1      40.013 -43.624  33.091  1.00  0.00     0.000 C 
ATOM     19  C   UNL     1      41.003 -44.939  31.080  1.00  0.00     0.005 C 
ATOM     20  C   UNL     1      39.721 -44.582  31.906  1.00  0.00     0.003 C 
ATOM     21  C   UNL     1      38.668 -43.129  33.651  1.00  0.00     0.031 C 
ATOM     22  C   UNL     1      38.790 -45.813  32.314  1.00  0.00    -0.008 C 
ATOM     23  C   UNL     1      37.818 -44.280  34.088  1.00  0.00    -0.027 C 
ATOM     24  C   UNL     1      37.873 -45.499  33.510  1.00  0.00    -0.065 C 
ATOM     25  C   UNL     1      39.614 -47.117  32.632  1.00  0.00     0.014 C 
ATOM     26  C   UNL     1      37.863 -46.072  31.094  1.00  0.00     0.016 C 
ATOM     27  C   UNL     1      37.019 -46.592  34.121  1.00  0.00     0.063 C 
ATOM     28  C   UNL     1      39.089 -48.001  33.783  1.00  0.00     0.033 C 
ATOM     29  C   UNL     1      37.572 -48.013  33.904  1.00  0.00     0.118 C 
BRANCH  29  30
ATOM     30  O   UNL     1      36.998 -48.629  32.778  1.00  0.00    -0.393 OA
ATOM     31  H   UNL     1      36.223 -49.163  33.101  1.00  0.00     0.210 HD
ENDBRANCH  29  30
ENDBRANCH   9  11
ENDBRANCH   1   9
TORSDOF 7
ENDMDL
MODEL 4
REMARK VINA RESULT:    -3.341      2.270      4.190
REMARK INTER + INTRA:          -6.432
REMARK INTER:                  -6.384
REMARK INTRA:                  -0.048
REMARK UNBOUND:                -1.822
REMARK SMILES CC[C@H](CC[C@H](C)[C@@H]1CC[C@@H]2[C@H]3CC=C4C[C@@H](O)CC[C@]4(C)[C@@H]3CC[C@]21C)C(C)C
REMARK SMILES IDX 5 1 4 2 3 3 2 4 1 5 28 6 29 7 30 8 6 9 7 10 8 11 9 12 26 13
REMARK SMILES IDX 10 14 11 15 25 16 27 17 12 18 24 19 23 20 13 21 21 22 14 23
REMARK SMILES IDX 15 24 20 25 22 26 16 27 19 28 17 29 18 30
REMARK H PARENT 18 31
REMARK Flexibility Score: inf
ROOT
ATOM      1  C   UNL     1      37.020 -45.481  26.776  1.00  0.00     0.004 C 
ENDROOT
BRANCH   1   2
ATOM      2  C   UNL     1      37.483 -44.099  26.253  1.00  0.00     0.004 C 
BRANCH   2   3
ATOM      3  C   UNL     1      37.672 -44.015  24.715  1.00  0.00    -0.009 C 
BRANCH   3   4
ATOM      4  C   UNL     1      36.876 -45.124  23.964  1.00  0.00     0.000 C 
ATOM      5  C   UNL     1      37.410 -45.454  22.566  1.00  0.00     0.004 C 
ENDBRANCH   3   4
BRANCH   3   6
ATOM      6  C   UNL     1      37.370 -42.570  24.175  1.00  0.00    -0.014 C 
ATOM      7  C   UNL     1      38.342 -42.161  23.060  1.00  0.00     0.007 C 
ATOM      8  C   UNL     1      37.429 -41.514  25.297  1.00  0.00     0.007 C 
ENDBRANCH   3   6
ENDBRANCH   2   3
ENDBRANCH   1   2
BRANCH   1   9
ATOM      9  C   UNL     1      37.875 -46.046  27.958  1.00  0.00    -0.011 C 
ATOM     10  C   UNL     1      37.251 -47.373  28.416  1.00  0.00     0.008 C 
BRANCH   9  11
ATOM     11  C   UNL     1      37.959 -45.009  29.138  1.00  0.00    -0.002 C 
ATOM     12  C   UNL     1      37.115 -43.733  28.850  1.00  0.00     0.005 C 
ATOM     13  C   UNL     1      39.347 -44.431  29.567  1.00  0.00    -0.026 C 
ATOM     14  C   UNL     1      37.789 -42.560  29.562  1.00  0.00     0.005 C 
ATOM     15  C   UNL     1      38.881 -43.213  30.388  1.00  0.00    -0.001 C 
ATOM     16  C   UNL     1      40.195 -45.309  30.532  1.00  0.00     0.007 C 
ATOM     17  C   UNL     1      40.180 -44.025  28.315  1.00  0.00     0.012 C 
ATOM     18  C   UNL     1      40.022 -42.319  30.931  1.00  0.00     0.000 C 
ATOM     19  C   UNL     1      41.388 -44.521  31.122  1.00  0.00     0.005 C 
ATOM     20  C   UNL     1      40.937 -43.197  31.825  1.00  0.00     0.003 C 
ATOM     21  C   UNL     1      39.425 -41.202  31.805  1.00  0.00     0.031 C 
ATOM     22  C   UNL     1      42.092 -42.362  32.545  1.00  0.00    -0.008 C 
ATOM     23  C   UNL     1      40.507 -40.383  32.433  1.00  0.00    -0.027 C 
ATOM     24  C   UNL     1      41.719 -40.883  32.756  1.00  0.00    -0.065 C 
ATOM     25  C   UNL     1      43.464 -42.436  31.774  1.00  0.00     0.014 C 
ATOM     26  C   UNL     1      42.258 -42.989  33.957  1.00  0.00     0.016 C 
ATOM     27  C   UNL     1      42.746 -39.910  33.300  1.00  0.00     0.063 C 
ATOM     28  C   UNL     1      44.316 -41.150  31.757  1.00  0.00     0.033 C 
ATOM     29  C   UNL     1      44.204 -40.323  33.030  1.00  0.00     0.118 C 
BRANCH  29  30
ATOM     30  O   UNL     1      44.757 -41.025  34.116  1.00  0.00    -0.393 OA
ATOM     31  H   UNL     1      45.686 -41.272  33.862  1.00  0.00     0.210 HD
ENDBRANCH  29  30
ENDBRANCH   9  11
ENDBRANCH   1   9
TORSDOF 7
ENDMDL
MODEL 5
REMARK VINA RESULT:    -3.142      4.728      8.604
REMARK INTER + INTRA:          -6.158
REMARK INTER:                  -5.817
REMARK INTRA:                  -0.342
REMARK UNBOUND:                -1.822
REMARK SMILES CC[C@H](CC[C@H](C)[C@@H]1CC[C@@H]2[C@H]3CC=C4C[C@@H](O)CC[C@]4(C)[C@@H]3CC[C@]21C)C(C)C
REMARK SMILES IDX 5 1 4 2 3 3 2 4 1 5 28 6 29 7 30 8 6 9 7 10 8 11 9 12 26 13
REMARK SMILES IDX 10 14 11 15 25 16 27 17 12 18 24 19 23 20 13 21 21 22 14 23
REMARK SMILES IDX 15 24 20 25 22 26 16 27 19 28 17 29 18 30
REMARK H PARENT 18 31
REMARK Flexibility Score: inf
ROOT
ATOM      1  C   UNL     1      38.169 -43.185  22.509  1.00  0.00     0.004 C 
ENDROOT
BRANCH   1   2
ATOM      2  C   UNL     1      37.941 -42.056  21.476  1.00  0.00     0.004 C 
BRANCH   2   3
ATOM      3  C   UNL     1      39.136 -41.797  20.519  1.00  0.00    -0.009 C 
BRANCH   3   4
ATOM      4  C   UNL     1      39.163 -42.803  19.329  1.00  0.00     0.000 C 
ATOM      5  C   UNL     1      40.195 -43.925  19.468  1.00  0.00     0.004 C 
ENDBRANCH   3   4
BRANCH   3   6
ATOM      6  C   UNL     1      39.190 -40.296  20.056  1.00  0.00    -0.014 C 
ATOM      7  C   UNL     1      40.442 -40.000  19.219  1.00  0.00     0.007 C 
ATOM      8  C   UNL     1      39.153 -39.325  21.253  1.00  0.00     0.007 C 
ENDBRANCH   3   6
ENDBRANCH   2   3
ENDBRANCH   1   2
BRANCH   1   9
ATOM      9  C   UNL     1      37.605 -42.880  23.936  1.00  0.00    -0.011 C 
ATOM     10  C   UNL     1      38.168 -41.528  24.402  1.00  0.00     0.008 C 
BRANCH   9  11
ATOM     11  C   UNL     1      37.966 -44.034  24.943  1.00  0.00    -0.002 C 
ATOM     12  C   UNL     1      36.934 -45.198  24.883  1.00  0.00     0.005 C 
ATOM     13  C   UNL     1      38.071 -43.727  26.472  1.00  0.00    -0.026 C 
ATOM     14  C   UNL     1      36.875 -45.838  26.271  1.00  0.00     0.005 C 
ATOM     15  C   UNL     1      37.998 -45.159  27.033  1.00  0.00    -0.001 C 
ATOM     16  C   UNL     1      39.421 -43.131  26.968  1.00  0.00     0.007 C 
ATOM     17  C   UNL     1      36.875 -42.841  26.935  1.00  0.00     0.012 C 
ATOM     18  C   UNL     1      37.996 -45.255  28.578  1.00  0.00     0.000 C 
ATOM     19  C   UNL     1      39.522 -43.153  28.511  1.00  0.00     0.005 C 
ATOM     20  C   UNL     1      39.292 -44.583  29.104  1.00  0.00     0.003 C 
ATOM     21  C   UNL     1      38.015 -46.735  29.000  1.00  0.00     0.031 C 
ATOM     22  C   UNL     1      39.468 -44.720  30.685  1.00  0.00    -0.008 C 
ATOM     23  C   UNL     1      38.122 -46.863  30.486  1.00  0.00    -0.027 C 
ATOM     24  C   UNL     1      38.755 -45.957  31.262  1.00  0.00    -0.065 C 
ATOM     25  C   UNL     1      38.978 -43.440  31.462  1.00  0.00     0.014 C 
ATOM     26  C   UNL     1      40.989 -44.924  30.931  1.00  0.00     0.016 C 
ATOM     27  C   UNL     1      38.700 -46.171  32.761  1.00  0.00     0.063 C 
ATOM     28  C   UNL     1      38.275 -43.682  32.814  1.00  0.00     0.033 C 
ATOM     29  C   UNL     1      38.819 -44.876  33.584  1.00  0.00     0.118 C 
BRANCH  29  30
ATOM     30  O   UNL     1      40.145 -44.633  33.985  1.00  0.00    -0.393 OA
ATOM     31  H   UNL     1      40.701 -44.616  33.161  1.00  0.00     0.210 HD
ENDBRANCH  29  30
ENDBRANCH   9  11
ENDBRANCH   1   9
TORSDOF 7
ENDMDL
MODEL 6
REMARK VINA RESULT:    -3.130      4.904      8.368
REMARK INTER + INTRA:          -6.142
REMARK INTER:                  -5.153
REMARK INTRA:                  -0.989
REMARK UNBOUND:                -1.822
REMARK SMILES CC[C@H](CC[C@H](C)[C@@H]1CC[C@@H]2[C@H]3CC=C4C[C@@H](O)CC[C@]4(C)[C@@H]3CC[C@]21C)C(C)C
REMARK SMILES IDX 5 1 4 2 3 3 2 4 1 5 28 6 29 7 30 8 6 9 7 10 8 11 9 12 26 13
REMARK SMILES IDX 10 14 11 15 25 16 27 17 12 18 24 19 23 20 13 21 21 22 14 23
REMARK SMILES IDX 15 24 20 25 22 26 16 27 19 28 17 29 18 30
REMARK H PARENT 18 31
REMARK Flexibility Score: inf
ROOT
ATOM      1  C   UNL     1      37.363 -42.608  22.743  1.00  0.00     0.004 C 
ENDROOT
BRANCH   1   2
ATOM      2  C   UNL     1      38.584 -42.328  21.834  1.00  0.00     0.004 C 
BRANCH   2   3
ATOM      3  C   UNL     1      38.449 -41.071  20.932  1.00  0.00    -0.009 C 
BRANCH   3   4
ATOM      4  C   UNL     1      39.203 -39.841  21.522  1.00  0.00     0.000 C 
ATOM      5  C   UNL     1      39.321 -39.842  23.050  1.00  0.00     0.004 C 
ENDBRANCH   3   4
BRANCH   3   6
ATOM      6  C   UNL     1      38.853 -41.382  19.445  1.00  0.00    -0.014 C 
ATOM      7  C   UNL     1      39.207 -42.862  19.246  1.00  0.00     0.007 C 
ATOM      8  C   UNL     1      40.044 -40.520  18.981  1.00  0.00     0.007 C 
ENDBRANCH   3   6
ENDBRANCH   2   3
ENDBRANCH   1   2
BRANCH   1   9
ATOM      9  C   UNL     1      37.562 -43.790  23.748  1.00  0.00    -0.011 C 
ATOM     10  C   UNL     1      36.875 -45.038  23.170  1.00  0.00     0.008 C 
BRANCH   9  11
ATOM     11  C   UNL     1      36.995 -43.424  25.169  1.00  0.00    -0.002 C 
ATOM     12  C   UNL     1      36.879 -41.884  25.367  1.00  0.00     0.005 C 
ATOM     13  C   UNL     1      37.753 -43.894  26.453  1.00  0.00    -0.026 C 
ATOM     14  C   UNL     1      37.071 -41.592  26.855  1.00  0.00     0.005 C 
ATOM     15  C   UNL     1      37.101 -42.967  27.496  1.00  0.00    -0.001 C 
ATOM     16  C   UNL     1      37.475 -45.350  26.928  1.00  0.00     0.007 C 
ATOM     17  C   UNL     1      39.284 -43.646  26.305  1.00  0.00     0.012 C 
ATOM     18  C   UNL     1      37.674 -43.094  28.929  1.00  0.00     0.000 C 
ATOM     19  C   UNL     1      38.028 -45.602  28.349  1.00  0.00     0.005 C 
ATOM     20  C   UNL     1      37.491 -44.564  29.391  1.00  0.00     0.003 C 
ATOM     21  C   UNL     1      36.876 -42.187  29.882  1.00  0.00     0.031 C 
ATOM     22  C   UNL     1      37.937 -44.801  30.906  1.00  0.00    -0.008 C 
ATOM     23  C   UNL     1      37.333 -42.367  31.294  1.00  0.00    -0.027 C 
ATOM     24  C   UNL     1      37.830 -43.530  31.767  1.00  0.00    -0.065 C 
ATOM     25  C   UNL     1      39.399 -45.376  31.024  1.00  0.00     0.014 C 
ATOM     26  C   UNL     1      36.929 -45.828  31.494  1.00  0.00     0.016 C 
ATOM     27  C   UNL     1      38.341 -43.533  33.194  1.00  0.00     0.063 C 
ATOM     28  C   UNL     1      40.248 -44.862  32.206  1.00  0.00     0.033 C 
ATOM     29  C   UNL     1      39.441 -44.577  33.463  1.00  0.00     0.118 C 
BRANCH  29  30
ATOM     30  O   UNL     1      38.911 -45.771  33.983  1.00  0.00    -0.393 OA
ATOM     31  H   UNL     1      39.642 -46.445  33.970  1.00  0.00     0.210 HD
ENDBRANCH  29  30
ENDBRANCH   9  11
ENDBRANCH   1   9
TORSDOF 7
ENDMDL
MODEL 7
REMARK VINA RESULT:    -3.099      1.773      3.616
REMARK INTER + INTRA:          -6.098
REMARK INTER:                  -5.667
REMARK INTRA:                  -0.432
REMARK UNBOUND:                -1.822
REMARK SMILES CC[C@H](CC[C@H](C)[C@@H]1CC[C@@H]2[C@H]3CC=C4C[C@@H](O)CC[C@]4(C)[C@@H]3CC[C@]21C)C(C)C
REMARK SMILES IDX 5 1 4 2 3 3 2 4 1 5 28 6 29 7 30 8 6 9 7 10 8 11 9 12 26 13
REMARK SMILES IDX 10 14 11 15 25 16 27 17 12 18 24 19 23 20 13 21 21 22 14 23
REMARK SMILES IDX 15 24 20 25 22 26 16 27 19 28 17 29 18 30
REMARK H PARENT 18 31
REMARK Flexibility Score: inf
ROOT
ATOM      1  C   UNL     1      37.517 -46.916  30.424  1.00  0.00     0.004 C 
ENDROOT
BRANCH   1   2
ATOM      2  C   UNL     1      37.163 -46.693  31.914  1.00  0.00     0.004 C 
BRANCH   2   3
ATOM      3  C   UNL     1      38.133 -47.366  32.921  1.00  0.00    -0.009 C 
BRANCH   3   4
ATOM      4  C   UNL     1      38.473 -46.433  34.123  1.00  0.00     0.000 C 
ATOM      5  C   UNL     1      37.817 -45.050  34.058  1.00  0.00     0.004 C 
ENDBRANCH   3   4
BRANCH   3   6
ATOM      6  C   UNL     1      37.610 -48.779  33.370  1.00  0.00    -0.014 C 
ATOM      7  C   UNL     1      38.748 -49.676  33.877  1.00  0.00     0.007 C 
ATOM      8  C   UNL     1      36.875 -49.508  32.227  1.00  0.00     0.007 C 
ENDBRANCH   3   6
ENDBRANCH   2   3
ENDBRANCH   1   2
BRANCH   1   9
ATOM      9  C   UNL     1      37.924 -45.616  29.653  1.00  0.00    -0.011 C 
ATOM     10  C   UNL     1      39.223 -45.897  28.883  1.00  0.00     0.008 C 
BRANCH   9  11
ATOM     11  C   UNL     1      38.088 -44.403  30.641  1.00  0.00    -0.002 C 
ATOM     12  C   UNL     1      37.026 -43.295  30.379  1.00  0.00     0.005 C 
ATOM     13  C   UNL     1      39.433 -43.608  30.679  1.00  0.00    -0.026 C 
ATOM     14  C   UNL     1      37.649 -41.954  30.768  1.00  0.00     0.005 C 
ATOM     15  C   UNL     1      38.967 -42.338  31.415  1.00  0.00    -0.001 C 
ATOM     16  C   UNL     1      40.575 -44.219  31.542  1.00  0.00     0.007 C 
ATOM     17  C   UNL     1      39.934 -43.312  29.233  1.00  0.00     0.012 C 
ATOM     18  C   UNL     1      40.049 -41.243  31.576  1.00  0.00     0.000 C 
ATOM     19  C   UNL     1      41.733 -43.215  31.751  1.00  0.00     0.005 C 
ATOM     20  C   UNL     1      41.242 -41.857  32.356  1.00  0.00     0.003 C 
ATOM     21  C   UNL     1      39.480 -40.078  32.404  1.00  0.00     0.031 C 
ATOM     22  C   UNL     1      42.382 -40.790  32.692  1.00  0.00    -0.008 C 
ATOM     23  C   UNL     1      40.534 -39.050  32.670  1.00  0.00    -0.027 C 
ATOM     24  C   UNL     1      41.845 -39.350  32.784  1.00  0.00    -0.065 C 
ATOM     25  C   UNL     1      43.569 -40.827  31.657  1.00  0.00     0.014 C 
ATOM     26  C   UNL     1      42.914 -41.162  34.104  1.00  0.00     0.016 C 
ATOM     27  C   UNL     1      42.807 -38.191  32.960  1.00  0.00     0.063 C 
ATOM     28  C   UNL     1      44.204 -39.470  31.289  1.00  0.00     0.033 C 
ATOM     29  C   UNL     1      44.227 -38.471  32.436  1.00  0.00     0.118 C 
BRANCH  29  30
ATOM     30  O   UNL     1      45.080 -38.922  33.458  1.00  0.00    -0.393 OA
ATOM     31  H   UNL     1      44.534 -39.493  34.063  1.00  0.00     0.210 HD
ENDBRANCH  29  30
ENDBRANCH   9  11
ENDBRANCH   1   9
TORSDOF 7
ENDMDL
