MODEL 1
REMARK VINA RESULT:    -3.029      0.000      0.000
REMARK INTER + INTRA:          -5.795
REMARK INTER:                  -4.357
REMARK INTRA:                  -1.438
REMARK UNBOUND:                -1.438
REMARK SMILES O=C(CO)[C@H](O)[C@@H](O)[C@@H](O)CO
REMARK SMILES IDX 7 1 9 2 11 3 12 4 10 6 5 8 2 9 1 10 3 11 4 12 6 14 8 16
REMARK H PARENT 12 5 10 7 4 13 6 15 8 17
REMARK Flexibility Score: inf
ROOT
ATOM      1  C   UNL     1       1.704   1.991   8.392  1.00  0.00     0.181 C 
ENDROOT
BRANCH   1   2
ATOM      2  C   UNL     1       1.724   2.903   7.133  1.00  0.00     0.171 C 
BRANCH   2   3
ATOM      3  C   UNL     1       1.889   2.088   5.838  1.00  0.00     0.190 C 
BRANCH   3   4
ATOM      4  O   UNL     1       0.796   1.229   5.641  1.00  0.00    -0.394 OA
ATOM      5  H   UNL     1       0.795   0.977   4.681  1.00  0.00     0.210 HD
ENDBRANCH   3   4
ENDBRANCH   2   3
BRANCH   2   6
ATOM      6  O   UNL     1       2.770   3.835   7.235  1.00  0.00    -0.388 OA
ATOM      7  H   UNL     1       3.307   3.758   6.403  1.00  0.00     0.211 HD
ENDBRANCH   2   6
ENDBRANCH   1   2
BRANCH   1   8
ATOM      8  C   UNL     1       0.317   1.865   9.076  1.00  0.00     0.214 C 
BRANCH   8   9
ATOM      9  C   UNL     1      -0.045   0.433   9.414  1.00  0.00     0.189 C 
ATOM     10  O   UNL     1       0.508  -0.131  10.347  1.00  0.00    -0.294 OA
BRANCH   9  11
ATOM     11  C   UNL     1      -1.062  -0.322   8.603  1.00  0.00     0.234 C 
BRANCH  11  12
ATOM     12  O   UNL     1      -0.676  -0.360   7.257  1.00  0.00    -0.388 OA
ATOM     13  H   UNL     1      -0.597  -1.320   7.014  1.00  0.00     0.211 HD
ENDBRANCH  11  12
ENDBRANCH   9  11
ENDBRANCH   8   9
BRANCH   8  14
ATOM     14  O   UNL     1      -0.675   2.433   8.259  1.00  0.00    -0.382 OA
ATOM     15  H   UNL     1      -0.299   2.483   7.341  1.00  0.00     0.211 HD
ENDBRANCH   8  14
ENDBRANCH   1   8
BRANCH   1  16
ATOM     16  O   UNL     1       2.215   0.713   8.097  1.00  0.00    -0.387 OA
ATOM     17  H   UNL     1       2.105   0.561   7.122  1.00  0.00     0.211 HD
ENDBRANCH   1  16
TORSDOF 10
ENDMDL
MODEL 2
REMARK VINA RESULT:    -3.026      6.961      8.497
REMARK INTER + INTRA:          -5.790
REMARK INTER:                  -4.809
REMARK INTRA:                  -0.981
REMARK UNBOUND:                -1.438
REMARK SMILES O=C(CO)[C@H](O)[C@@H](O)[C@@H](O)CO
REMARK SMILES IDX 7 1 9 2 11 3 12 4 10 6 5 8 2 9 1 10 3 11 4 12 6 14 8 16
REMARK H PARENT 12 5 10 7 4 13 6 15 8 17
REMARK Flexibility Score: inf
ROOT
ATOM      1  C   UNL     1      -0.412   5.665  15.125  1.00  0.00     0.181 C 
ENDROOT
BRANCH   1   2
ATOM      2  C   UNL     1      -1.832   6.110  15.573  1.00  0.00     0.171 C 
BRANCH   2   3
ATOM      3  C   UNL     1      -1.776   7.112  16.741  1.00  0.00     0.190 C 
BRANCH   3   4
ATOM      4  O   UNL     1      -1.157   8.309  16.348  1.00  0.00    -0.394 OA
ATOM      5  H   UNL     1      -0.842   8.179  15.415  1.00  0.00     0.210 HD
ENDBRANCH   3   4
ENDBRANCH   2   3
BRANCH   2   6
ATOM      6  O   UNL     1      -2.586   4.988  15.957  1.00  0.00    -0.388 OA
ATOM      7  H   UNL     1      -3.476   5.322  16.243  1.00  0.00     0.211 HD
ENDBRANCH   2   6
ENDBRANCH   1   2
BRANCH   1   8
ATOM      8  C   UNL     1      -0.389   4.428  14.189  1.00  0.00     0.214 C 
BRANCH   8   9
ATOM      9  C   UNL     1       0.870   4.347  13.350  1.00  0.00     0.189 C 
ATOM     10  O   UNL     1       1.963   4.509  13.875  1.00  0.00    -0.294 OA
BRANCH   9  11
ATOM     11  C   UNL     1       0.801   4.093  11.870  1.00  0.00     0.234 C 
BRANCH  11  12
ATOM     12  O   UNL     1       0.260   2.824  11.623  1.00  0.00    -0.388 OA
ATOM     13  H   UNL     1       0.776   2.441  10.865  1.00  0.00     0.211 HD
ENDBRANCH  11  12
ENDBRANCH   9  11
ENDBRANCH   8   9
BRANCH   8  14
ATOM     14  O   UNL     1      -1.522   4.432  13.359  1.00  0.00    -0.382 OA
ATOM     15  H   UNL     1      -1.777   5.383  13.224  1.00  0.00     0.211 HD
ENDBRANCH   8  14
ENDBRANCH   1   8
BRANCH   1  16
ATOM     16  O   UNL     1       0.287   6.733  14.532  1.00  0.00    -0.387 OA
ATOM     17  H   UNL     1       1.227   6.442  14.400  1.00  0.00     0.211 HD
ENDBRANCH   1  16
TORSDOF 10
ENDMDL
MODEL 3
REMARK VINA RESULT:    -3.000      1.618      2.452
REMARK INTER + INTRA:          -5.753
REMARK INTER:                  -4.318
REMARK INTRA:                  -1.435
REMARK UNBOUND:                -1.438
REMARK SMILES O=C(CO)[C@H](O)[C@@H](O)[C@@H](O)CO
REMARK SMILES IDX 7 1 9 2 11 3 12 4 10 6 5 8 2 9 1 10 3 11 4 12 6 14 8 16
REMARK H PARENT 12 5 10 7 4 13 6 15 8 17
REMARK Flexibility Score: inf
ROOT
ATOM      1  C   UNL     1       0.711   0.888   8.644  1.00  0.00     0.181 C 
ENDROOT
BRANCH   1   2
ATOM      2  C   UNL     1       1.176   2.335   8.966  1.00  0.00     0.171 C 
BRANCH   2   3
ATOM      3  C   UNL     1       0.539   3.366   8.016  1.00  0.00     0.190 C 
BRANCH   3   4
ATOM      4  O   UNL     1      -0.851   3.430   8.203  1.00  0.00    -0.394 OA
ATOM      5  H   UNL     1      -1.046   4.307   8.626  1.00  0.00     0.210 HD
ENDBRANCH   3   4
ENDBRANCH   2   3
BRANCH   2   6
ATOM      6  O   UNL     1       2.576   2.419   8.874  1.00  0.00    -0.388 OA
ATOM      7  H   UNL     1       2.930   2.353   9.799  1.00  0.00     0.211 HD
ENDBRANCH   2   6
ENDBRANCH   1   2
BRANCH   1   8
ATOM      8  C   UNL     1      -0.294   0.291   9.664  1.00  0.00     0.214 C 
BRANCH   8   9
ATOM      9  C   UNL     1      -1.459  -0.415   8.999  1.00  0.00     0.189 C 
ATOM     10  O   UNL     1      -1.285  -1.497   8.457  1.00  0.00    -0.294 OA
BRANCH   9  11
ATOM     11  C   UNL     1      -2.829   0.203   8.974  1.00  0.00     0.234 C 
BRANCH  11  12
ATOM     12  O   UNL     1      -2.754   1.526   8.518  1.00  0.00    -0.388 OA
ATOM     13  H   UNL     1      -2.776   2.104   9.326  1.00  0.00     0.211 HD
ENDBRANCH  11  12
ENDBRANCH   9  11
ENDBRANCH   8   9
BRANCH   8  14
ATOM     14  O   UNL     1      -0.768   1.301  10.519  1.00  0.00    -0.382 OA
ATOM     15  H   UNL     1       0.014   1.628  11.038  1.00  0.00     0.211 HD
ENDBRANCH   8  14
ENDBRANCH   1   8
BRANCH   1  16
ATOM     16  O   UNL     1       0.183   0.805   7.342  1.00  0.00    -0.387 OA
ATOM     17  H   UNL     1      -0.773   1.067   7.385  1.00  0.00     0.211 HD
ENDBRANCH   1  16
TORSDOF 10
ENDMDL
MODEL 4
REMARK VINA RESULT:    -2.995      3.021      5.055
REMARK INTER + INTRA:          -5.745
REMARK INTER:                  -4.544
REMARK INTRA:                  -1.201
REMARK UNBOUND:                -1.438
REMARK SMILES O=C(CO)[C@H](O)[C@@H](O)[C@@H](O)CO
REMARK SMILES IDX 7 1 9 2 11 3 12 4 10 6 5 8 2 9 1 10 3 11 4 12 6 14 8 16
REMARK H PARENT 12 5 10 7 4 13 6 15 8 17
REMARK Flexibility Score: inf
ROOT
ATOM      1  C   UNL     1      -2.268  -1.054   8.017  1.00  0.00     0.181 C 
ENDROOT
BRANCH   1   2
ATOM      2  C   UNL     1      -1.112  -0.147   8.524  1.00  0.00     0.171 C 
BRANCH   2   3
ATOM      3  C   UNL     1      -1.642   1.111   9.237  1.00  0.00     0.190 C 
BRANCH   3   4
ATOM      4  O   UNL     1      -2.834   1.558   8.647  1.00  0.00    -0.394 OA
ATOM      5  H   UNL     1      -2.592   1.955   7.770  1.00  0.00     0.210 HD
ENDBRANCH   3   4
ENDBRANCH   2   3
BRANCH   2   6
ATOM      6  O   UNL     1      -0.297   0.237   7.446  1.00  0.00    -0.388 OA
ATOM      7  H   UNL     1      -0.886   0.306   6.650  1.00  0.00     0.211 HD
ENDBRANCH   2   6
ENDBRANCH   1   2
BRANCH   1   8
ATOM      8  C   UNL     1      -1.804  -2.353   7.308  1.00  0.00     0.214 C 
BRANCH   8   9
ATOM      9  C   UNL     1      -2.645  -3.559   7.676  1.00  0.00     0.189 C 
ATOM     10  O   UNL     1      -3.780  -3.666   7.234  1.00  0.00    -0.294 OA
BRANCH   9  11
ATOM     11  C   UNL     1      -2.116  -4.622   8.598  1.00  0.00     0.234 C 
BRANCH  11  12
ATOM     12  O   UNL     1      -1.710  -4.051   9.811  1.00  0.00    -0.388 OA
ATOM     13  H   UNL     1      -2.365  -4.351  10.496  1.00  0.00     0.211 HD
ENDBRANCH  11  12
ENDBRANCH   9  11
ENDBRANCH   8   9
BRANCH   8  14
ATOM     14  O   UNL     1      -0.452  -2.603   7.597  1.00  0.00    -0.382 OA
ATOM     15  H   UNL     1       0.051  -2.485   6.748  1.00  0.00     0.211 HD
ENDBRANCH   8  14
ENDBRANCH   1   8
BRANCH   1  16
ATOM     16  O   UNL     1      -3.159  -1.366   9.061  1.00  0.00    -0.387 OA
ATOM     17  H   UNL     1      -2.634  -1.784   9.792  1.00  0.00     0.211 HD
ENDBRANCH   1  16
TORSDOF 10
ENDMDL
MODEL 5
REMARK VINA RESULT:    -2.989      0.640      3.877
REMARK INTER + INTRA:          -5.736
REMARK INTER:                  -4.278
REMARK INTRA:                  -1.458
REMARK UNBOUND:                -1.438
REMARK SMILES O=C(CO)[C@H](O)[C@@H](O)[C@@H](O)CO
REMARK SMILES IDX 7 1 9 2 11 3 12 4 10 6 5 8 2 9 1 10 3 11 4 12 6 14 8 16
REMARK H PARENT 12 5 10 7 4 13 6 15 8 17
REMARK Flexibility Score: inf
ROOT
ATOM      1  C   UNL     1       0.124   1.552   9.169  1.00  0.00     0.181 C 
ENDROOT
BRANCH   1   2
ATOM      2  C   UNL     1      -0.348   0.098   9.452  1.00  0.00     0.171 C 
BRANCH   2   3
ATOM      3  C   UNL     1      -1.358  -0.391   8.399  1.00  0.00     0.190 C 
BRANCH   3   4
ATOM      4  O   UNL     1      -0.758  -0.485   7.133  1.00  0.00    -0.394 OA
ATOM      5  H   UNL     1      -1.225  -1.213   6.645  1.00  0.00     0.210 HD
ENDBRANCH   3   4
ENDBRANCH   2   3
BRANCH   2   6
ATOM      6  O   UNL     1      -0.932   0.025  10.728  1.00  0.00    -0.388 OA
ATOM      7  H   UNL     1      -0.204  -0.192  11.367  1.00  0.00     0.211 HD
ENDBRANCH   2   6
ENDBRANCH   1   2
BRANCH   1   8
ATOM      8  C   UNL     1       1.572   1.667   8.625  1.00  0.00     0.214 C 
BRANCH   8   9
ATOM      9  C   UNL     1       1.677   2.580   7.420  1.00  0.00     0.189 C 
ATOM     10  O   UNL     1       1.587   3.791   7.564  1.00  0.00    -0.294 OA
BRANCH   9  11
ATOM     11  C   UNL     1       1.871   2.021   6.037  1.00  0.00     0.234 C 
BRANCH  11  12
ATOM     12  O   UNL     1       0.787   1.204   5.691  1.00  0.00    -0.388 OA
ATOM     13  H   UNL     1       0.788   1.139   4.699  1.00  0.00     0.211 HD
ENDBRANCH  11  12
ENDBRANCH   9  11
ENDBRANCH   8   9
BRANCH   8  14
ATOM     14  O   UNL     1       2.068   0.391   8.307  1.00  0.00    -0.382 OA
ATOM     15  H   UNL     1       2.048  -0.142   9.146  1.00  0.00     0.211 HD
ENDBRANCH   8  14
ENDBRANCH   1   8
BRANCH   1  16
ATOM     16  O   UNL     1      -0.770   2.214   8.307  1.00  0.00    -0.387 OA
ATOM     17  H   UNL     1      -0.620   1.865   7.390  1.00  0.00     0.211 HD
ENDBRANCH   1  16
TORSDOF 10
ENDMDL
MODEL 6
REMARK VINA RESULT:    -2.985      2.179      4.280
REMARK INTER + INTRA:          -5.732
REMARK INTER:                  -4.787
REMARK INTRA:                  -0.945
REMARK UNBOUND:                -1.438
REMARK SMILES O=C(CO)[C@H](O)[C@@H](O)[C@@H](O)CO
REMARK SMILES IDX 7 1 9 2 11 3 12 4 10 6 5 8 2 9 1 10 3 11 4 12 6 14 8 16
REMARK H PARENT 12 5 10 7 4 13 6 15 8 17
REMARK Flexibility Score: inf
ROOT
ATOM      1  C   UNL     1      -1.828   0.489   9.086  1.00  0.00     0.181 C 
ENDROOT
BRANCH   1   2
ATOM      2  C   UNL     1      -2.193  -0.852   8.390  1.00  0.00     0.171 C 
BRANCH   2   3
ATOM      3  C   UNL     1      -1.228  -1.985   8.787  1.00  0.00     0.190 C 
BRANCH   3   4
ATOM      4  O   UNL     1      -0.383  -2.323   7.719  1.00  0.00    -0.394 OA
ATOM      5  H   UNL     1      -0.824  -2.004   6.888  1.00  0.00     0.210 HD
ENDBRANCH   3   4
ENDBRANCH   2   3
BRANCH   2   6
ATOM      6  O   UNL     1      -2.170  -0.688   6.995  1.00  0.00    -0.388 OA
ATOM      7  H   UNL     1      -2.282  -1.590   6.596  1.00  0.00     0.211 HD
ENDBRANCH   2   6
ENDBRANCH   1   2
BRANCH   1   8
ATOM      8  C   UNL     1      -0.351   0.928   8.907  1.00  0.00     0.214 C 
BRANCH   8   9
ATOM      9  C   UNL     1      -0.099   2.349   9.369  1.00  0.00     0.189 C 
ATOM     10  O   UNL     1      -0.203   2.631  10.554  1.00  0.00    -0.294 OA
BRANCH   9  11
ATOM     11  C   UNL     1       0.257   3.432   8.388  1.00  0.00     0.234 C 
BRANCH  11  12
ATOM     12  O   UNL     1      -0.869   3.793   7.637  1.00  0.00    -0.388 OA
ATOM     13  H   UNL     1      -0.541   4.374   6.901  1.00  0.00     0.211 HD
ENDBRANCH  11  12
ENDBRANCH   9  11
ENDBRANCH   8   9
BRANCH   8  14
ATOM     14  O   UNL     1       0.034   0.782   7.564  1.00  0.00    -0.382 OA
ATOM     15  H   UNL     1       0.694   1.501   7.374  1.00  0.00     0.211 HD
ENDBRANCH   8  14
ENDBRANCH   1   8
BRANCH   1  16
ATOM     16  O   UNL     1      -2.692   1.521   8.677  1.00  0.00    -0.387 OA
ATOM     17  H   UNL     1      -2.154   2.351   8.592  1.00  0.00     0.211 HD
ENDBRANCH   1  16
TORSDOF 10
ENDMDL
MODEL 7
REMARK VINA RESULT:    -2.967      2.041      3.640
REMARK INTER + INTRA:          -5.706
REMARK INTER:                  -4.237
REMARK INTRA:                  -1.468
REMARK UNBOUND:                -1.438
REMARK SMILES O=C(CO)[C@H](O)[C@@H](O)[C@@H](O)CO
REMARK SMILES IDX 7 1 9 2 11 3 12 4 10 6 5 8 2 9 1 10 3 11 4 12 6 14 8 16
REMARK H PARENT 12 5 10 7 4 13 6 15 8 17
REMARK Flexibility Score: inf
ROOT
ATOM      1  C   UNL     1      -0.928  -0.821   9.314  1.00  0.00     0.181 C 
ENDROOT
BRANCH   1   2
ATOM      2  C   UNL     1      -0.387   0.612   9.582  1.00  0.00     0.171 C 
BRANCH   2   3
ATOM      3  C   UNL     1       0.811   0.950   8.677  1.00  0.00     0.190 C 
BRANCH   3   4
ATOM      4  O   UNL     1       0.427   0.989   7.328  1.00  0.00    -0.394 OA
ATOM      5  H   UNL     1      -0.292   1.669   7.251  1.00  0.00     0.210 HD
ENDBRANCH   3   4
ENDBRANCH   2   3
BRANCH   2   6
ATOM      6  O   UNL     1      -0.004   0.733  10.929  1.00  0.00    -0.388 OA
ATOM      7  H   UNL     1      -0.233   1.657  11.212  1.00  0.00     0.211 HD
ENDBRANCH   2   6
ENDBRANCH   1   2
BRANCH   1   8
ATOM      8  C   UNL     1      -2.293  -0.868   8.577  1.00  0.00     0.214 C 
BRANCH   8   9
ATOM      9  C   UNL     1      -2.325  -1.893   7.462  1.00  0.00     0.189 C 
ATOM     10  O   UNL     1      -2.435  -3.080   7.730  1.00  0.00    -0.294 OA
BRANCH   9  11
ATOM     11  C   UNL     1      -2.200  -1.477   6.022  1.00  0.00     0.234 C 
BRANCH  11  12
ATOM     12  O   UNL     1      -1.028  -0.734   5.834  1.00  0.00    -0.388 OA
ATOM     13  H   UNL     1      -1.212  -0.101   5.090  1.00  0.00     0.211 HD
ENDBRANCH  11  12
ENDBRANCH   9  11
ENDBRANCH   8   9
BRANCH   8  14
ATOM     14  O   UNL     1      -2.610   0.405   8.072  1.00  0.00    -0.382 OA
ATOM     15  H   UNL     1      -1.749   0.855   7.864  1.00  0.00     0.211 HD
ENDBRANCH   8  14
ENDBRANCH   1   8
BRANCH   1  16
ATOM     16  O   UNL     1       0.020  -1.597   8.623  1.00  0.00    -0.387 OA
ATOM     17  H   UNL     1       0.691  -0.979   8.232  1.00  0.00     0.211 HD
ENDBRANCH   1  16
TORSDOF 10
ENDMDL
MODEL 8
REMARK VINA RESULT:    -2.965      1.790      4.266
REMARK INTER + INTRA:          -5.703
REMARK INTER:                  -4.238
REMARK INTRA:                  -1.465
REMARK UNBOUND:                -1.438
REMARK SMILES O=C(CO)[C@H](O)[C@@H](O)[C@@H](O)CO
REMARK SMILES IDX 7 1 9 2 11 3 12 4 10 6 5 8 2 9 1 10 3 11 4 12 6 14 8 16
REMARK H PARENT 12 5 10 7 4 13 6 15 8 17
REMARK Flexibility Score: inf
ROOT
ATOM      1  C   UNL     1      -0.333   0.267   9.711  1.00  0.00     0.181 C 
ENDROOT
BRANCH   1   2
ATOM      2  C   UNL     1      -1.548  -0.517   9.138  1.00  0.00     0.171 C 
BRANCH   2   3
ATOM      3  C   UNL     1      -2.862   0.272   9.291  1.00  0.00     0.190 C 
BRANCH   3   4
ATOM      4  O   UNL     1      -2.822   1.463   8.550  1.00  0.00    -0.394 OA
ATOM      5  H   UNL     1      -3.277   2.158   9.094  1.00  0.00     0.210 HD
ENDBRANCH   3   4
ENDBRANCH   2   3
BRANCH   2   6
ATOM      6  O   UNL     1      -1.668  -1.755   9.791  1.00  0.00    -0.388 OA
ATOM      7  H   UNL     1      -1.863  -2.432   9.091  1.00  0.00     0.211 HD
ENDBRANCH   2   6
ENDBRANCH   1   2
BRANCH   1   8
ATOM      8  C   UNL     1       0.637   0.828   8.638  1.00  0.00     0.214 C 
BRANCH   8   9
ATOM      9  C   UNL     1       1.046   2.262   8.905  1.00  0.00     0.189 C 
ATOM     10  O   UNL     1       1.849   2.510   9.793  1.00  0.00    -0.294 OA
BRANCH   9  11
ATOM     11  C   UNL     1       0.462   3.396   8.109  1.00  0.00     0.234 C 
BRANCH  11  12
ATOM     12  O   UNL     1      -0.935   3.394   8.219  1.00  0.00    -0.388 OA
ATOM     13  H   UNL     1      -1.184   4.249   8.660  1.00  0.00     0.211 HD
ENDBRANCH  11  12
ENDBRANCH   9  11
ENDBRANCH   8   9
BRANCH   8  14
ATOM     14  O   UNL     1       0.056   0.722   7.362  1.00  0.00    -0.382 OA
ATOM     15  H   UNL     1      -0.224   1.637   7.097  1.00  0.00     0.211 HD
ENDBRANCH   8  14
ENDBRANCH   1   8
BRANCH   1  16
ATOM     16  O   UNL     1      -0.758   1.301  10.566  1.00  0.00    -0.387 OA
ATOM     17  H   UNL     1      -0.061   2.008  10.554  1.00  0.00     0.211 HD
ENDBRANCH   1  16
TORSDOF 10
ENDMDL
MODEL 9
REMARK VINA RESULT:    -2.948      7.500      8.968
REMARK INTER + INTRA:          -5.678
REMARK INTER:                  -4.211
REMARK INTRA:                  -1.468
REMARK UNBOUND:                -1.438
REMARK SMILES O=C(CO)[C@H](O)[C@@H](O)[C@@H](O)CO
REMARK SMILES IDX 7 1 9 2 11 3 12 4 10 6 5 8 2 9 1 10 3 11 4 12 6 14 8 16
REMARK H PARENT 12 5 10 7 4 13 6 15 8 17
REMARK Flexibility Score: inf
ROOT
ATOM      1  C   UNL     1      -0.554   6.193  15.091  1.00  0.00     0.181 C 
ENDROOT
BRANCH   1   2
ATOM      2  C   UNL     1      -1.253   6.826  16.327  1.00  0.00     0.171 C 
BRANCH   2   3
ATOM      3  C   UNL     1      -2.757   6.498  16.365  1.00  0.00     0.190 C 
BRANCH   3   4
ATOM      4  O   UNL     1      -2.969   5.111  16.360  1.00  0.00    -0.394 OA
ATOM      5  H   UNL     1      -3.165   4.845  17.296  1.00  0.00     0.210 HD
ENDBRANCH   3   4
ENDBRANCH   2   3
BRANCH   2   6
ATOM      6  O   UNL     1      -1.080   8.221  16.312  1.00  0.00    -0.388 OA
ATOM      7  H   UNL     1      -1.462   8.568  17.160  1.00  0.00     0.211 HD
ENDBRANCH   2   6
ENDBRANCH   1   2
BRANCH   1   8
ATOM      8  C   UNL     1       0.295   4.934  15.405  1.00  0.00     0.214 C 
BRANCH   8   9
ATOM      9  C   UNL     1       0.174   3.861  14.342  1.00  0.00     0.189 C 
ATOM     10  O   UNL     1       0.738   4.003  13.267  1.00  0.00    -0.294 OA
BRANCH   9  11
ATOM     11  C   UNL     1      -0.651   2.626  14.577  1.00  0.00     0.234 C 
BRANCH  11  12
ATOM     12  O   UNL     1      -1.996   2.972  14.765  1.00  0.00    -0.388 OA
ATOM     13  H   UNL     1      -2.008   3.936  15.006  1.00  0.00     0.211 HD
ENDBRANCH  11  12
ENDBRANCH   9  11
ENDBRANCH   8   9
BRANCH   8  14
ATOM     14  O   UNL     1      -0.064   4.412  16.660  1.00  0.00    -0.382 OA
ATOM     15  H   UNL     1      -0.367   5.179  17.214  1.00  0.00     0.211 HD
ENDBRANCH   8  14
ENDBRANCH   1   8
BRANCH   1  16
ATOM     16  O   UNL     1      -1.485   5.907  14.076  1.00  0.00    -0.387 OA
ATOM     17  H   UNL     1      -2.142   6.651  14.049  1.00  0.00     0.211 HD
ENDBRANCH   1  16
TORSDOF 10
ENDMDL
