MODEL 1
REMARK VINA RESULT:    -5.337      0.000      0.000
REMARK INTER + INTRA:          -6.050
REMARK INTER:                  -5.961
REMARK INTRA:                  -0.089
REMARK UNBOUND:                -0.089
REMARK SMILES CCc1ccc(O)cc1O
REMARK SMILES IDX 3 1 9 2 8 3 6 4 5 5 4 6 2 7 1 8 10 9 7 11
REMARK H PARENT 10 10 7 12
REMARK Flexibility Score: inf
ROOT
ATOM      1  C   UNL     1      10.969 -10.720  47.711  1.00  0.00    -0.006 A 
ATOM      2  C   UNL     1      12.166 -11.150  47.106  1.00  0.00     0.122 A 
ATOM      3  C   UNL     1      13.149 -11.789  47.877  1.00  0.00     0.092 A 
ATOM      4  C   UNL     1      12.943 -12.013  49.242  1.00  0.00     0.119 A 
ATOM      5  C   UNL     1      11.747 -11.600  49.841  1.00  0.00     0.047 A 
ATOM      6  C   UNL     1      10.763 -10.962  49.080  1.00  0.00     0.011 A 
ENDROOT
BRANCH   1   7
ATOM      7  C   UNL     1       9.883 -10.058  46.900  1.00  0.00     0.036 C 
ATOM      8  C   UNL     1       8.506 -10.536  47.347  1.00  0.00     0.009 C 
ENDBRANCH   1   7
BRANCH   2   9
ATOM      9  O   UNL     1      12.377 -10.944  45.742  1.00  0.00    -0.508 OA
ATOM     10  H   UNL     1      11.630 -10.639  45.130  1.00  0.00     0.293 HD
ENDBRANCH   2   9
BRANCH   4  11
ATOM     11  O   UNL     1      13.930 -12.649  49.991  1.00  0.00    -0.508 OA
ATOM     12  H   UNL     1      14.739 -13.071  49.550  1.00  0.00     0.293 HD
ENDBRANCH   4  11
TORSDOF 3
ENDMDL
MODEL 2
REMARK VINA RESULT:    -5.152      1.579      3.372
REMARK INTER + INTRA:          -5.843
REMARK INTER:                  -5.759
REMARK INTRA:                  -0.084
REMARK UNBOUND:                -0.089
REMARK SMILES CCc1ccc(O)cc1O
REMARK SMILES IDX 3 1 9 2 8 3 6 4 5 5 4 6 2 7 1 8 10 9 7 11
REMARK H PARENT 10 10 7 12
REMARK Flexibility Score: inf
ROOT
ATOM      1  C   UNL     1      12.323 -10.821  48.893  1.00  0.00    -0.006 A 
ATOM      2  C   UNL     1      13.112 -11.987  48.828  1.00  0.00     0.122 A 
ATOM      3  C   UNL     1      13.136 -12.750  47.650  1.00  0.00     0.092 A 
ATOM      4  C   UNL     1      12.391 -12.354  46.535  1.00  0.00     0.119 A 
ATOM      5  C   UNL     1      11.618 -11.188  46.594  1.00  0.00     0.047 A 
ATOM      6  C   UNL     1      11.588 -10.423  47.763  1.00  0.00     0.011 A 
ENDROOT
BRANCH   1   7
ATOM      7  C   UNL     1      12.303  -9.967  50.135  1.00  0.00     0.036 C 
ATOM      8  C   UNL     1      11.253 -10.468  51.120  1.00  0.00     0.009 C 
ENDBRANCH   1   7
BRANCH   2   9
ATOM      9  O   UNL     1      13.871 -12.384  49.930  1.00  0.00    -0.508 OA
ATOM     10  H   UNL     1      14.009 -13.362  50.155  1.00  0.00     0.293 HD
ENDBRANCH   2   9
BRANCH   4  11
ATOM     11  O   UNL     1      12.427 -13.124  45.375  1.00  0.00    -0.508 OA
ATOM     12  H   UNL     1      12.702 -14.099  45.396  1.00  0.00     0.293 HD
ENDBRANCH   4  11
TORSDOF 3
ENDMDL
MODEL 3
REMARK VINA RESULT:    -5.137     17.594     17.969
REMARK INTER + INTRA:          -5.826
REMARK INTER:                  -5.740
REMARK INTRA:                  -0.086
REMARK UNBOUND:                -0.089
REMARK SMILES CCc1ccc(O)cc1O
REMARK SMILES IDX 3 1 9 2 8 3 6 4 5 5 4 6 2 7 1 8 10 9 7 11
REMARK H PARENT 10 10 7 12
REMARK Flexibility Score: inf
ROOT
ATOM      1  C   UNL     1      11.122   0.830  35.267  1.00  0.00    -0.006 A 
ATOM      2  C   UNL     1      10.263   0.128  34.398  1.00  0.00     0.122 A 
ATOM      3  C   UNL     1       8.880   0.128  34.633  1.00  0.00     0.092 A 
ATOM      4  C   UNL     1       8.346   0.830  35.718  1.00  0.00     0.119 A 
ATOM      5  C   UNL     1       9.197   1.540  36.574  1.00  0.00     0.047 A 
ATOM      6  C   UNL     1      10.577   1.545  36.347  1.00  0.00     0.011 A 
ENDROOT
BRANCH   1   7
ATOM      7  C   UNL     1      12.609   0.872  35.020  1.00  0.00     0.036 C 
ATOM      8  C   UNL     1      13.273   1.934  35.890  1.00  0.00     0.009 C 
ENDBRANCH   1   7
BRANCH   2   9
ATOM      9  O   UNL     1      10.783  -0.564  33.304  1.00  0.00    -0.508 OA
ATOM     10  H   UNL     1      11.623  -0.255  32.830  1.00  0.00     0.293 HD
ENDBRANCH   2   9
BRANCH   4  11
ATOM     11  O   UNL     1       6.970   0.818  35.935  1.00  0.00    -0.508 OA
ATOM     12  H   UNL     1       6.406   1.648  35.796  1.00  0.00     0.293 HD
ENDBRANCH   4  11
TORSDOF 3
ENDMDL
MODEL 4
REMARK VINA RESULT:    -4.978     16.910     17.681
REMARK INTER + INTRA:          -5.649
REMARK INTER:                  -5.560
REMARK INTRA:                  -0.089
REMARK UNBOUND:                -0.089
REMARK SMILES CCc1ccc(O)cc1O
REMARK SMILES IDX 3 1 9 2 8 3 6 4 5 5 4 6 2 7 1 8 10 9 7 11
REMARK H PARENT 10 10 7 12
REMARK Flexibility Score: inf
ROOT
ATOM      1  C   UNL     1       9.072   0.383  35.266  1.00  0.00    -0.006 A 
ATOM      2  C   UNL     1      10.020   1.146  35.977  1.00  0.00     0.122 A 
ATOM      3  C   UNL     1      11.360   1.156  35.563  1.00  0.00     0.092 A 
ATOM      4  C   UNL     1      11.761   0.424  34.442  1.00  0.00     0.119 A 
ATOM      5  C   UNL     1      10.817  -0.323  33.726  1.00  0.00     0.047 A 
ATOM      6  C   UNL     1       9.480  -0.339  34.132  1.00  0.00     0.011 A 
ENDROOT
BRANCH   1   7
ATOM      7  C   UNL     1       7.619   0.379  35.670  1.00  0.00     0.036 C 
ATOM      8  C   UNL     1       7.071  -1.044  35.705  1.00  0.00     0.009 C 
ENDBRANCH   1   7
BRANCH   2   9
ATOM      9  O   UNL     1       9.629   1.892  37.090  1.00  0.00    -0.508 OA
ATOM     10  H   UNL     1      10.143   2.713  37.385  1.00  0.00     0.293 HD
ENDBRANCH   2   9
BRANCH   4  11
ATOM     11  O   UNL     1      13.096   0.446  34.047  1.00  0.00    -0.508 OA
ATOM     12  H   UNL     1      13.505   1.264  33.609  1.00  0.00     0.293 HD
ENDBRANCH   4  11
TORSDOF 3
ENDMDL
MODEL 5
REMARK VINA RESULT:    -4.908     17.414     18.038
REMARK INTER + INTRA:          -5.571
REMARK INTER:                  -5.468
REMARK INTRA:                  -0.103
REMARK UNBOUND:                -0.089
REMARK SMILES CCc1ccc(O)cc1O
REMARK SMILES IDX 3 1 9 2 8 3 6 4 5 5 4 6 2 7 1 8 10 9 7 11
REMARK H PARENT 10 10 7 12
REMARK Flexibility Score: inf
ROOT
ATOM      1  C   UNL     1       9.780   0.701  34.519  1.00  0.00    -0.006 A 
ATOM      2  C   UNL     1      11.003   0.080  34.194  1.00  0.00     0.122 A 
ATOM      3  C   UNL     1      12.209   0.632  34.650  1.00  0.00     0.092 A 
ATOM      4  C   UNL     1      12.207   1.789  35.436  1.00  0.00     0.119 A 
ATOM      5  C   UNL     1      10.991   2.398  35.772  1.00  0.00     0.047 A 
ATOM      6  C   UNL     1       9.785   1.855  35.321  1.00  0.00     0.011 A 
ENDROOT
BRANCH   1   7
ATOM      7  C   UNL     1       8.467   0.111  34.068  1.00  0.00     0.036 C 
ATOM      8  C   UNL     1       7.697  -0.465  35.252  1.00  0.00     0.009 C 
ENDBRANCH   1   7
BRANCH   2   9
ATOM      9  O   UNL     1      11.017  -1.082  33.422  1.00  0.00    -0.508 OA
ATOM     10  H   UNL     1      10.646  -1.098  32.480  1.00  0.00     0.293 HD
ENDBRANCH   2   9
BRANCH   4  11
ATOM     11  O   UNL     1      13.415   2.322  35.879  1.00  0.00    -0.508 OA
ATOM     12  H   UNL     1      13.736   3.232  35.571  1.00  0.00     0.293 HD
ENDBRANCH   4  11
TORSDOF 3
ENDMDL
MODEL 6
REMARK VINA RESULT:    -4.895      2.275      3.065
REMARK INTER + INTRA:          -5.556
REMARK INTER:                  -5.469
REMARK INTRA:                  -0.087
REMARK UNBOUND:                -0.089
REMARK SMILES CCc1ccc(O)cc1O
REMARK SMILES IDX 3 1 9 2 8 3 6 4 5 5 4 6 2 7 1 8 10 9 7 11
REMARK H PARENT 10 10 7 12
REMARK Flexibility Score: inf
ROOT
ATOM      1  C   UNL     1      12.276 -10.284  48.732  1.00  0.00    -0.006 A 
ATOM      2  C   UNL     1      12.035  -9.899  47.398  1.00  0.00     0.122 A 
ATOM      3  C   UNL     1      12.114 -10.852  46.371  1.00  0.00     0.092 A 
ATOM      4  C   UNL     1      12.419 -12.185  46.664  1.00  0.00     0.119 A 
ATOM      5  C   UNL     1      12.644 -12.571  47.991  1.00  0.00     0.047 A 
ATOM      6  C   UNL     1      12.568 -11.628  49.019  1.00  0.00     0.011 A 
ENDROOT
BRANCH   1   7
ATOM      7  C   UNL     1      12.167  -9.287  49.858  1.00  0.00     0.036 C 
ATOM      8  C   UNL     1      11.778  -9.981  51.160  1.00  0.00     0.009 C 
ENDBRANCH   1   7
BRANCH   2   9
ATOM      9  O   UNL     1      11.716  -8.575  47.096  1.00  0.00    -0.508 OA
ATOM     10  H   UNL     1      12.353  -7.980  46.580  1.00  0.00     0.293 HD
ENDBRANCH   2   9
BRANCH   4  11
ATOM     11  O   UNL     1      12.493 -13.116  45.631  1.00  0.00    -0.508 OA
ATOM     12  H   UNL     1      12.089 -14.041  45.722  1.00  0.00     0.293 HD
ENDBRANCH   4  11
TORSDOF 3
ENDMDL
MODEL 7
REMARK VINA RESULT:    -4.804     17.351     18.129
REMARK INTER + INTRA:          -5.455
REMARK INTER:                  -5.359
REMARK INTRA:                  -0.096
REMARK UNBOUND:                -0.089
REMARK SMILES CCc1ccc(O)cc1O
REMARK SMILES IDX 3 1 9 2 8 3 6 4 5 5 4 6 2 7 1 8 10 9 7 11
REMARK H PARENT 10 10 7 12
REMARK Flexibility Score: inf
ROOT
ATOM      1  C   UNL     1      10.747   1.545  35.295  1.00  0.00    -0.006 A 
ATOM      2  C   UNL     1       9.606   1.280  36.079  1.00  0.00     0.122 A 
ATOM      3  C   UNL     1       8.686   0.304  35.667  1.00  0.00     0.092 A 
ATOM      4  C   UNL     1       8.899  -0.417  34.489  1.00  0.00     0.119 A 
ATOM      5  C   UNL     1      10.040  -0.165  33.716  1.00  0.00     0.047 A 
ATOM      6  C   UNL     1      10.961   0.806  34.119  1.00  0.00     0.011 A 
ENDROOT
BRANCH   1   7
ATOM      7  C   UNL     1      11.767   2.566  35.730  1.00  0.00     0.036 C 
ATOM      8  C   UNL     1      13.148   1.932  35.858  1.00  0.00     0.009 C 
ENDBRANCH   1   7
BRANCH   2   9
ATOM      9  O   UNL     1       9.390   1.984  37.265  1.00  0.00    -0.508 OA
ATOM     10  H   UNL     1      10.086   2.011  38.000  1.00  0.00     0.293 HD
ENDBRANCH   2   9
BRANCH   4  11
ATOM     11  O   UNL     1       7.974  -1.382  34.096  1.00  0.00    -0.508 OA
ATOM     12  H   UNL     1       7.661  -1.454  33.135  1.00  0.00     0.293 HD
ENDBRANCH   4  11
TORSDOF 3
ENDMDL
MODEL 8
REMARK VINA RESULT:    -4.799     14.632     15.647
REMARK INTER + INTRA:          -5.448
REMARK INTER:                  -5.361
REMARK INTRA:                  -0.087
REMARK UNBOUND:                -0.089
REMARK SMILES CCc1ccc(O)cc1O
REMARK SMILES IDX 3 1 9 2 8 3 6 4 5 5 4 6 2 7 1 8 10 9 7 11
REMARK H PARENT 10 10 7 12
REMARK Flexibility Score: inf
ROOT
ATOM      1  C   UNL     1       2.568  -1.233  39.650  1.00  0.00    -0.006 A 
ATOM      2  C   UNL     1       2.494  -1.188  41.057  1.00  0.00     0.122 A 
ATOM      3  C   UNL     1       1.974  -2.283  41.764  1.00  0.00     0.092 A 
ATOM      4  C   UNL     1       1.541  -3.424  41.084  1.00  0.00     0.119 A 
ATOM      5  C   UNL     1       1.628  -3.476  39.687  1.00  0.00     0.047 A 
ATOM      6  C   UNL     1       2.143  -2.390  38.975  1.00  0.00     0.011 A 
ENDROOT
BRANCH   1   7
ATOM      7  C   UNL     1       3.151  -0.084  38.867  1.00  0.00     0.036 C 
ATOM      8  C   UNL     1       3.822  -0.582  37.592  1.00  0.00     0.009 C 
ENDBRANCH   1   7
BRANCH   2   9
ATOM      9  O   UNL     1       2.937  -0.059  41.748  1.00  0.00    -0.508 OA
ATOM     10  H   UNL     1       3.001   0.846  41.299  1.00  0.00     0.293 HD
ENDBRANCH   2   9
BRANCH   4  11
ATOM     11  O   UNL     1       1.028  -4.501  41.804  1.00  0.00    -0.508 OA
ATOM     12  H   UNL     1       0.033  -4.604  41.963  1.00  0.00     0.293 HD
ENDBRANCH   4  11
TORSDOF 3
ENDMDL
MODEL 9
REMARK VINA RESULT:    -4.630     17.090     17.751
REMARK INTER + INTRA:          -5.259
REMARK INTER:                  -5.172
REMARK INTRA:                  -0.087
REMARK UNBOUND:                -0.089
REMARK SMILES CCc1ccc(O)cc1O
REMARK SMILES IDX 3 1 9 2 8 3 6 4 5 5 4 6 2 7 1 8 10 9 7 11
REMARK H PARENT 10 10 7 12
REMARK Flexibility Score: inf
ROOT
ATOM      1  C   UNL     1       7.932   0.044  35.611  1.00  0.00    -0.006 A 
ATOM      2  C   UNL     1       8.680  -0.384  34.496  1.00  0.00     0.122 A 
ATOM      3  C   UNL     1       9.874   0.272  34.162  1.00  0.00     0.092 A 
ATOM      4  C   UNL     1      10.334   1.342  34.935  1.00  0.00     0.119 A 
ATOM      5  C   UNL     1       9.600   1.759  36.052  1.00  0.00     0.047 A 
ATOM      6  C   UNL     1       8.409   1.111  36.392  1.00  0.00     0.011 A 
ENDROOT
BRANCH   1   7
ATOM      7  C   UNL     1       6.662  -0.663  36.011  1.00  0.00     0.036 C 
ATOM      8  C   UNL     1       5.579   0.342  36.391  1.00  0.00     0.009 C 
ENDBRANCH   1   7
BRANCH   2   9
ATOM      9  O   UNL     1       8.237  -1.460  33.725  1.00  0.00    -0.508 OA
ATOM     10  H   UNL     1       8.726  -2.346  33.721  1.00  0.00     0.293 HD
ENDBRANCH   2   9
BRANCH   4  11
ATOM     11  O   UNL     1      11.522   1.981  34.587  1.00  0.00    -0.508 OA
ATOM     12  H   UNL     1      11.698   2.946  34.842  1.00  0.00     0.293 HD
ENDBRANCH   4  11
TORSDOF 3
ENDMDL
