MODEL 1
REMARK VINA RESULT:    -3.639      0.000      0.000
REMARK INTER + INTRA:          -4.009
REMARK INTER:                  -3.852
REMARK INTRA:                  -0.157
REMARK UNBOUND:                -0.157
REMARK SMILES CC(C)[C@H]1CC[C@@H](C)CC1=O
REMARK SMILES IDX 8 1 7 2 6 3 5 4 4 5 10 6 11 7 9 8 2 9 1 10 3 11
REMARK H PARENT
REMARK Flexibility Score: inf
ROOT
ATOM      1  C   UNL     1       9.061  -3.594  -2.467  1.00  0.00     0.008 C 
ATOM      2  C   UNL     1       9.607  -4.939  -2.973  1.00  0.00    -0.007 C 
ATOM      3  C   UNL     1      10.058  -5.857  -1.816  1.00  0.00     0.004 C 
ATOM      4  C   UNL     1      11.321  -5.339  -1.111  1.00  0.00     0.012 C 
ATOM      5  C   UNL     1      12.493  -5.147  -2.104  1.00  0.00     0.058 C 
ATOM      6  C   UNL     1      12.026  -4.343  -3.306  1.00  0.00     0.136 C 
ATOM      7  O   UNL     1      12.717  -3.458  -3.787  1.00  0.00    -0.299 OA
ATOM      8  C   UNL     1      10.745  -4.737  -3.991  1.00  0.00     0.079 C 
ENDROOT
BRANCH   5   9
ATOM      9  C   UNL     1      13.780  -4.563  -1.437  1.00  0.00    -0.007 C 
ATOM     10  C   UNL     1      13.690  -4.462   0.096  1.00  0.00     0.008 C 
ATOM     11  C   UNL     1      15.037  -5.349  -1.840  1.00  0.00     0.008 C 
ENDBRANCH   5   9
TORSDOF 1
ENDMDL
MODEL 2
REMARK VINA RESULT:    -3.589      1.419      3.935
REMARK INTER + INTRA:          -3.956
REMARK INTER:                  -3.819
REMARK INTRA:                  -0.137
REMARK UNBOUND:                -0.157
REMARK SMILES CC(C)[C@H]1CC[C@@H](C)CC1=O
REMARK SMILES IDX 8 1 7 2 6 3 5 4 4 5 10 6 11 7 9 8 2 9 1 10 3 11
REMARK H PARENT
REMARK Flexibility Score: inf
ROOT
ATOM      1  C   UNL     1      14.054  -5.700  -2.563  1.00  0.00     0.008 C 
ATOM      2  C   UNL     1      13.547  -4.249  -2.535  1.00  0.00    -0.007 C 
ATOM      3  C   UNL     1      12.953  -3.867  -1.162  1.00  0.00     0.004 C 
ATOM      4  C   UNL     1      11.626  -4.587  -0.873  1.00  0.00     0.012 C 
ATOM      5  C   UNL     1      10.577  -4.322  -1.980  1.00  0.00     0.058 C 
ATOM      6  C   UNL     1      11.191  -4.583  -3.346  1.00  0.00     0.136 C 
ATOM      7  O   UNL     1      10.574  -5.175  -4.219  1.00  0.00    -0.299 OA
ATOM      8  C   UNL     1      12.535  -3.986  -3.665  1.00  0.00     0.079 C 
ENDROOT
BRANCH   5   9
ATOM      9  C   UNL     1       9.233  -5.086  -1.755  1.00  0.00    -0.007 C 
ATOM     10  C   UNL     1       9.091  -5.683  -0.344  1.00  0.00     0.008 C 
ATOM     11  C   UNL     1       8.016  -4.206  -2.080  1.00  0.00     0.008 C 
ENDBRANCH   5   9
TORSDOF 1
ENDMDL
MODEL 3
REMARK VINA RESULT:    -3.059      1.906      2.899
REMARK INTER + INTRA:          -3.395
REMARK INTER:                  -3.277
REMARK INTRA:                  -0.118
REMARK UNBOUND:                -0.157
REMARK SMILES CC(C)[C@H]1CC[C@@H](C)CC1=O
REMARK SMILES IDX 8 1 7 2 6 3 5 4 4 5 10 6 11 7 9 8 2 9 1 10 3 11
REMARK H PARENT
REMARK Flexibility Score: inf
ROOT
ATOM      1  C   UNL     1       8.099  -5.630  -3.977  1.00  0.00     0.008 C 
ATOM      2  C   UNL     1       8.192  -4.371  -3.100  1.00  0.00    -0.007 C 
ATOM      3  C   UNL     1       9.278  -3.393  -3.599  1.00  0.00     0.004 C 
ATOM      4  C   UNL     1      10.701  -3.935  -3.388  1.00  0.00     0.012 C 
ATOM      5  C   UNL     1      10.966  -4.286  -1.904  1.00  0.00     0.058 C 
ATOM      6  C   UNL     1       9.838  -5.153  -1.369  1.00  0.00     0.136 C 
ATOM      7  O   UNL     1      10.062  -6.120  -0.655  1.00  0.00    -0.299 OA
ATOM      8  C   UNL     1       8.416  -4.732  -1.620  1.00  0.00     0.079 C 
ENDROOT
BRANCH   5   9
ATOM      9  C   UNL     1      12.382  -4.898  -1.655  1.00  0.00    -0.007 C 
ATOM     10  C   UNL     1      13.366  -4.669  -2.816  1.00  0.00     0.008 C 
ATOM     11  C   UNL     1      12.996  -4.398  -0.339  1.00  0.00     0.008 C 
ENDBRANCH   5   9
TORSDOF 1
ENDMDL
MODEL 4
REMARK VINA RESULT:    -3.038      2.233      3.365
REMARK INTER + INTRA:          -3.372
REMARK INTER:                  -3.188
REMARK INTRA:                  -0.184
REMARK UNBOUND:                -0.157
REMARK SMILES CC(C)[C@H]1CC[C@@H](C)CC1=O
REMARK SMILES IDX 8 1 7 2 6 3 5 4 4 5 10 6 11 7 9 8 2 9 1 10 3 11
REMARK H PARENT
REMARK Flexibility Score: inf
ROOT
ATOM      1  C   UNL     1       7.066  -5.711  -4.725  1.00  0.00     0.008 C 
ATOM      2  C   UNL     1       8.320  -5.002  -5.262  1.00  0.00    -0.007 C 
ATOM      3  C   UNL     1       9.612  -5.792  -4.957  1.00  0.00     0.004 C 
ATOM      4  C   UNL     1       9.963  -5.793  -3.461  1.00  0.00     0.012 C 
ATOM      5  C   UNL     1      10.094  -4.356  -2.902  1.00  0.00     0.058 C 
ATOM      6  C   UNL     1       8.879  -3.534  -3.299  1.00  0.00     0.136 C 
ATOM      7  O   UNL     1       8.335  -2.778  -2.507  1.00  0.00    -0.299 OA
ATOM      8  C   UNL     1       8.421  -3.559  -4.732  1.00  0.00     0.079 C 
ENDROOT
BRANCH   5   9
ATOM      9  C   UNL     1      10.391  -4.312  -1.369  1.00  0.00    -0.007 C 
ATOM     10  C   UNL     1       9.729  -5.456  -0.579  1.00  0.00     0.008 C 
ATOM     11  C   UNL     1      11.899  -4.278  -1.081  1.00  0.00     0.008 C 
ENDBRANCH   5   9
TORSDOF 1
ENDMDL
MODEL 5
REMARK VINA RESULT:    -2.985      2.000      4.657
REMARK INTER + INTRA:          -3.316
REMARK INTER:                  -3.134
REMARK INTRA:                  -0.183
REMARK UNBOUND:                -0.157
REMARK SMILES CC(C)[C@H]1CC[C@@H](C)CC1=O
REMARK SMILES IDX 8 1 7 2 6 3 5 4 4 5 10 6 11 7 9 8 2 9 1 10 3 11
REMARK H PARENT
REMARK Flexibility Score: inf
ROOT
ATOM      1  C   UNL     1      12.699  -3.868  -1.111  1.00  0.00     0.008 C 
ATOM      2  C   UNL     1      12.365  -5.149  -1.893  1.00  0.00    -0.007 C 
ATOM      3  C   UNL     1      11.878  -4.845  -3.327  1.00  0.00     0.004 C 
ATOM      4  C   UNL     1      10.490  -4.185  -3.350  1.00  0.00     0.012 C 
ATOM      5  C   UNL     1       9.433  -5.047  -2.618  1.00  0.00     0.058 C 
ATOM      6  C   UNL     1       9.954  -5.450  -1.249  1.00  0.00     0.136 C 
ATOM      7  O   UNL     1       9.236  -5.421  -0.260  1.00  0.00    -0.299 OA
ATOM      8  C   UNL     1      11.343  -6.018  -1.138  1.00  0.00     0.079 C 
ENDROOT
BRANCH   5   9
ATOM      9  C   UNL     1       8.021  -4.382  -2.566  1.00  0.00    -0.007 C 
ATOM     10  C   UNL     1       8.058  -2.845  -2.651  1.00  0.00     0.008 C 
ATOM     11  C   UNL     1       7.085  -4.946  -3.646  1.00  0.00     0.008 C 
ENDBRANCH   5   9
TORSDOF 1
ENDMDL
MODEL 6
REMARK VINA RESULT:    -2.951      1.966      2.856
REMARK INTER + INTRA:          -3.281
REMARK INTER:                  -3.127
REMARK INTRA:                  -0.154
REMARK UNBOUND:                -0.157
REMARK SMILES CC(C)[C@H]1CC[C@@H](C)CC1=O
REMARK SMILES IDX 8 1 7 2 6 3 5 4 4 5 10 6 11 7 9 8 2 9 1 10 3 11
REMARK H PARENT
REMARK Flexibility Score: inf
ROOT
ATOM      1  C   UNL     1       6.473  -3.410  -1.667  1.00  0.00     0.008 C 
ATOM      2  C   UNL     1       6.841  -4.715  -2.393  1.00  0.00    -0.007 C 
ATOM      3  C   UNL     1       7.749  -5.622  -1.535  1.00  0.00     0.004 C 
ATOM      4  C   UNL     1       9.162  -5.043  -1.358  1.00  0.00     0.012 C 
ATOM      5  C   UNL     1       9.844  -4.770  -2.721  1.00  0.00     0.058 C 
ATOM      6  C   UNL     1       8.908  -3.977  -3.617  1.00  0.00     0.136 C 
ATOM      7  O   UNL     1       9.315  -3.046  -4.297  1.00  0.00    -0.299 OA
ATOM      8  C   UNL     1       7.482  -4.433  -3.764  1.00  0.00     0.079 C 
ENDROOT
BRANCH   5   9
ATOM      9  C   UNL     1      11.260  -4.124  -2.586  1.00  0.00    -0.007 C 
ATOM     10  C   UNL     1      11.785  -4.084  -1.139  1.00  0.00     0.008 C 
ATOM     11  C   UNL     1      12.288  -4.807  -3.500  1.00  0.00     0.008 C 
ENDBRANCH   5   9
TORSDOF 1
ENDMDL
MODEL 7
REMARK VINA RESULT:    -2.946     10.091     12.397
REMARK INTER + INTRA:          -3.275
REMARK INTER:                  -3.117
REMARK INTRA:                  -0.157
REMARK UNBOUND:                -0.157
REMARK SMILES CC(C)[C@H]1CC[C@@H](C)CC1=O
REMARK SMILES IDX 8 1 7 2 6 3 5 4 4 5 10 6 11 7 9 8 2 9 1 10 3 11
REMARK H PARENT
REMARK Flexibility Score: inf
ROOT
ATOM      1  C   UNL     1      17.734   3.232   7.613  1.00  0.00     0.008 C 
ATOM      2  C   UNL     1      17.700   2.033   8.575  1.00  0.00    -0.007 C 
ATOM      3  C   UNL     1      18.931   1.116   8.405  1.00  0.00     0.004 C 
ATOM      4  C   UNL     1      18.918   0.351   7.072  1.00  0.00     0.012 C 
ATOM      5  C   UNL     1      17.625  -0.484   6.905  1.00  0.00     0.058 C 
ATOM      6  C   UNL     1      16.409   0.383   7.186  1.00  0.00     0.136 C 
ATOM      7  O   UNL     1      15.410   0.325   6.485  1.00  0.00    -0.299 OA
ATOM      8  C   UNL     1      16.394   1.232   8.429  1.00  0.00     0.079 C 
ENDROOT
BRANCH   5   9
ATOM      9  C   UNL     1      17.543  -1.230   5.535  1.00  0.00    -0.007 C 
ATOM     10  C   UNL     1      18.833  -1.132   4.700  1.00  0.00     0.008 C 
ATOM     11  C   UNL     1      17.141  -2.703   5.710  1.00  0.00     0.008 C 
ENDBRANCH   5   9
TORSDOF 1
ENDMDL
MODEL 8
REMARK VINA RESULT:    -2.937     10.845     12.701
REMARK INTER + INTRA:          -3.265
REMARK INTER:                  -3.108
REMARK INTRA:                  -0.157
REMARK UNBOUND:                -0.157
REMARK SMILES CC(C)[C@H]1CC[C@@H](C)CC1=O
REMARK SMILES IDX 8 1 7 2 6 3 5 4 4 5 10 6 11 7 9 8 2 9 1 10 3 11
REMARK H PARENT
REMARK Flexibility Score: inf
ROOT
ATOM      1  C   UNL     1      10.065   3.250  -6.998  1.00  0.00     0.008 C 
ATOM      2  C   UNL     1       9.101   3.506  -8.168  1.00  0.00    -0.007 C 
ATOM      3  C   UNL     1       9.521   4.729  -9.012  1.00  0.00     0.004 C 
ATOM      4  C   UNL     1       9.336   6.056  -8.259  1.00  0.00     0.012 C 
ATOM      5  C   UNL     1       7.878   6.241  -7.772  1.00  0.00     0.058 C 
ATOM      6  C   UNL     1       7.415   4.992  -7.042  1.00  0.00     0.136 C 
ATOM      7  O   UNL     1       6.770   5.062  -6.006  1.00  0.00    -0.299 OA
ATOM      8  C   UNL     1       7.648   3.648  -7.678  1.00  0.00     0.079 C 
ENDROOT
BRANCH   5   9
ATOM      9  C   UNL     1       7.662   7.550  -6.948  1.00  0.00    -0.007 C 
ATOM     10  C   UNL     1       8.888   8.480  -6.934  1.00  0.00     0.008 C 
ATOM     11  C   UNL     1       6.421   8.323  -7.421  1.00  0.00     0.008 C 
ENDBRANCH   5   9
TORSDOF 1
ENDMDL
MODEL 9
REMARK VINA RESULT:    -2.918     10.798     12.252
REMARK INTER + INTRA:          -3.246
REMARK INTER:                  -3.061
REMARK INTRA:                  -0.184
REMARK UNBOUND:                -0.157
REMARK SMILES CC(C)[C@H]1CC[C@@H](C)CC1=O
REMARK SMILES IDX 8 1 7 2 6 3 5 4 4 5 10 6 11 7 9 8 2 9 1 10 3 11
REMARK H PARENT
REMARK Flexibility Score: inf
ROOT
ATOM      1  C   UNL     1       7.098   2.653  -8.131  1.00  0.00     0.008 C 
ATOM      2  C   UNL     1       8.538   2.654  -8.669  1.00  0.00    -0.007 C 
ATOM      3  C   UNL     1       9.547   3.190  -7.631  1.00  0.00     0.004 C 
ATOM      4  C   UNL     1       9.388   4.698  -7.379  1.00  0.00     0.012 C 
ATOM      5  C   UNL     1       9.512   5.514  -8.688  1.00  0.00     0.058 C 
ATOM      6  C   UNL     1       8.608   4.919  -9.755  1.00  0.00     0.136 C 
ATOM      7  O   UNL     1       7.937   5.630 -10.489  1.00  0.00    -0.299 OA
ATOM      8  C   UNL     1       8.643   3.434  -9.993  1.00  0.00     0.079 C 
ENDROOT
BRANCH   5   9
ATOM      9  C   UNL     1       9.295   7.048  -8.485  1.00  0.00    -0.007 C 
ATOM     10  C   UNL     1       8.288   7.387  -7.372  1.00  0.00     0.008 C 
ATOM     11  C   UNL     1      10.621   7.783  -8.236  1.00  0.00     0.008 C 
ENDBRANCH   5   9
TORSDOF 1
ENDMDL
