MODEL 1
REMARK VINA RESULT:    -5.013      0.000      0.000
REMARK INTER + INTRA:          -8.588
REMARK INTER:                  -7.797
REMARK INTRA:                  -0.792
REMARK UNBOUND:                -0.792
REMARK SMILES COc1cc(CNC(=O)CCCCC=CC(C)C)ccc1O
REMARK SMILES IDX 11 1 12 2 13 3 14 4 15 5 16 6 17 7 18 8 10 9 8 10 9 11 7 12
REMARK SMILES IDX 6 14 5 15 4 16 19 17 3 18 20 19 21 20 2 21 1 22 22 23
REMARK H PARENT 7 13 22 24
REMARK Flexibility Score: inf
ROOT
ATOM      1  C   UNL     1     165.933 164.934 167.063  1.00  0.00     0.010 C 
ENDROOT
BRANCH   1   2
ATOM      2  C   UNL     1     164.479 165.224 166.651  1.00  0.00     0.005 C 
BRANCH   2   3
ATOM      3  C   UNL     1     163.519 165.183 167.846  1.00  0.00     0.027 C 
BRANCH   3   4
ATOM      4  C   UNL     1     162.182 164.601 167.475  1.00  0.00    -0.031 C 
ATOM      5  C   UNL     1     161.171 164.539 168.358  1.00  0.00    -0.028 C 
BRANCH   5   6
ATOM      6  C   UNL     1     159.836 163.910 168.028  1.00  0.00     0.005 C 
ATOM      7  C   UNL     1     158.705 164.943 168.099  1.00  0.00     0.012 C 
ATOM      8  C   UNL     1     159.543 162.704 168.930  1.00  0.00     0.012 C 
ENDBRANCH   5   6
ENDBRANCH   3   4
ENDBRANCH   2   3
ENDBRANCH   1   2
BRANCH   1   9
ATOM      9  C   UNL     1     166.015 164.033 168.304  1.00  0.00     0.100 C 
BRANCH   9  10
ATOM     10  C   UNL     1     166.732 164.717 169.431  1.00  0.00     0.220 C 
ATOM     11  O   UNL     1     166.914 164.098 170.515  1.00  0.00    -0.275 OA
ATOM     12  N   UNL     1     167.248 166.045 169.261  1.00  0.00    -0.352 N 
ATOM     13  H   UNL     1     166.999 166.576 168.395  1.00  0.00     0.163 HD
BRANCH  12  14
ATOM     14  C   UNL     1     168.334 166.563 170.088  1.00  0.00     0.151 C 
BRANCH  14  15
ATOM     15  C   UNL     1     169.617 166.554 169.302  1.00  0.00    -0.025 A 
ATOM     16  C   UNL     1     170.851 166.564 169.970  1.00  0.00     0.056 A 
ATOM     17  C   UNL     1     169.589 166.651 167.904  1.00  0.00     0.009 A 
ATOM     18  C   UNL     1     172.058 166.659 169.247  1.00  0.00     0.160 A 
ATOM     19  C   UNL     1     170.780 166.739 167.182  1.00  0.00     0.050 A 
ATOM     20  C   UNL     1     172.012 166.746 167.845  1.00  0.00     0.157 A 
BRANCH  18  21
ATOM     21  O   UNL     1     173.309 166.677 169.887  1.00  0.00    -0.493 OA
ATOM     22  C   UNL     1     173.953 167.850 170.371  1.00  0.00     0.278 C 
ENDBRANCH  18  21
BRANCH  20  23
ATOM     23  O   UNL     1     173.182 166.844 167.090  1.00  0.00    -0.504 OA
ATOM     24  H   UNL     1     173.978 166.235 167.246  1.00  0.00     0.293 HD
ENDBRANCH  20  23
ENDBRANCH  14  15
ENDBRANCH  12  14
ENDBRANCH   9  10
ENDBRANCH   1   9
TORSDOF 10
ENDMDL
MODEL 2
REMARK VINA RESULT:    -4.990      5.144      7.117
REMARK INTER + INTRA:          -8.552
REMARK INTER:                  -7.739
REMARK INTRA:                  -0.813
REMARK UNBOUND:                -0.792
REMARK SMILES COc1cc(CNC(=O)CCCCC=CC(C)C)ccc1O
REMARK SMILES IDX 11 1 12 2 13 3 14 4 15 5 16 6 17 7 18 8 10 9 8 10 9 11 7 12
REMARK SMILES IDX 6 14 5 15 4 16 19 17 3 18 20 19 21 20 2 21 1 22 22 23
REMARK H PARENT 7 13 22 24
REMARK Flexibility Score: inf
ROOT
ATOM      1  C   UNL     1     164.201 164.874 167.848  1.00  0.00     0.010 C 
ENDROOT
BRANCH   1   2
ATOM      2  C   UNL     1     164.449 166.150 167.024  1.00  0.00     0.005 C 
BRANCH   2   3
ATOM      3  C   UNL     1     165.474 167.078 167.688  1.00  0.00     0.027 C 
BRANCH   3   4
ATOM      4  C   UNL     1     164.878 168.412 168.046  1.00  0.00    -0.031 C 
ATOM      5  C   UNL     1     164.673 169.363 167.118  1.00  0.00    -0.028 C 
BRANCH   5   6
ATOM      6  C   UNL     1     164.127 170.732 167.459  1.00  0.00     0.005 C 
ATOM      7  C   UNL     1     165.063 171.841 166.962  1.00  0.00     0.012 C 
ATOM      8  C   UNL     1     163.854 170.871 168.963  1.00  0.00     0.012 C 
ENDBRANCH   5   6
ENDBRANCH   3   4
ENDBRANCH   2   3
ENDBRANCH   1   2
BRANCH   1   9
ATOM      9  C   UNL     1     163.853 165.185 169.310  1.00  0.00     0.100 C 
BRANCH   9  10
ATOM     10  C   UNL     1     164.763 164.462 170.258  1.00  0.00     0.220 C 
ATOM     11  O   UNL     1     164.467 164.409 171.483  1.00  0.00    -0.275 OA
ATOM     12  N   UNL     1     165.935 163.793 169.767  1.00  0.00    -0.352 N 
ATOM     13  H   UNL     1     166.215 163.933 168.770  1.00  0.00     0.163 HD
BRANCH  12  14
ATOM     14  C   UNL     1     166.568 162.704 170.506  1.00  0.00     0.151 C 
BRANCH  14  15
ATOM     15  C   UNL     1     166.585 161.462 169.657  1.00  0.00    -0.025 A 
ATOM     16  C   UNL     1     166.520 160.197 170.262  1.00  0.00     0.056 A 
ATOM     17  C   UNL     1     166.779 161.554 168.272  1.00  0.00     0.009 A 
ATOM     18  C   UNL     1     166.638 159.024 169.489  1.00  0.00     0.160 A 
ATOM     19  C   UNL     1     166.889 160.398 167.499  1.00  0.00     0.050 A 
ATOM     20  C   UNL     1     166.823 159.135 168.099  1.00  0.00     0.157 A 
BRANCH  18  21
ATOM     21  O   UNL     1     166.583 157.743 170.065  1.00  0.00    -0.493 OA
ATOM     22  C   UNL     1     166.770 157.472 171.449  1.00  0.00     0.278 C 
ENDBRANCH  18  21
BRANCH  20  23
ATOM     23  O   UNL     1     166.946 158.001 167.296  1.00  0.00    -0.504 OA
ATOM     24  H   UNL     1     167.557 157.229 167.541  1.00  0.00     0.293 HD
ENDBRANCH  20  23
ENDBRANCH  14  15
ENDBRANCH  12  14
ENDBRANCH   9  10
ENDBRANCH   1   9
TORSDOF 10
ENDMDL
MODEL 3
REMARK VINA RESULT:    -4.874      4.682      5.902
REMARK INTER + INTRA:          -8.372
REMARK INTER:                  -6.887
REMARK INTRA:                  -1.485
REMARK UNBOUND:                -0.792
REMARK SMILES COc1cc(CNC(=O)CCCCC=CC(C)C)ccc1O
REMARK SMILES IDX 11 1 12 2 13 3 14 4 15 5 16 6 17 7 18 8 10 9 8 10 9 11 7 12
REMARK SMILES IDX 6 14 5 15 4 16 19 17 3 18 20 19 21 20 2 21 1 22 22 23
REMARK H PARENT 7 13 22 24
REMARK Flexibility Score: inf
ROOT
ATOM      1  C   UNL     1     166.079 164.371 169.345  1.00  0.00     0.010 C 
ENDROOT
BRANCH   1   2
ATOM      2  C   UNL     1     164.948 163.994 170.318  1.00  0.00     0.005 C 
BRANCH   2   3
ATOM      3  C   UNL     1     163.789 164.998 170.276  1.00  0.00     0.027 C 
BRANCH   3   4
ATOM      4  C   UNL     1     162.538 164.390 169.702  1.00  0.00    -0.031 C 
ATOM      5  C   UNL     1     162.055 164.770 168.507  1.00  0.00    -0.028 C 
BRANCH   5   6
ATOM      6  C   UNL     1     160.770 164.216 167.933  1.00  0.00     0.005 C 
ATOM      7  C   UNL     1     160.670 164.498 166.428  1.00  0.00     0.012 C 
ATOM      8  C   UNL     1     159.542 164.752 168.680  1.00  0.00     0.012 C 
ENDBRANCH   5   6
ENDBRANCH   3   4
ENDBRANCH   2   3
ENDBRANCH   1   2
BRANCH   1   9
ATOM      9  C   UNL     1     165.873 163.763 167.951  1.00  0.00     0.100 C 
BRANCH   9  10
ATOM     10  C   UNL     1     165.493 164.810 166.946  1.00  0.00     0.220 C 
ATOM     11  O   UNL     1     164.698 164.514 166.013  1.00  0.00    -0.275 OA
ATOM     12  N   UNL     1     165.992 166.150 167.073  1.00  0.00    -0.352 N 
ATOM     13  H   UNL     1     166.725 166.349 167.791  1.00  0.00     0.163 HD
BRANCH  12  14
ATOM     14  C   UNL     1     165.311 167.289 166.462  1.00  0.00     0.151 C 
BRANCH  14  15
ATOM     15  C   UNL     1     164.888 168.258 167.532  1.00  0.00    -0.025 A 
ATOM     16  C   UNL     1     164.531 169.571 167.189  1.00  0.00     0.056 A 
ATOM     17  C   UNL     1     164.956 167.892 168.884  1.00  0.00     0.009 A 
ATOM     18  C   UNL     1     164.232 170.518 168.190  1.00  0.00     0.160 A 
ATOM     19  C   UNL     1     164.655 168.823 169.879  1.00  0.00     0.050 A 
ATOM     20  C   UNL     1     164.297 170.132 169.540  1.00  0.00     0.157 A 
BRANCH  18  21
ATOM     21  O   UNL     1     163.877 171.843 167.879  1.00  0.00    -0.493 OA
ATOM     22  C   UNL     1     164.805 172.901 167.678  1.00  0.00     0.278 C 
ENDBRANCH  18  21
BRANCH  20  23
ATOM     23  O   UNL     1     164.011 171.038 170.563  1.00  0.00    -0.504 OA
ATOM     24  H   UNL     1     163.088 171.109 170.980  1.00  0.00     0.293 HD
ENDBRANCH  20  23
ENDBRANCH  14  15
ENDBRANCH  12  14
ENDBRANCH   9  10
ENDBRANCH   1   9
TORSDOF 10
ENDMDL
MODEL 4
REMARK VINA RESULT:    -4.836      2.899      4.311
REMARK INTER + INTRA:          -8.313
REMARK INTER:                  -7.359
REMARK INTRA:                  -0.954
REMARK UNBOUND:                -0.792
REMARK SMILES COc1cc(CNC(=O)CCCCC=CC(C)C)ccc1O
REMARK SMILES IDX 11 1 12 2 13 3 14 4 15 5 16 6 17 7 18 8 10 9 8 10 9 11 7 12
REMARK SMILES IDX 6 14 5 15 4 16 19 17 3 18 20 19 21 20 2 21 1 22 22 23
REMARK H PARENT 7 13 22 24
REMARK Flexibility Score: inf
ROOT
ATOM      1  C   UNL     1     164.946 164.628 168.353  1.00  0.00     0.010 C 
ENDROOT
BRANCH   1   2
ATOM      2  C   UNL     1     165.291 164.124 169.766  1.00  0.00     0.005 C 
BRANCH   2   3
ATOM      3  C   UNL     1     166.514 163.199 169.768  1.00  0.00     0.027 C 
BRANCH   3   4
ATOM      4  C   UNL     1     166.605 162.382 168.507  1.00  0.00    -0.031 C 
ATOM      5  C   UNL     1     166.872 161.066 168.539  1.00  0.00    -0.028 C 
BRANCH   5   6
ATOM      6  C   UNL     1     167.023 160.233 167.285  1.00  0.00     0.005 C 
ATOM      7  C   UNL     1     166.516 160.992 166.052  1.00  0.00     0.012 C 
ATOM      8  C   UNL     1     166.326 158.874 167.424  1.00  0.00     0.012 C 
ENDBRANCH   5   6
ENDBRANCH   3   4
ENDBRANCH   2   3
ENDBRANCH   1   2
BRANCH   1   9
ATOM      9  C   UNL     1     165.376 166.085 168.135  1.00  0.00     0.100 C 
BRANCH   9  10
ATOM     10  C   UNL     1     166.481 166.186 167.125  1.00  0.00     0.220 C 
ATOM     11  O   UNL     1     166.201 166.461 165.926  1.00  0.00    -0.275 OA
ATOM     12  N   UNL     1     167.848 166.019 167.528  1.00  0.00    -0.352 N 
ATOM     13  H   UNL     1     168.051 165.693 168.500  1.00  0.00     0.163 HD
BRANCH  12  14
ATOM     14  C   UNL     1     168.955 166.567 166.749  1.00  0.00     0.151 C 
BRANCH  14  15
ATOM     15  C   UNL     1     170.194 166.620 167.602  1.00  0.00    -0.025 A 
ATOM     16  C   UNL     1     170.117 167.088 168.924  1.00  0.00     0.056 A 
ATOM     17  C   UNL     1     171.446 166.314 167.051  1.00  0.00     0.009 A 
ATOM     18  C   UNL     1     171.284 167.240 169.700  1.00  0.00     0.160 A 
ATOM     19  C   UNL     1     172.604 166.456 167.815  1.00  0.00     0.050 A 
ATOM     20  C   UNL     1     172.531 166.919 169.134  1.00  0.00     0.157 A 
BRANCH  18  21
ATOM     21  O   UNL     1     171.241 167.711 171.024  1.00  0.00    -0.493 OA
ATOM     22  C   UNL     1     170.938 166.906 172.157  1.00  0.00     0.278 C 
ENDBRANCH  18  21
BRANCH  20  23
ATOM     23  O   UNL     1     173.711 167.057 169.865  1.00  0.00    -0.504 OA
ATOM     24  H   UNL     1     174.210 166.257 170.241  1.00  0.00     0.293 HD
ENDBRANCH  20  23
ENDBRANCH  14  15
ENDBRANCH  12  14
ENDBRANCH   9  10
ENDBRANCH   1   9
TORSDOF 10
ENDMDL
MODEL 5
REMARK VINA RESULT:    -4.720      3.042      5.312
REMARK INTER + INTRA:          -8.133
REMARK INTER:                  -7.352
REMARK INTRA:                  -0.781
REMARK UNBOUND:                -0.792
REMARK SMILES COc1cc(CNC(=O)CCCCC=CC(C)C)ccc1O
REMARK SMILES IDX 11 1 12 2 13 3 14 4 15 5 16 6 17 7 18 8 10 9 8 10 9 11 7 12
REMARK SMILES IDX 6 14 5 15 4 16 19 17 3 18 20 19 21 20 2 21 1 22 22 23
REMARK H PARENT 7 13 22 24
REMARK Flexibility Score: inf
ROOT
ATOM      1  C   UNL     1     166.516 162.280 168.371  1.00  0.00     0.010 C 
ENDROOT
BRANCH   1   2
ATOM      2  C   UNL     1     166.707 161.447 167.091  1.00  0.00     0.005 C 
BRANCH   2   3
ATOM      3  C   UNL     1     167.090 159.994 167.397  1.00  0.00     0.027 C 
BRANCH   3   4
ATOM      4  C   UNL     1     167.578 159.827 168.811  1.00  0.00    -0.031 C 
ATOM      5  C   UNL     1     168.883 159.673 169.092  1.00  0.00    -0.028 C 
BRANCH   5   6
ATOM      6  C   UNL     1     169.394 159.447 170.497  1.00  0.00     0.005 C 
ATOM      7  C   UNL     1     169.727 160.777 171.186  1.00  0.00     0.012 C 
ATOM      8  C   UNL     1     170.599 158.498 170.513  1.00  0.00     0.012 C 
ENDBRANCH   5   6
ENDBRANCH   3   4
ENDBRANCH   2   3
ENDBRANCH   1   2
BRANCH   1   9
ATOM      9  C   UNL     1     165.980 163.688 168.072  1.00  0.00     0.100 C 
BRANCH   9  10
ATOM     10  C   UNL     1     166.464 164.685 169.083  1.00  0.00     0.220 C 
ATOM     11  O   UNL     1     166.294 164.455 170.311  1.00  0.00    -0.275 OA
ATOM     12  N   UNL     1     167.158 165.867 168.658  1.00  0.00    -0.352 N 
ATOM     13  H   UNL     1     167.200 166.088 167.638  1.00  0.00     0.163 HD
BRANCH  12  14
ATOM     14  C   UNL     1     168.054 166.599 169.550  1.00  0.00     0.151 C 
BRANCH  14  15
ATOM     15  C   UNL     1     169.440 166.623 168.965  1.00  0.00    -0.025 A 
ATOM     16  C   UNL     1     170.558 166.714 169.809  1.00  0.00     0.056 A 
ATOM     17  C   UNL     1     169.620 166.670 167.576  1.00  0.00     0.009 A 
ATOM     18  C   UNL     1     171.855 166.841 169.272  1.00  0.00     0.160 A 
ATOM     19  C   UNL     1     170.902 166.788 167.037  1.00  0.00     0.050 A 
ATOM     20  C   UNL     1     172.018 166.877 167.876  1.00  0.00     0.157 A 
BRANCH  18  21
ATOM     21  O   UNL     1     172.993 166.940 170.091  1.00  0.00    -0.493 OA
ATOM     22  C   UNL     1     173.291 166.062 171.169  1.00  0.00     0.278 C 
ENDBRANCH  18  21
BRANCH  20  23
ATOM     23  O   UNL     1     173.284 167.003 167.302  1.00  0.00    -0.504 OA
ATOM     24  H   UNL     1     174.028 167.532 167.744  1.00  0.00     0.293 HD
ENDBRANCH  20  23
ENDBRANCH  14  15
ENDBRANCH  12  14
ENDBRANCH   9  10
ENDBRANCH   1   9
TORSDOF 10
ENDMDL
MODEL 6
REMARK VINA RESULT:    -4.702      4.807      6.334
REMARK INTER + INTRA:          -8.105
REMARK INTER:                  -7.333
REMARK INTRA:                  -0.772
REMARK UNBOUND:                -0.792
REMARK SMILES COc1cc(CNC(=O)CCCCC=CC(C)C)ccc1O
REMARK SMILES IDX 11 1 12 2 13 3 14 4 15 5 16 6 17 7 18 8 10 9 8 10 9 11 7 12
REMARK SMILES IDX 6 14 5 15 4 16 19 17 3 18 20 19 21 20 2 21 1 22 22 23
REMARK H PARENT 7 13 22 24
REMARK Flexibility Score: inf
ROOT
ATOM      1  C   UNL     1     162.467 164.840 168.393  1.00  0.00     0.010 C 
ENDROOT
BRANCH   1   2
ATOM      2  C   UNL     1     161.623 164.622 167.125  1.00  0.00     0.005 C 
BRANCH   2   3
ATOM      3  C   UNL     1     160.153 164.331 167.451  1.00  0.00     0.027 C 
BRANCH   3   4
ATOM      4  C   UNL     1     160.011 163.290 168.529  1.00  0.00    -0.031 C 
ATOM      5  C   UNL     1     158.805 162.886 168.962  1.00  0.00    -0.028 C 
BRANCH   5   6
ATOM      6  C   UNL     1     158.634 161.883 170.081  1.00  0.00     0.005 C 
ATOM      7  C   UNL     1     159.989 161.481 170.677  1.00  0.00     0.012 C 
ATOM      8  C   UNL     1     157.845 160.651 169.618  1.00  0.00     0.012 C 
ENDBRANCH   5   6
ENDBRANCH   3   4
ENDBRANCH   2   3
ENDBRANCH   1   2
BRANCH   1   9
ATOM      9  C   UNL     1     163.953 165.055 168.071  1.00  0.00     0.100 C 
BRANCH   9  10
ATOM     10  C   UNL     1     164.836 164.446 169.121  1.00  0.00     0.220 C 
ATOM     11  O   UNL     1     164.451 164.433 170.322  1.00  0.00    -0.275 OA
ATOM     12  N   UNL     1     166.084 163.841 168.754  1.00  0.00    -0.352 N 
ATOM     13  H   UNL     1     166.430 163.951 167.774  1.00  0.00     0.163 HD
BRANCH  12  14
ATOM     14  C   UNL     1     166.732 162.837 169.595  1.00  0.00     0.151 C 
BRANCH  14  15
ATOM     15  C   UNL     1     166.654 161.492 168.926  1.00  0.00    -0.025 A 
ATOM     16  C   UNL     1     166.668 160.321 169.701  1.00  0.00     0.056 A 
ATOM     17  C   UNL     1     166.682 161.394 167.528  1.00  0.00     0.009 A 
ATOM     18  C   UNL     1     166.699 159.053 169.085  1.00  0.00     0.160 A 
ATOM     19  C   UNL     1     166.705 160.143 166.912  1.00  0.00     0.050 A 
ATOM     20  C   UNL     1     166.717 158.974 167.681  1.00  0.00     0.157 A 
BRANCH  18  21
ATOM     21  O   UNL     1     166.720 157.863 169.832  1.00  0.00    -0.493 OA
ATOM     22  C   UNL     1     167.871 157.336 170.480  1.00  0.00     0.278 C 
ENDBRANCH  18  21
BRANCH  20  23
ATOM     23  O   UNL     1     166.749 157.740 167.030  1.00  0.00    -0.504 OA
ATOM     24  H   UNL     1     166.144 156.971 167.298  1.00  0.00     0.293 HD
ENDBRANCH  20  23
ENDBRANCH  14  15
ENDBRANCH  12  14
ENDBRANCH   9  10
ENDBRANCH   1   9
TORSDOF 10
ENDMDL
MODEL 7
REMARK VINA RESULT:    -4.657      3.166      4.370
REMARK INTER + INTRA:          -8.035
REMARK INTER:                  -6.979
REMARK INTRA:                  -1.056
REMARK UNBOUND:                -0.792
REMARK SMILES COc1cc(CNC(=O)CCCCC=CC(C)C)ccc1O
REMARK SMILES IDX 11 1 12 2 13 3 14 4 15 5 16 6 17 7 18 8 10 9 8 10 9 11 7 12
REMARK SMILES IDX 6 14 5 15 4 16 19 17 3 18 20 19 21 20 2 21 1 22 22 23
REMARK H PARENT 7 13 22 24
REMARK Flexibility Score: inf
ROOT
ATOM      1  C   UNL     1     167.002 165.228 167.956  1.00  0.00     0.010 C 
ENDROOT
BRANCH   1   2
ATOM      2  C   UNL     1     166.351 166.407 167.211  1.00  0.00     0.005 C 
BRANCH   2   3
ATOM      3  C   UNL     1     165.154 166.986 167.975  1.00  0.00     0.027 C 
BRANCH   3   4
ATOM      4  C   UNL     1     164.886 168.418 167.600  1.00  0.00    -0.031 C 
ATOM      5  C   UNL     1     164.519 169.330 168.517  1.00  0.00    -0.028 C 
BRANCH   5   6
ATOM      6  C   UNL     1     164.189 170.761 168.158  1.00  0.00     0.005 C 
ATOM      7  C   UNL     1     164.544 171.061 166.696  1.00  0.00     0.012 C 
ATOM      8  C   UNL     1     164.874 171.752 169.108  1.00  0.00     0.012 C 
ENDBRANCH   5   6
ENDBRANCH   3   4
ENDBRANCH   2   3
ENDBRANCH   1   2
BRANCH   1   9
ATOM      9  C   UNL     1     166.260 164.882 169.255  1.00  0.00     0.100 C 
BRANCH   9  10
ATOM     10  C   UNL     1     167.120 165.127 170.459  1.00  0.00     0.220 C 
ATOM     11  O   UNL     1     167.539 164.145 171.131  1.00  0.00    -0.275 OA
ATOM     12  N   UNL     1     167.502 166.463 170.817  1.00  0.00    -0.352 N 
ATOM     13  H   UNL     1     167.063 167.265 170.311  1.00  0.00     0.163 HD
BRANCH  12  14
ATOM     14  C   UNL     1     168.681 166.737 171.634  1.00  0.00     0.151 C 
BRANCH  14  15
ATOM     15  C   UNL     1     169.629 167.622 170.871  1.00  0.00    -0.025 A 
ATOM     16  C   UNL     1     170.181 167.179 169.658  1.00  0.00     0.056 A 
ATOM     17  C   UNL     1     170.054 168.840 171.418  1.00  0.00     0.009 A 
ATOM     18  C   UNL     1     171.148 167.953 168.985  1.00  0.00     0.160 A 
ATOM     19  C   UNL     1     171.006 169.614 170.754  1.00  0.00     0.050 A 
ATOM     20  C   UNL     1     171.556 169.177 169.543  1.00  0.00     0.157 A 
BRANCH  18  21
ATOM     21  O   UNL     1     171.723 167.535 167.772  1.00  0.00    -0.493 OA
ATOM     22  C   UNL     1     171.853 166.179 167.366  1.00  0.00     0.278 C 
ENDBRANCH  18  21
BRANCH  20  23
ATOM     23  O   UNL     1     172.512 169.974 168.912  1.00  0.00    -0.504 OA
ATOM     24  H   UNL     1     172.614 170.962 169.118  1.00  0.00     0.293 HD
ENDBRANCH  20  23
ENDBRANCH  14  15
ENDBRANCH  12  14
ENDBRANCH   9  10
ENDBRANCH   1   9
TORSDOF 10
ENDMDL
MODEL 8
REMARK VINA RESULT:    -4.617      4.179      8.983
REMARK INTER + INTRA:          -7.972
REMARK INTER:                  -7.278
REMARK INTRA:                  -0.694
REMARK UNBOUND:                -0.792
REMARK SMILES COc1cc(CNC(=O)CCCCC=CC(C)C)ccc1O
REMARK SMILES IDX 11 1 12 2 13 3 14 4 15 5 16 6 17 7 18 8 10 9 8 10 9 11 7 12
REMARK SMILES IDX 6 14 5 15 4 16 19 17 3 18 20 19 21 20 2 21 1 22 22 23
REMARK H PARENT 7 13 22 24
REMARK Flexibility Score: inf
ROOT
ATOM      1  C   UNL     1     169.867 166.750 167.821  1.00  0.00     0.010 C 
ENDROOT
BRANCH   1   2
ATOM      2  C   UNL     1     171.014 166.789 166.796  1.00  0.00     0.005 C 
BRANCH   2   3
ATOM      3  C   UNL     1     172.265 166.057 167.297  1.00  0.00     0.027 C 
BRANCH   3   4
ATOM      4  C   UNL     1     172.571 166.385 168.734  1.00  0.00    -0.031 C 
ATOM      5  C   UNL     1     173.123 167.558 169.086  1.00  0.00    -0.028 C 
BRANCH   5   6
ATOM      6  C   UNL     1     173.491 167.891 170.515  1.00  0.00     0.005 C 
ATOM      7  C   UNL     1     173.319 166.671 171.429  1.00  0.00     0.012 C 
ATOM      8  C   UNL     1     172.691 169.091 171.038  1.00  0.00     0.012 C 
ENDBRANCH   5   6
ENDBRANCH   3   4
ENDBRANCH   2   3
ENDBRANCH   1   2
BRANCH   1   9
ATOM      9  C   UNL     1     168.531 166.346 167.181  1.00  0.00     0.100 C 
BRANCH   9  10
ATOM     10  C   UNL     1     167.421 166.335 168.190  1.00  0.00     0.220 C 
ATOM     11  O   UNL     1     167.685 166.091 169.399  1.00  0.00    -0.275 OA
ATOM     12  N   UNL     1     166.078 166.647 167.792  1.00  0.00    -0.352 N 
ATOM     13  H   UNL     1     165.864 166.746 166.773  1.00  0.00     0.163 HD
BRANCH  12  14
ATOM     14  C   UNL     1     165.080 167.124 168.746  1.00  0.00     0.151 C 
BRANCH  14  15
ATOM     15  C   UNL     1     164.789 168.578 168.488  1.00  0.00    -0.025 A 
ATOM     16  C   UNL     1     164.431 169.422 169.550  1.00  0.00     0.056 A 
ATOM     17  C   UNL     1     164.763 169.071 167.176  1.00  0.00     0.009 A 
ATOM     18  C   UNL     1     164.056 170.759 169.309  1.00  0.00     0.160 A 
ATOM     19  C   UNL     1     164.400 170.396 166.931  1.00  0.00     0.050 A 
ATOM     20  C   UNL     1     164.044 171.240 167.988  1.00  0.00     0.157 A 
BRANCH  18  21
ATOM     21  O   UNL     1     163.686 171.628 170.351  1.00  0.00    -0.493 OA
ATOM     22  C   UNL     1     164.550 172.040 171.404  1.00  0.00     0.278 C 
ENDBRANCH  18  21
BRANCH  20  23
ATOM     23  O   UNL     1     163.678 172.557 167.705  1.00  0.00    -0.504 OA
ATOM     24  H   UNL     1     162.757 172.922 167.926  1.00  0.00     0.293 HD
ENDBRANCH  20  23
ENDBRANCH  14  15
ENDBRANCH  12  14
ENDBRANCH   9  10
ENDBRANCH   1   9
TORSDOF 10
ENDMDL
MODEL 9
REMARK VINA RESULT:    -4.589      4.206      6.257
REMARK INTER + INTRA:          -7.928
REMARK INTER:                  -7.125
REMARK INTRA:                  -0.803
REMARK UNBOUND:                -0.792
REMARK SMILES COc1cc(CNC(=O)CCCCC=CC(C)C)ccc1O
REMARK SMILES IDX 11 1 12 2 13 3 14 4 15 5 16 6 17 7 18 8 10 9 8 10 9 11 7 12
REMARK SMILES IDX 6 14 5 15 4 16 19 17 3 18 20 19 21 20 2 21 1 22 22 23
REMARK H PARENT 7 13 22 24
REMARK Flexibility Score: inf
ROOT
ATOM      1  C   UNL     1     163.541 165.325 169.943  1.00  0.00     0.010 C 
ENDROOT
BRANCH   1   2
ATOM      2  C   UNL     1     162.790 165.052 171.259  1.00  0.00     0.005 C 
BRANCH   2   3
ATOM      3  C   UNL     1     161.444 164.356 171.023  1.00  0.00     0.027 C 
BRANCH   3   4
ATOM      4  C   UNL     1     161.180 164.121 169.561  1.00  0.00    -0.031 C 
ATOM      5  C   UNL     1     160.060 164.566 168.967  1.00  0.00    -0.028 C 
BRANCH   5   6
ATOM      6  C   UNL     1     159.744 164.296 167.513  1.00  0.00     0.005 C 
ATOM      7  C   UNL     1     160.985 164.487 166.632  1.00  0.00     0.012 C 
ATOM      8  C   UNL     1     158.576 165.160 167.020  1.00  0.00     0.012 C 
ENDBRANCH   5   6
ENDBRANCH   3   4
ENDBRANCH   2   3
ENDBRANCH   1   2
BRANCH   1   9
ATOM      9  C   UNL     1     164.888 166.024 170.178  1.00  0.00     0.100 C 
BRANCH   9  10
ATOM     10  C   UNL     1     166.035 165.068 170.035  1.00  0.00     0.220 C 
ATOM     11  O   UNL     1     167.208 165.519 169.934  1.00  0.00    -0.275 OA
ATOM     12  N   UNL     1     165.804 163.652 170.060  1.00  0.00    -0.352 N 
ATOM     13  H   UNL     1     164.819 163.301 170.042  1.00  0.00     0.163 HD
BRANCH  12  14
ATOM     14  C   UNL     1     166.858 162.703 170.411  1.00  0.00     0.151 C 
BRANCH  14  15
ATOM     15  C   UNL     1     166.743 161.478 169.546  1.00  0.00    -0.025 A 
ATOM     16  C   UNL     1     166.759 160.201 170.130  1.00  0.00     0.056 A 
ATOM     17  C   UNL     1     166.734 161.597 168.150  1.00  0.00     0.009 A 
ATOM     18  C   UNL     1     166.756 159.044 169.326  1.00  0.00     0.160 A 
ATOM     19  C   UNL     1     166.725 160.455 167.348  1.00  0.00     0.050 A 
ATOM     20  C   UNL     1     166.738 159.181 167.927  1.00  0.00     0.157 A 
BRANCH  18  21
ATOM     21  O   UNL     1     166.778 157.752 169.881  1.00  0.00    -0.493 OA
ATOM     22  C   UNL     1     167.930 157.132 170.440  1.00  0.00     0.278 C 
ENDBRANCH  18  21
BRANCH  20  23
ATOM     23  O   UNL     1     166.736 158.062 167.093  1.00  0.00    -0.504 OA
ATOM     24  H   UNL     1     167.458 157.351 167.141  1.00  0.00     0.293 HD
ENDBRANCH  20  23
ENDBRANCH  14  15
ENDBRANCH  12  14
ENDBRANCH   9  10
ENDBRANCH   1   9
TORSDOF 10
ENDMDL
