MODEL 1
REMARK VINA RESULT:    -2.543      0.000      0.000
REMARK INTER + INTRA:          -2.543
REMARK INTER:                  -2.543
REMARK INTRA:                   0.000
REMARK UNBOUND:                 0.000
REMARK SMILES CC(=O)[O-]
REMARK SMILES IDX 1 1 2 2 3 3 4 4
REMARK H PARENT
REMARK Flexibility Score: inf
ROOT
ATOM      1  C   UNL     1       8.860 -16.515 -31.543  1.00  0.00     0.063 C 
ATOM      2  C   UNL     1       8.874 -17.810 -30.806  1.00  0.00     0.038 C 
ATOM      3  O   UNL     1       9.525 -18.787 -31.260  1.00  0.00    -0.550 OA
ATOM      4  O   UNL     1       8.125 -17.960 -29.645  1.00  0.00    -0.550 OA
ENDROOT
TORSDOF 0
ENDMDL
MODEL 2
REMARK VINA RESULT:    -2.502      1.926      2.502
REMARK INTER + INTRA:          -2.502
REMARK INTER:                  -2.502
REMARK INTRA:                   0.000
REMARK UNBOUND:                 0.000
REMARK SMILES CC(=O)[O-]
REMARK SMILES IDX 1 1 2 2 3 3 4 4
REMARK H PARENT
REMARK Flexibility Score: inf
ROOT
ATOM      1  C   UNL     1       8.565 -17.795 -30.683  1.00  0.00     0.063 C 
ATOM      2  C   UNL     1       9.567 -16.995 -31.444  1.00  0.00     0.038 C 
ATOM      3  O   UNL     1       9.293 -15.821 -31.806  1.00  0.00    -0.550 OA
ATOM      4  O   UNL     1      10.784 -17.561 -31.802  1.00  0.00    -0.550 OA
ENDROOT
TORSDOF 0
ENDMDL
MODEL 3
REMARK VINA RESULT:    -2.497      1.355      1.680
REMARK INTER + INTRA:          -2.497
REMARK INTER:                  -2.497
REMARK INTRA:                   0.000
REMARK UNBOUND:                 0.000
REMARK SMILES CC(=O)[O-]
REMARK SMILES IDX 1 1 2 2 3 3 4 4
REMARK H PARENT
REMARK Flexibility Score: inf
ROOT
ATOM      1  C   UNL     1       9.708 -18.713 -31.382  1.00  0.00     0.063 C 
ATOM      2  C   UNL     1       8.766 -17.682 -30.862  1.00  0.00     0.038 C 
ATOM      3  O   UNL     1       8.612 -16.597 -31.482  1.00  0.00    -0.550 OA
ATOM      4  O   UNL     1       8.096 -17.892 -29.663  1.00  0.00    -0.550 OA
ENDROOT
TORSDOF 0
ENDMDL
MODEL 4
REMARK VINA RESULT:    -2.087      9.869     10.474
REMARK INTER + INTRA:          -2.087
REMARK INTER:                  -2.087
REMARK INTRA:                   0.000
REMARK UNBOUND:                 0.000
REMARK SMILES CC(=O)[O-]
REMARK SMILES IDX 1 1 2 2 3 3 4 4
REMARK H PARENT
REMARK Flexibility Score: inf
ROOT
ATOM      1  C   UNL     1       6.670 -11.685 -24.234  1.00  0.00     0.063 C 
ATOM      2  C   UNL     1       5.446 -11.244 -23.506  1.00  0.00     0.038 C 
ATOM      3  O   UNL     1       4.345 -11.818 -23.716  1.00  0.00    -0.550 OA
ATOM      4  O   UNL     1       5.504 -10.163 -22.635  1.00  0.00    -0.550 OA
ENDROOT
TORSDOF 0
ENDMDL
MODEL 5
REMARK VINA RESULT:    -2.086     11.718     12.172
REMARK INTER + INTRA:          -2.086
REMARK INTER:                  -2.086
REMARK INTRA:                   0.000
REMARK UNBOUND:                 0.000
REMARK SMILES CC(=O)[O-]
REMARK SMILES IDX 1 1 2 2 3 3 4 4
REMARK H PARENT
REMARK Flexibility Score: inf
ROOT
ATOM      1  C   UNL     1      -1.628 -15.264 -31.953  1.00  0.00     0.063 C 
ATOM      2  C   UNL     1      -2.625 -14.160 -31.861  1.00  0.00     0.038 C 
ATOM      3  O   UNL     1      -2.324 -13.004 -32.259  1.00  0.00    -0.550 OA
ATOM      4  O   UNL     1      -3.869 -14.390 -31.288  1.00  0.00    -0.550 OA
ENDROOT
TORSDOF 0
ENDMDL
MODEL 6
REMARK VINA RESULT:    -2.038      9.911     10.396
REMARK INTER + INTRA:          -2.038
REMARK INTER:                  -2.038
REMARK INTRA:                   0.000
REMARK UNBOUND:                 0.000
REMARK SMILES CC(=O)[O-]
REMARK SMILES IDX 1 1 2 2 3 3 4 4
REMARK H PARENT
REMARK Flexibility Score: inf
ROOT
ATOM      1  C   UNL     1       5.539 -14.282 -21.725  1.00  0.00     0.063 C 
ATOM      2  C   UNL     1       4.413 -15.239 -21.919  1.00  0.00     0.038 C 
ATOM      3  O   UNL     1       3.236 -14.893 -21.638  1.00  0.00    -0.550 OA
ATOM      4  O   UNL     1       4.665 -16.533 -22.359  1.00  0.00    -0.550 OA
ENDROOT
TORSDOF 0
ENDMDL
MODEL 7
REMARK VINA RESULT:    -1.968     11.784     12.426
REMARK INTER + INTRA:          -1.968
REMARK INTER:                  -1.968
REMARK INTRA:                   0.000
REMARK UNBOUND:                 0.000
REMARK SMILES CC(=O)[O-]
REMARK SMILES IDX 1 1 2 2 3 3 4 4
REMARK H PARENT
REMARK Flexibility Score: inf
ROOT
ATOM      1  C   UNL     1       7.004  -9.223 -23.143  1.00  0.00     0.063 C 
ATOM      2  C   UNL     1       5.736  -9.313 -22.365  1.00  0.00     0.038 C 
ATOM      3  O   UNL     1       5.370  -8.351 -21.641  1.00  0.00    -0.550 OA
ATOM      4  O   UNL     1       4.982 -10.479 -22.394  1.00  0.00    -0.550 OA
ENDROOT
TORSDOF 0
ENDMDL
MODEL 8
REMARK VINA RESULT:    -1.958      9.845     10.366
REMARK INTER + INTRA:          -1.958
REMARK INTER:                  -1.958
REMARK INTRA:                   0.000
REMARK UNBOUND:                 0.000
REMARK SMILES CC(=O)[O-]
REMARK SMILES IDX 1 1 2 2 3 3 4 4
REMARK H PARENT
REMARK Flexibility Score: inf
ROOT
ATOM      1  C   UNL     1       1.238 -11.313 -34.942  1.00  0.00     0.063 C 
ATOM      2  C   UNL     1       1.105 -11.586 -33.483  1.00  0.00     0.038 C 
ATOM      3  O   UNL     1       0.990 -10.632 -32.670  1.00  0.00    -0.550 OA
ATOM      4  O   UNL     1       1.163 -12.891 -33.010  1.00  0.00    -0.550 OA
ENDROOT
TORSDOF 0
ENDMDL
MODEL 9
REMARK VINA RESULT:    -1.951     18.773     19.027
REMARK INTER + INTRA:          -1.951
REMARK INTER:                  -1.951
REMARK INTRA:                   0.000
REMARK UNBOUND:                 0.000
REMARK SMILES CC(=O)[O-]
REMARK SMILES IDX 1 1 2 2 3 3 4 4
REMARK H PARENT
REMARK Flexibility Score: inf
ROOT
ATOM      1  C   UNL     1       4.407  -5.154 -18.713  1.00  0.00     0.063 C 
ATOM      2  C   UNL     1       5.289  -4.043 -18.255  1.00  0.00     0.038 C 
ATOM      3  O   UNL     1       5.922  -4.146 -17.171  1.00  0.00    -0.550 OA
ATOM      4  O   UNL     1       5.373  -2.869 -18.994  1.00  0.00    -0.550 OA
ENDROOT
TORSDOF 0
ENDMDL
