MODEL 1
REMARK VINA RESULT:    -3.816      0.000      0.000
REMARK INTER + INTRA:          -4.766
REMARK INTER:                  -4.486
REMARK INTRA:                  -0.280
REMARK UNBOUND:                -0.280
REMARK SMILES O=c1c(O)c(-c2ccc(O)cc2)oc2cc(O)cc(O)c12
REMARK SMILES IDX 5 1 3 2 2 3 1 4 21 5 19 6 18 7 16 8 15 9 14 10 13 11 6 12
REMARK SMILES IDX 7 13 8 14 9 15 12 16 11 17 10 18 4 20 20 22 17 24
REMARK H PARENT 10 19 4 21 20 23 17 25
REMARK Flexibility Score: inf
ROOT
ATOM      1  C   UNL     1      19.112  34.932  44.264  1.00  0.00     0.180 A 
ATOM      2  C   UNL     1      19.685  36.083  44.839  1.00  0.00     0.208 A 
ATOM      3  C   UNL     1      21.018  36.031  45.273  1.00  0.00     0.238 A 
ATOM      4  O   UNL     1      21.545  37.059  45.780  1.00  0.00    -0.285 OA
ATOM      5  C   UNL     1      21.748  34.832  45.145  1.00  0.00     0.111 A 
ATOM      6  C   UNL     1      23.094  34.696  45.561  1.00  0.00     0.134 A 
ATOM      7  C   UNL     1      23.750  33.465  45.408  1.00  0.00     0.093 A 
ATOM      8  C   UNL     1      23.086  32.371  44.849  1.00  0.00     0.123 A 
ATOM      9  C   UNL     1      21.757  32.499  44.435  1.00  0.00     0.094 A 
ATOM     10  C   UNL     1      21.087  33.717  44.578  1.00  0.00     0.146 A 
ATOM     11  O   UNL     1      19.825  33.813  44.173  1.00  0.00    -0.452 OA
ENDROOT
BRANCH   1  12
ATOM     12  C   UNL     1      17.718  34.911  43.765  1.00  0.00     0.021 A 
ATOM     13  C   UNL     1      17.465  35.190  42.411  1.00  0.00     0.016 A 
ATOM     14  C   UNL     1      16.155  35.198  41.922  1.00  0.00     0.047 A 
ATOM     15  C   UNL     1      15.080  34.943  42.785  1.00  0.00     0.115 A 
ATOM     16  C   UNL     1      16.632  34.676  44.629  1.00  0.00     0.016 A 
ATOM     17  C   UNL     1      15.323  34.686  44.138  1.00  0.00     0.047 A 
BRANCH  15  18
ATOM     18  O   UNL     1      13.771  34.949  42.311  1.00  0.00    -0.508 OA
ATOM     19  H   UNL     1      12.983  35.098  42.932  1.00  0.00     0.293 HD
ENDBRANCH  15  18
ENDBRANCH   1  12
BRANCH   2  20
ATOM     20  O   UNL     1      18.924  37.244  45.000  1.00  0.00    -0.502 OA
ATOM     21  H   UNL     1      17.912  37.228  45.039  1.00  0.00     0.293 HD
ENDBRANCH   2  20
BRANCH   6  22
ATOM     22  O   UNL     1      23.784  35.772  46.124  1.00  0.00    -0.507 OA
ATOM     23  H   UNL     1      24.521  35.634  46.806  1.00  0.00     0.293 HD
ENDBRANCH   6  22
BRANCH   8  24
ATOM     24  O   UNL     1      23.760  31.159  44.708  1.00  0.00    -0.508 OA
ATOM     25  H   UNL     1      24.638  31.097  44.205  1.00  0.00     0.293 HD
ENDBRANCH   8  24
TORSDOF 5
ENDMDL
MODEL 2
REMARK VINA RESULT:    -3.571      1.544      3.558
REMARK INTER + INTRA:          -4.478
REMARK INTER:                  -4.202
REMARK INTRA:                  -0.277
REMARK UNBOUND:                -0.280
REMARK SMILES O=c1c(O)c(-c2ccc(O)cc2)oc2cc(O)cc(O)c12
REMARK SMILES IDX 5 1 3 2 2 3 1 4 21 5 19 6 18 7 16 8 15 9 14 10 13 11 6 12
REMARK SMILES IDX 7 13 8 14 9 15 12 16 11 17 10 18 4 20 20 22 17 24
REMARK H PARENT 10 19 4 21 20 23 17 25
REMARK Flexibility Score: inf
ROOT
ATOM      1  C   UNL     1      17.503  34.724  43.263  1.00  0.00     0.180 A 
ATOM      2  C   UNL     1      18.092  33.475  42.985  1.00  0.00     0.208 A 
ATOM      3  C   UNL     1      19.403  33.231  43.424  1.00  0.00     0.238 A 
ATOM      4  O   UNL     1      19.937  32.113  43.189  1.00  0.00    -0.285 OA
ATOM      5  C   UNL     1      20.106  34.240  44.112  1.00  0.00     0.111 A 
ATOM      6  C   UNL     1      21.431  34.077  44.584  1.00  0.00     0.134 A 
ATOM      7  C   UNL     1      22.068  35.133  45.253  1.00  0.00     0.093 A 
ATOM      8  C   UNL     1      21.407  36.346  45.458  1.00  0.00     0.123 A 
ATOM      9  C   UNL     1      20.099  36.514  44.995  1.00  0.00     0.094 A 
ATOM     10  C   UNL     1      19.446  35.474  44.327  1.00  0.00     0.146 A 
ATOM     11  O   UNL     1      18.202  35.657  43.901  1.00  0.00    -0.452 OA
ENDROOT
BRANCH   1  12
ATOM     12  C   UNL     1      16.119  35.050  42.851  1.00  0.00     0.021 A 
ATOM     13  C   UNL     1      15.062  34.850  43.756  1.00  0.00     0.016 A 
ATOM     14  C   UNL     1      13.745  35.130  43.380  1.00  0.00     0.047 A 
ATOM     15  C   UNL     1      13.465  35.599  42.090  1.00  0.00     0.115 A 
ATOM     16  C   UNL     1      15.827  35.502  41.550  1.00  0.00     0.016 A 
ATOM     17  C   UNL     1      14.509  35.781  41.177  1.00  0.00     0.047 A 
BRANCH  15  18
ATOM     18  O   UNL     1      12.158  35.882  41.704  1.00  0.00    -0.508 OA
ATOM     19  H   UNL     1      11.396  35.886  42.374  1.00  0.00     0.293 HD
ENDBRANCH  15  18
ENDBRANCH   1  12
BRANCH   2  20
ATOM     20  O   UNL     1      17.391  32.510  42.258  1.00  0.00    -0.502 OA
ATOM     21  H   UNL     1      17.085  31.636  42.670  1.00  0.00     0.293 HD
ENDBRANCH   2  20
BRANCH   6  22
ATOM     22  O   UNL     1      22.118  32.876  44.394  1.00  0.00    -0.507 OA
ATOM     23  H   UNL     1      21.924  32.270  43.606  1.00  0.00     0.293 HD
ENDBRANCH   6  22
BRANCH   8  24
ATOM     24  O   UNL     1      22.062  37.380  46.125  1.00  0.00    -0.508 OA
ATOM     25  H   UNL     1      22.502  37.233  47.026  1.00  0.00     0.293 HD
ENDBRANCH   8  24
TORSDOF 5
ENDMDL
MODEL 3
REMARK VINA RESULT:    -3.510      2.176      7.140
REMARK INTER + INTRA:          -4.406
REMARK INTER:                  -4.110
REMARK INTRA:                  -0.296
REMARK UNBOUND:                -0.280
REMARK SMILES O=c1c(O)c(-c2ccc(O)cc2)oc2cc(O)cc(O)c12
REMARK SMILES IDX 5 1 3 2 2 3 1 4 21 5 19 6 18 7 16 8 15 9 14 10 13 11 6 12
REMARK SMILES IDX 7 13 8 14 9 15 12 16 11 17 10 18 4 20 20 22 17 24
REMARK H PARENT 10 19 4 21 20 23 17 25
REMARK Flexibility Score: inf
ROOT
ATOM      1  C   UNL     1      17.907  35.184  43.960  1.00  0.00     0.180 A 
ATOM      2  C   UNL     1      16.957  34.464  44.711  1.00  0.00     0.208 A 
ATOM      3  C   UNL     1      15.765  34.063  44.089  1.00  0.00     0.238 A 
ATOM      4  O   UNL     1      14.912  33.409  44.749  1.00  0.00    -0.285 OA
ATOM      5  C   UNL     1      15.533  34.402  42.741  1.00  0.00     0.111 A 
ATOM      6  C   UNL     1      14.356  34.039  42.042  1.00  0.00     0.134 A 
ATOM      7  C   UNL     1      14.195  34.423  40.703  1.00  0.00     0.093 A 
ATOM      8  C   UNL     1      15.185  35.161  40.050  1.00  0.00     0.123 A 
ATOM      9  C   UNL     1      16.350  35.522  40.734  1.00  0.00     0.094 A 
ATOM     10  C   UNL     1      16.530  35.148  42.069  1.00  0.00     0.146 A 
ATOM     11  O   UNL     1      17.647  35.500  42.695  1.00  0.00    -0.452 OA
ENDROOT
BRANCH   1  12
ATOM     12  C   UNL     1      19.196  35.627  44.539  1.00  0.00     0.021 A 
ATOM     13  C   UNL     1      19.284  36.892  45.144  1.00  0.00     0.016 A 
ATOM     14  C   UNL     1      20.497  37.339  45.678  1.00  0.00     0.047 A 
ATOM     15  C   UNL     1      21.641  36.533  45.598  1.00  0.00     0.115 A 
ATOM     16  C   UNL     1      20.354  34.832  44.445  1.00  0.00     0.016 A 
ATOM     17  C   UNL     1      21.565  35.282  44.978  1.00  0.00     0.047 A 
BRANCH  15  18
ATOM     18  O   UNL     1      22.854  36.967  46.125  1.00  0.00    -0.508 OA
ATOM     19  H   UNL     1      22.934  37.275  47.088  1.00  0.00     0.293 HD
ENDBRANCH  15  18
ENDBRANCH   1  12
BRANCH   2  20
ATOM     20  O   UNL     1      17.190  34.184  46.060  1.00  0.00    -0.502 OA
ATOM     21  H   UNL     1      17.154  33.242  46.432  1.00  0.00     0.293 HD
ENDBRANCH   2  20
BRANCH   6  22
ATOM     22  O   UNL     1      13.348  33.302  42.667  1.00  0.00    -0.507 OA
ATOM     23  H   UNL     1      12.368  33.463  42.466  1.00  0.00     0.293 HD
ENDBRANCH   6  22
BRANCH   8  24
ATOM     24  O   UNL     1      15.001  35.530  38.719  1.00  0.00    -0.508 OA
ATOM     25  H   UNL     1      15.775  35.839  38.143  1.00  0.00     0.293 HD
ENDBRANCH   8  24
TORSDOF 5
ENDMDL
MODEL 4
REMARK VINA RESULT:    -3.256      5.024      6.409
REMARK INTER + INTRA:          -4.108
REMARK INTER:                  -4.003
REMARK INTRA:                  -0.104
REMARK UNBOUND:                -0.280
REMARK SMILES O=c1c(O)c(-c2ccc(O)cc2)oc2cc(O)cc(O)c12
REMARK SMILES IDX 5 1 3 2 2 3 1 4 21 5 19 6 18 7 16 8 15 9 14 10 13 11 6 12
REMARK SMILES IDX 7 13 8 14 9 15 12 16 11 17 10 18 4 20 20 22 17 24
REMARK H PARENT 10 19 4 21 20 23 17 25
REMARK Flexibility Score: inf
ROOT
ATOM      1  C   UNL     1      17.923  35.467  38.634  1.00  0.00     0.180 A 
ATOM      2  C   UNL     1      18.268  35.236  37.288  1.00  0.00     0.208 A 
ATOM      3  C   UNL     1      19.516  34.663  36.998  1.00  0.00     0.238 A 
ATOM      4  O   UNL     1      19.832  34.441  35.797  1.00  0.00    -0.285 OA
ATOM      5  C   UNL     1      20.401  34.350  38.049  1.00  0.00     0.111 A 
ATOM      6  C   UNL     1      21.678  33.774  37.841  1.00  0.00     0.134 A 
ATOM      7  C   UNL     1      22.506  33.501  38.940  1.00  0.00     0.093 A 
ATOM      8  C   UNL     1      22.083  33.792  40.239  1.00  0.00     0.123 A 
ATOM      9  C   UNL     1      20.824  34.359  40.451  1.00  0.00     0.094 A 
ATOM     10  C   UNL     1      19.983  34.638  39.370  1.00  0.00     0.146 A 
ATOM     11  O   UNL     1      18.790  35.174  39.599  1.00  0.00    -0.452 OA
ENDROOT
BRANCH   1  12
ATOM     12  C   UNL     1      16.619  36.050  39.022  1.00  0.00     0.021 A 
ATOM     13  C   UNL     1      16.304  37.363  38.631  1.00  0.00     0.016 A 
ATOM     14  C   UNL     1      15.088  37.942  39.005  1.00  0.00     0.047 A 
ATOM     15  C   UNL     1      14.176  37.221  39.789  1.00  0.00     0.115 A 
ATOM     16  C   UNL     1      15.707  35.340  39.826  1.00  0.00     0.016 A 
ATOM     17  C   UNL     1      14.492  35.922  40.200  1.00  0.00     0.047 A 
BRANCH  15  18
ATOM     18  O   UNL     1      12.962  37.786  40.168  1.00  0.00    -0.508 OA
ATOM     19  H   UNL     1      12.543  37.586  41.070  1.00  0.00     0.293 HD
ENDBRANCH  15  18
ENDBRANCH   1  12
BRANCH   2  20
ATOM     20  O   UNL     1      17.393  35.601  36.262  1.00  0.00    -0.502 OA
ATOM     21  H   UNL     1      16.735  34.947  35.853  1.00  0.00     0.293 HD
ENDBRANCH   2  20
BRANCH   6  22
ATOM     22  O   UNL     1      22.130  33.473  36.555  1.00  0.00    -0.507 OA
ATOM     23  H   UNL     1      21.701  32.744  35.997  1.00  0.00     0.293 HD
ENDBRANCH   6  22
BRANCH   8  24
ATOM     24  O   UNL     1      22.925  33.510  41.314  1.00  0.00    -0.508 OA
ATOM     25  H   UNL     1      22.560  33.359  42.247  1.00  0.00     0.293 HD
ENDBRANCH   8  24
TORSDOF 5
ENDMDL
MODEL 5
REMARK VINA RESULT:    -3.240      3.267      8.153
REMARK INTER + INTRA:          -4.089
REMARK INTER:                  -3.804
REMARK INTRA:                  -0.285
REMARK UNBOUND:                -0.280
REMARK SMILES O=c1c(O)c(-c2ccc(O)cc2)oc2cc(O)cc(O)c12
REMARK SMILES IDX 5 1 3 2 2 3 1 4 21 5 19 6 18 7 16 8 15 9 14 10 13 11 6 12
REMARK SMILES IDX 7 13 8 14 9 15 12 16 11 17 10 18 4 20 20 22 17 24
REMARK H PARENT 10 19 4 21 20 23 17 25
REMARK Flexibility Score: inf
ROOT
ATOM      1  C   UNL     1      16.702  35.248  41.537  1.00  0.00     0.180 A 
ATOM      2  C   UNL     1      17.299  35.592  40.309  1.00  0.00     0.208 A 
ATOM      3  C   UNL     1      16.565  36.356  39.389  1.00  0.00     0.238 A 
ATOM      4  O   UNL     1      17.093  36.678  38.290  1.00  0.00    -0.285 OA
ATOM      5  C   UNL     1      15.247  36.745  39.701  1.00  0.00     0.111 A 
ATOM      6  C   UNL     1      14.438  37.512  38.828  1.00  0.00     0.134 A 
ATOM      7  C   UNL     1      13.131  37.852  39.207  1.00  0.00     0.093 A 
ATOM      8  C   UNL     1      12.618  37.441  40.439  1.00  0.00     0.123 A 
ATOM      9  C   UNL     1      13.411  36.684  41.306  1.00  0.00     0.094 A 
ATOM     10  C   UNL     1      14.717  36.336  40.948  1.00  0.00     0.146 A 
ATOM     11  O   UNL     1      15.451  35.620  41.791  1.00  0.00    -0.452 OA
ENDROOT
BRANCH   1  12
ATOM     12  C   UNL     1      17.418  34.461  42.567  1.00  0.00     0.021 A 
ATOM     13  C   UNL     1      18.142  35.130  43.569  1.00  0.00     0.016 A 
ATOM     14  C   UNL     1      18.843  34.407  44.539  1.00  0.00     0.047 A 
ATOM     15  C   UNL     1      18.843  33.006  44.510  1.00  0.00     0.115 A 
ATOM     16  C   UNL     1      17.439  33.054  42.533  1.00  0.00     0.016 A 
ATOM     17  C   UNL     1      18.142  32.334  43.503  1.00  0.00     0.047 A 
BRANCH  15  18
ATOM     18  O   UNL     1      19.537  32.275  45.470  1.00  0.00    -0.508 OA
ATOM     19  H   UNL     1      19.957  31.377  45.251  1.00  0.00     0.293 HD
ENDBRANCH  15  18
ENDBRANCH   1  12
BRANCH   2  20
ATOM     20  O   UNL     1      18.590  35.151  40.003  1.00  0.00    -0.502 OA
ATOM     21  H   UNL     1      18.776  34.215  39.662  1.00  0.00     0.293 HD
ENDBRANCH   2  20
BRANCH   6  22
ATOM     22  O   UNL     1      14.922  37.938  37.589  1.00  0.00    -0.507 OA
ATOM     23  H   UNL     1      15.354  38.846  37.469  1.00  0.00     0.293 HD
ENDBRANCH   6  22
BRANCH   8  24
ATOM     24  O   UNL     1      11.316  37.792  40.792  1.00  0.00    -0.508 OA
ATOM     25  H   UNL     1      11.130  38.471  41.521  1.00  0.00     0.293 HD
ENDBRANCH   8  24
TORSDOF 5
ENDMDL
MODEL 6
REMARK VINA RESULT:    -3.229      5.374      6.508
REMARK INTER + INTRA:          -4.076
REMARK INTER:                  -3.788
REMARK INTRA:                  -0.288
REMARK UNBOUND:                -0.280
REMARK SMILES O=c1c(O)c(-c2ccc(O)cc2)oc2cc(O)cc(O)c12
REMARK SMILES IDX 5 1 3 2 2 3 1 4 21 5 19 6 18 7 16 8 15 9 14 10 13 11 6 12
REMARK SMILES IDX 7 13 8 14 9 15 12 16 11 17 10 18 4 20 20 22 17 24
REMARK H PARENT 10 19 4 21 20 23 17 25
REMARK Flexibility Score: inf
ROOT
ATOM      1  C   UNL     1      18.364  35.175  38.718  1.00  0.00     0.180 A 
ATOM      2  C   UNL     1      19.003  34.808  39.918  1.00  0.00     0.208 A 
ATOM      3  C   UNL     1      20.340  34.383  39.870  1.00  0.00     0.238 A 
ATOM      4  O   UNL     1      20.927  34.062  40.940  1.00  0.00    -0.285 OA
ATOM      5  C   UNL     1      21.006  34.313  38.630  1.00  0.00     0.111 A 
ATOM      6  C   UNL     1      22.351  33.892  38.496  1.00  0.00     0.134 A 
ATOM      7  C   UNL     1      22.941  33.840  37.224  1.00  0.00     0.093 A 
ATOM      8  C   UNL     1      22.214  34.200  36.087  1.00  0.00     0.123 A 
ATOM      9  C   UNL     1      20.886  34.618  36.213  1.00  0.00     0.094 A 
ATOM     10  C   UNL     1      20.280  34.677  37.471  1.00  0.00     0.146 A 
ATOM     11  O   UNL     1      19.018  35.082  37.564  1.00  0.00    -0.452 OA
ENDROOT
BRANCH   1  12
ATOM     12  C   UNL     1      16.962  35.651  38.687  1.00  0.00     0.021 A 
ATOM     13  C   UNL     1      15.917  34.718  38.573  1.00  0.00     0.016 A 
ATOM     14  C   UNL     1      14.587  35.147  38.520  1.00  0.00     0.047 A 
ATOM     15  C   UNL     1      14.286  36.515  38.564  1.00  0.00     0.115 A 
ATOM     16  C   UNL     1      16.653  37.024  38.710  1.00  0.00     0.016 A 
ATOM     17  C   UNL     1      15.322  37.450  38.655  1.00  0.00     0.047 A 
BRANCH  15  18
ATOM     18  O   UNL     1      12.966  36.954  38.512  1.00  0.00    -0.508 OA
ATOM     19  H   UNL     1      12.613  37.651  39.160  1.00  0.00     0.293 HD
ENDBRANCH  15  18
ENDBRANCH   1  12
BRANCH   2  20
ATOM     20  O   UNL     1      18.305  34.839  41.128  1.00  0.00    -0.502 OA
ATOM     21  H   UNL     1      17.335  34.556  41.201  1.00  0.00     0.293 HD
ENDBRANCH   2  20
BRANCH   6  22
ATOM     22  O   UNL     1      23.104  33.525  39.613  1.00  0.00    -0.507 OA
ATOM     23  H   UNL     1      22.846  33.816  40.549  1.00  0.00     0.293 HD
ENDBRANCH   6  22
BRANCH   8  24
ATOM     24  O   UNL     1      22.824  34.140  34.835  1.00  0.00    -0.508 OA
ATOM     25  H   UNL     1      22.491  33.511  34.114  1.00  0.00     0.293 HD
ENDBRANCH   8  24
TORSDOF 5
ENDMDL
MODEL 7
REMARK VINA RESULT:    -3.170      3.974      5.425
REMARK INTER + INTRA:          -4.007
REMARK INTER:                  -3.721
REMARK INTRA:                  -0.286
REMARK UNBOUND:                -0.280
REMARK SMILES O=c1c(O)c(-c2ccc(O)cc2)oc2cc(O)cc(O)c12
REMARK SMILES IDX 5 1 3 2 2 3 1 4 21 5 19 6 18 7 16 8 15 9 14 10 13 11 6 12
REMARK SMILES IDX 7 13 8 14 9 15 12 16 11 17 10 18 4 20 20 22 17 24
REMARK H PARENT 10 19 4 21 20 23 17 25
REMARK Flexibility Score: inf
ROOT
ATOM      1  C   UNL     1      17.347  35.410  39.639  1.00  0.00     0.180 A 
ATOM      2  C   UNL     1      17.075  35.095  40.985  1.00  0.00     0.208 A 
ATOM      3  C   UNL     1      18.091  34.521  41.765  1.00  0.00     0.238 A 
ATOM      4  O   UNL     1      17.862  34.245  42.974  1.00  0.00    -0.285 OA
ATOM      5  C   UNL     1      19.348  34.254  41.186  1.00  0.00     0.111 A 
ATOM      6  C   UNL     1      20.423  33.675  41.902  1.00  0.00     0.134 A 
ATOM      7  C   UNL     1      21.642  33.431  41.252  1.00  0.00     0.093 A 
ATOM      8  C   UNL     1      21.807  33.755  39.903  1.00  0.00     0.123 A 
ATOM      9  C   UNL     1      20.749  34.329  39.191  1.00  0.00     0.094 A 
ATOM     10  C   UNL     1      19.527  34.580  39.821  1.00  0.00     0.146 A 
ATOM     11  O   UNL     1      18.540  35.130  39.122  1.00  0.00    -0.452 OA
ENDROOT
BRANCH   1  12
ATOM     12  C   UNL     1      16.335  36.034  38.757  1.00  0.00     0.021 A 
ATOM     13  C   UNL     1      16.277  37.434  38.654  1.00  0.00     0.016 A 
ATOM     14  C   UNL     1      15.315  38.046  37.844  1.00  0.00     0.047 A 
ATOM     15  C   UNL     1      14.389  37.266  37.139  1.00  0.00     0.115 A 
ATOM     16  C   UNL     1      15.389  35.258  38.061  1.00  0.00     0.016 A 
ATOM     17  C   UNL     1      14.428  35.872  37.253  1.00  0.00     0.047 A 
BRANCH  15  18
ATOM     18  O   UNL     1      13.426  37.863  36.329  1.00  0.00    -0.508 OA
ATOM     19  H   UNL     1      13.679  38.342  35.472  1.00  0.00     0.293 HD
ENDBRANCH  15  18
ENDBRANCH   1  12
BRANCH   2  20
ATOM     20  O   UNL     1      15.805  35.324  41.520  1.00  0.00    -0.502 OA
ATOM     21  H   UNL     1      15.146  34.574  41.692  1.00  0.00     0.293 HD
ENDBRANCH   2  20
BRANCH   6  22
ATOM     22  O   UNL     1      20.290  33.339  43.251  1.00  0.00    -0.507 OA
ATOM     23  H   UNL     1      19.973  34.012  43.939  1.00  0.00     0.293 HD
ENDBRANCH   6  22
BRANCH   8  24
ATOM     24  O   UNL     1      23.028  33.503  39.281  1.00  0.00    -0.508 OA
ATOM     25  H   UNL     1      23.538  32.643  39.444  1.00  0.00     0.293 HD
ENDBRANCH   8  24
TORSDOF 5
ENDMDL
MODEL 8
REMARK VINA RESULT:    -3.168      2.023      6.812
REMARK INTER + INTRA:          -4.004
REMARK INTER:                  -3.713
REMARK INTRA:                  -0.291
REMARK UNBOUND:                -0.280
REMARK SMILES O=c1c(O)c(-c2ccc(O)cc2)oc2cc(O)cc(O)c12
REMARK SMILES IDX 5 1 3 2 2 3 1 4 21 5 19 6 18 7 16 8 15 9 14 10 13 11 6 12
REMARK SMILES IDX 7 13 8 14 9 15 12 16 11 17 10 18 4 20 20 22 17 24
REMARK H PARENT 10 19 4 21 20 23 17 25
REMARK Flexibility Score: inf
ROOT
ATOM      1  C   UNL     1      22.589  33.725  44.005  1.00  0.00     0.180 A 
ATOM      2  C   UNL     1      22.661  34.771  44.945  1.00  0.00     0.208 A 
ATOM      3  C   UNL     1      21.502  35.514  45.223  1.00  0.00     0.238 A 
ATOM      4  O   UNL     1      21.553  36.446  46.070  1.00  0.00    -0.285 OA
ATOM      5  C   UNL     1      20.303  35.213  44.546  1.00  0.00     0.111 A 
ATOM      6  C   UNL     1      19.094  35.916  44.765  1.00  0.00     0.134 A 
ATOM      7  C   UNL     1      17.943  35.563  44.045  1.00  0.00     0.093 A 
ATOM      8  C   UNL     1      17.978  34.524  43.112  1.00  0.00     0.123 A 
ATOM      9  C   UNL     1      19.169  33.826  42.891  1.00  0.00     0.094 A 
ATOM     10  C   UNL     1      20.326  34.161  43.600  1.00  0.00     0.146 A 
ATOM     11  O   UNL     1      21.444  33.480  43.375  1.00  0.00    -0.452 OA
ENDROOT
BRANCH   1  12
ATOM     12  C   UNL     1      23.761  32.884  43.672  1.00  0.00     0.021 A 
ATOM     13  C   UNL     1      24.024  31.732  44.433  1.00  0.00     0.016 A 
ATOM     14  C   UNL     1      25.138  30.935  44.150  1.00  0.00     0.047 A 
ATOM     15  C   UNL     1      26.012  31.289  43.113  1.00  0.00     0.115 A 
ATOM     16  C   UNL     1      24.655  33.244  42.646  1.00  0.00     0.016 A 
ATOM     17  C   UNL     1      25.768  32.446  42.366  1.00  0.00     0.047 A 
BRANCH  15  18
ATOM     18  O   UNL     1      27.124  30.504  42.822  1.00  0.00    -0.508 OA
ATOM     19  H   UNL     1      27.526  30.478  41.891  1.00  0.00     0.293 HD
ENDBRANCH  15  18
ENDBRANCH   1  12
BRANCH   2  20
ATOM     20  O   UNL     1      23.874  35.081  45.565  1.00  0.00    -0.502 OA
ATOM     21  H   UNL     1      23.920  35.545  46.465  1.00  0.00     0.293 HD
ENDBRANCH   2  20
BRANCH   6  22
ATOM     22  O   UNL     1      19.026  36.960  45.691  1.00  0.00    -0.507 OA
ATOM     23  H   UNL     1      18.316  36.987  46.413  1.00  0.00     0.293 HD
ENDBRANCH   6  22
BRANCH   8  24
ATOM     24  O   UNL     1      16.821  34.193  42.409  1.00  0.00    -0.508 OA
ATOM     25  H   UNL     1      15.913  34.183  42.859  1.00  0.00     0.293 HD
ENDBRANCH   8  24
TORSDOF 5
ENDMDL
MODEL 9
REMARK VINA RESULT:    -3.134      5.841      7.801
REMARK INTER + INTRA:          -3.964
REMARK INTER:                  -3.683
REMARK INTRA:                  -0.281
REMARK UNBOUND:                -0.280
REMARK SMILES O=c1c(O)c(-c2ccc(O)cc2)oc2cc(O)cc(O)c12
REMARK SMILES IDX 5 1 3 2 2 3 1 4 21 5 19 6 18 7 16 8 15 9 14 10 13 11 6 12
REMARK SMILES IDX 7 13 8 14 9 15 12 16 11 17 10 18 4 20 20 22 17 24
REMARK H PARENT 10 19 4 21 20 23 17 25
REMARK Flexibility Score: inf
ROOT
ATOM      1  C   UNL     1      13.420  36.438  42.026  1.00  0.00     0.180 A 
ATOM      2  C   UNL     1      14.382  35.533  42.513  1.00  0.00     0.208 A 
ATOM      3  C   UNL     1      15.557  35.329  41.773  1.00  0.00     0.238 A 
ATOM      4  O   UNL     1      16.431  34.528  42.206  1.00  0.00    -0.285 OA
ATOM      5  C   UNL     1      15.742  36.014  40.556  1.00  0.00     0.111 A 
ATOM      6  C   UNL     1      16.895  35.862  39.748  1.00  0.00     0.134 A 
ATOM      7  C   UNL     1      17.000  36.572  38.543  1.00  0.00     0.093 A 
ATOM      8  C   UNL     1      15.978  37.429  38.131  1.00  0.00     0.123 A 
ATOM      9  C   UNL     1      14.837  37.584  38.923  1.00  0.00     0.094 A 
ATOM     10  C   UNL     1      14.713  36.886  40.128  1.00  0.00     0.146 A 
ATOM     11  O   UNL     1      13.621  37.055  40.865  1.00  0.00    -0.452 OA
ENDROOT
BRANCH   1  12
ATOM     12  C   UNL     1      12.164  36.722  42.757  1.00  0.00     0.021 A 
ATOM     13  C   UNL     1      12.114  37.806  43.650  1.00  0.00     0.016 A 
ATOM     14  C   UNL     1      10.946  38.079  44.368  1.00  0.00     0.047 A 
ATOM     15  C   UNL     1       9.817  37.262  44.214  1.00  0.00     0.115 A 
ATOM     16  C   UNL     1      11.033  35.894  42.623  1.00  0.00     0.016 A 
ATOM     17  C   UNL     1       9.867  36.169  43.342  1.00  0.00     0.047 A 
BRANCH  15  18
ATOM     18  O   UNL     1       8.648  37.524  44.923  1.00  0.00    -0.508 OA
ATOM     19  H   UNL     1       7.771  37.710  44.448  1.00  0.00     0.293 HD
ENDBRANCH  15  18
ENDBRANCH   1  12
BRANCH   2  20
ATOM     20  O   UNL     1      14.152  34.829  43.699  1.00  0.00    -0.502 OA
ATOM     21  H   UNL     1      14.090  35.290  44.599  1.00  0.00     0.293 HD
ENDBRANCH   2  20
BRANCH   6  22
ATOM     22  O   UNL     1      17.934  35.012  40.133  1.00  0.00    -0.507 OA
ATOM     23  H   UNL     1      17.940  34.030  39.884  1.00  0.00     0.293 HD
ENDBRANCH   6  22
BRANCH   8  24
ATOM     24  O   UNL     1      16.107  38.123  36.929  1.00  0.00    -0.508 OA
ATOM     25  H   UNL     1      16.640  38.983  36.869  1.00  0.00     0.293 HD
ENDBRANCH   8  24
TORSDOF 5
ENDMDL
