MODEL 1
REMARK VINA RESULT:    -3.380      0.000      0.000
REMARK INTER + INTRA:          -9.012
REMARK INTER:                  -7.727
REMARK INTRA:                  -1.285
REMARK UNBOUND:                -1.285
REMARK SMILES CCCCCCCCCCCCCCCCCCCCCCCC(=O)[O-]
REMARK SMILES IDX 13 1 14 2 15 3 16 4 17 5 18 6 19 7 20 8 21 9 22 10 23 11
REMARK SMILES IDX 24 12 25 13 26 14 12 15 11 16 10 17 9 18 8 19 7 20 6 21 5 22
REMARK SMILES IDX 4 23 3 24 2 25 1 26
REMARK H PARENT
REMARK Flexibility Score: inf
ROOT
ATOM      1  C   UNL     1      -0.125  19.885  17.159  1.00  0.00     0.000 C 
ENDROOT
BRANCH   1   2
ATOM      2  C   UNL     1      -1.554  20.225  16.708  1.00  0.00     0.000 C 
BRANCH   2   3
ATOM      3  C   UNL     1      -2.592  20.026  17.824  1.00  0.00     0.000 C 
BRANCH   3   4
ATOM      4  C   UNL     1      -4.003  19.894  17.240  1.00  0.00     0.000 C 
BRANCH   4   5
ATOM      5  C   UNL     1      -4.002  20.155  15.725  1.00  0.00     0.000 C 
BRANCH   5   6
ATOM      6  C   UNL     1      -4.930  21.312  15.324  1.00  0.00     0.000 C 
BRANCH   6   7
ATOM      7  C   UNL     1      -5.993  20.893  14.297  1.00  0.00     0.000 C 
BRANCH   7   8
ATOM      8  C   UNL     1      -7.400  21.271  14.785  1.00  0.00     0.000 C 
BRANCH   8   9
ATOM      9  C   UNL     1      -8.143  20.096  15.440  1.00  0.00     0.000 C 
BRANCH   9  10
ATOM     10  C   UNL     1      -8.808  20.480  16.770  1.00  0.00     0.006 C 
BRANCH  10  11
ATOM     11  C   UNL     1      -7.772  20.989  17.776  1.00  0.00     0.053 C 
BRANCH  11  12
ATOM     12  C   UNL     1      -8.375  22.027  18.670  1.00  0.00     0.041 C 
ATOM     13  O   UNL     1      -8.587  21.773  19.884  1.00  0.00    -0.550 OA
ATOM     14  O   UNL     1      -8.752  23.258  18.147  1.00  0.00    -0.550 OA
ENDBRANCH  11  12
ENDBRANCH  10  11
ENDBRANCH   9  10
ENDBRANCH   8   9
ENDBRANCH   7   8
ENDBRANCH   6   7
ENDBRANCH   5   6
ENDBRANCH   4   5
ENDBRANCH   3   4
ENDBRANCH   2   3
ENDBRANCH   1   2
BRANCH   1  15
ATOM     15  C   UNL     1       0.908  20.045  16.034  1.00  0.00     0.000 C 
BRANCH  15  16
ATOM     16  C   UNL     1       2.190  20.700  16.562  1.00  0.00     0.000 C 
BRANCH  16  17
ATOM     17  C   UNL     1       3.439  20.029  15.970  1.00  0.00     0.000 C 
BRANCH  17  18
ATOM     18  C   UNL     1       4.732  20.787  16.312  1.00  0.00    -0.000 C 
BRANCH  18  19
ATOM     19  C   UNL     1       5.941  20.284  15.509  1.00  0.00    -0.000 C 
BRANCH  19  20
ATOM     20  C   UNL     1       7.281  20.545  16.220  1.00  0.00    -0.000 C 
BRANCH  20  21
ATOM     21  C   UNL     1       8.398  21.021  15.269  1.00  0.00    -0.000 C 
BRANCH  21  22
ATOM     22  C   UNL     1       8.239  20.445  13.850  1.00  0.00    -0.000 C 
BRANCH  22  23
ATOM     23  C   UNL     1       9.216  21.068  12.841  1.00  0.00    -0.000 C 
BRANCH  23  24
ATOM     24  C   UNL     1      10.120  22.138  13.475  1.00  0.00    -0.000 C 
BRANCH  24  25
ATOM     25  C   UNL     1      10.939  22.911  12.430  1.00  0.00    -0.003 C 
ATOM     26  C   UNL     1      10.375  24.303  12.145  1.00  0.00     0.004 C 
ENDBRANCH  24  25
ENDBRANCH  23  24
ENDBRANCH  22  23
ENDBRANCH  21  22
ENDBRANCH  20  21
ENDBRANCH  19  20
ENDBRANCH  18  19
ENDBRANCH  17  18
ENDBRANCH  16  17
ENDBRANCH  15  16
ENDBRANCH   1  15
TORSDOF 22
ENDMDL
MODEL 2
REMARK VINA RESULT:    -3.131      1.076      1.379
REMARK INTER + INTRA:          -8.443
REMARK INTER:                  -7.218
REMARK INTRA:                  -1.225
REMARK UNBOUND:                -1.285
REMARK SMILES CCCCCCCCCCCCCCCCCCCCCCCC(=O)[O-]
REMARK SMILES IDX 13 1 14 2 15 3 16 4 17 5 18 6 19 7 20 8 21 9 22 10 23 11
REMARK SMILES IDX 24 12 25 13 26 14 12 15 11 16 10 17 9 18 8 19 7 20 6 21 5 22
REMARK SMILES IDX 4 23 3 24 2 25 1 26
REMARK H PARENT
REMARK Flexibility Score: inf
ROOT
ATOM      1  C   UNL     1       0.222  19.879  17.152  1.00  0.00     0.000 C 
ENDROOT
BRANCH   1   2
ATOM      2  C   UNL     1      -1.218  20.236  16.752  1.00  0.00     0.000 C 
BRANCH   2   3
ATOM      3  C   UNL     1      -2.209  20.098  17.918  1.00  0.00     0.000 C 
BRANCH   3   4
ATOM      4  C   UNL     1      -3.636  19.879  17.400  1.00  0.00     0.000 C 
BRANCH   4   5
ATOM      5  C   UNL     1      -3.703  20.056  15.874  1.00  0.00     0.000 C 
BRANCH   5   6
ATOM      6  C   UNL     1      -4.619  21.216  15.453  1.00  0.00     0.000 C 
BRANCH   6   7
ATOM      7  C   UNL     1      -5.641  20.808  14.382  1.00  0.00     0.000 C 
BRANCH   7   8
ATOM      8  C   UNL     1      -7.055  21.259  14.778  1.00  0.00     0.000 C 
BRANCH   8   9
ATOM      9  C   UNL     1      -7.945  20.098  15.248  1.00  0.00     0.000 C 
BRANCH   9  10
ATOM     10  C   UNL     1      -8.706  20.418  16.543  1.00  0.00     0.006 C 
BRANCH  10  11
ATOM     11  C   UNL     1      -7.738  20.713  17.692  1.00  0.00     0.053 C 
BRANCH  11  12
ATOM     12  C   UNL     1      -8.096  22.002  18.362  1.00  0.00     0.041 C 
ATOM     13  O   UNL     1      -7.829  22.181  19.579  1.00  0.00    -0.550 OA
ATOM     14  O   UNL     1      -8.774  22.987  17.654  1.00  0.00    -0.550 OA
ENDBRANCH  11  12
ENDBRANCH  10  11
ENDBRANCH   9  10
ENDBRANCH   8   9
ENDBRANCH   7   8
ENDBRANCH   6   7
ENDBRANCH   5   6
ENDBRANCH   4   5
ENDBRANCH   3   4
ENDBRANCH   2   3
ENDBRANCH   1   2
BRANCH   1  15
ATOM     15  C   UNL     1       1.211  19.992  15.983  1.00  0.00     0.000 C 
BRANCH  15  16
ATOM     16  C   UNL     1       2.481  20.735  16.412  1.00  0.00     0.000 C 
BRANCH  16  17
ATOM     17  C   UNL     1       3.742  19.994  15.943  1.00  0.00     0.000 C 
BRANCH  17  18
ATOM     18  C   UNL     1       5.026  20.801  16.192  1.00  0.00    -0.000 C 
BRANCH  18  19
ATOM     19  C   UNL     1       6.259  20.172  15.525  1.00  0.00    -0.000 C 
BRANCH  19  20
ATOM     20  C   UNL     1       7.583  20.646  16.149  1.00  0.00    -0.000 C 
BRANCH  20  21
ATOM     21  C   UNL     1       8.649  21.037  15.104  1.00  0.00    -0.000 C 
BRANCH  21  22
ATOM     22  C   UNL     1       8.674  20.068  13.908  1.00  0.00    -0.000 C 
BRANCH  22  23
ATOM     23  C   UNL     1       9.104  20.748  12.599  1.00  0.00    -0.000 C 
BRANCH  23  24
ATOM     24  C   UNL     1       8.477  20.091  11.357  1.00  0.00    -0.000 C 
BRANCH  24  25
ATOM     25  C   UNL     1       9.365  20.225  10.110  1.00  0.00    -0.003 C 
ATOM     26  C   UNL     1      10.854  20.299  10.447  1.00  0.00     0.004 C 
ENDBRANCH  24  25
ENDBRANCH  23  24
ENDBRANCH  22  23
ENDBRANCH  21  22
ENDBRANCH  20  21
ENDBRANCH  19  20
ENDBRANCH  18  19
ENDBRANCH  17  18
ENDBRANCH  16  17
ENDBRANCH  15  16
ENDBRANCH   1  15
TORSDOF 22
ENDMDL
MODEL 3
REMARK VINA RESULT:    -3.027      5.623     14.416
REMARK INTER + INTRA:          -8.205
REMARK INTER:                  -7.204
REMARK INTRA:                  -1.000
REMARK UNBOUND:                -1.285
REMARK SMILES CCCCCCCCCCCCCCCCCCCCCCCC(=O)[O-]
REMARK SMILES IDX 13 1 14 2 15 3 16 4 17 5 18 6 19 7 20 8 21 9 22 10 23 11
REMARK SMILES IDX 24 12 25 13 26 14 12 15 11 16 10 17 9 18 8 19 7 20 6 21 5 22
REMARK SMILES IDX 4 23 3 24 2 25 1 26
REMARK H PARENT
REMARK Flexibility Score: inf
ROOT
ATOM      1  C   UNL     1      -1.745  20.733  16.728  1.00  0.00     0.000 C 
ENDROOT
BRANCH   1   2
ATOM      2  C   UNL     1      -0.354  20.101  16.569  1.00  0.00     0.000 C 
BRANCH   2   3
ATOM      3  C   UNL     1       0.638  21.023  15.844  1.00  0.00     0.000 C 
BRANCH   3   4
ATOM      4  C   UNL     1       1.947  21.146  16.631  1.00  0.00     0.000 C 
BRANCH   4   5
ATOM      5  C   UNL     1       2.800  19.875  16.488  1.00  0.00     0.000 C 
BRANCH   5   6
ATOM      6  C   UNL     1       3.853  19.993  15.374  1.00  0.00     0.000 C 
BRANCH   6   7
ATOM      7  C   UNL     1       5.160  20.638  15.858  1.00  0.00     0.000 C 
BRANCH   7   8
ATOM      8  C   UNL     1       6.378  19.921  15.256  1.00  0.00     0.000 C 
BRANCH   8   9
ATOM      9  C   UNL     1       7.714  20.450  15.801  1.00  0.00     0.000 C 
BRANCH   9  10
ATOM     10  C   UNL     1       8.926  19.927  15.014  1.00  0.00     0.006 C 
BRANCH  10  11
ATOM     11  C   UNL     1       9.213  20.810  13.796  1.00  0.00     0.053 C 
BRANCH  11  12
ATOM     12  C   UNL     1      10.266  21.823  14.119  1.00  0.00     0.041 C 
ATOM     13  O   UNL     1      11.037  22.246  13.218  1.00  0.00    -0.550 OA
ATOM     14  O   UNL     1      10.430  22.260  15.427  1.00  0.00    -0.550 OA
ENDBRANCH  11  12
ENDBRANCH  10  11
ENDBRANCH   9  10
ENDBRANCH   8   9
ENDBRANCH   7   8
ENDBRANCH   6   7
ENDBRANCH   5   6
ENDBRANCH   4   5
ENDBRANCH   3   4
ENDBRANCH   2   3
ENDBRANCH   1   2
BRANCH   1  15
ATOM     15  C   UNL     1      -2.846  19.940  16.009  1.00  0.00     0.000 C 
BRANCH  15  16
ATOM     16  C   UNL     1      -4.229  20.520  16.323  1.00  0.00     0.000 C 
BRANCH  16  17
ATOM     17  C   UNL     1      -4.754  21.367  15.153  1.00  0.00     0.000 C 
BRANCH  17  18
ATOM     18  C   UNL     1      -5.856  20.652  14.356  1.00  0.00    -0.000 C 
BRANCH  18  19
ATOM     19  C   UNL     1      -7.265  21.136  14.731  1.00  0.00    -0.000 C 
BRANCH  19  20
ATOM     20  C   UNL     1      -8.106  20.049  15.424  1.00  0.00    -0.000 C 
BRANCH  20  21
ATOM     21  C   UNL     1      -8.503  20.410  16.871  1.00  0.00    -0.000 C 
BRANCH  21  22
ATOM     22  C   UNL     1      -8.008  21.810  17.277  1.00  0.00    -0.000 C 
BRANCH  22  23
ATOM     23  C   UNL     1      -9.081  22.630  18.010  1.00  0.00    -0.000 C 
BRANCH  23  24
ATOM     24  C   UNL     1      -9.070  22.397  19.530  1.00  0.00    -0.000 C 
BRANCH  24  25
ATOM     25  C   UNL     1      -8.188  23.412  20.275  1.00  0.00    -0.003 C 
ATOM     26  C   UNL     1      -8.105  23.135  21.776  1.00  0.00     0.004 C 
ENDBRANCH  24  25
ENDBRANCH  23  24
ENDBRANCH  22  23
ENDBRANCH  21  22
ENDBRANCH  20  21
ENDBRANCH  19  20
ENDBRANCH  18  19
ENDBRANCH  17  18
ENDBRANCH  16  17
ENDBRANCH  15  16
ENDBRANCH   1  15
TORSDOF 22
ENDMDL
MODEL 4
REMARK VINA RESULT:    -2.977      5.839     14.568
REMARK INTER + INTRA:          -8.092
REMARK INTER:                  -6.915
REMARK INTRA:                  -1.177
REMARK UNBOUND:                -1.285
REMARK SMILES CCCCCCCCCCCCCCCCCCCCCCCC(=O)[O-]
REMARK SMILES IDX 13 1 14 2 15 3 16 4 17 5 18 6 19 7 20 8 21 9 22 10 23 11
REMARK SMILES IDX 24 12 25 13 26 14 12 15 11 16 10 17 9 18 8 19 7 20 6 21 5 22
REMARK SMILES IDX 4 23 3 24 2 25 1 26
REMARK H PARENT
REMARK Flexibility Score: inf
ROOT
ATOM      1  C   UNL     1       1.479  19.977  16.239  1.00  0.00     0.000 C 
ENDROOT
BRANCH   1   2
ATOM      2  C   UNL     1       2.247  20.998  17.092  1.00  0.00     0.000 C 
BRANCH   2   3
ATOM      3  C   UNL     1       3.762  20.963  16.839  1.00  0.00     0.000 C 
BRANCH   3   4
ATOM      4  C   UNL     1       4.077  20.298  15.494  1.00  0.00     0.000 C 
BRANCH   4   5
ATOM      5  C   UNL     1       5.590  20.088  15.322  1.00  0.00     0.000 C 
BRANCH   5   6
ATOM      6  C   UNL     1       6.421  20.966  16.272  1.00  0.00     0.000 C 
BRANCH   6   7
ATOM      7  C   UNL     1       7.933  20.829  16.038  1.00  0.00     0.000 C 
BRANCH   7   8
ATOM      8  C   UNL     1       8.247  20.751  14.536  1.00  0.00     0.000 C 
BRANCH   8   9
ATOM      9  C   UNL     1       9.670  21.222  14.197  1.00  0.00     0.000 C 
BRANCH   9  10
ATOM     10  C   UNL     1       9.717  22.125  12.954  1.00  0.00     0.006 C 
BRANCH  10  11
ATOM     11  C   UNL     1      10.991  22.975  12.940  1.00  0.00     0.053 C 
BRANCH  11  12
ATOM     12  C   UNL     1      10.856  24.105  11.969  1.00  0.00     0.041 C 
ATOM     13  O   UNL     1      10.823  23.878  10.731  1.00  0.00    -0.550 OA
ATOM     14  O   UNL     1      10.820  25.416  12.429  1.00  0.00    -0.550 OA
ENDBRANCH  11  12
ENDBRANCH  10  11
ENDBRANCH   9  10
ENDBRANCH   8   9
ENDBRANCH   7   8
ENDBRANCH   6   7
ENDBRANCH   5   6
ENDBRANCH   4   5
ENDBRANCH   3   4
ENDBRANCH   2   3
ENDBRANCH   1   2
BRANCH   1  15
ATOM     15  C   UNL     1       0.011  20.369  16.017  1.00  0.00     0.000 C 
BRANCH  15  16
ATOM     16  C   UNL     1      -0.864  19.884  17.179  1.00  0.00     0.000 C 
BRANCH  16  17
ATOM     17  C   UNL     1      -2.274  20.488  17.101  1.00  0.00     0.000 C 
BRANCH  17  18
ATOM     18  C   UNL     1      -3.099  19.909  15.941  1.00  0.00    -0.000 C 
BRANCH  18  19
ATOM     19  C   UNL     1      -4.239  20.842  15.503  1.00  0.00    -0.000 C 
BRANCH  19  20
ATOM     20  C   UNL     1      -5.625  20.340  15.943  1.00  0.00    -0.000 C 
BRANCH  20  21
ATOM     21  C   UNL     1      -6.773  20.839  15.040  1.00  0.00    -0.000 C 
BRANCH  21  22
ATOM     22  C   UNL     1      -8.067  21.095  15.833  1.00  0.00    -0.000 C 
BRANCH  22  23
ATOM     23  C   UNL     1      -7.904  22.186  16.903  1.00  0.00    -0.000 C 
BRANCH  23  24
ATOM     24  C   UNL     1      -8.945  22.072  18.029  1.00  0.00    -0.000 C 
BRANCH  24  25
ATOM     25  C   UNL     1      -8.465  21.183  19.187  1.00  0.00    -0.003 C 
ATOM     26  C   UNL     1      -6.942  21.131  19.303  1.00  0.00     0.004 C 
ENDBRANCH  24  25
ENDBRANCH  23  24
ENDBRANCH  22  23
ENDBRANCH  21  22
ENDBRANCH  20  21
ENDBRANCH  19  20
ENDBRANCH  18  19
ENDBRANCH  17  18
ENDBRANCH  16  17
ENDBRANCH  15  16
ENDBRANCH   1  15
TORSDOF 22
ENDMDL
MODEL 5
REMARK VINA RESULT:    -2.880      1.416      1.878
REMARK INTER + INTRA:          -7.869
REMARK INTER:                  -7.206
REMARK INTRA:                  -0.663
REMARK UNBOUND:                -1.285
REMARK SMILES CCCCCCCCCCCCCCCCCCCCCCCC(=O)[O-]
REMARK SMILES IDX 13 1 14 2 15 3 16 4 17 5 18 6 19 7 20 8 21 9 22 10 23 11
REMARK SMILES IDX 24 12 25 13 26 14 12 15 11 16 10 17 9 18 8 19 7 20 6 21 5 22
REMARK SMILES IDX 4 23 3 24 2 25 1 26
REMARK H PARENT
REMARK Flexibility Score: inf
ROOT
ATOM      1  C   UNL     1      -0.961  20.902  16.369  1.00  0.00     0.000 C 
ENDROOT
BRANCH   1   2
ATOM      2  C   UNL     1      -1.477  20.250  17.661  1.00  0.00     0.000 C 
BRANCH   2   3
ATOM      3  C   UNL     1      -2.966  19.876  17.584  1.00  0.00     0.000 C 
BRANCH   3   4
ATOM      4  C   UNL     1      -3.565  20.290  16.235  1.00  0.00     0.000 C 
BRANCH   4   5
ATOM      5  C   UNL     1      -5.092  20.120  16.233  1.00  0.00     0.000 C 
BRANCH   5   6
ATOM      6  C   UNL     1      -5.744  20.649  14.945  1.00  0.00     0.000 C 
BRANCH   6   7
ATOM      7  C   UNL     1      -6.836  21.695  15.218  1.00  0.00     0.000 C 
BRANCH   7   8
ATOM      8  C   UNL     1      -8.229  21.046  15.200  1.00  0.00     0.000 C 
BRANCH   8   9
ATOM      9  C   UNL     1      -8.416  19.999  16.309  1.00  0.00     0.000 C 
BRANCH   9  10
ATOM     10  C   UNL     1      -9.004  20.595  17.597  1.00  0.00     0.006 C 
BRANCH  10  11
ATOM     11  C   UNL     1      -8.224  21.838  18.035  1.00  0.00     0.053 C 
BRANCH  11  12
ATOM     12  C   UNL     1      -7.679  21.656  19.416  1.00  0.00     0.041 C 
ATOM     13  O   UNL     1      -6.486  21.292  19.585  1.00  0.00    -0.550 OA
ATOM     14  O   UNL     1      -8.506  21.835  20.518  1.00  0.00    -0.550 OA
ENDBRANCH  11  12
ENDBRANCH  10  11
ENDBRANCH   9  10
ENDBRANCH   8   9
ENDBRANCH   7   8
ENDBRANCH   6   7
ENDBRANCH   5   6
ENDBRANCH   4   5
ENDBRANCH   3   4
ENDBRANCH   2   3
ENDBRANCH   1   2
BRANCH   1  15
ATOM     15  C   UNL     1       0.337  20.263  15.857  1.00  0.00     0.000 C 
BRANCH  15  16
ATOM     16  C   UNL     1       1.563  20.968  16.449  1.00  0.00     0.000 C 
BRANCH  16  17
ATOM     17  C   UNL     1       2.799  20.057  16.414  1.00  0.00     0.000 C 
BRANCH  17  18
ATOM     18  C   UNL     1       4.112  20.839  16.568  1.00  0.00    -0.000 C 
BRANCH  18  19
ATOM     19  C   UNL     1       5.278  20.193  15.804  1.00  0.00    -0.000 C 
BRANCH  19  20
ATOM     20  C   UNL     1       6.236  21.229  15.189  1.00  0.00    -0.000 C 
BRANCH  20  21
ATOM     21  C   UNL     1       7.365  20.596  14.348  1.00  0.00    -0.000 C 
BRANCH  21  22
ATOM     22  C   UNL     1       8.700  20.545  15.113  1.00  0.00    -0.000 C 
BRANCH  22  23
ATOM     23  C   UNL     1       9.714  21.586  14.613  1.00  0.00    -0.000 C 
BRANCH  23  24
ATOM     24  C   UNL     1      10.928  21.727  15.546  1.00  0.00    -0.000 C 
BRANCH  24  25
ATOM     25  C   UNL     1      10.912  23.044  16.338  1.00  0.00    -0.003 C 
ATOM     26  C   UNL     1      10.075  22.958  17.614  1.00  0.00     0.004 C 
ENDBRANCH  24  25
ENDBRANCH  23  24
ENDBRANCH  22  23
ENDBRANCH  21  22
ENDBRANCH  20  21
ENDBRANCH  19  20
ENDBRANCH  18  19
ENDBRANCH  17  18
ENDBRANCH  16  17
ENDBRANCH  15  16
ENDBRANCH   1  15
TORSDOF 22
ENDMDL
MODEL 6
REMARK VINA RESULT:    -2.677      1.538      2.842
REMARK INTER + INTRA:          -7.406
REMARK INTER:                  -6.440
REMARK INTRA:                  -0.966
REMARK UNBOUND:                -1.285
REMARK SMILES CCCCCCCCCCCCCCCCCCCCCCCC(=O)[O-]
REMARK SMILES IDX 13 1 14 2 15 3 16 4 17 5 18 6 19 7 20 8 21 9 22 10 23 11
REMARK SMILES IDX 24 12 25 13 26 14 12 15 11 16 10 17 9 18 8 19 7 20 6 21 5 22
REMARK SMILES IDX 4 23 3 24 2 25 1 26
REMARK H PARENT
REMARK Flexibility Score: inf
ROOT
ATOM      1  C   UNL     1       2.785  20.852  16.249  1.00  0.00     0.000 C 
ENDROOT
BRANCH   1   2
ATOM      2  C   UNL     1       1.527  20.021  16.543  1.00  0.00     0.000 C 
BRANCH   2   3
ATOM      3  C   UNL     1       0.242  20.864  16.529  1.00  0.00     0.000 C 
BRANCH   3   4
ATOM      4  C   UNL     1      -1.001  19.967  16.486  1.00  0.00     0.000 C 
BRANCH   4   5
ATOM      5  C   UNL     1      -2.252  20.773  16.100  1.00  0.00     0.000 C 
BRANCH   5   6
ATOM      6  C   UNL     1      -3.524  19.911  16.070  1.00  0.00     0.000 C 
BRANCH   6   7
ATOM      7  C   UNL     1      -4.810  20.749  16.123  1.00  0.00     0.000 C 
BRANCH   7   8
ATOM      8  C   UNL     1      -5.376  20.970  14.712  1.00  0.00     0.000 C 
BRANCH   8   9
ATOM      9  C   UNL     1      -6.871  20.632  14.606  1.00  0.00     0.000 C 
BRANCH   9  10
ATOM     10  C   UNL     1      -7.454  20.093  15.921  1.00  0.00     0.006 C 
BRANCH  10  11
ATOM     11  C   UNL     1      -8.313  21.152  16.617  1.00  0.00     0.053 C 
BRANCH  11  12
ATOM     12  C   UNL     1      -7.897  21.310  18.046  1.00  0.00     0.041 C 
ATOM     13  O   UNL     1      -8.333  22.270  18.732  1.00  0.00    -0.550 OA
ATOM     14  O   UNL     1      -6.984  20.423  18.604  1.00  0.00    -0.550 OA
ENDBRANCH  11  12
ENDBRANCH  10  11
ENDBRANCH   9  10
ENDBRANCH   8   9
ENDBRANCH   7   8
ENDBRANCH   6   7
ENDBRANCH   5   6
ENDBRANCH   4   5
ENDBRANCH   3   4
ENDBRANCH   2   3
ENDBRANCH   1   2
BRANCH   1  15
ATOM     15  C   UNL     1       3.997  19.986  15.876  1.00  0.00     0.000 C 
BRANCH  15  16
ATOM     16  C   UNL     1       5.301  20.647  16.337  1.00  0.00     0.000 C 
BRANCH  16  17
ATOM     17  C   UNL     1       6.526  19.875  15.822  1.00  0.00     0.000 C 
BRANCH  17  18
ATOM     18  C   UNL     1       7.839  20.644  16.036  1.00  0.00    -0.000 C 
BRANCH  18  19
ATOM     19  C   UNL     1       8.892  20.325  14.964  1.00  0.00    -0.000 C 
BRANCH  19  20
ATOM     20  C   UNL     1       9.033  21.441  13.914  1.00  0.00    -0.000 C 
BRANCH  20  21
ATOM     21  C   UNL     1      10.420  21.477  13.239  1.00  0.00    -0.000 C 
BRANCH  21  22
ATOM     22  C   UNL     1      10.901  20.075  12.823  1.00  0.00    -0.000 C 
BRANCH  22  23
ATOM     23  C   UNL     1      10.978  19.900  11.298  1.00  0.00    -0.000 C 
BRANCH  23  24
ATOM     24  C   UNL     1      10.791  21.225  10.540  1.00  0.00    -0.000 C 
BRANCH  24  25
ATOM     25  C   UNL     1       9.774  21.108   9.393  1.00  0.00    -0.003 C 
ATOM     26  C   UNL     1       8.792  19.953   9.587  1.00  0.00     0.004 C 
ENDBRANCH  24  25
ENDBRANCH  23  24
ENDBRANCH  22  23
ENDBRANCH  21  22
ENDBRANCH  20  21
ENDBRANCH  19  20
ENDBRANCH  18  19
ENDBRANCH  17  18
ENDBRANCH  16  17
ENDBRANCH  15  16
ENDBRANCH   1  15
TORSDOF 22
ENDMDL
MODEL 7
REMARK VINA RESULT:    -2.543      5.903     14.680
REMARK INTER + INTRA:          -7.099
REMARK INTER:                  -6.030
REMARK INTRA:                  -1.069
REMARK UNBOUND:                -1.285
REMARK SMILES CCCCCCCCCCCCCCCCCCCCCCCC(=O)[O-]
REMARK SMILES IDX 13 1 14 2 15 3 16 4 17 5 18 6 19 7 20 8 21 9 22 10 23 11
REMARK SMILES IDX 24 12 25 13 26 14 12 15 11 16 10 17 9 18 8 19 7 20 6 21 5 22
REMARK SMILES IDX 4 23 3 24 2 25 1 26
REMARK H PARENT
REMARK Flexibility Score: inf
ROOT
ATOM      1  C   UNL     1       3.542  20.538  16.567  1.00  0.00     0.000 C 
ENDROOT
BRANCH   1   2
ATOM      2  C   UNL     1       4.753  21.422  16.904  1.00  0.00     0.000 C 
BRANCH   2   3
ATOM      3  C   UNL     1       6.082  20.812  16.431  1.00  0.00     0.000 C 
BRANCH   3   4
ATOM      4  C   UNL     1       6.149  20.766  14.900  1.00  0.00     0.000 C 
BRANCH   4   5
ATOM      5  C   UNL     1       7.606  20.726  14.411  1.00  0.00     0.000 C 
BRANCH   5   6
ATOM      6  C   UNL     1       8.614  21.019  15.533  1.00  0.00     0.000 C 
BRANCH   6   7
ATOM      7  C   UNL     1       9.950  21.563  15.005  1.00  0.00     0.000 C 
BRANCH   7   8
ATOM      8  C   UNL     1       9.837  21.937  13.519  1.00  0.00     0.000 C 
BRANCH   8   9
ATOM      9  C   UNL     1      10.867  21.212  12.639  1.00  0.00     0.000 C 
BRANCH   9  10
ATOM     10  C   UNL     1      10.721  21.554  11.148  1.00  0.00     0.006 C 
BRANCH  10  11
ATOM     11  C   UNL     1      10.827  20.295  10.282  1.00  0.00     0.053 C 
BRANCH  11  12
ATOM     12  C   UNL     1       9.900  20.385   9.111  1.00  0.00     0.041 C 
ATOM     13  O   UNL     1      10.356  20.581   7.955  1.00  0.00    -0.550 OA
ATOM     14  O   UNL     1       8.526  20.304   9.306  1.00  0.00    -0.550 OA
ENDBRANCH  11  12
ENDBRANCH  10  11
ENDBRANCH   9  10
ENDBRANCH   8   9
ENDBRANCH   7   8
ENDBRANCH   6   7
ENDBRANCH   5   6
ENDBRANCH   4   5
ENDBRANCH   3   4
ENDBRANCH   2   3
ENDBRANCH   1   2
BRANCH   1  15
ATOM     15  C   UNL     1       2.208  21.291  16.672  1.00  0.00     0.000 C 
BRANCH  15  16
ATOM     16  C   UNL     1       1.090  20.520  15.962  1.00  0.00     0.000 C 
BRANCH  16  17
ATOM     17  C   UNL     1      -0.034  20.146  16.941  1.00  0.00     0.000 C 
BRANCH  17  18
ATOM     18  C   UNL     1      -1.370  19.882  16.229  1.00  0.00    -0.000 C 
BRANCH  18  19
ATOM     19  C   UNL     1      -2.558  20.559  16.932  1.00  0.00    -0.000 C 
BRANCH  19  20
ATOM     20  C   UNL     1      -3.914  20.184  16.309  1.00  0.00    -0.000 C 
BRANCH  20  21
ATOM     21  C   UNL     1      -4.431  21.224  15.293  1.00  0.00    -0.000 C 
BRANCH  21  22
ATOM     22  C   UNL     1      -5.875  20.933  14.848  1.00  0.00    -0.000 C 
BRANCH  22  23
ATOM     23  C   UNL     1      -6.919  21.698  15.676  1.00  0.00    -0.000 C 
BRANCH  23  24
ATOM     24  C   UNL     1      -7.846  20.762  16.470  1.00  0.00    -0.000 C 
BRANCH  24  25
ATOM     25  C   UNL     1      -7.258  20.371  17.836  1.00  0.00    -0.003 C 
ATOM     26  C   UNL     1      -7.918  21.112  18.999  1.00  0.00     0.004 C 
ENDBRANCH  24  25
ENDBRANCH  23  24
ENDBRANCH  22  23
ENDBRANCH  21  22
ENDBRANCH  20  21
ENDBRANCH  19  20
ENDBRANCH  18  19
ENDBRANCH  17  18
ENDBRANCH  16  17
ENDBRANCH  15  16
ENDBRANCH   1  15
TORSDOF 22
ENDMDL
MODEL 8
REMARK VINA RESULT:    -2.327      5.377     13.882
REMARK INTER + INTRA:          -6.605
REMARK INTER:                  -5.131
REMARK INTRA:                  -1.474
REMARK UNBOUND:                -1.285
REMARK SMILES CCCCCCCCCCCCCCCCCCCCCCCC(=O)[O-]
REMARK SMILES IDX 13 1 14 2 15 3 16 4 17 5 18 6 19 7 20 8 21 9 22 10 23 11
REMARK SMILES IDX 24 12 25 13 26 14 12 15 11 16 10 17 9 18 8 19 7 20 6 21 5 22
REMARK SMILES IDX 4 23 3 24 2 25 1 26
REMARK H PARENT
REMARK Flexibility Score: inf
ROOT
ATOM      1  C   UNL     1       5.000  21.079  16.733  1.00  0.00     0.000 C 
ENDROOT
BRANCH   1   2
ATOM      2  C   UNL     1       5.192  19.999  15.658  1.00  0.00     0.000 C 
BRANCH   2   3
ATOM      3  C   UNL     1       6.650  19.883  15.187  1.00  0.00     0.000 C 
BRANCH   3   4
ATOM      4  C   UNL     1       6.904  20.779  13.968  1.00  0.00     0.000 C 
BRANCH   4   5
ATOM      5  C   UNL     1       7.508  19.974  12.806  1.00  0.00     0.000 C 
BRANCH   5   6
ATOM      6  C   UNL     1       8.994  20.291  12.578  1.00  0.00     0.000 C 
BRANCH   6   7
ATOM      7  C   UNL     1       9.315  21.785  12.733  1.00  0.00     0.000 C 
BRANCH   7   8
ATOM      8  C   UNL     1      10.649  21.983  13.469  1.00  0.00     0.000 C 
BRANCH   8   9
ATOM      9  C   UNL     1      11.048  20.769  14.322  1.00  0.00     0.000 C 
BRANCH   9  10
ATOM     10  C   UNL     1      11.102  21.089  15.824  1.00  0.00     0.006 C 
BRANCH  10  11
ATOM     11  C   UNL     1      10.728  22.550  16.089  1.00  0.00     0.053 C 
BRANCH  11  12
ATOM     12  C   UNL     1      10.265  22.725  17.501  1.00  0.00     0.041 C 
ATOM     13  O   UNL     1      11.097  22.946  18.419  1.00  0.00    -0.550 OA
ATOM     14  O   UNL     1       8.917  22.590  17.811  1.00  0.00    -0.550 OA
ENDBRANCH  11  12
ENDBRANCH  10  11
ENDBRANCH   9  10
ENDBRANCH   8   9
ENDBRANCH   7   8
ENDBRANCH   6   7
ENDBRANCH   5   6
ENDBRANCH   4   5
ENDBRANCH   3   4
ENDBRANCH   2   3
ENDBRANCH   1   2
BRANCH   1  15
ATOM     15  C   UNL     1       3.575  21.105  17.303  1.00  0.00     0.000 C 
BRANCH  15  16
ATOM     16  C   UNL     1       2.634  20.239  16.459  1.00  0.00     0.000 C 
BRANCH  16  17
ATOM     17  C   UNL     1       1.431  21.052  15.957  1.00  0.00     0.000 C 
BRANCH  17  18
ATOM     18  C   UNL     1       0.110  20.274  16.058  1.00  0.00    -0.000 C 
BRANCH  18  19
ATOM     19  C   UNL     1      -0.410  20.179  17.501  1.00  0.00    -0.000 C 
BRANCH  19  20
ATOM     20  C   UNL     1      -1.931  19.958  17.574  1.00  0.00    -0.000 C 
BRANCH  20  21
ATOM     21  C   UNL     1      -2.631  20.056  16.202  1.00  0.00    -0.000 C 
BRANCH  21  22
ATOM     22  C   UNL     1      -4.131  20.375  16.336  1.00  0.00    -0.000 C 
BRANCH  22  23
ATOM     23  C   UNL     1      -4.829  20.539  14.977  1.00  0.00    -0.000 C 
BRANCH  23  24
ATOM     24  C   UNL     1      -6.163  21.297  15.084  1.00  0.00    -0.000 C 
BRANCH  24  25
ATOM     25  C   UNL     1      -6.859  21.076  16.436  1.00  0.00    -0.003 C 
ATOM     26  C   UNL     1      -8.367  21.314  16.373  1.00  0.00     0.004 C 
ENDBRANCH  24  25
ENDBRANCH  23  24
ENDBRANCH  22  23
ENDBRANCH  21  22
ENDBRANCH  20  21
ENDBRANCH  19  20
ENDBRANCH  18  19
ENDBRANCH  17  18
ENDBRANCH  16  17
ENDBRANCH  15  16
ENDBRANCH   1  15
TORSDOF 22
ENDMDL
