MODEL 1
REMARK VINA RESULT:    -7.663      0.000      0.000
REMARK INTER + INTRA:          -8.111
REMARK INTER:                  -8.111
REMARK INTRA:                   0.000
REMARK UNBOUND:                 0.000
REMARK SMILES O=c1ccc2cc(O)c(O)cc2o1
REMARK SMILES IDX 4 1 3 2 2 3 1 4 13 5 12 6 11 7 9 8 7 9 6 10 5 11 8 12 10 14
REMARK H PARENT 8 13 10 15
REMARK Flexibility Score: inf
ROOT
ATOM      1  C   UNL     1      37.530   0.980  17.783  1.00  0.00     0.019 A 
ATOM      2  C   UNL     1      38.613   0.658  16.966  1.00  0.00     0.094 A 
ATOM      3  C   UNL     1      38.443   0.680  15.577  1.00  0.00     0.336 A 
ATOM      4  O   UNL     1      39.409   0.392  14.822  1.00  0.00    -0.246 OA
ATOM      5  O   UNL     1      37.267   1.004  15.047  1.00  0.00    -0.423 OA
ATOM      6  C   UNL     1      36.209   1.317  15.791  1.00  0.00     0.142 A 
ATOM      7  C   UNL     1      34.996   1.650  15.178  1.00  0.00     0.098 A 
ATOM      8  C   UNL     1      33.878   1.982  15.956  1.00  0.00     0.161 A 
ATOM      9  C   UNL     1      33.973   1.981  17.356  1.00  0.00     0.158 A 
ATOM     10  C   UNL     1      35.187   1.648  17.977  1.00  0.00     0.062 A 
ATOM     11  C   UNL     1      36.305   1.317  17.200  1.00  0.00     0.022 A 
ENDROOT
BRANCH   9  12
ATOM     12  O   UNL     1      32.858   2.311  18.123  1.00  0.00    -0.504 OA
ATOM     13  H   UNL     1      31.958   2.501  17.696  1.00  0.00     0.293 HD
ENDBRANCH   9  12
BRANCH   8  14
ATOM     14  O   UNL     1      32.670   2.313  15.348  1.00  0.00    -0.504 OA
ATOM     15  H   UNL     1      31.895   2.692  15.881  1.00  0.00     0.293 HD
ENDBRANCH   8  14
TORSDOF 2
ENDMDL
MODEL 2
REMARK VINA RESULT:    -7.428      1.165      2.266
REMARK INTER + INTRA:          -7.863
REMARK INTER:                  -7.863
REMARK INTRA:                   0.000
REMARK UNBOUND:                 0.000
REMARK SMILES O=c1ccc2cc(O)c(O)cc2o1
REMARK SMILES IDX 4 1 3 2 2 3 1 4 13 5 12 6 11 7 9 8 7 9 6 10 5 11 8 12 10 14
REMARK H PARENT 8 13 10 15
REMARK Flexibility Score: inf
ROOT
ATOM      1  C   UNL     1      37.326   0.711  15.001  1.00  0.00     0.019 A 
ATOM      2  C   UNL     1      38.502   0.321  15.642  1.00  0.00     0.094 A 
ATOM      3  C   UNL     1      38.557   0.362  17.040  1.00  0.00     0.336 A 
ATOM      4  O   UNL     1      39.609   0.014  17.638  1.00  0.00    -0.246 OA
ATOM      5  O   UNL     1      37.503   0.766  17.744  1.00  0.00    -0.423 OA
ATOM      6  C   UNL     1      36.363   1.147  17.171  1.00  0.00     0.142 A 
ATOM      7  C   UNL     1      35.287   1.563  17.963  1.00  0.00     0.098 A 
ATOM      8  C   UNL     1      34.084   1.964  17.365  1.00  0.00     0.161 A 
ATOM      9  C   UNL     1      33.956   1.950  15.968  1.00  0.00     0.158 A 
ATOM     10  C   UNL     1      35.031   1.534  15.169  1.00  0.00     0.062 A 
ATOM     11  C   UNL     1      36.234   1.132  15.765  1.00  0.00     0.022 A 
ENDROOT
BRANCH   9  12
ATOM     12  O   UNL     1      32.757   2.351  15.382  1.00  0.00    -0.504 OA
ATOM     13  H   UNL     1      32.524   3.330  15.267  1.00  0.00     0.293 HD
ENDBRANCH   9  12
BRANCH   8  14
ATOM     14  O   UNL     1      33.011   2.379  18.151  1.00  0.00    -0.504 OA
ATOM     15  H   UNL     1      32.815   3.361  18.304  1.00  0.00     0.293 HD
ENDBRANCH   8  14
TORSDOF 2
ENDMDL
MODEL 3
REMARK VINA RESULT:    -7.399      2.800      3.004
REMARK INTER + INTRA:          -7.831
REMARK INTER:                  -7.831
REMARK INTRA:                   0.000
REMARK UNBOUND:                 0.000
REMARK SMILES O=c1ccc2cc(O)c(O)cc2o1
REMARK SMILES IDX 4 1 3 2 2 3 1 4 13 5 12 6 11 7 9 8 7 9 6 10 5 11 8 12 10 14
REMARK H PARENT 8 13 10 15
REMARK Flexibility Score: inf
ROOT
ATOM      1  C   UNL     1      37.728   1.463  17.731  1.00  0.00     0.019 A 
ATOM      2  C   UNL     1      38.496   2.010  16.703  1.00  0.00     0.094 A 
ATOM      3  C   UNL     1      38.472   1.401  15.443  1.00  0.00     0.336 A 
ATOM      4  O   UNL     1      39.158   1.879  14.502  1.00  0.00    -0.246 OA
ATOM      5  O   UNL     1      37.729   0.318  15.232  1.00  0.00    -0.423 OA
ATOM      6  C   UNL     1      36.983  -0.235  16.185  1.00  0.00     0.142 A 
ATOM      7  C   UNL     1      36.221  -1.374  15.905  1.00  0.00     0.098 A 
ATOM      8  C   UNL     1      35.433  -1.961  16.906  1.00  0.00     0.161 A 
ATOM      9  C   UNL     1      35.406  -1.406  18.193  1.00  0.00     0.158 A 
ATOM     10  C   UNL     1      36.168  -0.263  18.481  1.00  0.00     0.062 A 
ATOM     11  C   UNL     1      36.957   0.324  17.482  1.00  0.00     0.022 A 
ENDROOT
BRANCH   9  12
ATOM     12  O   UNL     1      34.621  -1.995  19.182  1.00  0.00    -0.504 OA
ATOM     13  H   UNL     1      34.559  -3.002  19.280  1.00  0.00     0.293 HD
ENDBRANCH   9  12
BRANCH   8  14
ATOM     14  O   UNL     1      34.673  -3.095  16.629  1.00  0.00    -0.504 OA
ATOM     15  H   UNL     1      34.688  -3.533  15.715  1.00  0.00     0.293 HD
ENDBRANCH   8  14
TORSDOF 2
ENDMDL
MODEL 4
REMARK VINA RESULT:    -7.233      3.025      3.689
REMARK INTER + INTRA:          -7.656
REMARK INTER:                  -7.656
REMARK INTRA:                   0.000
REMARK UNBOUND:                 0.000
REMARK SMILES O=c1ccc2cc(O)c(O)cc2o1
REMARK SMILES IDX 4 1 3 2 2 3 1 4 13 5 12 6 11 7 9 8 7 9 6 10 5 11 8 12 10 14
REMARK H PARENT 8 13 10 15
REMARK Flexibility Score: inf
ROOT
ATOM      1  C   UNL     1      37.762   0.374  15.156  1.00  0.00     0.019 A 
ATOM      2  C   UNL     1      38.517   1.513  15.438  1.00  0.00     0.094 A 
ATOM      3  C   UNL     1      38.472   2.051  16.729  1.00  0.00     0.336 A 
ATOM      4  O   UNL     1      39.146   3.079  17.004  1.00  0.00    -0.246 OA
ATOM      5  O   UNL     1      37.723   1.484  17.670  1.00  0.00    -0.423 OA
ATOM      6  C   UNL     1      36.988   0.398  17.442  1.00  0.00     0.142 A 
ATOM      7  C   UNL     1      36.219  -0.155  18.471  1.00  0.00     0.098 A 
ATOM      8  C   UNL     1      35.443  -1.300  18.237  1.00  0.00     0.161 A 
ATOM      9  C   UNL     1      35.438  -1.895  16.967  1.00  0.00     0.158 A 
ATOM     10  C   UNL     1      36.207  -1.345  15.931  1.00  0.00     0.062 A 
ATOM     11  C   UNL     1      36.983  -0.201  16.164  1.00  0.00     0.022 A 
ENDROOT
BRANCH   9  12
ATOM     12  O   UNL     1      34.664  -3.032  16.743  1.00  0.00    -0.504 OA
ATOM     13  H   UNL     1      35.025  -3.826  16.226  1.00  0.00     0.293 HD
ENDBRANCH   9  12
BRANCH   8  14
ATOM     14  O   UNL     1      34.676  -1.852  19.260  1.00  0.00    -0.504 OA
ATOM     15  H   UNL     1      34.908  -1.704  20.236  1.00  0.00     0.293 HD
ENDBRANCH   8  14
TORSDOF 2
ENDMDL
MODEL 5
REMARK VINA RESULT:    -7.224      1.327      1.684
REMARK INTER + INTRA:          -7.646
REMARK INTER:                  -7.646
REMARK INTRA:                   0.000
REMARK UNBOUND:                 0.000
REMARK SMILES O=c1ccc2cc(O)c(O)cc2o1
REMARK SMILES IDX 4 1 3 2 2 3 1 4 13 5 12 6 11 7 9 8 7 9 6 10 5 11 8 12 10 14
REMARK H PARENT 8 13 10 15
REMARK Flexibility Score: inf
ROOT
ATOM      1  C   UNL     1      37.613  -0.360  17.288  1.00  0.00     0.019 A 
ATOM      2  C   UNL     1      38.555   0.165  16.403  1.00  0.00     0.094 A 
ATOM      3  C   UNL     1      38.259   1.353  15.725  1.00  0.00     0.336 A 
ATOM      4  O   UNL     1      39.096   1.844  14.923  1.00  0.00    -0.246 OA
ATOM      5  O   UNL     1      37.097   1.970  15.923  1.00  0.00    -0.423 OA
ATOM      6  C   UNL     1      36.171   1.502  16.757  1.00  0.00     0.142 A 
ATOM      7  C   UNL     1      34.967   2.194  16.925  1.00  0.00     0.098 A 
ATOM      8  C   UNL     1      33.989   1.706  17.804  1.00  0.00     0.161 A 
ATOM      9  C   UNL     1      34.216   0.520  18.518  1.00  0.00     0.158 A 
ATOM     10  C   UNL     1      35.422  -0.178  18.354  1.00  0.00     0.062 A 
ATOM     11  C   UNL     1      36.400   0.309  17.476  1.00  0.00     0.022 A 
ENDROOT
BRANCH   9  12
ATOM     12  O   UNL     1      33.238   0.042  19.388  1.00  0.00    -0.504 OA
ATOM     13  H   UNL     1      33.267   0.245  20.381  1.00  0.00     0.293 HD
ENDBRANCH   9  12
BRANCH   8  14
ATOM     14  O   UNL     1      32.789   2.393  17.973  1.00  0.00    -0.504 OA
ATOM     15  H   UNL     1      32.064   2.048  18.591  1.00  0.00     0.293 HD
ENDBRANCH   8  14
TORSDOF 2
ENDMDL
MODEL 6
REMARK VINA RESULT:    -7.179      1.547      2.324
REMARK INTER + INTRA:          -7.599
REMARK INTER:                  -7.599
REMARK INTRA:                   0.000
REMARK UNBOUND:                 0.000
REMARK SMILES O=c1ccc2cc(O)c(O)cc2o1
REMARK SMILES IDX 4 1 3 2 2 3 1 4 13 5 12 6 11 7 9 8 7 9 6 10 5 11 8 12 10 14
REMARK H PARENT 8 13 10 15
REMARK Flexibility Score: inf
ROOT
ATOM      1  C   UNL     1      37.058   1.849  15.896  1.00  0.00     0.019 A 
ATOM      2  C   UNL     1      38.230   1.116  15.708  1.00  0.00     0.094 A 
ATOM      3  C   UNL     1      38.389  -0.093  16.393  1.00  0.00     0.336 A 
ATOM      4  O   UNL     1      39.440  -0.770  16.237  1.00  0.00    -0.246 OA
ATOM      5  O   UNL     1      37.437  -0.536  17.209  1.00  0.00    -0.423 OA
ATOM      6  C   UNL     1      36.305   0.132  17.416  1.00  0.00     0.142 A 
ATOM      7  C   UNL     1      35.338  -0.382  18.286  1.00  0.00     0.098 A 
ATOM      8  C   UNL     1      34.142   0.317  18.508  1.00  0.00     0.161 A 
ATOM      9  C   UNL     1      33.913   1.538  17.855  1.00  0.00     0.158 A 
ATOM     10  C   UNL     1      34.879   2.059  16.981  1.00  0.00     0.062 A 
ATOM     11  C   UNL     1      36.074   1.361  16.759  1.00  0.00     0.022 A 
ENDROOT
BRANCH   9  12
ATOM     12  O   UNL     1      32.723   2.226  18.081  1.00  0.00    -0.504 OA
ATOM     13  H   UNL     1      32.602   2.824  18.891  1.00  0.00     0.293 HD
ENDBRANCH   9  12
BRANCH   8  14
ATOM     14  O   UNL     1      33.178  -0.193  19.374  1.00  0.00    -0.504 OA
ATOM     15  H   UNL     1      32.250  -0.436  19.048  1.00  0.00     0.293 HD
ENDBRANCH   8  14
TORSDOF 2
ENDMDL
MODEL 7
REMARK VINA RESULT:    -7.150      1.999      2.467
REMARK INTER + INTRA:          -7.568
REMARK INTER:                  -7.568
REMARK INTRA:                   0.000
REMARK UNBOUND:                 0.000
REMARK SMILES O=c1ccc2cc(O)c(O)cc2o1
REMARK SMILES IDX 4 1 3 2 2 3 1 4 13 5 12 6 11 7 9 8 7 9 6 10 5 11 8 12 10 14
REMARK H PARENT 8 13 10 15
REMARK Flexibility Score: inf
ROOT
ATOM      1  C   UNL     1      35.653  -1.597  15.865  1.00  0.00     0.019 A 
ATOM      2  C   UNL     1      37.045  -1.541  15.937  1.00  0.00     0.094 A 
ATOM      3  C   UNL     1      37.646  -0.434  16.547  1.00  0.00     0.336 A 
ATOM      4  O   UNL     1      38.901  -0.364  16.622  1.00  0.00    -0.246 OA
ATOM      5  O   UNL     1      36.901   0.547  17.049  1.00  0.00    -0.423 OA
ATOM      6  C   UNL     1      35.571   0.531  17.000  1.00  0.00     0.142 A 
ATOM      7  C   UNL     1      34.839   1.591  17.546  1.00  0.00     0.098 A 
ATOM      8  C   UNL     1      33.438   1.580  17.498  1.00  0.00     0.161 A 
ATOM      9  C   UNL     1      32.764   0.503  16.902  1.00  0.00     0.158 A 
ATOM     10  C   UNL     1      33.494  -0.563  16.353  1.00  0.00     0.062 A 
ATOM     11  C   UNL     1      34.894  -0.553  16.400  1.00  0.00     0.022 A 
ENDROOT
BRANCH   9  12
ATOM     12  O   UNL     1      31.372   0.500  16.858  1.00  0.00    -0.504 OA
ATOM     13  H   UNL     1      30.818   0.122  17.618  1.00  0.00     0.293 HD
ENDBRANCH   9  12
BRANCH   8  14
ATOM     14  O   UNL     1      32.706   2.634  18.040  1.00  0.00    -0.504 OA
ATOM     15  H   UNL     1      31.936   2.472  18.678  1.00  0.00     0.293 HD
ENDBRANCH   8  14
TORSDOF 2
ENDMDL
MODEL 8
REMARK VINA RESULT:    -6.787      1.879      4.913
REMARK INTER + INTRA:          -7.184
REMARK INTER:                  -7.184
REMARK INTRA:                   0.000
REMARK UNBOUND:                 0.000
REMARK SMILES O=c1ccc2cc(O)c(O)cc2o1
REMARK SMILES IDX 4 1 3 2 2 3 1 4 13 5 12 6 11 7 9 8 7 9 6 10 5 11 8 12 10 14
REMARK H PARENT 8 13 10 15
REMARK Flexibility Score: inf
ROOT
ATOM      1  C   UNL     1      36.172  -0.343  15.279  1.00  0.00     0.019 A 
ATOM      2  C   UNL     1      35.017   0.401  15.035  1.00  0.00     0.094 A 
ATOM      3  C   UNL     1      34.890   1.665  15.623  1.00  0.00     0.336 A 
ATOM      4  O   UNL     1      33.856   2.353  15.415  1.00  0.00    -0.246 OA
ATOM      5  O   UNL     1      35.855   2.147  16.401  1.00  0.00    -0.423 OA
ATOM      6  C   UNL     1      36.971   1.469  16.659  1.00  0.00     0.142 A 
ATOM      7  C   UNL     1      37.953   2.027  17.485  1.00  0.00     0.098 A 
ATOM      8  C   UNL     1      39.132   1.318  17.759  1.00  0.00     0.161 A 
ATOM      9  C   UNL     1      39.330   0.045  17.205  1.00  0.00     0.158 A 
ATOM     10  C   UNL     1      38.348  -0.520  16.376  1.00  0.00     0.062 A 
ATOM     11  C   UNL     1      37.170   0.188  16.100  1.00  0.00     0.022 A 
ENDROOT
BRANCH   9  12
ATOM     12  O   UNL     1      40.503  -0.653  17.483  1.00  0.00    -0.504 OA
ATOM     13  H   UNL     1      40.524  -1.406  18.162  1.00  0.00     0.293 HD
ENDBRANCH   9  12
BRANCH   8  14
ATOM     14  O   UNL     1      40.111   1.871  18.582  1.00  0.00    -0.504 OA
ATOM     15  H   UNL     1      40.812   2.506  18.218  1.00  0.00     0.293 HD
ENDBRANCH   8  14
TORSDOF 2
ENDMDL
MODEL 9
REMARK VINA RESULT:    -6.721      2.078      4.482
REMARK INTER + INTRA:          -7.114
REMARK INTER:                  -7.114
REMARK INTRA:                   0.000
REMARK UNBOUND:                 0.000
REMARK SMILES O=c1ccc2cc(O)c(O)cc2o1
REMARK SMILES IDX 4 1 3 2 2 3 1 4 13 5 12 6 11 7 9 8 7 9 6 10 5 11 8 12 10 14
REMARK H PARENT 8 13 10 15
REMARK Flexibility Score: inf
ROOT
ATOM      1  C   UNL     1      36.110  -1.686  17.546  1.00  0.00     0.019 A 
ATOM      2  C   UNL     1      35.121  -1.617  18.527  1.00  0.00     0.094 A 
ATOM      3  C   UNL     1      34.509  -0.385  18.786  1.00  0.00     0.336 A 
ATOM      4  O   UNL     1      33.614  -0.302  19.667  1.00  0.00    -0.246 OA
ATOM      5  O   UNL     1      34.866   0.701  18.105  1.00  0.00    -0.423 OA
ATOM      6  C   UNL     1      35.805   0.677  17.162  1.00  0.00     0.142 A 
ATOM      7  C   UNL     1      36.140   1.851  16.479  1.00  0.00     0.098 A 
ATOM      8  C   UNL     1      37.128   1.833  15.484  1.00  0.00     0.161 A 
ATOM      9  C   UNL     1      37.785   0.634  15.170  1.00  0.00     0.158 A 
ATOM     10  C   UNL     1      37.454  -0.547  15.852  1.00  0.00     0.062 A 
ATOM     11  C   UNL     1      36.466  -0.530  16.847  1.00  0.00     0.022 A 
ENDROOT
BRANCH   9  12
ATOM     12  O   UNL     1      38.766   0.624  14.181  1.00  0.00    -0.504 OA
ATOM     13  H   UNL     1      38.980   1.452  13.638  1.00  0.00     0.293 HD
ENDBRANCH   9  12
BRANCH   8  14
ATOM     14  O   UNL     1      37.463   3.000  14.802  1.00  0.00    -0.504 OA
ATOM     15  H   UNL     1      38.428   3.263  14.645  1.00  0.00     0.293 HD
ENDBRANCH   8  14
TORSDOF 2
ENDMDL
