MODEL 1
REMARK VINA RESULT:    75.774      0.000      0.000
REMARK INTER + INTRA:         123.719
REMARK INTER:                 120.071
REMARK INTRA:                   3.648
REMARK UNBOUND:                 3.648
REMARK SMILES C[C@H]1O[C@@H](O[C@H]2[C@@H](Oc3cc(O)c4c(c3)O[C@H](c3ccc(O)cc3)CC4=O)O[C@@H](CO)[C@@H](O)[C@@H]2O)[C@@H](O)[C@H](O)[C@H]1O
REMARK SMILES IDX 6 1 34 2 32 3 29 4 28 5 7 6 5 7 4 8 1 9 2 10 40 11 3 12
REMARK SMILES IDX 38 13 36 14 41 15 39 17 37 19 35 21 8 23 9 24 10 25 15 26
REMARK SMILES IDX 11 27 14 28 13 29 16 30 26 31 17 32 27 33 25 34 12 35 18 37
REMARK SMILES IDX 19 38 24 39 20 40 23 41 21 42 22 43 33 45 30 47 31 48
REMARK H PARENT 41 16 39 18 37 20 35 22 12 36 22 44 33 46 31 49
REMARK Flexibility Score: inf
ROOT
ATOM      1  C   UNL     1      15.627  61.840  21.192  1.00  0.00     0.221 C 
ATOM      2  C   UNL     1      14.666  62.894  21.745  1.00  0.00     0.181 C 
ATOM      3  C   UNL     1      13.599  63.178  20.689  1.00  0.00     0.177 C 
ATOM      4  C   UNL     1      12.877  61.870  20.272  1.00  0.00     0.179 C 
ATOM      5  O   UNL     1      13.778  60.828  19.893  1.00  0.00    -0.332 OA
ATOM      6  C   UNL     1      14.832  60.575  20.821  1.00  0.00     0.339 C 
ENDROOT
BRANCH   1   7
ATOM      7  O   UNL     1      16.604  61.533  22.181  1.00  0.00    -0.337 OA
BRANCH   7   8
ATOM      8  C   UNL     1      17.328  60.338  21.907  1.00  0.00     0.282 C 
ATOM      9  C   UNL     1      19.122  62.340  23.529  1.00  0.00     0.041 C 
ATOM     10  C   UNL     1      19.434  60.992  22.859  1.00  0.00     0.150 C 
ATOM     11  C   UNL     1      20.077  61.119  21.457  1.00  0.00     0.174 C 
ATOM     12  O   UNL     1      18.321  60.100  22.900  1.00  0.00    -0.344 OA
ATOM     13  C   UNL     1      19.021  61.436  20.394  1.00  0.00     0.179 C 
ATOM     14  C   UNL     1      17.913  60.381  20.483  1.00  0.00     0.202 C 
BRANCH  11  15
ATOM     15  O   UNL     1      21.072  62.115  21.467  1.00  0.00    -0.388 OA
ATOM     16  H   UNL     1      20.914  62.672  22.275  1.00  0.00     0.211 HD
ENDBRANCH  11  15
BRANCH  13  17
ATOM     17  O   UNL     1      19.621  61.399  19.124  1.00  0.00    -0.387 OA
ATOM     18  H   UNL     1      20.234  62.179  19.074  1.00  0.00     0.211 HD
ENDBRANCH  13  17
BRANCH  14  19
ATOM     19  O   UNL     1      16.890  60.669  19.565  1.00  0.00    -0.385 OA
ATOM     20  H   UNL     1      16.717  59.835  19.051  1.00  0.00     0.211 HD
ENDBRANCH  14  19
ENDBRANCH   7   8
ENDBRANCH   1   7
BRANCH   2  21
ATOM     21  O   UNL     1      15.366  64.079  22.030  1.00  0.00    -0.387 OA
ATOM     22  H   UNL     1      15.569  64.063  23.003  1.00  0.00     0.211 HD
ENDBRANCH   2  21
BRANCH   6  23
ATOM     23  O   UNL     1      14.349  59.916  21.995  1.00  0.00    -0.462 OA
BRANCH  23  24
ATOM     24  C   UNL     1      15.042  58.927  22.710  1.00  0.00     0.130 A 
ATOM     25  C   UNL     1      14.834  58.692  24.082  1.00  0.00     0.093 A 
ATOM     26  C   UNL     1      15.984  58.156  22.024  1.00  0.00     0.094 A 
ATOM     27  C   UNL     1      15.583  57.719  24.760  1.00  0.00     0.133 A 
ATOM     28  C   UNL     1      16.724  57.175  22.684  1.00  0.00     0.138 A 
ATOM     29  C   UNL     1      16.541  56.954  24.059  1.00  0.00     0.102 A 
ATOM     30  O   UNL     1      17.665  56.432  21.963  1.00  0.00    -0.484 OA
ATOM     31  C   UNL     1      17.397  55.940  24.723  1.00  0.00     0.174 C 
ATOM     32  C   UNL     1      18.229  55.210  22.444  1.00  0.00     0.211 C 
ATOM     33  O   UNL     1      17.236  55.652  25.940  1.00  0.00    -0.294 OA
ATOM     34  C   UNL     1      18.508  55.272  23.963  1.00  0.00     0.131 C 
BRANCH  27  35
ATOM     35  O   UNL     1      15.376  57.521  26.125  1.00  0.00    -0.507 OA
ATOM     36  H   UNL     1      14.446  57.431  26.516  1.00  0.00     0.293 HD
ENDBRANCH  27  35
BRANCH  32  37
ATOM     37  C   UNL     1      17.371  54.039  21.995  1.00  0.00    -0.007 A 
ATOM     38  C   UNL     1      17.501  53.440  20.726  1.00  0.00     0.011 A 
ATOM     39  C   UNL     1      16.471  53.473  22.919  1.00  0.00     0.011 A 
ATOM     40  C   UNL     1      16.713  52.338  20.379  1.00  0.00     0.046 A 
ATOM     41  C   UNL     1      15.692  52.367  22.572  1.00  0.00     0.046 A 
ATOM     42  C   UNL     1      15.805  51.800  21.298  1.00  0.00     0.115 A 
BRANCH  42  43
ATOM     43  O   UNL     1      15.014  50.703  20.961  1.00  0.00    -0.508 OA
ATOM     44  H   UNL     1      14.790  49.982  21.638  1.00  0.00     0.293 HD
ENDBRANCH  42  43
ENDBRANCH  32  37
ENDBRANCH  23  24
ENDBRANCH   6  23
BRANCH   3  45
ATOM     45  O   UNL     1      12.688  64.125  21.185  1.00  0.00    -0.387 OA
ATOM     46  H   UNL     1      11.965  64.211  20.511  1.00  0.00     0.211 HD
ENDBRANCH   3  45
BRANCH   4  47
ATOM     47  C   UNL     1      11.798  61.395  21.273  1.00  0.00     0.191 C 
BRANCH  47  48
ATOM     48  O   UNL     1      10.683  62.242  21.234  1.00  0.00    -0.394 OA
ATOM     49  H   UNL     1      10.840  62.959  21.900  1.00  0.00     0.210 HD
ENDBRANCH  47  48
ENDBRANCH   4  47
TORSDOF 14
ENDMDL
