MODEL 1
REMARK VINA RESULT:    -2.789      0.000      0.000
REMARK INTER + INTRA:          -2.789
REMARK INTER:                  -2.789
REMARK INTRA:                   0.000
REMARK UNBOUND:                 0.000
REMARK SMILES Cc1cc2cc3c(C)cc(=O)oc3c(C)c2o1
REMARK SMILES IDX 8 1 7 2 9 3 10 4 11 5 12 6 13 7 6 8 5 9 4 10 3 11 2 12 17 13
REMARK SMILES IDX 16 14 14 15 15 16 1 17
REMARK H PARENT
REMARK Flexibility Score: inf
ROOT
ATOM      1  C   UNL     1      21.081  25.139  15.124  1.00  0.00     0.045 C 
ATOM      2  C   UNL     1      21.084  23.831  14.374  1.00  0.00    -0.033 A 
ATOM      3  C   UNL     1      21.068  22.630  15.094  1.00  0.00     0.098 A 
ATOM      4  C   UNL     1      21.068  21.415  14.406  1.00  0.00     0.336 A 
ATOM      5  O   UNL     1      21.052  20.331  15.047  1.00  0.00    -0.246 OA
ATOM      6  O   UNL     1      21.085  21.389  13.079  1.00  0.00    -0.422 OA
ATOM      7  C   UNL     1      21.102  22.492  12.335  1.00  0.00     0.145 A 
ATOM      8  C   UNL     1      21.099  23.778  12.962  1.00  0.00     0.022 A 
ATOM      9  C   UNL     1      21.109  24.946  12.162  1.00  0.00     0.024 A 
ATOM     10  C   UNL     1      21.115  24.793  10.780  1.00  0.00     0.022 A 
ATOM     11  C   UNL     1      21.113  25.734   9.777  1.00  0.00     0.054 A 
ATOM     12  C   UNL     1      21.113  24.985   8.606  1.00  0.00     0.102 A 
ATOM     13  O   UNL     1      21.118  23.692   8.876  1.00  0.00    -0.461 OA
ATOM     14  C   UNL     1      21.118  23.563  10.181  1.00  0.00     0.140 A 
ATOM     15  C   UNL     1      21.122  22.379  10.924  1.00  0.00     0.036 A 
ATOM     16  C   UNL     1      21.098  21.037  10.248  1.00  0.00     0.052 C 
ATOM     17  C   UNL     1      21.124  25.547   7.225  1.00  0.00     0.087 C 
ENDROOT
TORSDOF 0
ENDMDL
MODEL 2
REMARK VINA RESULT:    -1.858     15.219     17.542
REMARK INTER + INTRA:          -1.858
REMARK INTER:                  -1.858
REMARK INTRA:                   0.000
REMARK UNBOUND:                 0.000
REMARK SMILES Cc1cc2cc3c(C)cc(=O)oc3c(C)c2o1
REMARK SMILES IDX 8 1 7 2 9 3 10 4 11 5 12 6 13 7 6 8 5 9 4 10 3 11 2 12 17 13
REMARK SMILES IDX 16 14 14 15 15 16 1 17
REMARK H PARENT
REMARK Flexibility Score: inf
ROOT
ATOM      1  C   UNL     1      10.730  19.875  -0.417  1.00  0.00     0.045 C 
ATOM      2  C   UNL     1      10.773  20.516  -1.780  1.00  0.00    -0.033 A 
ATOM      3  C   UNL     1      10.137  19.881  -2.855  1.00  0.00     0.098 A 
ATOM      4  C   UNL     1      10.170  20.470  -4.120  1.00  0.00     0.336 A 
ATOM      5  O   UNL     1       9.599  19.905  -5.089  1.00  0.00    -0.246 OA
ATOM      6  O   UNL     1      10.799  21.623  -4.313  1.00  0.00    -0.422 OA
ATOM      7  C   UNL     1      11.423  22.277  -3.337  1.00  0.00     0.145 A 
ATOM      8  C   UNL     1      11.433  21.743  -2.009  1.00  0.00     0.022 A 
ATOM      9  C   UNL     1      12.093  22.452  -0.976  1.00  0.00     0.024 A 
ATOM     10  C   UNL     1      12.708  23.656  -1.297  1.00  0.00     0.022 A 
ATOM     11  C   UNL     1      13.400  24.546  -0.507  1.00  0.00     0.054 A 
ATOM     12  C   UNL     1      13.769  25.562  -1.380  1.00  0.00     0.102 A 
ATOM     13  O   UNL     1      13.340  25.310  -2.603  1.00  0.00    -0.461 OA
ATOM     14  C   UNL     1      12.699  24.166  -2.568  1.00  0.00     0.140 A 
ATOM     15  C   UNL     1      12.073  23.501  -3.626  1.00  0.00     0.036 A 
ATOM     16  C   UNL     1      12.050  24.091  -5.008  1.00  0.00     0.052 C 
ATOM     17  C   UNL     1      14.558  26.772  -1.008  1.00  0.00     0.087 C 
ENDROOT
TORSDOF 0
ENDMDL
MODEL 3
REMARK VINA RESULT:    -0.528     14.945     17.276
REMARK INTER + INTRA:          -0.528
REMARK INTER:                  -0.528
REMARK INTRA:                   0.000
REMARK UNBOUND:                 0.000
REMARK SMILES Cc1cc2cc3c(C)cc(=O)oc3c(C)c2o1
REMARK SMILES IDX 8 1 7 2 9 3 10 4 11 5 12 6 13 7 6 8 5 9 4 10 3 11 2 12 17 13
REMARK SMILES IDX 16 14 14 15 15 16 1 17
REMARK H PARENT
REMARK Flexibility Score: inf
ROOT
ATOM      1  C   UNL     1      12.434  20.312  -4.700  1.00  0.00     0.045 C 
ATOM      2  C   UNL     1      11.511  20.794  -3.611  1.00  0.00    -0.033 A 
ATOM      3  C   UNL     1      10.338  20.077  -3.341  1.00  0.00     0.098 A 
ATOM      4  C   UNL     1       9.479  20.516  -2.332  1.00  0.00     0.336 A 
ATOM      5  O   UNL     1       8.424  19.875  -2.084  1.00  0.00    -0.246 OA
ATOM      6  O   UNL     1       9.764  21.605  -1.628  1.00  0.00    -0.422 OA
ATOM      7  C   UNL     1      10.859  22.332  -1.833  1.00  0.00     0.145 A 
ATOM      8  C   UNL     1      11.793  21.948  -2.847  1.00  0.00     0.022 A 
ATOM      9  C   UNL     1      12.961  22.723  -3.051  1.00  0.00     0.024 A 
ATOM     10  C   UNL     1      13.156  23.837  -2.243  1.00  0.00     0.022 A 
ATOM     11  C   UNL     1      14.186  24.750  -2.212  1.00  0.00     0.054 A 
ATOM     12  C   UNL     1      13.833  25.628  -1.195  1.00  0.00     0.102 A 
ATOM     13  O   UNL     1      12.680  25.282  -0.654  1.00  0.00    -0.461 OA
ATOM     14  C   UNL     1      12.262  24.205  -1.275  1.00  0.00     0.140 A 
ATOM     15  C   UNL     1      11.088  23.482  -1.041  1.00  0.00     0.036 A 
ATOM     16  C   UNL     1      10.132  23.885   0.046  1.00  0.00     0.052 C 
ATOM     17  C   UNL     1      14.628  26.817  -0.771  1.00  0.00     0.087 C 
ENDROOT
TORSDOF 0
ENDMDL
MODEL 4
REMARK VINA RESULT:    -0.263     13.992     17.112
REMARK INTER + INTRA:          -0.263
REMARK INTER:                  -0.263
REMARK INTRA:                   0.000
REMARK UNBOUND:                 0.000
REMARK SMILES Cc1cc2cc3c(C)cc(=O)oc3c(C)c2o1
REMARK SMILES IDX 8 1 7 2 9 3 10 4 11 5 12 6 13 7 6 8 5 9 4 10 3 11 2 12 17 13
REMARK SMILES IDX 16 14 14 15 15 16 1 17
REMARK H PARENT
REMARK Flexibility Score: inf
ROOT
ATOM      1  C   UNL     1      12.628  22.762   1.464  1.00  0.00     0.045 C 
ATOM      2  C   UNL     1      12.904  23.500   0.180  1.00  0.00    -0.033 A 
ATOM      3  C   UNL     1      13.731  24.631   0.205  1.00  0.00     0.098 A 
ATOM      4  C   UNL     1      13.994  25.318  -0.981  1.00  0.00     0.336 A 
ATOM      5  O   UNL     1      14.737  26.334  -0.965  1.00  0.00    -0.246 OA
ATOM      6  O   UNL     1      13.468  24.911  -2.130  1.00  0.00    -0.422 OA
ATOM      7  C   UNL     1      12.674  23.847  -2.224  1.00  0.00     0.145 A 
ATOM      8  C   UNL     1      12.358  23.085  -1.055  1.00  0.00     0.022 A 
ATOM      9  C   UNL     1      11.520  21.949  -1.167  1.00  0.00     0.024 A 
ATOM     10  C   UNL     1      11.037  21.613  -2.426  1.00  0.00     0.022 A 
ATOM     11  C   UNL     1      10.227  20.575  -2.826  1.00  0.00     0.054 A 
ATOM     12  C   UNL     1      10.095  20.753  -4.198  1.00  0.00     0.102 A 
ATOM     13  O   UNL     1      10.766  21.816  -4.600  1.00  0.00    -0.461 OA
ATOM     14  C   UNL     1      11.339  22.343  -3.544  1.00  0.00     0.140 A 
ATOM     15  C   UNL     1      12.150  23.480  -3.487  1.00  0.00     0.036 A 
ATOM     16  C   UNL     1      12.494  24.252  -4.729  1.00  0.00     0.052 C 
ATOM     17  C   UNL     1       9.293  19.883  -5.105  1.00  0.00     0.087 C 
ENDROOT
TORSDOF 0
ENDMDL
MODEL 5
REMARK VINA RESULT:    -0.205     13.307     16.710
REMARK INTER + INTRA:          -0.205
REMARK INTER:                  -0.205
REMARK INTRA:                   0.000
REMARK UNBOUND:                 0.000
REMARK SMILES Cc1cc2cc3c(C)cc(=O)oc3c(C)c2o1
REMARK SMILES IDX 8 1 7 2 9 3 10 4 11 5 12 6 13 7 6 8 5 9 4 10 3 11 2 12 17 13
REMARK SMILES IDX 16 14 14 15 15 16 1 17
REMARK H PARENT
REMARK Flexibility Score: inf
ROOT
ATOM      1  C   UNL     1      11.746  25.513  -3.380  1.00  0.00     0.045 C 
ATOM      2  C   UNL     1      11.734  24.020  -3.179  1.00  0.00    -0.033 A 
ATOM      3  C   UNL     1      11.755  23.178  -4.298  1.00  0.00     0.098 A 
ATOM      4  C   UNL     1      11.747  21.794  -4.120  1.00  0.00     0.336 A 
ATOM      5  O   UNL     1      11.767  21.032  -5.122  1.00  0.00    -0.246 OA
ATOM      6  O   UNL     1      11.718  21.269  -2.901  1.00  0.00    -0.422 OA
ATOM      7  C   UNL     1      11.695  22.010  -1.796  1.00  0.00     0.145 A 
ATOM      8  C   UNL     1      11.706  23.438  -1.891  1.00  0.00     0.022 A 
ATOM      9  C   UNL     1      11.691  24.218  -0.709  1.00  0.00     0.024 A 
ATOM     10  C   UNL     1      11.672  23.554   0.512  1.00  0.00     0.022 A 
ATOM     11  C   UNL     1      11.666  24.047   1.797  1.00  0.00     0.054 A 
ATOM     12  C   UNL     1      11.654  22.912   2.598  1.00  0.00     0.102 A 
ATOM     13  O   UNL     1      11.650  21.817   1.861  1.00  0.00    -0.461 OA
ATOM     14  C   UNL     1      11.661  22.189   0.603  1.00  0.00     0.140 A 
ATOM     15  C   UNL     1      11.662  21.373  -0.532  1.00  0.00     0.036 A 
ATOM     16  C   UNL     1      11.679  19.876  -0.412  1.00  0.00     0.052 C 
ATOM     17  C   UNL     1      11.632  22.911   4.089  1.00  0.00     0.087 C 
ENDROOT
TORSDOF 0
ENDMDL
MODEL 6
REMARK VINA RESULT:    -0.036     13.685     17.461
REMARK INTER + INTRA:          -0.036
REMARK INTER:                  -0.036
REMARK INTRA:                   0.000
REMARK UNBOUND:                 0.000
REMARK SMILES Cc1cc2cc3c(C)cc(=O)oc3c(C)c2o1
REMARK SMILES IDX 8 1 7 2 9 3 10 4 11 5 12 6 13 7 6 8 5 9 4 10 3 11 2 12 17 13
REMARK SMILES IDX 16 14 14 15 15 16 1 17
REMARK H PARENT
REMARK Flexibility Score: inf
ROOT
ATOM      1  C   UNL     1      11.527  21.204  -5.085  1.00  0.00     0.045 C 
ATOM      2  C   UNL     1      11.761  22.508  -4.366  1.00  0.00    -0.033 A 
ATOM      3  C   UNL     1      11.889  23.687  -5.111  1.00  0.00     0.098 A 
ATOM      4  C   UNL     1      12.103  24.899  -4.452  1.00  0.00     0.336 A 
ATOM      5  O   UNL     1      12.217  25.962  -5.116  1.00  0.00    -0.246 OA
ATOM      6  O   UNL     1      12.188  24.942  -3.128  1.00  0.00    -0.422 OA
ATOM      7  C   UNL     1      12.078  23.861  -2.360  1.00  0.00     0.145 A 
ATOM      8  C   UNL     1      11.853  22.580  -2.958  1.00  0.00     0.022 A 
ATOM      9  C   UNL     1      11.728  21.436  -2.133  1.00  0.00     0.024 A 
ATOM     10  C   UNL     1      11.824  21.608  -0.757  1.00  0.00     0.022 A 
ATOM     11  C   UNL     1      11.731  20.693   0.267  1.00  0.00     0.054 A 
ATOM     12  C   UNL     1      11.899  21.452   1.419  1.00  0.00     0.102 A 
ATOM     13  O   UNL     1      12.083  22.725   1.121  1.00  0.00    -0.461 OA
ATOM     14  C   UNL     1      12.039  22.833  -0.186  1.00  0.00     0.140 A 
ATOM     15  C   UNL     1      12.183  23.991  -0.955  1.00  0.00     0.036 A 
ATOM     16  C   UNL     1      12.391  25.332  -0.309  1.00  0.00     0.052 C 
ATOM     17  C   UNL     1      11.894  20.916   2.811  1.00  0.00     0.087 C 
ENDROOT
TORSDOF 0
ENDMDL
MODEL 7
REMARK VINA RESULT:     0.079      1.899      4.427
REMARK INTER + INTRA:           0.079
REMARK INTER:                   0.079
REMARK INTRA:                   0.000
REMARK UNBOUND:                 0.000
REMARK SMILES Cc1cc2cc3c(C)cc(=O)oc3c(C)c2o1
REMARK SMILES IDX 8 1 7 2 9 3 10 4 11 5 12 6 13 7 6 8 5 9 4 10 3 11 2 12 17 13
REMARK SMILES IDX 16 14 14 15 15 16 1 17
REMARK H PARENT
REMARK Flexibility Score: inf
ROOT
ATOM      1  C   UNL     1      21.125  23.899   8.646  1.00  0.00     0.045 C 
ATOM      2  C   UNL     1      21.053  23.195   9.976  1.00  0.00    -0.033 A 
ATOM      3  C   UNL     1      21.006  21.796  10.009  1.00  0.00     0.098 A 
ATOM      4  C   UNL     1      20.942  21.137  11.238  1.00  0.00     0.336 A 
ATOM      5  O   UNL     1      20.901  19.879  11.274  1.00  0.00    -0.246 OA
ATOM      6  O   UNL     1      20.924  21.824  12.373  1.00  0.00    -0.422 OA
ATOM      7  C   UNL     1      20.965  23.153  12.414  1.00  0.00     0.145 A 
ATOM      8  C   UNL     1      21.035  23.905  11.198  1.00  0.00     0.022 A 
ATOM      9  C   UNL     1      21.087  25.319  11.252  1.00  0.00     0.024 A 
ATOM     10  C   UNL     1      21.074  25.927  12.502  1.00  0.00     0.022 A 
ATOM     11  C   UNL     1      21.125  27.258  12.849  1.00  0.00     0.054 A 
ATOM     12  C   UNL     1      21.086  27.250  14.238  1.00  0.00     0.102 A 
ATOM     13  O   UNL     1      21.013  26.014  14.699  1.00  0.00    -0.461 OA
ATOM     14  C   UNL     1      21.005  25.208  13.665  1.00  0.00     0.140 A 
ATOM     15  C   UNL     1      20.939  23.812  13.667  1.00  0.00     0.036 A 
ATOM     16  C   UNL     1      20.893  23.039  14.954  1.00  0.00     0.052 C 
ATOM     17  C   UNL     1      21.105  28.462  15.107  1.00  0.00     0.087 C 
ENDROOT
TORSDOF 0
ENDMDL
