MODEL 1
REMARK VINA RESULT:    -3.150      0.000      0.000
REMARK INTER + INTRA:          -5.551
REMARK INTER:                  -4.992
REMARK INTRA:                  -0.559
REMARK UNBOUND:                -0.559
REMARK SMILES CCCCCCCCCCCC(=O)[O-]
REMARK SMILES IDX 7 1 8 2 9 3 10 4 11 5 12 6 13 7 14 8 6 9 5 10 4 11 3 12 2 13
REMARK SMILES IDX 1 14
REMARK H PARENT
REMARK Flexibility Score: inf
ROOT
ATOM      1  C   UNL     1      -6.857  21.383  15.106  1.00  0.00     0.000 C 
ENDROOT
BRANCH   1   2
ATOM      2  C   UNL     1      -5.539  20.646  14.839  1.00  0.00     0.000 C 
BRANCH   2   3
ATOM      3  C   UNL     1      -4.870  20.219  16.155  1.00  0.00     0.000 C 
BRANCH   3   4
ATOM      4  C   UNL     1      -3.380  19.875  15.984  1.00  0.00     0.006 C 
BRANCH   4   5
ATOM      5  C   UNL     1      -2.556  19.970  17.279  1.00  0.00     0.053 C 
BRANCH   5   6
ATOM      6  C   UNL     1      -1.442  20.966  17.164  1.00  0.00     0.041 C 
ATOM      7  O   UNL     1      -0.935  21.472  18.199  1.00  0.00    -0.550 OA
ATOM      8  O   UNL     1      -0.943  21.309  15.914  1.00  0.00    -0.550 OA
ENDBRANCH   5   6
ENDBRANCH   4   5
ENDBRANCH   3   4
ENDBRANCH   2   3
ENDBRANCH   1   2
BRANCH   1   9
ATOM      9  C   UNL     1      -8.036  20.399  15.159  1.00  0.00     0.000 C 
BRANCH   9  10
ATOM     10  C   UNL     1      -8.947  20.632  16.374  1.00  0.00    -0.000 C 
BRANCH  10  11
ATOM     11  C   UNL     1      -8.240  21.391  17.508  1.00  0.00    -0.000 C 
BRANCH  11  12
ATOM     12  C   UNL     1      -8.920  22.744  17.769  1.00  0.00    -0.000 C 
BRANCH  12  13
ATOM     13  C   UNL     1      -8.794  23.196  19.231  1.00  0.00    -0.003 C 
ATOM     14  C   UNL     1      -8.543  22.033  20.191  1.00  0.00     0.004 C 
ENDBRANCH  12  13
ENDBRANCH  11  12
ENDBRANCH  10  11
ENDBRANCH   9  10
ENDBRANCH   1   9
TORSDOF 10
ENDMDL
MODEL 2
REMARK VINA RESULT:    -2.583      2.885      6.181
REMARK INTER + INTRA:          -4.653
REMARK INTER:                  -4.215
REMARK INTRA:                  -0.438
REMARK UNBOUND:                -0.559
REMARK SMILES CCCCCCCCCCCC(=O)[O-]
REMARK SMILES IDX 7 1 8 2 9 3 10 4 11 5 12 6 13 7 14 8 6 9 5 10 4 11 3 12 2 13
REMARK SMILES IDX 1 14
REMARK H PARENT
REMARK Flexibility Score: inf
ROOT
ATOM      1  C   UNL     1      -5.521  21.002  15.053  1.00  0.00     0.000 C 
ENDROOT
BRANCH   1   2
ATOM      2  C   UNL     1      -7.048  21.139  15.014  1.00  0.00     0.000 C 
BRANCH   2   3
ATOM      3  C   UNL     1      -7.706  20.280  16.104  1.00  0.00     0.000 C 
BRANCH   3   4
ATOM      4  C   UNL     1      -8.861  21.003  16.820  1.00  0.00     0.006 C 
BRANCH   4   5
ATOM      5  C   UNL     1      -8.418  22.177  17.708  1.00  0.00     0.053 C 
BRANCH   5   6
ATOM      6  C   UNL     1      -8.099  21.735  19.105  1.00  0.00     0.041 C 
ATOM      7  O   UNL     1      -7.004  21.169  19.355  1.00  0.00    -0.550 OA
ATOM      8  O   UNL     1      -9.000  21.979  20.134  1.00  0.00    -0.550 OA
ENDBRANCH   5   6
ENDBRANCH   4   5
ENDBRANCH   3   4
ENDBRANCH   2   3
ENDBRANCH   1   2
BRANCH   1   9
ATOM      9  C   UNL     1      -5.093  19.885  16.016  1.00  0.00     0.000 C 
BRANCH   9  10
ATOM     10  C   UNL     1      -3.578  19.875  16.276  1.00  0.00    -0.000 C 
BRANCH  10  11
ATOM     11  C   UNL     1      -3.231  20.001  17.767  1.00  0.00    -0.000 C 
BRANCH  11  12
ATOM     12  C   UNL     1      -1.812  20.560  17.954  1.00  0.00    -0.000 C 
BRANCH  12  13
ATOM     13  C   UNL     1      -0.879  20.206  16.786  1.00  0.00    -0.003 C 
ATOM     14  C   UNL     1      -0.642  21.383  15.840  1.00  0.00     0.004 C 
ENDBRANCH  12  13
ENDBRANCH  11  12
ENDBRANCH  10  11
ENDBRANCH   9  10
ENDBRANCH   1   9
TORSDOF 10
ENDMDL
MODEL 3
REMARK VINA RESULT:    -1.827     12.064     15.333
REMARK INTER + INTRA:          -3.455
REMARK INTER:                  -2.741
REMARK INTRA:                  -0.714
REMARK UNBOUND:                -0.559
REMARK SMILES CCCCCCCCCCCC(=O)[O-]
REMARK SMILES IDX 7 1 8 2 9 3 10 4 11 5 12 6 13 7 14 8 6 9 5 10 4 11 3 12 2 13
REMARK SMILES IDX 1 14
REMARK H PARENT
REMARK Flexibility Score: inf
ROOT
ATOM      1  C   UNL     1       8.518  20.994  13.672  1.00  0.00     0.000 C 
ENDROOT
BRANCH   1   2
ATOM      2  C   UNL     1       9.081  20.015  12.633  1.00  0.00     0.000 C 
BRANCH   2   3
ATOM      3  C   UNL     1      10.607  20.147  12.522  1.00  0.00     0.000 C 
BRANCH   3   4
ATOM      4  C   UNL     1      11.068  20.593  11.123  1.00  0.00     0.006 C 
BRANCH   4   5
ATOM      5  C   UNL     1      10.983  22.109  10.882  1.00  0.00     0.053 C 
BRANCH   5   6
ATOM      6  C   UNL     1      10.943  22.445   9.422  1.00  0.00     0.041 C 
ATOM      7  O   UNL     1      10.968  21.527   8.561  1.00  0.00    -0.550 OA
ATOM      8  O   UNL     1      10.845  23.769   9.015  1.00  0.00    -0.550 OA
ENDBRANCH   5   6
ENDBRANCH   4   5
ENDBRANCH   3   4
ENDBRANCH   2   3
ENDBRANCH   1   2
BRANCH   1   9
ATOM      9  C   UNL     1       9.088  20.701  15.068  1.00  0.00     0.000 C 
BRANCH   9  10
ATOM     10  C   UNL     1       8.043  20.870  16.181  1.00  0.00    -0.000 C 
BRANCH  10  11
ATOM     11  C   UNL     1       6.877  19.878  16.055  1.00  0.00    -0.000 C 
BRANCH  11  12
ATOM     12  C   UNL     1       5.535  20.620  15.957  1.00  0.00    -0.000 C 
BRANCH  12  13
ATOM     13  C   UNL     1       4.579  19.979  14.940  1.00  0.00    -0.003 C 
ATOM     14  C   UNL     1       5.186  19.876  13.541  1.00  0.00     0.004 C 
ENDBRANCH  12  13
ENDBRANCH  11  12
ENDBRANCH  10  11
ENDBRANCH   9  10
ENDBRANCH   1   9
TORSDOF 10
ENDMDL
MODEL 4
REMARK VINA RESULT:    -1.803      3.411      6.373
REMARK INTER + INTRA:          -3.416
REMARK INTER:                  -2.954
REMARK INTRA:                  -0.462
REMARK UNBOUND:                -0.559
REMARK SMILES CCCCCCCCCCCC(=O)[O-]
REMARK SMILES IDX 7 1 8 2 9 3 10 4 11 5 12 6 13 7 14 8 6 9 5 10 4 11 3 12 2 13
REMARK SMILES IDX 1 14
REMARK H PARENT
REMARK Flexibility Score: inf
ROOT
ATOM      1  C   UNL     1      -6.751  20.058  16.991  1.00  0.00     0.000 C 
ENDROOT
BRANCH   1   2
ATOM      2  C   UNL     1      -6.985  20.739  18.345  1.00  0.00     0.000 C 
BRANCH   2   3
ATOM      3  C   UNL     1      -8.478  21.021  18.570  1.00  0.00     0.000 C 
BRANCH   3   4
ATOM      4  C   UNL     1      -8.776  21.587  19.970  1.00  0.00     0.006 C 
BRANCH   4   5
ATOM      5  C   UNL     1      -9.125  20.521  21.022  1.00  0.00     0.053 C 
BRANCH   5   6
ATOM      6  C   UNL     1      -8.191  20.562  22.193  1.00  0.00     0.041 C 
ATOM      7  O   UNL     1      -6.976  20.266  22.045  1.00  0.00    -0.550 OA
ATOM      8  O   UNL     1      -8.656  20.958  23.440  1.00  0.00    -0.550 OA
ENDBRANCH   5   6
ENDBRANCH   4   5
ENDBRANCH   3   4
ENDBRANCH   2   3
ENDBRANCH   1   2
BRANCH   1   9
ATOM      9  C   UNL     1      -7.337  20.896  15.845  1.00  0.00     0.000 C 
BRANCH   9  10
ATOM     10  C   UNL     1      -6.306  21.202  14.748  1.00  0.00    -0.000 C 
BRANCH  10  11
ATOM     11  C   UNL     1      -5.104  20.245  14.781  1.00  0.00    -0.000 C 
BRANCH  11  12
ATOM     12  C   UNL     1      -3.901  20.901  15.477  1.00  0.00    -0.000 C 
BRANCH  12  13
ATOM     13  C   UNL     1      -2.979  19.875  16.153  1.00  0.00    -0.003 C 
ATOM     14  C   UNL     1      -1.561  20.404  16.366  1.00  0.00     0.004 C 
ENDBRANCH  12  13
ENDBRANCH  11  12
ENDBRANCH  10  11
ENDBRANCH   9  10
ENDBRANCH   1   9
TORSDOF 10
ENDMDL
MODEL 5
REMARK VINA RESULT:    -1.040     12.226     14.845
REMARK INTER + INTRA:          -2.207
REMARK INTER:                  -2.368
REMARK INTRA:                   0.161
REMARK UNBOUND:                -0.559
REMARK SMILES CCCCCCCCCCCC(=O)[O-]
REMARK SMILES IDX 7 1 8 2 9 3 10 4 11 5 12 6 13 7 14 8 6 9 5 10 4 11 3 12 2 13
REMARK SMILES IDX 1 14
REMARK H PARENT
REMARK Flexibility Score: inf
ROOT
ATOM      1  C   UNL     1       8.400  20.872  13.315  1.00  0.00     0.000 C 
ENDROOT
BRANCH   1   2
ATOM      2  C   UNL     1       8.967  20.093  12.122  1.00  0.00     0.000 C 
BRANCH   2   3
ATOM      3  C   UNL     1      10.502  20.076  12.153  1.00  0.00     0.000 C 
BRANCH   3   4
ATOM      4  C   UNL     1      11.125  21.385  11.634  1.00  0.00     0.006 C 
BRANCH   4   5
ATOM      5  C   UNL     1      10.730  22.635  12.437  1.00  0.00     0.053 C 
BRANCH   5   6
ATOM      6  C   UNL     1      10.908  23.893  11.641  1.00  0.00     0.041 C 
ATOM      7  O   UNL     1      10.953  23.845  10.384  1.00  0.00    -0.550 OA
ATOM      8  O   UNL     1      10.990  25.119  12.287  1.00  0.00    -0.550 OA
ENDBRANCH   5   6
ENDBRANCH   4   5
ENDBRANCH   3   4
ENDBRANCH   2   3
ENDBRANCH   1   2
BRANCH   1   9
ATOM      9  C   UNL     1       7.460  19.992  14.152  1.00  0.00     0.000 C 
BRANCH   9  10
ATOM     10  C   UNL     1       6.008  20.035  13.651  1.00  0.00    -0.000 C 
BRANCH  10  11
ATOM     11  C   UNL     1       4.984  19.966  14.795  1.00  0.00    -0.000 C 
BRANCH  11  12
ATOM     12  C   UNL     1       5.681  20.057  16.161  1.00  0.00    -0.000 C 
BRANCH  12  13
ATOM     13  C   UNL     1       5.974  21.505  16.579  1.00  0.00    -0.003 C 
ATOM     14  C   UNL     1       7.365  21.675  17.190  1.00  0.00     0.004 C 
ENDBRANCH  12  13
ENDBRANCH  11  12
ENDBRANCH  10  11
ENDBRANCH   9  10
ENDBRANCH   1   9
TORSDOF 10
ENDMDL
MODEL 6
REMARK VINA RESULT:    -0.949     12.883     15.327
REMARK INTER + INTRA:          -2.063
REMARK INTER:                  -1.436
REMARK INTRA:                  -0.627
REMARK UNBOUND:                -0.559
REMARK SMILES CCCCCCCCCCCC(=O)[O-]
REMARK SMILES IDX 7 1 8 2 9 3 10 4 11 5 12 6 13 7 14 8 6 9 5 10 4 11 3 12 2 13
REMARK SMILES IDX 1 14
REMARK H PARENT
REMARK Flexibility Score: inf
ROOT
ATOM      1  C   UNL     1       6.368  21.101  14.051  1.00  0.00     0.000 C 
ENDROOT
BRANCH   1   2
ATOM      2  C   UNL     1       6.311  20.586  15.494  1.00  0.00     0.000 C 
BRANCH   2   3
ATOM      3  C   UNL     1       7.722  20.361  16.056  1.00  0.00     0.000 C 
BRANCH   3   4
ATOM      4  C   UNL     1       8.801  20.310  14.958  1.00  0.00     0.006 C 
BRANCH   4   5
ATOM      5  C   UNL     1       9.865  21.415  15.066  1.00  0.00     0.053 C 
BRANCH   5   6
ATOM      6  C   UNL     1      10.680  21.533  13.814  1.00  0.00     0.041 C 
ATOM      7  O   UNL     1      11.120  20.499  13.245  1.00  0.00    -0.550 OA
ATOM      8  O   UNL     1      10.927  22.782  13.259  1.00  0.00    -0.550 OA
ENDBRANCH   5   6
ENDBRANCH   4   5
ENDBRANCH   3   4
ENDBRANCH   2   3
ENDBRANCH   1   2
BRANCH   1   9
ATOM      9  C   UNL     1       5.635  20.146  13.097  1.00  0.00     0.000 C 
BRANCH   9  10
ATOM     10  C   UNL     1       6.420  19.884  11.803  1.00  0.00    -0.000 C 
BRANCH  10  11
ATOM     11  C   UNL     1       7.903  20.268  11.921  1.00  0.00    -0.000 C 
BRANCH  11  12
ATOM     12  C   UNL     1       8.674  19.875  10.651  1.00  0.00    -0.000 C 
BRANCH  12  13
ATOM     13  C   UNL     1       9.520  21.029  10.093  1.00  0.00    -0.003 C 
ATOM     14  C   UNL     1      10.464  20.584   8.976  1.00  0.00     0.004 C 
ENDBRANCH  12  13
ENDBRANCH  11  12
ENDBRANCH  10  11
ENDBRANCH   9  10
ENDBRANCH   1   9
TORSDOF 10
ENDMDL
MODEL 7
REMARK VINA RESULT:    -0.937     11.864     14.459
REMARK INTER + INTRA:          -2.045
REMARK INTER:                  -1.763
REMARK INTRA:                  -0.282
REMARK UNBOUND:                -0.559
REMARK SMILES CCCCCCCCCCCC(=O)[O-]
REMARK SMILES IDX 7 1 8 2 9 3 10 4 11 5 12 6 13 7 14 8 6 9 5 10 4 11 3 12 2 13
REMARK SMILES IDX 1 14
REMARK H PARENT
REMARK Flexibility Score: inf
ROOT
ATOM      1  C   UNL     1       5.912  21.264  15.095  1.00  0.00     0.000 C 
ENDROOT
BRANCH   1   2
ATOM      2  C   UNL     1       6.449  20.515  16.321  1.00  0.00     0.000 C 
BRANCH   2   3
ATOM      3  C   UNL     1       7.843  19.932  16.043  1.00  0.00     0.000 C 
BRANCH   3   4
ATOM      4  C   UNL     1       8.509  20.544  14.797  1.00  0.00     0.006 C 
BRANCH   4   5
ATOM      5  C   UNL     1      10.020  20.790  14.944  1.00  0.00     0.053 C 
BRANCH   5   6
ATOM      6  C   UNL     1      10.451  22.055  14.267  1.00  0.00     0.041 C 
ATOM      7  O   UNL     1      11.000  22.973  14.931  1.00  0.00    -0.550 OA
ATOM      8  O   UNL     1      10.276  22.206  12.897  1.00  0.00    -0.550 OA
ENDBRANCH   5   6
ENDBRANCH   4   5
ENDBRANCH   3   4
ENDBRANCH   2   3
ENDBRANCH   1   2
BRANCH   1   9
ATOM      9  C   UNL     1       4.761  20.489  14.437  1.00  0.00     0.000 C 
BRANCH   9  10
ATOM     10  C   UNL     1       5.149  19.900  13.072  1.00  0.00    -0.000 C 
BRANCH  10  11
ATOM     11  C   UNL     1       6.562  20.310  12.629  1.00  0.00    -0.000 C 
BRANCH  11  12
ATOM     12  C   UNL     1       6.824  19.889  11.175  1.00  0.00    -0.000 C 
BRANCH  12  13
ATOM     13  C   UNL     1       8.318  19.894  10.818  1.00  0.00    -0.003 C 
ATOM     14  C   UNL     1       8.573  20.192   9.341  1.00  0.00     0.004 C 
ENDBRANCH  12  13
ENDBRANCH  11  12
ENDBRANCH  10  11
ENDBRANCH   9  10
ENDBRANCH   1   9
TORSDOF 10
ENDMDL
MODEL 8
REMARK VINA RESULT:    -0.519     12.254     15.421
REMARK INTER + INTRA:          -1.382
REMARK INTER:                  -0.815
REMARK INTRA:                  -0.567
REMARK UNBOUND:                -0.559
REMARK SMILES CCCCCCCCCCCC(=O)[O-]
REMARK SMILES IDX 7 1 8 2 9 3 10 4 11 5 12 6 13 7 14 8 6 9 5 10 4 11 3 12 2 13
REMARK SMILES IDX 1 14
REMARK H PARENT
REMARK Flexibility Score: inf
ROOT
ATOM      1  C   UNL     1       6.002  20.754  12.706  1.00  0.00     0.000 C 
ENDROOT
BRANCH   1   2
ATOM      2  C   UNL     1       5.663  19.902  13.935  1.00  0.00     0.000 C 
BRANCH   2   3
ATOM      3  C   UNL     1       5.664  20.754  15.213  1.00  0.00     0.000 C 
BRANCH   3   4
ATOM      4  C   UNL     1       6.891  20.492  16.106  1.00  0.00     0.006 C 
BRANCH   4   5
ATOM      5  C   UNL     1       8.090  19.876  15.368  1.00  0.00     0.053 C 
BRANCH   5   6
ATOM      6  C   UNL     1       9.235  20.838  15.256  1.00  0.00     0.041 C 
ATOM      7  O   UNL     1      10.169  20.618  14.441  1.00  0.00    -0.550 OA
ATOM      8  O   UNL     1       9.252  21.991  16.028  1.00  0.00    -0.550 OA
ENDBRANCH   5   6
ENDBRANCH   4   5
ENDBRANCH   3   4
ENDBRANCH   2   3
ENDBRANCH   1   2
BRANCH   1   9
ATOM      9  C   UNL     1       6.688  19.908  11.622  1.00  0.00     0.000 C 
BRANCH   9  10
ATOM     10  C   UNL     1       8.216  19.876  11.777  1.00  0.00    -0.000 C 
BRANCH  10  11
ATOM     11  C   UNL     1       8.946  20.523  10.590  1.00  0.00    -0.000 C 
BRANCH  11  12
ATOM     12  C   UNL     1      10.446  20.191  10.622  1.00  0.00    -0.000 C 
BRANCH  12  13
ATOM     13  C   UNL     1      11.107  20.310   9.241  1.00  0.00    -0.003 C 
ATOM     14  C   UNL     1      10.772  21.625   8.536  1.00  0.00     0.004 C 
ENDBRANCH  12  13
ENDBRANCH  11  12
ENDBRANCH  10  11
ENDBRANCH   9  10
ENDBRANCH   1   9
TORSDOF 10
ENDMDL
