MODEL 1
REMARK VINA RESULT:    -4.902      0.000      0.000
REMARK INTER + INTRA:          -8.715
REMARK INTER:                  -7.194
REMARK INTRA:                  -1.521
REMARK UNBOUND:                -1.521
REMARK SMILES Cc1cc2c(C(C)C)c(O)c(O)c(C=O)c2c(O)c1-c1c(C)cc2c(C(C)C)c(O)c(O)c(C=O)c2c1O
REMARK SMILES IDX 1 1 2 2 3 3 4 4 16 5 13 6 11 7 9 8 5 9 17 10 19 11 20 12
REMARK SMILES IDX 37 13 21 14 36 15 23 16 22 17 24 18 33 19 25 20 31 21 29 22
REMARK SMILES IDX 38 23 34 25 35 26 26 27 27 28 28 29 32 30 30 32 18 34 6 36
REMARK SMILES IDX 7 37 8 38 14 39 15 40 10 41 12 43
REMARK H PARENT 38 24 32 31 30 33 18 35 10 42 12 44
REMARK Flexibility Score: inf
ROOT
ATOM      1  C   UNL     1      19.228   1.606 -26.264  1.00  0.00     0.045 C 
ATOM      2  C   UNL     1      18.999   0.271 -26.930  1.00  0.00    -0.039 A 
ATOM      3  C   UNL     1      17.778   0.017 -27.558  1.00  0.00     0.013 A 
ATOM      4  C   UNL     1      17.515  -1.211 -28.203  1.00  0.00    -0.006 A 
ATOM      5  C   UNL     1      18.468  -2.264 -28.081  1.00  0.00     0.039 A 
ATOM      6  C   UNL     1      18.109  -3.572 -28.517  1.00  0.00     0.072 A 
ATOM      7  C   UNL     1      16.854  -3.798 -29.114  1.00  0.00     0.169 A 
ATOM      8  C   UNL     1      15.945  -2.735 -29.292  1.00  0.00     0.162 A 
ATOM      9  C   UNL     1      16.308  -1.417 -28.936  1.00  0.00     0.008 A 
ATOM     10  C   UNL     1      19.758  -1.961 -27.552  1.00  0.00     0.132 A 
ATOM     11  C   UNL     1      20.012  -0.700 -26.972  1.00  0.00     0.031 A 
ENDROOT
BRANCH  11  12
ATOM     12  C   UNL     1      21.349  -0.394 -26.400  1.00  0.00     0.031 A 
ATOM     13  C   UNL     1      21.659  -0.775 -25.077  1.00  0.00     0.132 A 
ATOM     14  C   UNL     1      22.321   0.240 -27.193  1.00  0.00    -0.039 A 
ATOM     15  C   UNL     1      22.917  -0.433 -24.504  1.00  0.00     0.039 A 
ATOM     16  C   UNL     1      23.596   0.466 -26.671  1.00  0.00     0.013 A 
ATOM     17  C   UNL     1      22.038   0.593 -28.633  1.00  0.00     0.045 C 
ATOM     18  C   UNL     1      23.915   0.170 -25.327  1.00  0.00    -0.006 A 
ATOM     19  C   UNL     1      23.232  -0.726 -23.147  1.00  0.00     0.072 A 
ATOM     20  C   UNL     1      25.221   0.420 -24.800  1.00  0.00     0.008 A 
ATOM     21  C   UNL     1      24.561  -0.649 -22.704  1.00  0.00     0.169 A 
ATOM     22  C   UNL     1      25.564  -0.152 -23.554  1.00  0.00     0.162 A 
BRANCH  13  23
ATOM     23  O   UNL     1      20.740  -1.542 -24.351  1.00  0.00    -0.507 OA
ATOM     24  H   UNL     1      19.740  -1.385 -24.361  1.00  0.00     0.293 HD
ENDBRANCH  13  23
BRANCH  19  25
ATOM     25  C   UNL     1      22.204  -1.039 -22.130  1.00  0.00     0.264 C 
ATOM     26  O   UNL     1      22.038  -2.221 -21.724  1.00  0.00    -0.298 OA
ENDBRANCH  19  25
BRANCH  20  27
ATOM     27  C   UNL     1      26.268   1.235 -25.581  1.00  0.00     0.017 C 
ATOM     28  C   UNL     1      27.342   0.320 -26.178  1.00  0.00     0.012 C 
ATOM     29  C   UNL     1      26.898   2.379 -24.763  1.00  0.00     0.012 C 
ENDBRANCH  20  27
BRANCH  21  30
ATOM     30  O   UNL     1      24.848  -1.030 -21.388  1.00  0.00    -0.504 OA
ATOM     31  H   UNL     1      25.748  -0.905 -20.944  1.00  0.00     0.293 HD
ENDBRANCH  21  30
BRANCH  22  32
ATOM     32  O   UNL     1      26.910  -0.220 -23.183  1.00  0.00    -0.504 OA
ATOM     33  H   UNL     1      27.460  -1.067 -23.194  1.00  0.00     0.293 HD
ENDBRANCH  22  32
ENDBRANCH  11  12
BRANCH  10  34
ATOM     34  O   UNL     1      20.794  -2.899 -27.638  1.00  0.00    -0.507 OA
ATOM     35  H   UNL     1      21.741  -2.669 -27.912  1.00  0.00     0.293 HD
ENDBRANCH  10  34
BRANCH   9  36
ATOM     36  C   UNL     1      15.399  -0.240 -29.331  1.00  0.00     0.017 C 
ATOM     37  C   UNL     1      14.110  -0.236 -28.502  1.00  0.00     0.012 C 
ATOM     38  C   UNL     1      15.096  -0.171 -30.840  1.00  0.00     0.012 C 
ENDBRANCH   9  36
BRANCH   6  39
ATOM     39  C   UNL     1      18.962  -4.753 -28.247  1.00  0.00     0.264 C 
ATOM     40  O   UNL     1      19.626  -5.300 -29.167  1.00  0.00    -0.298 OA
ENDBRANCH   6  39
BRANCH   8  41
ATOM     41  O   UNL     1      14.658  -2.967 -29.784  1.00  0.00    -0.504 OA
ATOM     42  H   UNL     1      14.371  -3.798 -30.280  1.00  0.00     0.293 HD
ENDBRANCH   8  41
BRANCH   7  43
ATOM     43  O   UNL     1      16.534  -5.101 -29.517  1.00  0.00    -0.504 OA
ATOM     44  H   UNL     1      16.281  -5.367 -30.457  1.00  0.00     0.293 HD
ENDBRANCH   7  43
TORSDOF 11
ENDMDL
MODEL 2
REMARK VINA RESULT:    -4.867      6.941      9.309
REMARK INTER + INTRA:          -8.663
REMARK INTER:                  -7.430
REMARK INTRA:                  -1.233
REMARK UNBOUND:                -1.521
REMARK SMILES Cc1cc2c(C(C)C)c(O)c(O)c(C=O)c2c(O)c1-c1c(C)cc2c(C(C)C)c(O)c(O)c(C=O)c2c1O
REMARK SMILES IDX 1 1 2 2 3 3 4 4 16 5 13 6 11 7 9 8 5 9 17 10 19 11 20 12
REMARK SMILES IDX 37 13 21 14 36 15 23 16 22 17 24 18 33 19 25 20 31 21 29 22
REMARK SMILES IDX 38 23 34 25 35 26 26 27 27 28 28 29 32 30 30 32 18 34 6 36
REMARK SMILES IDX 7 37 8 38 14 39 15 40 10 41 12 43
REMARK H PARENT 38 24 32 31 30 33 18 35 10 42 12 44
REMARK Flexibility Score: inf
ROOT
ATOM      1  C   UNL     1      20.902  -3.983 -37.563  1.00  0.00     0.045 C 
ATOM      2  C   UNL     1      19.664  -4.266 -36.748  1.00  0.00    -0.039 A 
ATOM      3  C   UNL     1      18.530  -4.784 -37.378  1.00  0.00     0.013 A 
ATOM      4  C   UNL     1      17.349  -5.074 -36.662  1.00  0.00    -0.006 A 
ATOM      5  C   UNL     1      17.270  -4.690 -35.291  1.00  0.00     0.039 A 
ATOM      6  C   UNL     1      16.010  -4.755 -34.629  1.00  0.00     0.072 A 
ATOM      7  C   UNL     1      14.880  -5.251 -35.308  1.00  0.00     0.169 A 
ATOM      8  C   UNL     1      14.985  -5.693 -36.642  1.00  0.00     0.162 A 
ATOM      9  C   UNL     1      16.238  -5.707 -37.294  1.00  0.00     0.008 A 
ATOM     10  C   UNL     1      18.463  -4.280 -34.626  1.00  0.00     0.132 A 
ATOM     11  C   UNL     1      19.649  -4.061 -35.359  1.00  0.00     0.031 A 
ENDROOT
BRANCH  11  12
ATOM     12  C   UNL     1      20.885  -3.612 -34.668  1.00  0.00     0.031 A 
ATOM     13  C   UNL     1      21.126  -2.237 -34.467  1.00  0.00     0.132 A 
ATOM     14  C   UNL     1      21.797  -4.562 -34.178  1.00  0.00    -0.039 A 
ATOM     15  C   UNL     1      22.336  -1.797 -33.857  1.00  0.00     0.039 A 
ATOM     16  C   UNL     1      22.924  -4.136 -33.472  1.00  0.00     0.013 A 
ATOM     17  C   UNL     1      21.529  -6.041 -34.317  1.00  0.00     0.045 C 
ATOM     18  C   UNL     1      23.236  -2.766 -33.322  1.00  0.00    -0.006 A 
ATOM     19  C   UNL     1      22.650  -0.416 -33.714  1.00  0.00     0.072 A 
ATOM     20  C   UNL     1      24.401  -2.342 -32.609  1.00  0.00     0.008 A 
ATOM     21  C   UNL     1      23.688  -0.018 -32.859  1.00  0.00     0.169 A 
ATOM     22  C   UNL     1      24.510  -0.980 -32.247  1.00  0.00     0.162 A 
BRANCH  13  23
ATOM     23  O   UNL     1      20.138  -1.309 -34.819  1.00  0.00    -0.507 OA
ATOM     24  H   UNL     1      19.192  -1.326 -34.458  1.00  0.00     0.293 HD
ENDBRANCH  13  23
BRANCH  19  25
ATOM     25  C   UNL     1      21.980   0.649 -34.495  1.00  0.00     0.264 C 
ATOM     26  O   UNL     1      21.139   1.414 -33.952  1.00  0.00    -0.298 OA
ENDBRANCH  19  25
BRANCH  20  27
ATOM     27  C   UNL     1      25.495  -3.336 -32.180  1.00  0.00     0.017 C 
ATOM     28  C   UNL     1      25.754  -4.375 -33.276  1.00  0.00     0.012 C 
ATOM     29  C   UNL     1      25.221  -4.012 -30.822  1.00  0.00     0.012 C 
ENDBRANCH  20  27
BRANCH  21  30
ATOM     30  O   UNL     1      23.911   1.352 -32.673  1.00  0.00    -0.504 OA
ATOM     31  H   UNL     1      24.007   1.793 -31.769  1.00  0.00     0.293 HD
ENDBRANCH  21  30
BRANCH  22  32
ATOM     32  O   UNL     1      25.439  -0.606 -31.273  1.00  0.00    -0.504 OA
ATOM     33  H   UNL     1      25.200  -0.144 -30.407  1.00  0.00     0.293 HD
ENDBRANCH  22  32
ENDBRANCH  11  12
BRANCH  10  34
ATOM     34  O   UNL     1      18.478  -4.128 -33.234  1.00  0.00    -0.507 OA
ATOM     35  H   UNL     1      18.599  -3.239 -32.765  1.00  0.00     0.293 HD
ENDBRANCH  10  34
BRANCH   9  36
ATOM     36  C   UNL     1      16.378  -6.388 -38.668  1.00  0.00     0.017 C 
ATOM     37  C   UNL     1      15.419  -5.771 -39.690  1.00  0.00     0.012 C 
ATOM     38  C   UNL     1      16.232  -7.922 -38.615  1.00  0.00     0.012 C 
ENDBRANCH   9  36
BRANCH   6  39
ATOM     39  C   UNL     1      15.803  -4.192 -33.274  1.00  0.00     0.264 C 
ATOM     40  O   UNL     1      15.670  -4.943 -32.272  1.00  0.00    -0.298 OA
ENDBRANCH   6  39
BRANCH   8  41
ATOM     41  O   UNL     1      13.851  -6.086 -37.358  1.00  0.00    -0.504 OA
ATOM     42  H   UNL     1      13.315  -6.922 -37.177  1.00  0.00     0.293 HD
ENDBRANCH   8  41
BRANCH   7  43
ATOM     43  O   UNL     1      13.657  -5.286 -34.626  1.00  0.00    -0.504 OA
ATOM     44  H   UNL     1      13.559  -5.299 -33.621  1.00  0.00     0.293 HD
ENDBRANCH   7  43
TORSDOF 11
ENDMDL
MODEL 3
REMARK VINA RESULT:    -4.800      0.795      8.995
REMARK INTER + INTRA:          -8.565
REMARK INTER:                  -7.214
REMARK INTRA:                  -1.350
REMARK UNBOUND:                -1.521
REMARK SMILES Cc1cc2c(C(C)C)c(O)c(O)c(C=O)c2c(O)c1-c1c(C)cc2c(C(C)C)c(O)c(O)c(C=O)c2c1O
REMARK SMILES IDX 1 1 2 2 3 3 4 4 16 5 13 6 11 7 9 8 5 9 17 10 19 11 20 12
REMARK SMILES IDX 37 13 21 14 36 15 23 16 22 17 24 18 33 19 25 20 31 21 29 22
REMARK SMILES IDX 38 23 34 25 35 26 26 27 27 28 28 29 32 30 30 32 18 34 6 36
REMARK SMILES IDX 7 37 8 38 14 39 15 40 10 41 12 43
REMARK H PARENT 38 24 32 31 30 33 18 35 10 42 12 44
REMARK Flexibility Score: inf
ROOT
ATOM      1  C   UNL     1      21.979  -0.119 -28.833  1.00  0.00     0.045 C 
ATOM      2  C   UNL     1      22.094  -0.344 -27.345  1.00  0.00    -0.039 A 
ATOM      3  C   UNL     1      23.310  -0.100 -26.705  1.00  0.00     0.013 A 
ATOM      4  C   UNL     1      23.469  -0.286 -25.314  1.00  0.00    -0.006 A 
ATOM      5  C   UNL     1      22.401  -0.877 -24.579  1.00  0.00     0.039 A 
ATOM      6  C   UNL     1      22.636  -1.290 -23.235  1.00  0.00     0.072 A 
ATOM      7  C   UNL     1      23.888  -1.059 -22.633  1.00  0.00     0.169 A 
ATOM      8  C   UNL     1      24.916  -0.411 -23.349  1.00  0.00     0.162 A 
ATOM      9  C   UNL     1      24.682   0.074 -24.655  1.00  0.00     0.008 A 
ATOM     10  C   UNL     1      21.127  -1.007 -25.206  1.00  0.00     0.132 A 
ATOM     11  C   UNL     1      20.983  -0.749 -26.587  1.00  0.00     0.031 A 
ENDROOT
BRANCH  11  12
ATOM     12  C   UNL     1      19.660  -0.908 -27.245  1.00  0.00     0.031 A 
ATOM     13  C   UNL     1      19.283  -2.153 -27.789  1.00  0.00     0.132 A 
ATOM     14  C   UNL     1      18.767   0.176 -27.289  1.00  0.00    -0.039 A 
ATOM     15  C   UNL     1      18.041  -2.296 -28.472  1.00  0.00     0.039 A 
ATOM     16  C   UNL     1      17.500   0.003 -27.850  1.00  0.00     0.013 A 
ATOM     17  C   UNL     1      19.118   1.499 -26.652  1.00  0.00     0.045 C 
ATOM     18  C   UNL     1      17.120  -1.206 -28.475  1.00  0.00    -0.006 A 
ATOM     19  C   UNL     1      17.665  -3.514 -29.106  1.00  0.00     0.072 A 
ATOM     20  C   UNL     1      15.825  -1.366 -29.059  1.00  0.00     0.008 A 
ATOM     21  C   UNL     1      16.335  -3.715 -29.505  1.00  0.00     0.169 A 
ATOM     22  C   UNL     1      15.401  -2.669 -29.408  1.00  0.00     0.162 A 
BRANCH  13  23
ATOM     23  O   UNL     1      20.114  -3.264 -27.601  1.00  0.00    -0.507 OA
ATOM     24  H   UNL     1      21.121  -3.207 -27.514  1.00  0.00     0.293 HD
ENDBRANCH  13  23
BRANCH  19  25
ATOM     25  C   UNL     1      18.635  -4.578 -29.449  1.00  0.00     0.264 C 
ATOM     26  O   UNL     1      18.678  -5.649 -28.786  1.00  0.00    -0.298 OA
ENDBRANCH  19  25
BRANCH  20  27
ATOM     27  C   UNL     1      14.871  -0.174 -29.256  1.00  0.00     0.017 C 
ATOM     28  C   UNL     1      13.669  -0.271 -28.311  1.00  0.00     0.012 C 
ATOM     29  C   UNL     1      14.420   0.025 -30.716  1.00  0.00     0.012 C 
ENDBRANCH  20  27
BRANCH  21  30
ATOM     30  O   UNL     1      15.981  -4.958 -30.043  1.00  0.00    -0.504 OA
ATOM     31  H   UNL     1      15.122  -5.445 -29.827  1.00  0.00     0.293 HD
ENDBRANCH  21  30
BRANCH  22  32
ATOM     32  O   UNL     1      14.044  -2.902 -29.649  1.00  0.00    -0.504 OA
ATOM     33  H   UNL     1      13.682  -3.340 -30.484  1.00  0.00     0.293 HD
ENDBRANCH  22  32
ENDBRANCH  11  12
BRANCH  10  34
ATOM     34  O   UNL     1      20.000  -1.354 -24.452  1.00  0.00    -0.507 OA
ATOM     35  H   UNL     1      19.089  -1.539 -24.852  1.00  0.00     0.293 HD
ENDBRANCH  10  34
BRANCH   9  36
ATOM     36  C   UNL     1      25.734   0.964 -25.341  1.00  0.00     0.017 C 
ATOM     37  C   UNL     1      25.094   2.228 -25.922  1.00  0.00     0.012 C 
ATOM     38  C   UNL     1      26.576   0.223 -26.398  1.00  0.00     0.012 C 
ENDBRANCH   9  36
BRANCH   6  39
ATOM     39  C   UNL     1      21.646  -2.086 -22.472  1.00  0.00     0.264 C 
ATOM     40  O   UNL     1      21.670  -3.346 -22.493  1.00  0.00    -0.298 OA
ENDBRANCH   6  39
BRANCH   8  41
ATOM     41  O   UNL     1      26.193  -0.272 -22.800  1.00  0.00    -0.504 OA
ATOM     42  H   UNL     1      27.057  -0.381 -23.311  1.00  0.00     0.293 HD
ENDBRANCH   8  41
BRANCH   7  43
ATOM     43  O   UNL     1      24.083  -1.492 -21.316  1.00  0.00    -0.504 OA
ATOM     44  H   UNL     1      24.008  -2.451 -21.009  1.00  0.00     0.293 HD
ENDBRANCH   7  43
TORSDOF 11
ENDMDL
MODEL 4
REMARK VINA RESULT:    -4.752     10.746     16.341
REMARK INTER + INTRA:          -8.494
REMARK INTER:                  -7.514
REMARK INTRA:                  -0.981
REMARK UNBOUND:                -1.521
REMARK SMILES Cc1cc2c(C(C)C)c(O)c(O)c(C=O)c2c(O)c1-c1c(C)cc2c(C(C)C)c(O)c(O)c(C=O)c2c1O
REMARK SMILES IDX 1 1 2 2 3 3 4 4 16 5 13 6 11 7 9 8 5 9 17 10 19 11 20 12
REMARK SMILES IDX 37 13 21 14 36 15 23 16 22 17 24 18 33 19 25 20 31 21 29 22
REMARK SMILES IDX 38 23 34 25 35 26 26 27 27 28 28 29 32 30 30 32 18 34 6 36
REMARK SMILES IDX 7 37 8 38 14 39 15 40 10 41 12 43
REMARK H PARENT 38 24 32 31 30 33 18 35 10 42 12 44
REMARK Flexibility Score: inf
ROOT
ATOM      1  C   UNL     1      16.548  -9.447 -34.330  1.00  0.00     0.045 C 
ATOM      2  C   UNL     1      16.740  -8.452 -35.449  1.00  0.00    -0.039 A 
ATOM      3  C   UNL     1      17.265  -7.190 -35.163  1.00  0.00     0.013 A 
ATOM      4  C   UNL     1      17.473  -6.225 -36.172  1.00  0.00    -0.006 A 
ATOM      5  C   UNL     1      16.999  -6.501 -37.488  1.00  0.00     0.039 A 
ATOM      6  C   UNL     1      16.984  -5.448 -38.449  1.00  0.00     0.072 A 
ATOM      7  C   UNL     1      17.490  -4.178 -38.114  1.00  0.00     0.169 A 
ATOM      8  C   UNL     1      18.021  -3.936 -36.830  1.00  0.00     0.162 A 
ATOM      9  C   UNL     1      18.114  -4.983 -35.886  1.00  0.00     0.008 A 
ATOM     10  C   UNL     1      16.581  -7.828 -37.801  1.00  0.00     0.132 A 
ATOM     11  C   UNL     1      16.446  -8.792 -36.779  1.00  0.00     0.031 A 
ENDROOT
BRANCH  11  12
ATOM     12  C   UNL     1      15.988 -10.168 -37.102  1.00  0.00     0.031 A 
ATOM     13  C   UNL     1      16.916 -11.229 -37.159  1.00  0.00     0.132 A 
ATOM     14  C   UNL     1      14.622 -10.420 -37.311  1.00  0.00    -0.039 A 
ATOM     15  C   UNL     1      16.493 -12.539 -37.525  1.00  0.00     0.039 A 
ATOM     16  C   UNL     1      14.190 -11.727 -37.549  1.00  0.00     0.013 A 
ATOM     17  C   UNL     1      13.600  -9.317 -37.185  1.00  0.00     0.045 C 
ATOM     18  C   UNL     1      15.100 -12.799 -37.692  1.00  0.00    -0.006 A 
ATOM     19  C   UNL     1      17.414 -13.615 -37.675  1.00  0.00     0.072 A 
ATOM     20  C   UNL     1      14.646 -14.130 -37.950  1.00  0.00     0.008 A 
ATOM     21  C   UNL     1      16.944 -14.935 -37.742  1.00  0.00     0.169 A 
ATOM     22  C   UNL     1      15.564 -15.194 -37.800  1.00  0.00     0.162 A 
BRANCH  13  23
ATOM     23  O   UNL     1      18.248 -10.996 -36.797  1.00  0.00    -0.507 OA
ATOM     24  H   UNL     1      18.775 -10.178 -37.076  1.00  0.00     0.293 HD
ENDBRANCH  13  23
BRANCH  19  25
ATOM     25  C   UNL     1      18.870 -13.412 -37.848  1.00  0.00     0.264 C 
ATOM     26  O   UNL     1      19.673 -13.680 -36.915  1.00  0.00    -0.298 OA
ENDBRANCH  19  25
BRANCH  20  27
ATOM     27  C   UNL     1      13.184 -14.430 -38.324  1.00  0.00     0.017 C 
ATOM     28  C   UNL     1      12.760 -13.636 -39.564  1.00  0.00     0.012 C 
ATOM     29  C   UNL     1      12.192 -14.223 -37.163  1.00  0.00     0.012 C 
ENDBRANCH  20  27
BRANCH  21  30
ATOM     30  O   UNL     1      17.881 -15.974 -37.798  1.00  0.00    -0.504 OA
ATOM     31  H   UNL     1      18.882 -15.838 -37.762  1.00  0.00     0.293 HD
ENDBRANCH  21  30
BRANCH  22  32
ATOM     32  O   UNL     1      15.081 -16.502 -37.704  1.00  0.00    -0.504 OA
ATOM     33  H   UNL     1      14.154 -16.788 -37.987  1.00  0.00     0.293 HD
ENDBRANCH  22  32
ENDBRANCH  11  12
BRANCH  10  34
ATOM     34  O   UNL     1      16.339  -8.197 -39.129  1.00  0.00    -0.507 OA
ATOM     35  H   UNL     1      17.026  -8.123 -39.869  1.00  0.00     0.293 HD
ENDBRANCH  10  34
BRANCH   9  36
ATOM     36  C   UNL     1      18.887  -4.762 -34.574  1.00  0.00     0.017 C 
ATOM     37  C   UNL     1      18.146  -3.787 -33.654  1.00  0.00     0.012 C 
ATOM     38  C   UNL     1      20.353  -4.334 -34.783  1.00  0.00     0.012 C 
ENDBRANCH   9  36
BRANCH   6  39
ATOM     39  C   UNL     1      16.328  -5.599 -39.769  1.00  0.00     0.264 C 
ATOM     40  O   UNL     1      15.073  -5.576 -39.877  1.00  0.00    -0.298 OA
ENDBRANCH   6  39
BRANCH   8  41
ATOM     41  O   UNL     1      18.426  -2.653 -36.453  1.00  0.00    -0.504 OA
ATOM     42  H   UNL     1      18.654  -2.374 -35.510  1.00  0.00     0.293 HD
ENDBRANCH   8  41
BRANCH   7  43
ATOM     43  O   UNL     1      17.445  -3.168 -39.082  1.00  0.00    -0.504 OA
ATOM     44  H   UNL     1      17.211  -2.203 -38.898  1.00  0.00     0.293 HD
ENDBRANCH   7  43
TORSDOF 11
ENDMDL
MODEL 5
REMARK VINA RESULT:    -4.711      5.235      6.530
REMARK INTER + INTRA:          -8.435
REMARK INTER:                  -7.027
REMARK INTRA:                  -1.408
REMARK UNBOUND:                -1.521
REMARK SMILES Cc1cc2c(C(C)C)c(O)c(O)c(C=O)c2c(O)c1-c1c(C)cc2c(C(C)C)c(O)c(O)c(C=O)c2c1O
REMARK SMILES IDX 1 1 2 2 3 3 4 4 16 5 13 6 11 7 9 8 5 9 17 10 19 11 20 12
REMARK SMILES IDX 37 13 21 14 36 15 23 16 22 17 24 18 33 19 25 20 31 21 29 22
REMARK SMILES IDX 38 23 34 25 35 26 26 27 27 28 28 29 32 30 30 32 18 34 6 36
REMARK SMILES IDX 7 37 8 38 14 39 15 40 10 41 12 43
REMARK H PARENT 38 24 32 31 30 33 18 35 10 42 12 44
REMARK Flexibility Score: inf
ROOT
ATOM      1  C   UNL     1      24.556   0.711 -27.779  1.00  0.00     0.045 C 
ATOM      2  C   UNL     1      24.944  -0.571 -28.474  1.00  0.00    -0.039 A 
ATOM      3  C   UNL     1      24.886  -0.642 -29.867  1.00  0.00     0.013 A 
ATOM      4  C   UNL     1      25.245  -1.813 -30.567  1.00  0.00    -0.006 A 
ATOM      5  C   UNL     1      25.534  -2.993 -29.821  1.00  0.00     0.039 A 
ATOM      6  C   UNL     1      25.659  -4.232 -30.514  1.00  0.00     0.072 A 
ATOM      7  C   UNL     1      25.559  -4.270 -31.918  1.00  0.00     0.169 A 
ATOM      8  C   UNL     1      25.342  -3.086 -32.651  1.00  0.00     0.162 A 
ATOM      9  C   UNL     1      25.290  -1.837 -31.994  1.00  0.00     0.008 A 
ATOM     10  C   UNL     1      25.713  -2.884 -28.411  1.00  0.00     0.132 A 
ATOM     11  C   UNL     1      25.409  -1.677 -27.745  1.00  0.00     0.031 A 
ENDROOT
BRANCH  11  12
ATOM     12  C   UNL     1      25.575  -1.571 -26.272  1.00  0.00     0.031 A 
ATOM     13  C   UNL     1      24.511  -1.917 -25.412  1.00  0.00     0.132 A 
ATOM     14  C   UNL     1      26.807  -1.165 -25.734  1.00  0.00    -0.039 A 
ATOM     15  C   UNL     1      24.645  -1.763 -24.002  1.00  0.00     0.039 A 
ATOM     16  C   UNL     1      26.978  -1.131 -24.349  1.00  0.00     0.013 A 
ATOM     17  C   UNL     1      27.983  -0.858 -26.630  1.00  0.00     0.045 C 
ATOM     18  C   UNL     1      25.911  -1.393 -23.459  1.00  0.00    -0.006 A 
ATOM     19  C   UNL     1      23.565  -2.021 -23.110  1.00  0.00     0.072 A 
ATOM     20  C   UNL     1      26.095  -1.340 -22.042  1.00  0.00     0.008 A 
ATOM     21  C   UNL     1      23.808  -2.147 -21.734  1.00  0.00     0.169 A 
ATOM     22  C   UNL     1      25.087  -1.884 -21.213  1.00  0.00     0.162 A 
BRANCH  13  23
ATOM     23  O   UNL     1      23.343  -2.469 -25.952  1.00  0.00    -0.507 OA
ATOM     24  H   UNL     1      22.972  -2.225 -26.862  1.00  0.00     0.293 HD
ENDBRANCH  13  23
BRANCH  19  25
ATOM     25  C   UNL     1      22.154  -2.089 -23.550  1.00  0.00     0.264 C 
ATOM     26  O   UNL     1      21.551  -3.194 -23.612  1.00  0.00    -0.298 OA
ENDBRANCH  19  25
BRANCH  20  27
ATOM     27  C   UNL     1      27.376  -0.767 -21.411  1.00  0.00     0.017 C 
ATOM     28  C   UNL     1      28.287  -1.890 -20.904  1.00  0.00     0.012 C 
ATOM     29  C   UNL     1      27.112   0.279 -20.311  1.00  0.00     0.012 C 
ENDBRANCH  20  27
BRANCH  21  30
ATOM     30  O   UNL     1      22.740  -2.490 -20.897  1.00  0.00    -0.504 OA
ATOM     31  H   UNL     1      22.768  -2.431 -19.888  1.00  0.00     0.293 HD
ENDBRANCH  21  30
BRANCH  22  32
ATOM     32  O   UNL     1      25.381  -2.160 -19.875  1.00  0.00    -0.504 OA
ATOM     33  H   UNL     1      26.316  -2.193 -19.494  1.00  0.00     0.293 HD
ENDBRANCH  22  32
ENDBRANCH  11  12
BRANCH  10  34
ATOM     34  O   UNL     1      26.230  -3.959 -27.679  1.00  0.00    -0.507 OA
ATOM     35  H   UNL     1      27.030  -3.890 -27.062  1.00  0.00     0.293 HD
ENDBRANCH  10  34
BRANCH   9  36
ATOM     36  C   UNL     1      25.269  -0.538 -32.819  1.00  0.00     0.017 C 
ATOM     37  C   UNL     1      23.898  -0.318 -33.466  1.00  0.00     0.012 C 
ATOM     38  C   UNL     1      26.402  -0.448 -33.859  1.00  0.00     0.012 C 
ENDBRANCH   9  36
BRANCH   6  39
ATOM     39  C   UNL     1      25.761  -5.526 -29.798  1.00  0.00     0.264 C 
ATOM     40  O   UNL     1      24.734  -6.213 -29.548  1.00  0.00    -0.298 OA
ENDBRANCH   6  39
BRANCH   8  41
ATOM     41  O   UNL     1      25.136  -3.127 -34.033  1.00  0.00    -0.504 OA
ATOM     42  H   UNL     1      25.616  -3.745 -34.670  1.00  0.00     0.293 HD
ENDBRANCH   8  41
BRANCH   7  43
ATOM     43  O   UNL     1      25.675  -5.510 -32.559  1.00  0.00    -0.504 OA
ATOM     44  H   UNL     1      24.987  -5.900 -33.187  1.00  0.00     0.293 HD
ENDBRANCH   7  43
TORSDOF 11
ENDMDL
MODEL 6
REMARK VINA RESULT:    -4.667      5.243      9.670
REMARK INTER + INTRA:          -8.371
REMARK INTER:                  -7.175
REMARK INTRA:                  -1.196
REMARK UNBOUND:                -1.521
REMARK SMILES Cc1cc2c(C(C)C)c(O)c(O)c(C=O)c2c(O)c1-c1c(C)cc2c(C(C)C)c(O)c(O)c(C=O)c2c1O
REMARK SMILES IDX 1 1 2 2 3 3 4 4 16 5 13 6 11 7 9 8 5 9 17 10 19 11 20 12
REMARK SMILES IDX 37 13 21 14 36 15 23 16 22 17 24 18 33 19 25 20 31 21 29 22
REMARK SMILES IDX 38 23 34 25 35 26 26 27 27 28 28 29 32 30 30 32 18 34 6 36
REMARK SMILES IDX 7 37 8 38 14 39 15 40 10 41 12 43
REMARK H PARENT 38 24 32 31 30 33 18 35 10 42 12 44
REMARK Flexibility Score: inf
ROOT
ATOM      1  C   UNL     1      28.226  -2.935 -26.484  1.00  0.00     0.045 C 
ATOM      2  C   UNL     1      27.010  -2.415 -25.756  1.00  0.00    -0.039 A 
ATOM      3  C   UNL     1      27.173  -1.721 -24.555  1.00  0.00     0.013 A 
ATOM      4  C   UNL     1      26.072  -1.206 -23.838  1.00  0.00    -0.006 A 
ATOM      5  C   UNL     1      24.757  -1.533 -24.281  1.00  0.00     0.039 A 
ATOM      6  C   UNL     1      23.650  -1.226 -23.437  1.00  0.00     0.072 A 
ATOM      7  C   UNL     1      23.857  -0.556 -22.216  1.00  0.00     0.169 A 
ATOM      8  C   UNL     1      25.155  -0.177 -21.820  1.00  0.00     0.162 A 
ATOM      9  C   UNL     1      26.258  -0.403 -22.674  1.00  0.00     0.008 A 
ATOM     10  C   UNL     1      24.596  -2.130 -25.566  1.00  0.00     0.132 A 
ATOM     11  C   UNL     1      25.722  -2.575 -26.291  1.00  0.00     0.031 A 
ENDROOT
BRANCH  11  12
ATOM     12  C   UNL     1      25.552  -3.218 -27.620  1.00  0.00     0.031 A 
ATOM     13  C   UNL     1      25.598  -2.440 -28.796  1.00  0.00     0.132 A 
ATOM     14  C   UNL     1      25.386  -4.611 -27.707  1.00  0.00    -0.039 A 
ATOM     15  C   UNL     1      25.379  -3.041 -30.068  1.00  0.00     0.039 A 
ATOM     16  C   UNL     1      25.294  -5.217 -28.961  1.00  0.00     0.013 A 
ATOM     17  C   UNL     1      25.405  -5.474 -26.469  1.00  0.00     0.045 C 
ATOM     18  C   UNL     1      25.256  -4.460 -30.155  1.00  0.00    -0.006 A 
ATOM     19  C   UNL     1      25.335  -2.275 -31.267  1.00  0.00     0.072 A 
ATOM     20  C   UNL     1      25.146  -5.092 -31.433  1.00  0.00     0.008 A 
ATOM     21  C   UNL     1      25.414  -2.916 -32.512  1.00  0.00     0.169 A 
ATOM     22  C   UNL     1      25.399  -4.319 -32.589  1.00  0.00     0.162 A 
BRANCH  13  23
ATOM     23  O   UNL     1      25.920  -1.080 -28.706  1.00  0.00    -0.507 OA
ATOM     24  H   UNL     1      26.004  -0.576 -27.832  1.00  0.00     0.293 HD
ENDBRANCH  13  23
BRANCH  19  25
ATOM     25  C   UNL     1      25.125  -0.809 -31.280  1.00  0.00     0.264 C 
ATOM     26  O   UNL     1      24.061  -0.315 -31.742  1.00  0.00    -0.298 OA
ENDBRANCH  19  25
BRANCH  20  27
ATOM     27  C   UNL     1      24.822  -6.590 -31.571  1.00  0.00     0.017 C 
ATOM     28  C   UNL     1      23.361  -6.872 -31.209  1.00  0.00     0.012 C 
ATOM     29  C   UNL     1      25.780  -7.507 -30.785  1.00  0.00     0.012 C 
ENDBRANCH  20  27
BRANCH  21  30
ATOM     30  O   UNL     1      25.459  -2.126 -33.667  1.00  0.00    -0.504 OA
ATOM     31  H   UNL     1      24.765  -1.431 -33.906  1.00  0.00     0.293 HD
ENDBRANCH  21  30
BRANCH  22  32
ATOM     32  O   UNL     1      25.639  -4.968 -33.803  1.00  0.00    -0.504 OA
ATOM     33  H   UNL     1      26.446  -5.547 -33.989  1.00  0.00     0.293 HD
ENDBRANCH  22  32
ENDBRANCH  11  12
BRANCH  10  34
ATOM     34  O   UNL     1      23.323  -2.244 -26.137  1.00  0.00    -0.507 OA
ATOM     35  H   UNL     1      22.840  -3.124 -26.267  1.00  0.00     0.293 HD
ENDBRANCH  10  34
BRANCH   9  36
ATOM     36  C   UNL     1      27.630   0.204 -22.329  1.00  0.00     0.017 C 
ATOM     37  C   UNL     1      28.266  -0.512 -21.134  1.00  0.00     0.012 C 
ATOM     38  C   UNL     1      27.594   1.730 -22.116  1.00  0.00     0.012 C 
ENDBRANCH   9  36
BRANCH   6  39
ATOM     39  C   UNL     1      22.279  -1.707 -23.732  1.00  0.00     0.264 C 
ATOM     40  O   UNL     1      21.415  -0.938 -24.230  1.00  0.00    -0.298 OA
ENDBRANCH   6  39
BRANCH   8  41
ATOM     41  O   UNL     1      25.384   0.391 -20.564  1.00  0.00    -0.504 OA
ATOM     42  H   UNL     1      24.807   1.101 -20.138  1.00  0.00     0.293 HD
ENDBRANCH   8  41
BRANCH   7  43
ATOM     43  O   UNL     1      22.744  -0.286 -21.409  1.00  0.00    -0.504 OA
ATOM     44  H   UNL     1      22.777   0.211 -20.531  1.00  0.00     0.293 HD
ENDBRANCH   7  43
TORSDOF 11
ENDMDL
MODEL 7
REMARK VINA RESULT:    -4.654      7.269     10.075
REMARK INTER + INTRA:          -8.351
REMARK INTER:                  -7.186
REMARK INTRA:                  -1.166
REMARK UNBOUND:                -1.521
REMARK SMILES Cc1cc2c(C(C)C)c(O)c(O)c(C=O)c2c(O)c1-c1c(C)cc2c(C(C)C)c(O)c(O)c(C=O)c2c1O
REMARK SMILES IDX 1 1 2 2 3 3 4 4 16 5 13 6 11 7 9 8 5 9 17 10 19 11 20 12
REMARK SMILES IDX 37 13 21 14 36 15 23 16 22 17 24 18 33 19 25 20 31 21 29 22
REMARK SMILES IDX 38 23 34 25 35 26 26 27 27 28 28 29 32 30 30 32 18 34 6 36
REMARK SMILES IDX 7 37 8 38 14 39 15 40 10 41 12 43
REMARK H PARENT 38 24 32 31 30 33 18 35 10 42 12 44
REMARK Flexibility Score: inf
ROOT
ATOM      1  C   UNL     1      21.971  -7.036 -29.788  1.00  0.00     0.045 C 
ATOM      2  C   UNL     1      23.108  -7.963 -30.139  1.00  0.00    -0.039 A 
ATOM      3  C   UNL     1      22.846  -9.313 -30.376  1.00  0.00     0.013 A 
ATOM      4  C   UNL     1      23.871 -10.222 -30.716  1.00  0.00    -0.006 A 
ATOM      5  C   UNL     1      25.223  -9.772 -30.672  1.00  0.00     0.039 A 
ATOM      6  C   UNL     1      26.272 -10.732 -30.774  1.00  0.00     0.072 A 
ATOM      7  C   UNL     1      25.968 -12.092 -30.978  1.00  0.00     0.169 A 
ATOM      8  C   UNL     1      24.628 -12.516 -31.089  1.00  0.00     0.162 A 
ATOM      9  C   UNL     1      23.576 -11.573 -31.066  1.00  0.00     0.008 A 
ATOM     10  C   UNL     1      25.476  -8.374 -30.553  1.00  0.00     0.132 A 
ATOM     11  C   UNL     1      24.420  -7.479 -30.279  1.00  0.00     0.031 A 
ENDROOT
BRANCH  11  12
ATOM     12  C   UNL     1      24.687  -6.025 -30.133  1.00  0.00     0.031 A 
ATOM     13  C   UNL     1      24.591  -5.170 -31.251  1.00  0.00     0.132 A 
ATOM     14  C   UNL     1      24.995  -5.494 -28.869  1.00  0.00    -0.039 A 
ATOM     15  C   UNL     1      24.902  -3.786 -31.130  1.00  0.00     0.039 A 
ATOM     16  C   UNL     1      25.180  -4.117 -28.726  1.00  0.00     0.013 A 
ATOM     17  C   UNL     1      25.033  -6.375 -27.644  1.00  0.00     0.045 C 
ATOM     18  C   UNL     1      25.171  -3.244 -29.838  1.00  0.00    -0.006 A 
ATOM     19  C   UNL     1      24.899  -2.911 -32.253  1.00  0.00     0.072 A 
ATOM     20  C   UNL     1      25.376  -1.838 -29.680  1.00  0.00     0.008 A 
ATOM     21  C   UNL     1      24.916  -1.521 -32.059  1.00  0.00     0.169 A 
ATOM     22  C   UNL     1      25.075  -0.988 -30.768  1.00  0.00     0.162 A 
BRANCH  13  23
ATOM     23  O   UNL     1      24.132  -5.684 -32.470  1.00  0.00    -0.507 OA
ATOM     24  H   UNL     1      23.325  -5.326 -32.966  1.00  0.00     0.293 HD
ENDBRANCH  13  23
BRANCH  19  25
ATOM     25  C   UNL     1      24.960  -3.393 -33.651  1.00  0.00     0.264 C 
ATOM     26  O   UNL     1      23.964  -3.278 -34.416  1.00  0.00    -0.298 OA
ENDBRANCH  19  25
BRANCH  20  27
ATOM     27  C   UNL     1      25.853  -1.232 -28.348  1.00  0.00     0.017 C 
ATOM     28  C   UNL     1      27.065  -1.994 -27.801  1.00  0.00     0.012 C 
ATOM     29  C   UNL     1      24.742  -1.114 -27.287  1.00  0.00     0.012 C 
ENDBRANCH  20  27
BRANCH  21  30
ATOM     30  O   UNL     1      24.821  -0.690 -33.182  1.00  0.00    -0.504 OA
ATOM     31  H   UNL     1      25.067   0.290 -33.185  1.00  0.00     0.293 HD
ENDBRANCH  21  30
BRANCH  22  32
ATOM     32  O   UNL     1      24.933   0.384 -30.543  1.00  0.00    -0.504 OA
ATOM     33  H   UNL     1      24.149   0.935 -30.864  1.00  0.00     0.293 HD
ENDBRANCH  22  32
ENDBRANCH  11  12
BRANCH  10  34
ATOM     34  O   UNL     1      26.768  -7.871 -30.747  1.00  0.00    -0.507 OA
ATOM     35  H   UNL     1      27.237  -7.851 -31.644  1.00  0.00     0.293 HD
ENDBRANCH  10  34
BRANCH   9  36
ATOM     36  C   UNL     1      22.141 -12.019 -31.402  1.00  0.00     0.017 C 
ATOM     37  C   UNL     1      21.486 -12.716 -30.206  1.00  0.00     0.012 C 
ATOM     38  C   UNL     1      22.044 -12.880 -32.677  1.00  0.00     0.012 C 
ENDBRANCH   9  36
BRANCH   6  39
ATOM     39  C   UNL     1      27.691 -10.375 -30.541  1.00  0.00     0.264 C 
ATOM     40  O   UNL     1      28.137 -10.217 -29.373  1.00  0.00    -0.298 OA
ENDBRANCH   6  39
BRANCH   8  41
ATOM     41  O   UNL     1      24.311 -13.873 -31.185  1.00  0.00    -0.504 OA
ATOM     42  H   UNL     1      23.767 -14.288 -31.927  1.00  0.00     0.293 HD
ENDBRANCH   8  41
BRANCH   7  43
ATOM     43  O   UNL     1      27.026 -13.005 -31.060  1.00  0.00    -0.504 OA
ATOM     44  H   UNL     1      27.276 -13.664 -30.337  1.00  0.00     0.293 HD
ENDBRANCH   7  43
TORSDOF 11
ENDMDL
MODEL 8
REMARK VINA RESULT:    -4.638      7.064     12.270
REMARK INTER + INTRA:          -8.328
REMARK INTER:                  -6.981
REMARK INTRA:                  -1.347
REMARK UNBOUND:                -1.521
REMARK SMILES Cc1cc2c(C(C)C)c(O)c(O)c(C=O)c2c(O)c1-c1c(C)cc2c(C(C)C)c(O)c(O)c(C=O)c2c1O
REMARK SMILES IDX 1 1 2 2 3 3 4 4 16 5 13 6 11 7 9 8 5 9 17 10 19 11 20 12
REMARK SMILES IDX 37 13 21 14 36 15 23 16 22 17 24 18 33 19 25 20 31 21 29 22
REMARK SMILES IDX 38 23 34 25 35 26 26 27 27 28 28 29 32 30 30 32 18 34 6 36
REMARK SMILES IDX 7 37 8 38 14 39 15 40 10 41 12 43
REMARK H PARENT 38 24 32 31 30 33 18 35 10 42 12 44
REMARK Flexibility Score: inf
ROOT
ATOM      1  C   UNL     1      21.109  -5.998 -33.257  1.00  0.00     0.045 C 
ATOM      2  C   UNL     1      21.546  -4.574 -33.501  1.00  0.00    -0.039 A 
ATOM      3  C   UNL     1      22.780  -4.141 -33.011  1.00  0.00     0.013 A 
ATOM      4  C   UNL     1      23.241  -2.823 -33.219  1.00  0.00    -0.006 A 
ATOM      5  C   UNL     1      22.358  -1.877 -33.816  1.00  0.00     0.039 A 
ATOM      6  C   UNL     1      22.719  -0.499 -33.810  1.00  0.00     0.072 A 
ATOM      7  C   UNL     1      23.957  -0.095 -33.275  1.00  0.00     0.169 A 
ATOM      8  C   UNL     1      24.853  -1.047 -32.748  1.00  0.00     0.162 A 
ATOM      9  C   UNL     1      24.550  -2.425 -32.811  1.00  0.00     0.008 A 
ATOM     10  C   UNL     1      21.158  -2.351 -34.424  1.00  0.00     0.132 A 
ATOM     11  C   UNL     1      20.755  -3.693 -34.255  1.00  0.00     0.031 A 
ENDROOT
BRANCH  11  12
ATOM     12  C   UNL     1      19.492  -4.180 -34.869  1.00  0.00     0.031 A 
ATOM     13  C   UNL     1      18.274  -4.070 -34.167  1.00  0.00     0.132 A 
ATOM     14  C   UNL     1      19.507  -4.712 -36.169  1.00  0.00    -0.039 A 
ATOM     15  C   UNL     1      17.070  -4.587 -34.726  1.00  0.00     0.039 A 
ATOM     16  C   UNL     1      18.308  -5.107 -36.766  1.00  0.00     0.013 A 
ATOM     17  C   UNL     1      20.785  -4.775 -36.969  1.00  0.00     0.045 C 
ATOM     18  C   UNL     1      17.082  -5.086 -36.063  1.00  0.00    -0.006 A 
ATOM     19  C   UNL     1      15.839  -4.570 -34.012  1.00  0.00     0.072 A 
ATOM     20  C   UNL     1      15.863  -5.507 -36.681  1.00  0.00     0.008 A 
ATOM     21  C   UNL     1      14.633  -4.808 -34.688  1.00  0.00     0.169 A 
ATOM     22  C   UNL     1      14.642  -5.198 -36.039  1.00  0.00     0.162 A 
BRANCH  13  23
ATOM     23  O   UNL     1      18.247  -3.397 -32.940  1.00  0.00    -0.507 OA
ATOM     24  H   UNL     1      17.875  -3.793 -32.086  1.00  0.00     0.293 HD
ENDBRANCH  13  23
BRANCH  19  25
ATOM     25  C   UNL     1      15.760  -4.390 -32.545  1.00  0.00     0.264 C 
ATOM     26  O   UNL     1      15.360  -3.302 -32.050  1.00  0.00    -0.298 OA
ENDBRANCH  19  25
BRANCH  20  27
ATOM     27  C   UNL     1      15.850  -6.224 -38.042  1.00  0.00     0.017 C 
ATOM     28  C   UNL     1      16.571  -7.573 -37.959  1.00  0.00     0.012 C 
ATOM     29  C   UNL     1      16.397  -5.368 -39.201  1.00  0.00     0.012 C 
ENDBRANCH  20  27
BRANCH  21  30
ATOM     30  O   UNL     1      13.434  -4.695 -33.974  1.00  0.00    -0.504 OA
ATOM     31  H   UNL     1      13.376  -4.654 -32.966  1.00  0.00     0.293 HD
ENDBRANCH  21  30
BRANCH  22  32
ATOM     32  O   UNL     1      13.451  -5.281 -36.764  1.00  0.00    -0.504 OA
ATOM     33  H   UNL     1      12.604  -4.785 -36.525  1.00  0.00     0.293 HD
ENDBRANCH  22  32
ENDBRANCH  11  12
BRANCH  10  34
ATOM     34  O   UNL     1      20.389  -1.499 -35.225  1.00  0.00    -0.507 OA
ATOM     35  H   UNL     1      19.396  -1.346 -35.096  1.00  0.00     0.293 HD
ENDBRANCH  10  34
BRANCH   9  36
ATOM     36  C   UNL     1      25.622  -3.463 -32.432  1.00  0.00     0.017 C 
ATOM     37  C   UNL     1      25.618  -4.642 -33.411  1.00  0.00     0.012 C 
ATOM     38  C   UNL     1      25.527  -3.945 -30.972  1.00  0.00     0.012 C 
ENDBRANCH   9  36
BRANCH   6  39
ATOM     39  C   UNL     1      21.774   0.563 -34.230  1.00  0.00     0.264 C 
ATOM     40  O   UNL     1      21.951   1.202 -35.302  1.00  0.00    -0.298 OA
ENDBRANCH   6  39
BRANCH   8  41
ATOM     41  O   UNL     1      26.035  -0.648 -32.119  1.00  0.00    -0.504 OA
ATOM     42  H   UNL     1      26.129   0.167 -31.531  1.00  0.00     0.293 HD
ENDBRANCH   8  41
BRANCH   7  43
ATOM     43  O   UNL     1      24.268   1.271 -33.275  1.00  0.00    -0.504 OA
ATOM     44  H   UNL     1      25.140   1.663 -32.953  1.00  0.00     0.293 HD
ENDBRANCH   7  43
TORSDOF 11
ENDMDL
MODEL 9
REMARK VINA RESULT:    -4.579      4.624      8.301
REMARK INTER + INTRA:          -8.241
REMARK INTER:                  -6.852
REMARK INTRA:                  -1.389
REMARK UNBOUND:                -1.521
REMARK SMILES Cc1cc2c(C(C)C)c(O)c(O)c(C=O)c2c(O)c1-c1c(C)cc2c(C(C)C)c(O)c(O)c(C=O)c2c1O
REMARK SMILES IDX 1 1 2 2 3 3 4 4 16 5 13 6 11 7 9 8 5 9 17 10 19 11 20 12
REMARK SMILES IDX 37 13 21 14 36 15 23 16 22 17 24 18 33 19 25 20 31 21 29 22
REMARK SMILES IDX 38 23 34 25 35 26 26 27 27 28 28 29 32 30 30 32 18 34 6 36
REMARK SMILES IDX 7 37 8 38 14 39 15 40 10 41 12 43
REMARK H PARENT 38 24 32 31 30 33 18 35 10 42 12 44
REMARK Flexibility Score: inf
ROOT
ATOM      1  C   UNL     1      20.718  -5.680 -27.377  1.00  0.00     0.045 C 
ATOM      2  C   UNL     1      21.837  -5.477 -28.368  1.00  0.00    -0.039 A 
ATOM      3  C   UNL     1      22.721  -6.526 -28.630  1.00  0.00     0.013 A 
ATOM      4  C   UNL     1      23.779  -6.393 -29.555  1.00  0.00    -0.006 A 
ATOM      5  C   UNL     1      24.034  -5.110 -30.121  1.00  0.00     0.039 A 
ATOM      6  C   UNL     1      25.236  -4.909 -30.860  1.00  0.00     0.072 A 
ATOM      7  C   UNL     1      26.121  -5.983 -31.074  1.00  0.00     0.169 A 
ATOM      8  C   UNL     1      25.826  -7.265 -30.567  1.00  0.00     0.162 A 
ATOM      9  C   UNL     1      24.606  -7.505 -29.897  1.00  0.00     0.008 A 
ATOM     10  C   UNL     1      23.061  -4.081 -29.950  1.00  0.00     0.132 A 
ATOM     11  C   UNL     1      21.974  -4.267 -29.068  1.00  0.00     0.031 A 
ENDROOT
BRANCH  11  12
ATOM     12  C   UNL     1      20.974  -3.186 -28.873  1.00  0.00     0.031 A 
ATOM     13  C   UNL     1      21.207  -2.166 -27.928  1.00  0.00     0.132 A 
ATOM     14  C   UNL     1      19.811  -3.159 -29.661  1.00  0.00    -0.039 A 
ATOM     15  C   UNL     1      20.226  -1.160 -27.695  1.00  0.00     0.039 A 
ATOM     16  C   UNL     1      18.906  -2.105 -29.519  1.00  0.00     0.013 A 
ATOM     17  C   UNL     1      19.571  -4.199 -30.728  1.00  0.00     0.045 C 
ATOM     18  C   UNL     1      19.069  -1.111 -28.528  1.00  0.00    -0.006 A 
ATOM     19  C   UNL     1      20.391  -0.164 -26.691  1.00  0.00     0.072 A 
ATOM     20  C   UNL     1      18.128  -0.044 -28.383  1.00  0.00     0.008 A 
ATOM     21  C   UNL     1      19.564   0.969 -26.685  1.00  0.00     0.169 A 
ATOM     22  C   UNL     1      18.485   1.064 -27.581  1.00  0.00     0.162 A 
BRANCH  13  23
ATOM     23  O   UNL     1      22.438  -2.116 -27.261  1.00  0.00    -0.507 OA
ATOM     24  H   UNL     1      22.733  -2.793 -26.569  1.00  0.00     0.293 HD
ENDBRANCH  13  23
BRANCH  19  25
ATOM     25  C   UNL     1      21.356  -0.294 -25.576  1.00  0.00     0.264 C 
ATOM     26  O   UNL     1      22.416   0.388 -25.559  1.00  0.00    -0.298 OA
ENDBRANCH  19  25
BRANCH  20  27
ATOM     27  C   UNL     1      16.777  -0.049 -29.121  1.00  0.00     0.017 C 
ATOM     28  C   UNL     1      15.810  -1.056 -28.490  1.00  0.00     0.012 C 
ATOM     29  C   UNL     1      16.901  -0.270 -30.641  1.00  0.00     0.012 C 
ENDBRANCH  20  27
BRANCH  21  30
ATOM     30  O   UNL     1      19.812   1.971 -25.739  1.00  0.00    -0.504 OA
ATOM     31  H   UNL     1      19.091   2.451 -25.218  1.00  0.00     0.293 HD
ENDBRANCH  21  30
BRANCH  22  32
ATOM     32  O   UNL     1      17.756   2.250 -27.695  1.00  0.00    -0.504 OA
ATOM     33  H   UNL     1      17.653   2.774 -28.552  1.00  0.00     0.293 HD
ENDBRANCH  22  32
ENDBRANCH  11  12
BRANCH  10  34
ATOM     34  O   UNL     1      23.153  -2.893 -30.683  1.00  0.00    -0.507 OA
ATOM     35  H   UNL     1      23.915  -2.233 -30.595  1.00  0.00     0.293 HD
ENDBRANCH  10  34
BRANCH   9  36
ATOM     36  C   UNL     1      24.199  -8.946 -29.540  1.00  0.00     0.017 C 
ATOM     37  C   UNL     1      25.027  -9.478 -28.365  1.00  0.00     0.012 C 
ATOM     38  C   UNL     1      24.238  -9.914 -30.738  1.00  0.00     0.012 C 
ENDBRANCH   9  36
BRANCH   6  39
ATOM     39  C   UNL     1      25.667  -3.564 -31.309  1.00  0.00     0.264 C 
ATOM     40  O   UNL     1      25.528  -3.205 -32.509  1.00  0.00    -0.298 OA
ENDBRANCH   6  39
BRANCH   8  41
ATOM     41  O   UNL     1      26.746  -8.310 -30.682  1.00  0.00    -0.504 OA
ATOM     42  H   UNL     1      27.019  -8.924 -29.928  1.00  0.00     0.293 HD
ENDBRANCH   8  41
BRANCH   7  43
ATOM     43  O   UNL     1      27.298  -5.741 -31.793  1.00  0.00    -0.504 OA
ATOM     44  H   UNL     1      27.977  -5.030 -31.564  1.00  0.00     0.293 HD
ENDBRANCH   7  43
TORSDOF 11
ENDMDL
