MODEL 1
REMARK VINA RESULT:    -7.211      0.000      0.000
REMARK INTER + INTRA:          -9.284
REMARK INTER:                  -8.897
REMARK INTRA:                  -0.387
REMARK UNBOUND:                -0.387
REMARK SMILES COc1cc(-c2oc3cc(O)cc(O)c3c(=O)c2O)ccc1O
REMARK SMILES IDX 6 1 18 2 16 3 17 4 15 5 13 6 12 7 10 8 9 9 8 10 7 11 5 12
REMARK SMILES IDX 3 13 22 14 4 15 21 16 20 17 2 18 1 19 23 20 19 22 14 24
REMARK SMILES IDX 11 26
REMARK H PARENT 23 21 19 23 14 25 11 27
REMARK Flexibility Score: inf
ROOT
ATOM      1  C   UNL     1     -15.281  -3.833  16.190  1.00  0.00     0.180 A 
ATOM      2  C   UNL     1     -14.826  -3.227  17.378  1.00  0.00     0.208 A 
ATOM      3  C   UNL     1     -15.589  -2.197  17.947  1.00  0.00     0.238 A 
ATOM      4  O   UNL     1     -15.197  -1.653  19.016  1.00  0.00    -0.285 OA
ATOM      5  C   UNL     1     -16.777  -1.777  17.315  1.00  0.00     0.111 A 
ATOM      6  C   UNL     1     -17.601  -0.743  17.822  1.00  0.00     0.134 A 
ATOM      7  C   UNL     1     -18.765  -0.377  17.128  1.00  0.00     0.093 A 
ATOM      8  C   UNL     1     -19.118  -1.021  15.941  1.00  0.00     0.123 A 
ATOM      9  C   UNL     1     -18.308  -2.044  15.435  1.00  0.00     0.094 A 
ATOM     10  C   UNL     1     -17.147  -2.424  16.113  1.00  0.00     0.146 A 
ATOM     11  O   UNL     1     -16.399  -3.402  15.613  1.00  0.00    -0.452 OA
ENDROOT
BRANCH   1  12
ATOM     12  C   UNL     1     -14.542  -4.940  15.540  1.00  0.00     0.025 A 
ATOM     13  C   UNL     1     -12.863  -5.755  13.957  1.00  0.00     0.161 A 
ATOM     14  C   UNL     1     -13.126  -7.073  14.372  1.00  0.00     0.157 A 
ATOM     15  C   UNL     1     -13.571  -4.692  14.553  1.00  0.00     0.062 A 
ATOM     16  C   UNL     1     -14.075  -7.316  15.369  1.00  0.00     0.051 A 
ATOM     17  C   UNL     1     -14.774  -6.259  15.955  1.00  0.00     0.016 A 
BRANCH  13  18
ATOM     18  O   UNL     1     -11.895  -5.538  12.963  1.00  0.00    -0.493 OA
ATOM     19  C   UNL     1     -11.989  -4.547  11.945  1.00  0.00     0.278 C 
ENDBRANCH  13  18
BRANCH  14  20
ATOM     20  O   UNL     1     -12.449  -8.155  13.808  1.00  0.00    -0.504 OA
ATOM     21  H   UNL     1     -12.813  -9.099  13.845  1.00  0.00     0.293 HD
ENDBRANCH  14  20
ENDBRANCH   1  12
BRANCH   2  22
ATOM     22  O   UNL     1     -13.620  -3.628  17.957  1.00  0.00    -0.502 OA
ATOM     23  H   UNL     1     -12.910  -4.132  17.438  1.00  0.00     0.293 HD
ENDBRANCH   2  22
BRANCH   6  24
ATOM     24  O   UNL     1     -17.274  -0.079  19.005  1.00  0.00    -0.507 OA
ATOM     25  H   UNL     1     -17.966   0.102  19.724  1.00  0.00     0.293 HD
ENDBRANCH   6  24
BRANCH   8  26
ATOM     26  O   UNL     1     -20.278  -0.638  15.271  1.00  0.00    -0.508 OA
ATOM     27  H   UNL     1     -20.752  -1.265  14.631  1.00  0.00     0.293 HD
ENDBRANCH   8  26
TORSDOF 6
ENDMDL
MODEL 2
REMARK VINA RESULT:    -7.183      1.053      2.197
REMARK INTER + INTRA:          -9.250
REMARK INTER:                  -9.000
REMARK INTRA:                  -0.249
REMARK UNBOUND:                -0.387
REMARK SMILES COc1cc(-c2oc3cc(O)cc(O)c3c(=O)c2O)ccc1O
REMARK SMILES IDX 6 1 18 2 16 3 17 4 15 5 13 6 12 7 10 8 9 9 8 10 7 11 5 12
REMARK SMILES IDX 3 13 22 14 4 15 21 16 20 17 2 18 1 19 23 20 19 22 14 24
REMARK SMILES IDX 11 26
REMARK H PARENT 23 21 19 23 14 25 11 27
REMARK Flexibility Score: inf
ROOT
ATOM      1  C   UNL     1     -15.057  -3.977  16.456  1.00  0.00     0.180 A 
ATOM      2  C   UNL     1     -14.647  -3.293  17.618  1.00  0.00     0.208 A 
ATOM      3  C   UNL     1     -15.417  -2.213  18.076  1.00  0.00     0.238 A 
ATOM      4  O   UNL     1     -15.067  -1.600  19.121  1.00  0.00    -0.285 OA
ATOM      5  C   UNL     1     -16.567  -1.822  17.358  1.00  0.00     0.111 A 
ATOM      6  C   UNL     1     -17.394  -0.743  17.750  1.00  0.00     0.134 A 
ATOM      7  C   UNL     1     -18.517  -0.410  16.977  1.00  0.00     0.093 A 
ATOM      8  C   UNL     1     -18.826  -1.132  15.823  1.00  0.00     0.123 A 
ATOM      9  C   UNL     1     -18.012  -2.201  15.431  1.00  0.00     0.094 A 
ATOM     10  C   UNL     1     -16.891  -2.549  16.189  1.00  0.00     0.146 A 
ATOM     11  O   UNL     1     -16.139  -3.571  15.796  1.00  0.00    -0.452 OA
ENDROOT
BRANCH   1  12
ATOM     12  C   UNL     1     -14.309  -5.138  15.922  1.00  0.00     0.025 A 
ATOM     13  C   UNL     1     -13.502  -7.440  16.117  1.00  0.00     0.161 A 
ATOM     14  C   UNL     1     -12.921  -7.333  14.840  1.00  0.00     0.157 A 
ATOM     15  C   UNL     1     -14.202  -6.338  16.648  1.00  0.00     0.062 A 
ATOM     16  C   UNL     1     -13.048  -6.149  14.110  1.00  0.00     0.051 A 
ATOM     17  C   UNL     1     -13.741  -5.060  14.642  1.00  0.00     0.016 A 
BRANCH  13  18
ATOM     18  O   UNL     1     -13.371  -8.647  16.823  1.00  0.00    -0.493 OA
ATOM     19  C   UNL     1     -13.160  -8.742  18.228  1.00  0.00     0.278 C 
ENDBRANCH  13  18
BRANCH  14  20
ATOM     20  O   UNL     1     -12.218  -8.400  14.278  1.00  0.00    -0.504 OA
ATOM     21  H   UNL     1     -12.317  -8.659  13.305  1.00  0.00     0.293 HD
ENDBRANCH  14  20
ENDBRANCH   1  12
BRANCH   2  22
ATOM     22  O   UNL     1     -13.477  -3.669  18.281  1.00  0.00    -0.502 OA
ATOM     23  H   UNL     1     -13.346  -3.521  19.275  1.00  0.00     0.293 HD
ENDBRANCH   2  22
BRANCH   6  24
ATOM     24  O   UNL     1     -17.111  -0.000  18.897  1.00  0.00    -0.507 OA
ATOM     25  H   UNL     1     -17.846   0.347  19.503  1.00  0.00     0.293 HD
ENDBRANCH   6  24
BRANCH   8  26
ATOM     26  O   UNL     1     -19.946  -0.781  15.073  1.00  0.00    -0.508 OA
ATOM     27  H   UNL     1     -20.013  -1.002  14.085  1.00  0.00     0.293 HD
ENDBRANCH   8  26
TORSDOF 6
ENDMDL
MODEL 3
REMARK VINA RESULT:    -6.784      1.771      2.214
REMARK INTER + INTRA:          -8.758
REMARK INTER:                  -8.357
REMARK INTRA:                  -0.401
REMARK UNBOUND:                -0.387
REMARK SMILES COc1cc(-c2oc3cc(O)cc(O)c3c(=O)c2O)ccc1O
REMARK SMILES IDX 6 1 18 2 16 3 17 4 15 5 13 6 12 7 10 8 9 9 8 10 7 11 5 12
REMARK SMILES IDX 3 13 22 14 4 15 21 16 20 17 2 18 1 19 23 20 19 22 14 24
REMARK SMILES IDX 11 26
REMARK H PARENT 23 21 19 23 14 25 11 27
REMARK Flexibility Score: inf
ROOT
ATOM      1  C   UNL     1     -15.284  -3.674  17.767  1.00  0.00     0.180 A 
ATOM      2  C   UNL     1     -14.809  -2.631  18.585  1.00  0.00     0.208 A 
ATOM      3  C   UNL     1     -15.465  -1.391  18.551  1.00  0.00     0.238 A 
ATOM      4  O   UNL     1     -15.056  -0.452  19.287  1.00  0.00    -0.285 OA
ATOM      5  C   UNL     1     -16.567  -1.208  17.691  1.00  0.00     0.111 A 
ATOM      6  C   UNL     1     -17.280   0.010  17.594  1.00  0.00     0.134 A 
ATOM      7  C   UNL     1     -18.362   0.115  16.706  1.00  0.00     0.093 A 
ATOM      8  C   UNL     1     -18.741  -0.971  15.914  1.00  0.00     0.123 A 
ATOM      9  C   UNL     1     -18.040  -2.178  16.006  1.00  0.00     0.094 A 
ATOM     10  C   UNL     1     -16.962  -2.303  16.886  1.00  0.00     0.146 A 
ATOM     11  O   UNL     1     -16.317  -3.462  16.957  1.00  0.00    -0.452 OA
ENDROOT
BRANCH   1  12
ATOM     12  C   UNL     1     -14.657  -5.016  17.762  1.00  0.00     0.025 A 
ATOM     13  C   UNL     1     -13.002  -6.604  16.908  1.00  0.00     0.161 A 
ATOM     14  C   UNL     1     -13.463  -7.563  17.828  1.00  0.00     0.157 A 
ATOM     15  C   UNL     1     -13.601  -5.328  16.887  1.00  0.00     0.062 A 
ATOM     16  C   UNL     1     -14.497  -7.244  18.712  1.00  0.00     0.051 A 
ATOM     17  C   UNL     1     -15.086  -5.979  18.686  1.00  0.00     0.016 A 
BRANCH  13  18
ATOM     18  O   UNL     1     -11.953  -6.947  16.039  1.00  0.00    -0.493 OA
ATOM     19  C   UNL     1     -12.127  -7.401  14.701  1.00  0.00     0.278 C 
ENDBRANCH  13  18
BRANCH  14  20
ATOM     20  O   UNL     1     -12.900  -8.839  17.881  1.00  0.00    -0.504 OA
ATOM     21  H   UNL     1     -12.184  -9.141  17.232  1.00  0.00     0.293 HD
ENDBRANCH  14  20
ENDBRANCH   1  12
BRANCH   2  22
ATOM     22  O   UNL     1     -13.684  -2.822  19.392  1.00  0.00    -0.502 OA
ATOM     23  H   UNL     1     -13.041  -2.071  19.614  1.00  0.00     0.293 HD
ENDBRANCH   2  22
BRANCH   6  24
ATOM     24  O   UNL     1     -16.926   1.115  18.370  1.00  0.00    -0.507 OA
ATOM     25  H   UNL     1     -16.856   1.057  19.379  1.00  0.00     0.293 HD
ENDBRANCH   6  24
BRANCH   8  26
ATOM     26  O   UNL     1     -19.818  -0.841  15.040  1.00  0.00    -0.508 OA
ATOM     27  H   UNL     1     -20.305  -1.651  14.674  1.00  0.00     0.293 HD
ENDBRANCH   8  26
TORSDOF 6
ENDMDL
MODEL 4
REMARK VINA RESULT:    -6.582      2.091      6.950
REMARK INTER + INTRA:          -8.508
REMARK INTER:                  -8.312
REMARK INTRA:                  -0.196
REMARK UNBOUND:                -0.387
REMARK SMILES COc1cc(-c2oc3cc(O)cc(O)c3c(=O)c2O)ccc1O
REMARK SMILES IDX 6 1 18 2 16 3 17 4 15 5 13 6 12 7 10 8 9 9 8 10 7 11 5 12
REMARK SMILES IDX 3 13 22 14 4 15 21 16 20 17 2 18 1 19 23 20 19 22 14 24
REMARK SMILES IDX 11 26
REMARK H PARENT 23 21 19 23 14 25 11 27
REMARK Flexibility Score: inf
ROOT
ATOM      1  C   UNL     1     -15.544  -3.964  16.205  1.00  0.00     0.180 A 
ATOM      2  C   UNL     1     -15.937  -4.611  17.393  1.00  0.00     0.208 A 
ATOM      3  C   UNL     1     -15.476  -5.913  17.640  1.00  0.00     0.238 A 
ATOM      4  O   UNL     1     -15.812  -6.499  18.705  1.00  0.00    -0.285 OA
ATOM      5  C   UNL     1     -14.650  -6.552  16.692  1.00  0.00     0.111 A 
ATOM      6  C   UNL     1     -14.146  -7.864  16.863  1.00  0.00     0.134 A 
ATOM      7  C   UNL     1     -13.337  -8.433  15.868  1.00  0.00     0.093 A 
ATOM      8  C   UNL     1     -13.024  -7.719  14.709  1.00  0.00     0.123 A 
ATOM      9  C   UNL     1     -13.519  -6.422  14.535  1.00  0.00     0.094 A 
ATOM     10  C   UNL     1     -14.324  -5.837  15.515  1.00  0.00     0.146 A 
ATOM     11  O   UNL     1     -14.776  -4.602  15.327  1.00  0.00    -0.452 OA
ENDROOT
BRANCH   1  12
ATOM     12  C   UNL     1     -15.973  -2.583  15.884  1.00  0.00     0.025 A 
ATOM     13  C   UNL     1     -17.726  -0.930  15.456  1.00  0.00     0.161 A 
ATOM     14  C   UNL     1     -16.741   0.066  15.326  1.00  0.00     0.157 A 
ATOM     15  C   UNL     1     -17.333  -2.253  15.743  1.00  0.00     0.062 A 
ATOM     16  C   UNL     1     -15.392  -0.260  15.488  1.00  0.00     0.051 A 
ATOM     17  C   UNL     1     -15.009  -1.571  15.772  1.00  0.00     0.016 A 
BRANCH  13  18
ATOM     18  O   UNL     1     -19.075  -0.573  15.300  1.00  0.00    -0.493 OA
ATOM     19  C   UNL     1     -19.978  -0.337  16.375  1.00  0.00     0.278 C 
ENDBRANCH  13  18
BRANCH  14  20
ATOM     20  O   UNL     1     -17.086   1.387  15.040  1.00  0.00    -0.504 OA
ATOM     21  H   UNL     1     -17.944   1.630  14.561  1.00  0.00     0.293 HD
ENDBRANCH  14  20
ENDBRANCH   1  12
BRANCH   2  22
ATOM     22  O   UNL     1     -16.796  -3.975  18.292  1.00  0.00    -0.502 OA
ATOM     23  H   UNL     1     -16.749  -2.979  18.476  1.00  0.00     0.293 HD
ENDBRANCH   2  22
BRANCH   6  24
ATOM     24  O   UNL     1     -14.442  -8.604  18.008  1.00  0.00    -0.507 OA
ATOM     25  H   UNL     1     -15.194  -9.283  18.025  1.00  0.00     0.293 HD
ENDBRANCH   6  24
BRANCH   8  26
ATOM     26  O   UNL     1     -12.219  -8.308  13.736  1.00  0.00    -0.508 OA
ATOM     27  H   UNL     1     -11.208  -8.306  13.812  1.00  0.00     0.293 HD
ENDBRANCH   8  26
TORSDOF 6
ENDMDL
MODEL 5
REMARK VINA RESULT:    -6.473      2.009      7.127
REMARK INTER + INTRA:          -8.374
REMARK INTER:                  -7.983
REMARK INTRA:                  -0.391
REMARK UNBOUND:                -0.387
REMARK SMILES COc1cc(-c2oc3cc(O)cc(O)c3c(=O)c2O)ccc1O
REMARK SMILES IDX 6 1 18 2 16 3 17 4 15 5 13 6 12 7 10 8 9 9 8 10 7 11 5 12
REMARK SMILES IDX 3 13 22 14 4 15 21 16 20 17 2 18 1 19 23 20 19 22 14 24
REMARK SMILES IDX 11 26
REMARK H PARENT 23 21 19 23 14 25 11 27
REMARK Flexibility Score: inf
ROOT
ATOM      1  C   UNL     1     -15.123  -4.100  17.612  1.00  0.00     0.180 A 
ATOM      2  C   UNL     1     -15.151  -5.149  18.552  1.00  0.00     0.208 A 
ATOM      3  C   UNL     1     -14.475  -6.342  18.256  1.00  0.00     0.238 A 
ATOM      4  O   UNL     1     -14.484  -7.285  19.095  1.00  0.00    -0.285 OA
ATOM      5  C   UNL     1     -13.802  -6.476  17.024  1.00  0.00     0.111 A 
ATOM      6  C   UNL     1     -13.102  -7.647  16.647  1.00  0.00     0.134 A 
ATOM      7  C   UNL     1     -12.465  -7.705  15.398  1.00  0.00     0.093 A 
ATOM      8  C   UNL     1     -12.516  -6.620  14.521  1.00  0.00     0.123 A 
ATOM      9  C   UNL     1     -13.207  -5.460  14.888  1.00  0.00     0.094 A 
ATOM     10  C   UNL     1     -13.846  -5.382  16.128  1.00  0.00     0.146 A 
ATOM     11  O   UNL     1     -14.491  -4.267  16.453  1.00  0.00    -0.452 OA
ENDROOT
BRANCH   1  12
ATOM     12  C   UNL     1     -15.795  -2.804  17.860  1.00  0.00     0.025 A 
ATOM     13  C   UNL     1     -15.754  -0.485  18.642  1.00  0.00     0.161 A 
ATOM     14  C   UNL     1     -17.101  -0.345  18.262  1.00  0.00     0.157 A 
ATOM     15  C   UNL     1     -15.105  -1.718  18.430  1.00  0.00     0.062 A 
ATOM     16  C   UNL     1     -17.778  -1.417  17.675  1.00  0.00     0.051 A 
ATOM     17  C   UNL     1     -17.130  -2.635  17.468  1.00  0.00     0.016 A 
BRANCH  13  18
ATOM     18  O   UNL     1     -15.094   0.612  19.218  1.00  0.00    -0.493 OA
ATOM     19  C   UNL     1     -13.811   0.553  19.833  1.00  0.00     0.278 C 
ENDBRANCH  13  18
BRANCH  14  20
ATOM     20  O   UNL     1     -17.782   0.858  18.456  1.00  0.00    -0.504 OA
ATOM     21  H   UNL     1     -17.308   1.709  18.731  1.00  0.00     0.293 HD
ENDBRANCH  14  20
ENDBRANCH   1  12
BRANCH   2  22
ATOM     22  O   UNL     1     -15.866  -5.009  19.744  1.00  0.00    -0.502 OA
ATOM     23  H   UNL     1     -16.022  -4.107  20.180  1.00  0.00     0.293 HD
ENDBRANCH   2  22
BRANCH   6  24
ATOM     24  O   UNL     1     -13.033  -8.749  17.501  1.00  0.00    -0.507 OA
ATOM     25  H   UNL     1     -13.256  -9.685  17.182  1.00  0.00     0.293 HD
ENDBRANCH   6  24
BRANCH   8  26
ATOM     26  O   UNL     1     -11.877  -6.704  13.286  1.00  0.00    -0.508 OA
ATOM     27  H   UNL     1     -11.143  -6.055  13.025  1.00  0.00     0.293 HD
ENDBRANCH   8  26
TORSDOF 6
ENDMDL
MODEL 6
REMARK VINA RESULT:    -6.443      1.838      7.223
REMARK INTER + INTRA:          -8.337
REMARK INTER:                  -7.967
REMARK INTRA:                  -0.369
REMARK UNBOUND:                -0.387
REMARK SMILES COc1cc(-c2oc3cc(O)cc(O)c3c(=O)c2O)ccc1O
REMARK SMILES IDX 6 1 18 2 16 3 17 4 15 5 13 6 12 7 10 8 9 9 8 10 7 11 5 12
REMARK SMILES IDX 3 13 22 14 4 15 21 16 20 17 2 18 1 19 23 20 19 22 14 24
REMARK SMILES IDX 11 26
REMARK H PARENT 23 21 19 23 14 25 11 27
REMARK Flexibility Score: inf
ROOT
ATOM      1  C   UNL     1     -16.314  -3.237  16.285  1.00  0.00     0.180 A 
ATOM      2  C   UNL     1     -15.532  -3.216  15.113  1.00  0.00     0.208 A 
ATOM      3  C   UNL     1     -14.683  -4.300  14.845  1.00  0.00     0.238 A 
ATOM      4  O   UNL     1     -13.987  -4.298  13.794  1.00  0.00    -0.285 OA
ATOM      5  C   UNL     1     -14.614  -5.374  15.757  1.00  0.00     0.111 A 
ATOM      6  C   UNL     1     -13.781  -6.502  15.564  1.00  0.00     0.134 A 
ATOM      7  C   UNL     1     -13.762  -7.526  16.524  1.00  0.00     0.093 A 
ATOM      8  C   UNL     1     -14.555  -7.442  17.670  1.00  0.00     0.123 A 
ATOM      9  C   UNL     1     -15.380  -6.329  17.866  1.00  0.00     0.094 A 
ATOM     10  C   UNL     1     -15.415  -5.301  16.921  1.00  0.00     0.146 A 
ATOM     11  O   UNL     1     -16.212  -4.259  17.130  1.00  0.00    -0.452 OA
ENDROOT
BRANCH   1  12
ATOM     12  C   UNL     1     -17.248  -2.139  16.626  1.00  0.00     0.025 A 
ATOM     13  C   UNL     1     -17.764  -0.052  17.794  1.00  0.00     0.161 A 
ATOM     14  C   UNL     1     -19.040  -0.048  17.201  1.00  0.00     0.157 A 
ATOM     15  C   UNL     1     -16.870  -1.099  17.494  1.00  0.00     0.062 A 
ATOM     16  C   UNL     1     -19.405  -1.069  16.320  1.00  0.00     0.051 A 
ATOM     17  C   UNL     1     -18.516  -2.104  16.028  1.00  0.00     0.016 A 
BRANCH  13  18
ATOM     18  O   UNL     1     -17.419   0.994  18.665  1.00  0.00    -0.493 OA
ATOM     19  C   UNL     1     -16.085   1.340  19.023  1.00  0.00     0.278 C 
ENDBRANCH  13  18
BRANCH  14  20
ATOM     20  O   UNL     1     -19.957   0.969  17.471  1.00  0.00    -0.504 OA
ATOM     21  H   UNL     1     -20.609   1.307  16.775  1.00  0.00     0.293 HD
ENDBRANCH  14  20
ENDBRANCH   1  12
BRANCH   2  22
ATOM     22  O   UNL     1     -15.583  -2.118  14.251  1.00  0.00    -0.502 OA
ATOM     23  H   UNL     1     -15.753  -1.175  14.582  1.00  0.00     0.293 HD
ENDBRANCH   2  22
BRANCH   6  24
ATOM     24  O   UNL     1     -12.975  -6.614  14.430  1.00  0.00    -0.507 OA
ATOM     25  H   UNL     1     -12.370  -5.860  14.129  1.00  0.00     0.293 HD
ENDBRANCH   6  24
BRANCH   8  26
ATOM     26  O   UNL     1     -14.517  -8.471  18.608  1.00  0.00    -0.508 OA
ATOM     27  H   UNL     1     -15.321  -8.694  19.183  1.00  0.00     0.293 HD
ENDBRANCH   8  26
TORSDOF 6
ENDMDL
MODEL 7
REMARK VINA RESULT:    -6.429      2.226      3.496
REMARK INTER + INTRA:          -8.320
REMARK INTER:                  -8.620
REMARK INTRA:                   0.300
REMARK UNBOUND:                -0.387
REMARK SMILES COc1cc(-c2oc3cc(O)cc(O)c3c(=O)c2O)ccc1O
REMARK SMILES IDX 6 1 18 2 16 3 17 4 15 5 13 6 12 7 10 8 9 9 8 10 7 11 5 12
REMARK SMILES IDX 3 13 22 14 4 15 21 16 20 17 2 18 1 19 23 20 19 22 14 24
REMARK SMILES IDX 11 26
REMARK H PARENT 23 21 19 23 14 25 11 27
REMARK Flexibility Score: inf
ROOT
ATOM      1  C   UNL     1     -14.687  -4.236  14.930  1.00  0.00     0.180 A 
ATOM      2  C   UNL     1     -14.052  -3.296  14.094  1.00  0.00     0.208 A 
ATOM      3  C   UNL     1     -14.625  -2.024  13.947  1.00  0.00     0.238 A 
ATOM      4  O   UNL     1     -14.060  -1.170  13.210  1.00  0.00    -0.285 OA
ATOM      5  C   UNL     1     -15.828  -1.718  14.617  1.00  0.00     0.111 A 
ATOM      6  C   UNL     1     -16.472  -0.462  14.519  1.00  0.00     0.134 A 
ATOM      7  C   UNL     1     -17.672  -0.239  15.211  1.00  0.00     0.093 A 
ATOM      8  C   UNL     1     -18.239  -1.245  15.996  1.00  0.00     0.123 A 
ATOM      9  C   UNL     1     -17.607  -2.490  16.097  1.00  0.00     0.094 A 
ATOM     10  C   UNL     1     -16.410  -2.730  15.417  1.00  0.00     0.146 A 
ATOM     11  O   UNL     1     -15.828  -3.918  15.535  1.00  0.00    -0.452 OA
ENDROOT
BRANCH   1  12
ATOM     12  C   UNL     1     -14.133  -5.592  15.151  1.00  0.00     0.025 A 
ATOM     13  C   UNL     1     -13.883  -7.606  16.517  1.00  0.00     0.161 A 
ATOM     14  C   UNL     1     -13.101  -8.186  15.500  1.00  0.00     0.157 A 
ATOM     15  C   UNL     1     -14.402  -6.310  16.330  1.00  0.00     0.062 A 
ATOM     16  C   UNL     1     -12.854  -7.480  14.320  1.00  0.00     0.051 A 
ATOM     17  C   UNL     1     -13.370  -6.196  14.141  1.00  0.00     0.016 A 
BRANCH  13  18
ATOM     18  O   UNL     1     -14.126  -8.343  17.687  1.00  0.00    -0.493 OA
ATOM     19  C   UNL     1     -13.277  -8.350  18.830  1.00  0.00     0.278 C 
ENDBRANCH  13  18
BRANCH  14  20
ATOM     20  O   UNL     1     -12.566  -9.466  15.645  1.00  0.00    -0.504 OA
ATOM     21  H   UNL     1     -11.636  -9.703  15.322  1.00  0.00     0.293 HD
ENDBRANCH  14  20
ENDBRANCH   1  12
BRANCH   2  22
ATOM     22  O   UNL     1     -12.888  -3.640  13.402  1.00  0.00    -0.502 OA
ATOM     23  H   UNL     1     -12.297  -4.413  13.685  1.00  0.00     0.293 HD
ENDBRANCH   2  22
BRANCH   6  24
ATOM     24  O   UNL     1     -15.931   0.564  13.742  1.00  0.00    -0.507 OA
ATOM     25  H   UNL     1     -15.586   0.397  12.804  1.00  0.00     0.293 HD
ENDBRANCH   6  24
BRANCH   8  26
ATOM     26  O   UNL     1     -19.432  -0.999  16.672  1.00  0.00    -0.508 OA
ATOM     27  H   UNL     1     -19.527  -1.187  17.664  1.00  0.00     0.293 HD
ENDBRANCH   8  26
TORSDOF 6
ENDMDL
MODEL 8
REMARK VINA RESULT:    -6.426      1.860      7.159
REMARK INTER + INTRA:          -8.315
REMARK INTER:                  -7.923
REMARK INTRA:                  -0.393
REMARK UNBOUND:                -0.387
REMARK SMILES COc1cc(-c2oc3cc(O)cc(O)c3c(=O)c2O)ccc1O
REMARK SMILES IDX 6 1 18 2 16 3 17 4 15 5 13 6 12 7 10 8 9 9 8 10 7 11 5 12
REMARK SMILES IDX 3 13 22 14 4 15 21 16 20 17 2 18 1 19 23 20 19 22 14 24
REMARK SMILES IDX 11 26
REMARK H PARENT 23 21 19 23 14 25 11 27
REMARK Flexibility Score: inf
ROOT
ATOM      1  C   UNL     1     -15.101  -3.946  17.604  1.00  0.00     0.180 A 
ATOM      2  C   UNL     1     -15.161  -4.971  18.569  1.00  0.00     0.208 A 
ATOM      3  C   UNL     1     -14.511  -6.186  18.308  1.00  0.00     0.238 A 
ATOM      4  O   UNL     1     -14.549  -7.108  19.169  1.00  0.00    -0.285 OA
ATOM      5  C   UNL     1     -13.831  -6.366  17.086  1.00  0.00     0.111 A 
ATOM      6  C   UNL     1     -13.154  -7.561  16.744  1.00  0.00     0.134 A 
ATOM      7  C   UNL     1     -12.508  -7.664  15.502  1.00  0.00     0.093 A 
ATOM      8  C   UNL     1     -12.527  -6.600  14.599  1.00  0.00     0.123 A 
ATOM      9  C   UNL     1     -13.194  -5.416  14.931  1.00  0.00     0.094 A 
ATOM     10  C   UNL     1     -13.842  -5.293  16.164  1.00  0.00     0.146 A 
ATOM     11  O   UNL     1     -14.463  -4.156  16.456  1.00  0.00    -0.452 OA
ENDROOT
BRANCH   1  12
ATOM     12  C   UNL     1     -15.745  -2.629  17.815  1.00  0.00     0.025 A 
ATOM     13  C   UNL     1     -17.701  -1.163  17.723  1.00  0.00     0.161 A 
ATOM     14  C   UNL     1     -16.936  -0.124  18.285  1.00  0.00     0.157 A 
ATOM     15  C   UNL     1     -17.099  -2.417  17.499  1.00  0.00     0.062 A 
ATOM     16  C   UNL     1     -15.598  -0.344  18.620  1.00  0.00     0.051 A 
ATOM     17  C   UNL     1     -15.006  -1.588  18.394  1.00  0.00     0.016 A 
BRANCH  13  18
ATOM     18  O   UNL     1     -19.048  -0.918  17.408  1.00  0.00    -0.493 OA
ATOM     19  C   UNL     1     -19.521  -0.540  16.120  1.00  0.00     0.278 C 
ENDBRANCH  13  18
BRANCH  14  20
ATOM     20  O   UNL     1     -17.493   1.133  18.522  1.00  0.00    -0.504 OA
ATOM     21  H   UNL     1     -16.939   1.980  18.508  1.00  0.00     0.293 HD
ENDBRANCH  14  20
ENDBRANCH   1  12
BRANCH   2  22
ATOM     22  O   UNL     1     -15.883  -4.786  19.751  1.00  0.00    -0.502 OA
ATOM     23  H   UNL     1     -16.824  -5.141  19.873  1.00  0.00     0.293 HD
ENDBRANCH   2  22
BRANCH   6  24
ATOM     24  O   UNL     1     -13.118  -8.643  17.624  1.00  0.00    -0.507 OA
ATOM     25  H   UNL     1     -12.947  -8.519  18.615  1.00  0.00     0.293 HD
ENDBRANCH   6  24
BRANCH   8  26
ATOM     26  O   UNL     1     -11.879  -6.729  13.373  1.00  0.00    -0.508 OA
ATOM     27  H   UNL     1     -11.086  -6.146  13.129  1.00  0.00     0.293 HD
ENDBRANCH   8  26
TORSDOF 6
ENDMDL
MODEL 9
REMARK VINA RESULT:    -6.364      2.106      7.395
REMARK INTER + INTRA:          -8.239
REMARK INTER:                  -7.869
REMARK INTRA:                  -0.371
REMARK UNBOUND:                -0.387
REMARK SMILES COc1cc(-c2oc3cc(O)cc(O)c3c(=O)c2O)ccc1O
REMARK SMILES IDX 6 1 18 2 16 3 17 4 15 5 13 6 12 7 10 8 9 9 8 10 7 11 5 12
REMARK SMILES IDX 3 13 22 14 4 15 21 16 20 17 2 18 1 19 23 20 19 22 14 24
REMARK SMILES IDX 11 26
REMARK H PARENT 23 21 19 23 14 25 11 27
REMARK Flexibility Score: inf
ROOT
ATOM      1  C   UNL     1     -15.082  -4.194  16.990  1.00  0.00     0.180 A 
ATOM      2  C   UNL     1     -14.812  -4.431  15.628  1.00  0.00     0.208 A 
ATOM      3  C   UNL     1     -14.209  -5.643  15.259  1.00  0.00     0.238 A 
ATOM      4  O   UNL     1     -13.971  -5.872  14.041  1.00  0.00    -0.285 OA
ATOM      5  C   UNL     1     -13.870  -6.586  16.252  1.00  0.00     0.111 A 
ATOM      6  C   UNL     1     -13.257  -7.828  15.964  1.00  0.00     0.134 A 
ATOM      7  C   UNL     1     -12.942  -8.709  17.011  1.00  0.00     0.093 A 
ATOM      8  C   UNL     1     -13.227  -8.370  18.335  1.00  0.00     0.123 A 
ATOM      9  C   UNL     1     -13.833  -7.143  18.626  1.00  0.00     0.094 A 
ATOM     10  C   UNL     1     -14.156  -6.254  17.597  1.00  0.00     0.146 A 
ATOM     11  O   UNL     1     -14.736  -5.098  17.901  1.00  0.00    -0.452 OA
ENDROOT
BRANCH   1  12
ATOM     12  C   UNL     1     -15.734  -2.948  17.456  1.00  0.00     0.025 A 
ATOM     13  C   UNL     1     -15.616  -0.689  18.390  1.00  0.00     0.161 A 
ATOM     14  C   UNL     1     -17.014  -0.581  18.278  1.00  0.00     0.157 A 
ATOM     15  C   UNL     1     -14.982  -1.876  17.969  1.00  0.00     0.062 A 
ATOM     16  C   UNL     1     -17.757  -1.638  17.746  1.00  0.00     0.051 A 
ATOM     17  C   UNL     1     -17.124  -2.811  17.332  1.00  0.00     0.016 A 
BRANCH  13  18
ATOM     18  O   UNL     1     -14.893   0.394  18.916  1.00  0.00    -0.493 OA
ATOM     19  C   UNL     1     -14.142   0.354  20.125  1.00  0.00     0.278 C 
ENDBRANCH  13  18
BRANCH  14  20
ATOM     20  O   UNL     1     -17.682   0.575  18.684  1.00  0.00    -0.504 OA
ATOM     21  H   UNL     1     -17.415   1.088  19.515  1.00  0.00     0.293 HD
ENDBRANCH  14  20
ENDBRANCH   1  12
BRANCH   2  22
ATOM     22  O   UNL     1     -15.112  -3.461  14.669  1.00  0.00    -0.502 OA
ATOM     23  H   UNL     1     -14.516  -3.286  13.869  1.00  0.00     0.293 HD
ENDBRANCH   2  22
BRANCH   6  24
ATOM     24  O   UNL     1     -12.959  -8.195  14.651  1.00  0.00    -0.507 OA
ATOM     25  H   UNL     1     -12.051  -8.014  14.239  1.00  0.00     0.293 HD
ENDBRANCH   6  24
BRANCH   8  26
ATOM     26  O   UNL     1     -12.903  -9.261  19.356  1.00  0.00    -0.508 OA
ATOM     27  H   UNL     1     -12.097  -9.873  19.290  1.00  0.00     0.293 HD
ENDBRANCH   8  26
TORSDOF 6
ENDMDL
