MODEL 1
REMARK VINA RESULT:     3.240      0.000      0.000
REMARK INTER + INTRA:           3.369
REMARK INTER:                   3.524
REMARK INTRA:                  -0.155
REMARK UNBOUND:                -0.155
REMARK SMILES CC1(C)CC[C@]2(C(=O)[O-])CC[C@]3(C)C(=CC[C@@H]4[C@@]5(C)CC[C@H](O)C(C)(C)[C@H]5CC[C@@]43C)[C@@H]2C1
REMARK SMILES IDX 6 1 5 2 10 3 32 4 4 5 11 6 14 7 33 8 2 9 12 10 15 11 1 12
REMARK SMILES IDX 3 13 13 14 30 15 16 16 17 17 29 18 31 19 18 20 28 21 27 22
REMARK SMILES IDX 20 23 19 24 24 25 21 26 22 27 25 28 26 29 7 30 8 31 9 32
REMARK SMILES IDX 23 33
REMARK H PARENT 23 34
REMARK Flexibility Score: inf
ROOT
ATOM      1  C   UNL     1      96.111 112.990 110.410  1.00  0.00     0.017 C 
ATOM      2  C   UNL     1      95.021 112.500 109.393  1.00  0.00     0.014 C 
ATOM      3  C   UNL     1      97.474 112.989 109.688  1.00  0.00     0.014 C 
ATOM      4  C   UNL     1      96.188 112.039 111.649  1.00  0.00     0.028 C 
ATOM      5  C   UNL     1      93.917 111.669 110.059  1.00  0.00     0.007 C 
ATOM      6  C   UNL     1      98.619 113.444 110.593  1.00  0.00     0.013 C 
ATOM      7  C   UNL     1      97.471 112.167 112.478  1.00  0.00    -0.064 C 
ATOM      8  C   UNL     1      95.930 110.569 111.245  1.00  0.00     0.015 C 
ATOM      9  C   UNL     1      94.480 110.361 110.699  1.00  0.00    -0.035 C 
ATOM     10  C   UNL     1      98.824 112.583 111.897  1.00  0.00    -0.006 C 
ATOM     11  C   UNL     1      97.401 111.749 113.750  1.00  0.00    -0.027 C 
ATOM     12  C   UNL     1      93.547 109.930 111.854  1.00  0.00     0.011 C 
ATOM     13  C   UNL     1      94.494 109.230 109.647  1.00  0.00     0.011 C 
ATOM     14  C   UNL     1      99.543 111.267 111.473  1.00  0.00     0.017 C 
ATOM     15  C   UNL     1      99.697 113.370 113.015  1.00  0.00    -0.020 C 
ATOM     16  C   UNL     1      98.533 111.777 114.726  1.00  0.00     0.032 C 
ATOM     17  C   UNL     1      99.885 112.465 114.306  1.00  0.00     0.006 C 
ATOM     18  C   UNL     1      98.975 114.666 113.491  1.00  0.00     0.008 C 
ATOM     19  C   UNL     1     101.080 113.746 112.377  1.00  0.00     0.012 C 
ATOM     20  C   UNL     1     100.581 113.139 115.594  1.00  0.00    -0.025 C 
ATOM     21  C   UNL     1      99.648 115.374 114.679  1.00  0.00     0.005 C 
ATOM     22  C   UNL     1      99.855 114.501 115.955  1.00  0.00     0.003 C 
ATOM     23  C   UNL     1     102.110 113.397 115.386  1.00  0.00     0.010 C 
ATOM     24  C   UNL     1     100.479 112.090 116.761  1.00  0.00     0.012 C 
ATOM     25  C   UNL     1     100.557 115.335 117.125  1.00  0.00    -0.006 C 
ATOM     26  C   UNL     1     102.794 114.148 116.542  1.00  0.00     0.033 C 
ATOM     27  C   UNL     1     102.089 115.483 116.849  1.00  0.00     0.120 C 
ATOM     28  C   UNL     1     100.292 114.682 118.514  1.00  0.00     0.014 C 
ATOM     29  C   UNL     1      99.954 116.768 117.226  1.00  0.00     0.014 C 
ENDROOT
BRANCH   1  30
ATOM     30  C   UNL     1      95.772 114.417 110.841  1.00  0.00     0.048 C 
ATOM     31  O   UNL     1      95.501 115.289 109.972  1.00  0.00    -0.550 OA
ATOM     32  O   UNL     1      95.773 114.790 112.181  1.00  0.00    -0.550 OA
ENDBRANCH   1  30
BRANCH  27  33
ATOM     33  O   UNL     1     102.745 116.164 117.894  1.00  0.00    -0.393 OA
ATOM     34  H   UNL     1     103.718 115.987 117.820  1.00  0.00     0.210 HD
ENDBRANCH  27  33
TORSDOF 2
ENDMDL
MODEL 2
REMARK VINA RESULT:     3.436      3.850     10.024
REMARK INTER + INTRA:           3.582
REMARK INTER:                   3.793
REMARK INTRA:                  -0.211
REMARK UNBOUND:                -0.155
REMARK SMILES CC1(C)CC[C@]2(C(=O)[O-])CC[C@]3(C)C(=CC[C@@H]4[C@@]5(C)CC[C@H](O)C(C)(C)[C@H]5CC[C@@]43C)[C@@H]2C1
REMARK SMILES IDX 6 1 5 2 10 3 32 4 4 5 11 6 14 7 33 8 2 9 12 10 15 11 1 12
REMARK SMILES IDX 3 13 13 14 30 15 16 16 17 17 29 18 31 19 18 20 28 21 27 22
REMARK SMILES IDX 20 23 19 24 24 25 21 26 22 27 25 28 26 29 7 30 8 31 9 32
REMARK SMILES IDX 23 33
REMARK H PARENT 23 34
REMARK Flexibility Score: inf
ROOT
ATOM      1  C   UNL     1     100.317 115.579 122.854  1.00  0.00     0.017 C 
ATOM      2  C   UNL     1     100.230 116.188 124.299  1.00  0.00     0.014 C 
ATOM      3  C   UNL     1     101.802 115.542 122.439  1.00  0.00     0.014 C 
ATOM      4  C   UNL     1      99.521 116.454 121.830  1.00  0.00     0.028 C 
ATOM      5  C   UNL     1      98.973 117.042 124.509  1.00  0.00     0.007 C 
ATOM      6  C   UNL     1     102.005 114.973 121.034  1.00  0.00     0.013 C 
ATOM      7  C   UNL     1      99.878 116.205 120.360  1.00  0.00    -0.064 C 
ATOM      8  C   UNL     1      99.617 117.956 122.181  1.00  0.00     0.015 C 
ATOM      9  C   UNL     1      98.943 118.278 123.555  1.00  0.00    -0.035 C 
ATOM     10  C   UNL     1     101.258 115.746 119.883  1.00  0.00    -0.006 C 
ATOM     11  C   UNL     1      98.952 116.555 119.456  1.00  0.00    -0.027 C 
ATOM     12  C   UNL     1      97.472 118.696 123.328  1.00  0.00     0.011 C 
ATOM     13  C   UNL     1      99.683 119.463 124.214  1.00  0.00     0.011 C 
ATOM     14  C   UNL     1     102.075 117.040 119.590  1.00  0.00     0.017 C 
ATOM     15  C   UNL     1     101.116 114.849 118.540  1.00  0.00    -0.020 C 
ATOM     16  C   UNL     1      99.098 116.407 117.976  1.00  0.00     0.032 C 
ATOM     17  C   UNL     1     100.365 115.668 117.406  1.00  0.00     0.006 C 
ATOM     18  C   UNL     1     100.262 113.571 118.796  1.00  0.00     0.008 C 
ATOM     19  C   UNL     1     102.556 114.430 118.080  1.00  0.00     0.012 C 
ATOM     20  C   UNL     1      99.978 114.883 116.051  1.00  0.00    -0.025 C 
ATOM     21  C   UNL     1      99.928 112.760 117.533  1.00  0.00     0.005 C 
ATOM     22  C   UNL     1      99.200 113.546 116.399  1.00  0.00     0.003 C 
ATOM     23  C   UNL     1     101.229 114.549 115.172  1.00  0.00     0.010 C 
ATOM     24  C   UNL     1      99.104 115.869 115.194  1.00  0.00     0.012 C 
ATOM     25  C   UNL     1      98.899 112.609 115.139  1.00  0.00    -0.006 C 
ATOM     26  C   UNL     1     100.925 113.697 113.927  1.00  0.00     0.033 C 
ATOM     27  C   UNL     1     100.199 112.389 114.297  1.00  0.00     0.120 C 
ATOM     28  C   UNL     1      97.752 113.197 114.265  1.00  0.00     0.014 C 
ATOM     29  C   UNL     1      98.389 111.210 115.595  1.00  0.00     0.014 C 
ENDROOT
BRANCH   1  30
ATOM     30  C   UNL     1      99.770 114.152 122.890  1.00  0.00     0.048 C 
ATOM     31  O   UNL     1     100.432 113.238 123.452  1.00  0.00    -0.550 OA
ATOM     32  O   UNL     1      98.555 113.825 122.297  1.00  0.00    -0.550 OA
ENDBRANCH   1  30
BRANCH  27  33
ATOM     33  O   UNL     1      99.951 111.614 113.146  1.00  0.00    -0.393 OA
ATOM     34  H   UNL     1     100.822 111.309 112.783  1.00  0.00     0.210 HD
ENDBRANCH  27  33
TORSDOF 2
ENDMDL
MODEL 3
REMARK VINA RESULT:     4.011      2.068      3.881
REMARK INTER + INTRA:           4.207
REMARK INTER:                   4.320
REMARK INTRA:                  -0.113
REMARK UNBOUND:                -0.155
REMARK SMILES CC1(C)CC[C@]2(C(=O)[O-])CC[C@]3(C)C(=CC[C@@H]4[C@@]5(C)CC[C@H](O)C(C)(C)[C@H]5CC[C@@]43C)[C@@H]2C1
REMARK SMILES IDX 6 1 5 2 10 3 32 4 4 5 11 6 14 7 33 8 2 9 12 10 15 11 1 12
REMARK SMILES IDX 3 13 13 14 30 15 16 16 17 17 29 18 31 19 18 20 28 21 27 22
REMARK SMILES IDX 20 23 19 24 24 25 21 26 22 27 25 28 26 29 7 30 8 31 9 32
REMARK SMILES IDX 23 33
REMARK H PARENT 23 34
REMARK Flexibility Score: inf
ROOT
ATOM      1  C   UNL     1      98.438 112.124 111.906  1.00  0.00     0.017 C 
ATOM      2  C   UNL     1      97.445 111.643 110.788  1.00  0.00     0.014 C 
ATOM      3  C   UNL     1      98.389 111.103 113.061  1.00  0.00     0.014 C 
ATOM      4  C   UNL     1      98.028 113.532 112.449  1.00  0.00     0.028 C 
ATOM      5  C   UNL     1      96.751 112.807 110.070  1.00  0.00     0.007 C 
ATOM      6  C   UNL     1      99.317 111.479 114.217  1.00  0.00     0.013 C 
ATOM      7  C   UNL     1      98.651 113.905 113.800  1.00  0.00    -0.064 C 
ATOM      8  C   UNL     1      96.491 113.697 112.479  1.00  0.00     0.015 C 
ATOM      9  C   UNL     1      95.873 113.653 111.044  1.00  0.00    -0.035 C 
ATOM     10  C   UNL     1      99.034 112.883 114.873  1.00  0.00    -0.006 C 
ATOM     11  C   UNL     1      98.719 115.213 114.082  1.00  0.00    -0.027 C 
ATOM     12  C   UNL     1      95.751 115.089 110.486  1.00  0.00     0.011 C 
ATOM     13  C   UNL     1      94.453 113.048 111.125  1.00  0.00     0.011 C 
ATOM     14  C   UNL     1      97.786 112.721 115.791  1.00  0.00     0.017 C 
ATOM     15  C   UNL     1     100.301 113.420 115.731  1.00  0.00    -0.020 C 
ATOM     16  C   UNL     1      99.280 115.792 115.341  1.00  0.00     0.032 C 
ATOM     17  C   UNL     1      99.971 114.832 116.379  1.00  0.00     0.006 C 
ATOM     18  C   UNL     1     101.551 113.637 114.825  1.00  0.00     0.008 C 
ATOM     19  C   UNL     1     100.632 112.353 116.831  1.00  0.00     0.012 C 
ATOM     20  C   UNL     1     101.169 115.607 117.129  1.00  0.00    -0.025 C 
ATOM     21  C   UNL     1     102.740 114.316 115.526  1.00  0.00     0.005 C 
ATOM     22  C   UNL     1     102.436 115.698 116.181  1.00  0.00     0.003 C 
ATOM     23  C   UNL     1     101.572 114.928 118.480  1.00  0.00     0.010 C 
ATOM     24  C   UNL     1     100.615 117.027 117.513  1.00  0.00     0.012 C 
ATOM     25  C   UNL     1     103.739 116.314 116.876  1.00  0.00    -0.006 C 
ATOM     26  C   UNL     1     102.790 115.561 119.175  1.00  0.00     0.033 C 
ATOM     27  C   UNL     1     104.016 115.607 118.244  1.00  0.00     0.120 C 
ATOM     28  C   UNL     1     103.604 117.855 117.052  1.00  0.00     0.014 C 
ATOM     29  C   UNL     1     104.995 116.114 115.977  1.00  0.00     0.014 C 
ENDROOT
BRANCH   1  30
ATOM     30  C   UNL     1      99.851 112.157 111.323  1.00  0.00     0.048 C 
ATOM     31  O   UNL     1     100.270 111.188 110.634  1.00  0.00    -0.550 OA
ATOM     32  O   UNL     1     100.705 113.230 111.552  1.00  0.00    -0.550 OA
ENDBRANCH   1  30
BRANCH  27  33
ATOM     33  O   UNL     1     105.125 116.169 118.906  1.00  0.00    -0.393 OA
ATOM     34  H   UNL     1     105.270 117.084 118.552  1.00  0.00     0.210 HD
ENDBRANCH  27  33
TORSDOF 2
ENDMDL
MODEL 4
REMARK VINA RESULT:     5.496      3.797      7.802
REMARK INTER + INTRA:           5.823
REMARK INTER:                   5.986
REMARK INTRA:                  -0.164
REMARK UNBOUND:                -0.155
REMARK SMILES CC1(C)CC[C@]2(C(=O)[O-])CC[C@]3(C)C(=CC[C@@H]4[C@@]5(C)CC[C@H](O)C(C)(C)[C@H]5CC[C@@]43C)[C@@H]2C1
REMARK SMILES IDX 6 1 5 2 10 3 32 4 4 5 11 6 14 7 33 8 2 9 12 10 15 11 1 12
REMARK SMILES IDX 3 13 13 14 30 15 16 16 17 17 29 18 31 19 18 20 28 21 27 22
REMARK SMILES IDX 20 23 19 24 24 25 21 26 22 27 25 28 26 29 7 30 8 31 9 32
REMARK SMILES IDX 23 33
REMARK H PARENT 23 34
REMARK Flexibility Score: inf
ROOT
ATOM      1  C   UNL     1     101.244 113.785 116.210  1.00  0.00     0.017 C 
ATOM      2  C   UNL     1     101.112 113.353 114.707  1.00  0.00     0.014 C 
ATOM      3  C   UNL     1     101.218 112.511 117.079  1.00  0.00     0.014 C 
ATOM      4  C   UNL     1     100.058 114.715 116.630  1.00  0.00     0.028 C 
ATOM      5  C   UNL     1     100.308 114.355 113.869  1.00  0.00     0.007 C 
ATOM      6  C   UNL     1     101.331 112.816 118.573  1.00  0.00     0.013 C 
ATOM      7  C   UNL     1      99.853 114.849 118.144  1.00  0.00    -0.064 C 
ATOM      8  C   UNL     1      98.746 114.305 115.923  1.00  0.00     0.015 C 
ATOM      9  C   UNL     1      98.837 114.489 114.373  1.00  0.00    -0.035 C 
ATOM     10  C   UNL     1     100.204 113.752 119.152  1.00  0.00    -0.006 C 
ATOM     11  C   UNL     1      99.197 115.941 118.560  1.00  0.00    -0.027 C 
ATOM     12  C   UNL     1      98.301 115.885 113.982  1.00  0.00     0.011 C 
ATOM     13  C   UNL     1      97.951 113.425 113.687  1.00  0.00     0.011 C 
ATOM     14  C   UNL     1      98.923 112.883 119.321  1.00  0.00     0.017 C 
ATOM     15  C   UNL     1     100.631 114.412 120.571  1.00  0.00    -0.020 C 
ATOM     16  C   UNL     1      98.883 116.262 119.986  1.00  0.00     0.032 C 
ATOM     17  C   UNL     1      99.466 115.340 121.121  1.00  0.00     0.006 C 
ATOM     18  C   UNL     1     101.884 115.326 120.419  1.00  0.00     0.008 C 
ATOM     19  C   UNL     1     100.952 113.248 121.572  1.00  0.00     0.012 C 
ATOM     20  C   UNL     1      99.771 116.219 122.438  1.00  0.00    -0.025 C 
ATOM     21  C   UNL     1     102.246 116.131 121.679  1.00  0.00     0.005 C 
ATOM     22  C   UNL     1     101.112 117.042 122.245  1.00  0.00     0.003 C 
ATOM     23  C   UNL     1      99.872 115.346 123.733  1.00  0.00     0.010 C 
ATOM     24  C   UNL     1      98.528 117.158 122.651  1.00  0.00     0.012 C 
ATOM     25  C   UNL     1     101.596 117.834 123.548  1.00  0.00    -0.006 C 
ATOM     26  C   UNL     1     100.280 116.124 124.996  1.00  0.00     0.033 C 
ATOM     27  C   UNL     1     101.602 116.887 124.793  1.00  0.00     0.120 C 
ATOM     28  C   UNL     1     100.713 119.092 123.798  1.00  0.00     0.014 C 
ATOM     29  C   UNL     1     103.042 118.380 123.362  1.00  0.00     0.014 C 
ENDROOT
BRANCH   1  30
ATOM     30  C   UNL     1     102.584 114.495 116.399  1.00  0.00     0.048 C 
ATOM     31  O   UNL     1     103.643 113.965 115.968  1.00  0.00    -0.550 OA
ATOM     32  O   UNL     1     102.672 115.716 117.058  1.00  0.00    -0.550 OA
ENDBRANCH   1  30
BRANCH  27  33
ATOM     33  O   UNL     1     101.969 117.572 125.968  1.00  0.00    -0.393 OA
ATOM     34  H   UNL     1     102.887 117.927 125.849  1.00  0.00     0.210 HD
ENDBRANCH  27  33
TORSDOF 2
ENDMDL
MODEL 5
REMARK VINA RESULT:     5.839      3.192      6.141
REMARK INTER + INTRA:           6.196
REMARK INTER:                   5.566
REMARK INTRA:                   0.630
REMARK UNBOUND:                -0.155
REMARK SMILES CC1(C)CC[C@]2(C(=O)[O-])CC[C@]3(C)C(=CC[C@@H]4[C@@]5(C)CC[C@H](O)C(C)(C)[C@H]5CC[C@@]43C)[C@@H]2C1
REMARK SMILES IDX 6 1 5 2 10 3 32 4 4 5 11 6 14 7 33 8 2 9 12 10 15 11 1 12
REMARK SMILES IDX 3 13 13 14 30 15 16 16 17 17 29 18 31 19 18 20 28 21 27 22
REMARK SMILES IDX 20 23 19 24 24 25 21 26 22 27 25 28 26 29 7 30 8 31 9 32
REMARK SMILES IDX 23 33
REMARK H PARENT 23 34
REMARK Flexibility Score: inf
ROOT
ATOM      1  C   UNL     1      99.853 114.332 114.776  1.00  0.00     0.017 C 
ATOM      2  C   UNL     1      99.673 113.721 113.341  1.00  0.00     0.014 C 
ATOM      3  C   UNL     1     101.335 114.724 114.946  1.00  0.00     0.014 C 
ATOM      4  C   UNL     1      99.469 113.291 115.878  1.00  0.00     0.028 C 
ATOM      5  C   UNL     1      98.638 112.591 113.302  1.00  0.00     0.007 C 
ATOM      6  C   UNL     1     101.629 115.325 116.321  1.00  0.00     0.013 C 
ATOM      7  C   UNL     1      99.997 113.618 117.281  1.00  0.00    -0.064 C 
ATOM      8  C   UNL     1      99.858 111.856 115.456  1.00  0.00     0.015 C 
ATOM      9  C   UNL     1      99.060 111.383 114.197  1.00  0.00    -0.035 C 
ATOM     10  C   UNL     1     101.288 114.394 117.546  1.00  0.00    -0.006 C 
ATOM     11  C   UNL     1      99.344 113.055 118.307  1.00  0.00    -0.027 C 
ATOM     12  C   UNL     1      97.789 110.624 114.642  1.00  0.00     0.011 C 
ATOM     13  C   UNL     1      99.938 110.410 113.379  1.00  0.00     0.011 C 
ATOM     14  C   UNL     1     102.425 113.334 117.651  1.00  0.00     0.017 C 
ATOM     15  C   UNL     1     101.165 115.231 118.930  1.00  0.00    -0.020 C 
ATOM     16  C   UNL     1      99.695 113.233 119.749  1.00  0.00     0.032 C 
ATOM     17  C   UNL     1     100.828 114.255 120.136  1.00  0.00     0.006 C 
ATOM     18  C   UNL     1     100.002 116.266 118.867  1.00  0.00     0.008 C 
ATOM     19  C   UNL     1     102.521 115.982 119.167  1.00  0.00     0.012 C 
ATOM     20  C   UNL     1     100.498 114.923 121.566  1.00  0.00    -0.025 C 
ATOM     21  C   UNL     1      99.701 116.973 120.199  1.00  0.00     0.005 C 
ATOM     22  C   UNL     1      99.379 116.034 121.403  1.00  0.00     0.003 C 
ATOM     23  C   UNL     1     101.763 115.546 122.245  1.00  0.00     0.010 C 
ATOM     24  C   UNL     1     100.037 113.755 122.513  1.00  0.00     0.012 C 
ATOM     25  C   UNL     1      99.079 116.871 122.733  1.00  0.00    -0.006 C 
ATOM     26  C   UNL     1     101.478 116.301 123.555  1.00  0.00     0.033 C 
ATOM     27  C   UNL     1     100.412 117.396 123.362  1.00  0.00     0.120 C 
ATOM     28  C   UNL     1      98.266 116.024 123.755  1.00  0.00     0.014 C 
ATOM     29  C   UNL     1      98.185 118.107 122.422  1.00  0.00     0.014 C 
ENDROOT
BRANCH   1  30
ATOM     30  C   UNL     1      98.986 115.586 114.886  1.00  0.00     0.048 C 
ATOM     31  O   UNL     1      97.972 115.717 114.149  1.00  0.00    -0.550 OA
ATOM     32  O   UNL     1      99.299 116.609 115.775  1.00  0.00    -0.550 OA
ENDBRANCH   1  30
BRANCH  27  33
ATOM     33  O   UNL     1     100.183 118.088 124.567  1.00  0.00    -0.393 OA
ATOM     34  H   UNL     1     101.051 118.438 124.896  1.00  0.00     0.210 HD
ENDBRANCH  27  33
TORSDOF 2
ENDMDL
