MODEL 1
REMARK VINA RESULT:    -5.449      0.000      0.000
REMARK INTER + INTRA:          -5.858
REMARK INTER:                  -5.768
REMARK INTRA:                  -0.091
REMARK UNBOUND:                -0.091
REMARK SMILES C=C(C)[C@H]1CC=C(C)C(=O)C1
REMARK SMILES IDX 8 1 7 2 6 3 5 4 4 5 11 6 9 7 10 8 2 9 1 10 3 11
REMARK H PARENT
REMARK Flexibility Score: inf
ROOT
ATOM      1  C   UNL     1       4.534  21.642   1.293  1.00  0.00     0.048 C 
ATOM      2  C   UNL     1       4.887  21.236   2.697  1.00  0.00    -0.012 C 
ATOM      3  C   UNL     1       6.022  20.556   2.931  1.00  0.00    -0.019 C 
ATOM      4  C   UNL     1       6.413  20.108   4.314  1.00  0.00     0.036 C 
ATOM      5  C   UNL     1       5.923  21.106   5.380  1.00  0.00     0.025 C 
ATOM      6  C   UNL     1       4.405  21.328   5.247  1.00  0.00     0.089 C 
ATOM      7  C   UNL     1       4.046  21.692   3.832  1.00  0.00     0.158 C 
ATOM      8  O   UNL     1       2.999  22.360   3.616  1.00  0.00    -0.295 OA
ENDROOT
BRANCH   5   9
ATOM      9  C   UNL     1       6.298  20.653   6.784  1.00  0.00    -0.077 C 
ATOM     10  C   UNL     1       6.521  21.561   7.748  1.00  0.00     0.008 C 
ATOM     11  C   UNL     1       6.426  19.189   7.129  1.00  0.00     0.039 C 
ENDBRANCH   5   9
TORSDOF 1
ENDMDL
MODEL 2
REMARK VINA RESULT:    -5.382      3.164      4.413
REMARK INTER + INTRA:          -5.788
REMARK INTER:                  -5.694
REMARK INTRA:                  -0.093
REMARK UNBOUND:                -0.091
REMARK SMILES C=C(C)[C@H]1CC=C(C)C(=O)C1
REMARK SMILES IDX 8 1 7 2 6 3 5 4 4 5 11 6 9 7 10 8 2 9 1 10 3 11
REMARK H PARENT
REMARK Flexibility Score: inf
ROOT
ATOM      1  C   UNL     1       6.859  18.550   6.620  1.00  0.00     0.048 C 
ATOM      2  C   UNL     1       5.922  19.698   6.877  1.00  0.00    -0.012 C 
ATOM      3  C   UNL     1       6.412  20.942   7.017  1.00  0.00    -0.019 C 
ATOM      4  C   UNL     1       5.521  22.123   7.294  1.00  0.00     0.036 C 
ATOM      5  C   UNL     1       4.144  21.948   6.628  1.00  0.00     0.025 C 
ATOM      6  C   UNL     1       3.502  20.619   7.067  1.00  0.00     0.089 C 
ATOM      7  C   UNL     1       4.456  19.475   6.851  1.00  0.00     0.158 C 
ATOM      8  O   UNL     1       3.994  18.314   6.684  1.00  0.00    -0.295 OA
ENDROOT
BRANCH   5   9
ATOM      9  C   UNL     1       3.229  23.129   6.916  1.00  0.00    -0.077 C 
ATOM     10  C   UNL     1       3.605  24.373   6.576  1.00  0.00     0.008 C 
ATOM     11  C   UNL     1       1.888  22.940   7.584  1.00  0.00     0.039 C 
ENDBRANCH   5   9
TORSDOF 1
ENDMDL
MODEL 3
REMARK VINA RESULT:    -5.173      3.118      3.927
REMARK INTER + INTRA:          -5.566
REMARK INTER:                  -5.468
REMARK INTRA:                  -0.098
REMARK UNBOUND:                -0.091
REMARK SMILES C=C(C)[C@H]1CC=C(C)C(=O)C1
REMARK SMILES IDX 8 1 7 2 6 3 5 4 4 5 11 6 9 7 10 8 2 9 1 10 3 11
REMARK H PARENT
REMARK Flexibility Score: inf
ROOT
ATOM      1  C   UNL     1       1.352  23.602   7.408  1.00  0.00     0.048 C 
ATOM      2  C   UNL     1       2.542  22.715   7.159  1.00  0.00    -0.012 C 
ATOM      3  C   UNL     1       3.750  23.263   6.941  1.00  0.00    -0.019 C 
ATOM      4  C   UNL     1       4.969  22.423   6.667  1.00  0.00     0.036 C 
ATOM      5  C   UNL     1       4.897  21.080   7.418  1.00  0.00     0.025 C 
ATOM      6  C   UNL     1       3.591  20.342   7.069  1.00  0.00     0.089 C 
ATOM      7  C   UNL     1       2.404  21.243   7.277  1.00  0.00     0.158 C 
ATOM      8  O   UNL     1       1.278  20.729   7.516  1.00  0.00    -0.295 OA
ENDROOT
BRANCH   5   9
ATOM      9  C   UNL     1       6.117  20.215   7.134  1.00  0.00    -0.077 C 
ATOM     10  C   UNL     1       7.189  20.743   6.520  1.00  0.00     0.008 C 
ATOM     11  C   UNL     1       6.157  18.760   7.530  1.00  0.00     0.039 C 
ENDBRANCH   5   9
TORSDOF 1
ENDMDL
MODEL 4
REMARK VINA RESULT:    -5.128      3.033      3.959
REMARK INTER + INTRA:          -5.518
REMARK INTER:                  -5.420
REMARK INTRA:                  -0.098
REMARK UNBOUND:                -0.091
REMARK SMILES C=C(C)[C@H]1CC=C(C)C(=O)C1
REMARK SMILES IDX 8 1 7 2 6 3 5 4 4 5 11 6 9 7 10 8 2 9 1 10 3 11
REMARK H PARENT
REMARK Flexibility Score: inf
ROOT
ATOM      1  C   UNL     1       1.064  23.249   7.271  1.00  0.00     0.048 C 
ATOM      2  C   UNL     1       2.382  22.529   7.353  1.00  0.00    -0.012 C 
ATOM      3  C   UNL     1       2.414  21.229   7.693  1.00  0.00    -0.019 C 
ATOM      4  C   UNL     1       3.707  20.466   7.809  1.00  0.00     0.036 C 
ATOM      5  C   UNL     1       4.750  20.987   6.803  1.00  0.00     0.025 C 
ATOM      6  C   UNL     1       4.951  22.504   6.977  1.00  0.00     0.089 C 
ATOM      7  C   UNL     1       3.628  23.220   6.939  1.00  0.00     0.158 C 
ATOM      8  O   UNL     1       3.596  24.429   6.585  1.00  0.00    -0.295 OA
ENDROOT
BRANCH   5   9
ATOM      9  C   UNL     1       6.067  20.234   6.924  1.00  0.00    -0.077 C 
ATOM     10  C   UNL     1       7.222  20.840   6.606  1.00  0.00     0.008 C 
ATOM     11  C   UNL     1       6.112  18.802   7.400  1.00  0.00     0.039 C 
ENDBRANCH   5   9
TORSDOF 1
ENDMDL
MODEL 5
REMARK VINA RESULT:    -5.110      1.323      4.215
REMARK INTER + INTRA:          -5.499
REMARK INTER:                  -5.403
REMARK INTRA:                  -0.097
REMARK UNBOUND:                -0.091
REMARK SMILES C=C(C)[C@H]1CC=C(C)C(=O)C1
REMARK SMILES IDX 8 1 7 2 6 3 5 4 4 5 11 6 9 7 10 8 2 9 1 10 3 11
REMARK H PARENT
REMARK Flexibility Score: inf
ROOT
ATOM      1  C   UNL     1       6.422  21.070   7.483  1.00  0.00     0.048 C 
ATOM      2  C   UNL     1       6.030  21.245   6.041  1.00  0.00    -0.012 C 
ATOM      3  C   UNL     1       6.932  21.019   5.071  1.00  0.00    -0.019 C 
ATOM      4  C   UNL     1       6.599  21.197   3.614  1.00  0.00     0.036 C 
ATOM      5  C   UNL     1       5.123  20.857   3.337  1.00  0.00     0.025 C 
ATOM      6  C   UNL     1       4.202  21.686   4.251  1.00  0.00     0.089 C 
ATOM      7  C   UNL     1       4.621  21.546   5.690  1.00  0.00     0.158 C 
ATOM      8  O   UNL     1       3.765  21.724   6.598  1.00  0.00    -0.295 OA
ENDROOT
BRANCH   5   9
ATOM      9  C   UNL     1       4.770  21.052   1.869  1.00  0.00    -0.077 C 
ATOM     10  C   UNL     1       4.418  22.266   1.416  1.00  0.00     0.008 C 
ATOM     11  C   UNL     1       4.809  19.902   0.893  1.00  0.00     0.039 C 
ENDBRANCH   5   9
TORSDOF 1
ENDMDL
MODEL 6
REMARK VINA RESULT:    -4.928      3.385      4.825
REMARK INTER + INTRA:          -5.307
REMARK INTER:                  -5.214
REMARK INTRA:                  -0.093
REMARK UNBOUND:                -0.091
REMARK SMILES C=C(C)[C@H]1CC=C(C)C(=O)C1
REMARK SMILES IDX 8 1 7 2 6 3 5 4 4 5 11 6 9 7 10 8 2 9 1 10 3 11
REMARK H PARENT
REMARK Flexibility Score: inf
ROOT
ATOM      1  C   UNL     1       6.511  18.543   7.003  1.00  0.00     0.048 C 
ATOM      2  C   UNL     1       5.388  19.542   6.965  1.00  0.00    -0.012 C 
ATOM      3  C   UNL     1       4.113  19.116   6.976  1.00  0.00    -0.019 C 
ATOM      4  C   UNL     1       2.952  20.072   6.920  1.00  0.00     0.036 C 
ATOM      5  C   UNL     1       3.289  21.396   7.631  1.00  0.00     0.025 C 
ATOM      6  C   UNL     1       4.575  22.006   7.044  1.00  0.00     0.089 C 
ATOM      7  C   UNL     1       5.687  20.993   7.041  1.00  0.00     0.158 C 
ATOM      8  O   UNL     1       6.882  21.394   7.067  1.00  0.00    -0.295 OA
ENDROOT
BRANCH   5   9
ATOM      9  C   UNL     1       2.127  22.377   7.564  1.00  0.00    -0.077 C 
ATOM     10  C   UNL     1       0.925  22.032   8.052  1.00  0.00     0.008 C 
ATOM     11  C   UNL     1       2.291  23.749   6.957  1.00  0.00     0.039 C 
ENDBRANCH   5   9
TORSDOF 1
ENDMDL
MODEL 7
REMARK VINA RESULT:    -4.902      1.334      2.060
REMARK INTER + INTRA:          -5.279
REMARK INTER:                  -5.181
REMARK INTRA:                  -0.098
REMARK UNBOUND:                -0.091
REMARK SMILES C=C(C)[C@H]1CC=C(C)C(=O)C1
REMARK SMILES IDX 8 1 7 2 6 3 5 4 4 5 11 6 9 7 10 8 2 9 1 10 3 11
REMARK H PARENT
REMARK Flexibility Score: inf
ROOT
ATOM      1  C   UNL     1       2.836  22.309   2.349  1.00  0.00     0.048 C 
ATOM      2  C   UNL     1       3.747  21.933   3.487  1.00  0.00    -0.012 C 
ATOM      3  C   UNL     1       3.434  22.298   4.742  1.00  0.00    -0.019 C 
ATOM      4  C   UNL     1       4.319  21.966   5.913  1.00  0.00     0.036 C 
ATOM      5  C   UNL     1       5.043  20.624   5.698  1.00  0.00     0.025 C 
ATOM      6  C   UNL     1       5.819  20.641   4.368  1.00  0.00     0.089 C 
ATOM      7  C   UNL     1       4.919  21.059   3.237  1.00  0.00     0.158 C 
ATOM      8  O   UNL     1       5.194  20.686   2.065  1.00  0.00    -0.295 OA
ENDROOT
BRANCH   5   9
ATOM      9  C   UNL     1       5.954  20.287   6.870  1.00  0.00    -0.077 C 
ATOM     10  C   UNL     1       6.511  21.270   7.596  1.00  0.00     0.008 C 
ATOM     11  C   UNL     1       6.254  18.856   7.246  1.00  0.00     0.039 C 
ENDBRANCH   5   9
TORSDOF 1
ENDMDL
MODEL 8
REMARK VINA RESULT:    -4.694      2.736      3.918
REMARK INTER + INTRA:          -5.059
REMARK INTER:                  -4.972
REMARK INTRA:                  -0.087
REMARK UNBOUND:                -0.091
REMARK SMILES C=C(C)[C@H]1CC=C(C)C(=O)C1
REMARK SMILES IDX 8 1 7 2 6 3 5 4 4 5 11 6 9 7 10 8 2 9 1 10 3 11
REMARK H PARENT
REMARK Flexibility Score: inf
ROOT
ATOM      1  C   UNL     1       0.955  18.150   6.652  1.00  0.00     0.048 C 
ATOM      2  C   UNL     1       2.265  18.883   6.747  1.00  0.00    -0.012 C 
ATOM      3  C   UNL     1       3.419  18.218   6.564  1.00  0.00    -0.019 C 
ATOM      4  C   UNL     1       4.757  18.900   6.667  1.00  0.00     0.036 C 
ATOM      5  C   UNL     1       4.672  20.364   6.198  1.00  0.00     0.025 C 
ATOM      6  C   UNL     1       3.576  21.113   6.978  1.00  0.00     0.089 C 
ATOM      7  C   UNL     1       2.276  20.357   6.920  1.00  0.00     0.158 C 
ATOM      8  O   UNL     1       1.193  20.987   7.057  1.00  0.00    -0.295 OA
ENDROOT
BRANCH   5   9
ATOM      9  C   UNL     1       6.017  21.067   6.315  1.00  0.00    -0.077 C 
ATOM     10  C   UNL     1       6.803  21.203   5.235  1.00  0.00     0.008 C 
ATOM     11  C   UNL     1       6.498  21.626   7.632  1.00  0.00     0.039 C 
ENDBRANCH   5   9
TORSDOF 1
ENDMDL
