MODEL 1
REMARK VINA RESULT:    -3.194      0.000      0.000
REMARK INTER + INTRA:          -2.950
REMARK INTER:                  -3.568
REMARK INTRA:                   0.617
REMARK UNBOUND:                 0.617
REMARK SMILES O=C([O-])c1ccccc1C(=O)[O-]
REMARK SMILES IDX 4 1 9 2 5 3 8 4 6 5 7 6 2 7 1 8 3 9 10 10 11 11 12 12
REMARK H PARENT
REMARK Flexibility Score: inf
ROOT
ATOM      1  C   UNL     1      22.605   6.709   6.011  1.00  0.00     0.006 A 
ATOM      2  C   UNL     1      22.026   5.629   6.736  1.00  0.00     0.006 A 
ATOM      3  C   UNL     1      21.982   7.971   6.051  1.00  0.00     0.010 A 
ATOM      4  C   UNL     1      20.884   5.867   7.523  1.00  0.00     0.010 A 
ATOM      5  C   UNL     1      20.837   8.178   6.820  1.00  0.00     0.001 A 
ATOM      6  C   UNL     1      20.296   7.132   7.565  1.00  0.00     0.001 A 
ENDROOT
BRANCH   1   7
ATOM      7  C   UNL     1      23.881   6.582   5.271  1.00  0.00     0.072 C 
ATOM      8  O   UNL     1      24.274   5.452   4.875  1.00  0.00    -0.545 OA
ATOM      9  O   UNL     1      24.628   7.708   4.946  1.00  0.00    -0.545 OA
ENDBRANCH   1   7
BRANCH   2  10
ATOM     10  C   UNL     1      22.528   4.238   6.647  1.00  0.00     0.072 C 
ATOM     11  O   UNL     1      22.243   3.512   5.657  1.00  0.00    -0.545 OA
ATOM     12  O   UNL     1      23.268   3.696   7.690  1.00  0.00    -0.545 OA
ENDBRANCH   2  10
TORSDOF 2
ENDMDL
MODEL 2
REMARK VINA RESULT:    -3.192      0.090      3.056
REMARK INTER + INTRA:          -2.948
REMARK INTER:                  -3.478
REMARK INTRA:                   0.530
REMARK UNBOUND:                 0.617
REMARK SMILES O=C([O-])c1ccccc1C(=O)[O-]
REMARK SMILES IDX 4 1 9 2 5 3 8 4 6 5 7 6 2 7 1 8 3 9 10 10 11 11 12 12
REMARK H PARENT
REMARK Flexibility Score: inf
ROOT
ATOM      1  C   UNL     1      22.026   5.591   6.754  1.00  0.00     0.006 A 
ATOM      2  C   UNL     1      22.590   6.653   5.993  1.00  0.00     0.006 A 
ATOM      3  C   UNL     1      20.912   5.853   7.574  1.00  0.00     0.010 A 
ATOM      4  C   UNL     1      21.981   7.921   6.031  1.00  0.00     0.010 A 
ATOM      5  C   UNL     1      20.338   7.124   7.612  1.00  0.00     0.001 A 
ATOM      6  C   UNL     1      20.863   8.153   6.833  1.00  0.00     0.001 A 
ENDROOT
BRANCH   1   7
ATOM      7  C   UNL     1      22.517   4.196   6.666  1.00  0.00     0.072 C 
ATOM      8  O   UNL     1      23.249   3.725   7.577  1.00  0.00    -0.545 OA
ATOM      9  O   UNL     1      22.125   3.371   5.620  1.00  0.00    -0.545 OA
ENDBRANCH   1   7
BRANCH   2  10
ATOM     10  C   UNL     1      23.840   6.509   5.210  1.00  0.00     0.072 C 
ATOM     11  O   UNL     1      24.263   5.371   4.876  1.00  0.00    -0.545 OA
ATOM     12  O   UNL     1      24.596   7.631   4.891  1.00  0.00    -0.545 OA
ENDBRANCH   2  10
TORSDOF 2
ENDMDL
MODEL 3
REMARK VINA RESULT:    -3.170     11.763     13.211
REMARK INTER + INTRA:          -2.923
REMARK INTER:                  -2.813
REMARK INTRA:                  -0.110
REMARK UNBOUND:                 0.617
REMARK SMILES O=C([O-])c1ccccc1C(=O)[O-]
REMARK SMILES IDX 4 1 9 2 5 3 8 4 6 5 7 6 2 7 1 8 3 9 10 10 11 11 12 12
REMARK H PARENT
REMARK Flexibility Score: inf
ROOT
ATOM      1  C   UNL     1      21.235   5.515  19.139  1.00  0.00     0.006 A 
ATOM      2  C   UNL     1      20.272   4.687  18.497  1.00  0.00     0.006 A 
ATOM      3  C   UNL     1      22.071   6.330  18.353  1.00  0.00     0.010 A 
ATOM      4  C   UNL     1      20.138   4.754  17.097  1.00  0.00     0.010 A 
ATOM      5  C   UNL     1      21.934   6.363  16.965  1.00  0.00     0.001 A 
ATOM      6  C   UNL     1      20.962   5.586  16.339  1.00  0.00     0.001 A 
ENDROOT
BRANCH   1   7
ATOM      7  C   UNL     1      21.350   5.611  20.613  1.00  0.00     0.072 C 
ATOM      8  O   UNL     1      20.971   6.654  21.210  1.00  0.00    -0.545 OA
ATOM      9  O   UNL     1      21.813   4.536  21.361  1.00  0.00    -0.545 OA
ENDBRANCH   1   7
BRANCH   2  10
ATOM     10  C   UNL     1      19.445   3.697  19.225  1.00  0.00     0.072 C 
ATOM     11  O   UNL     1      19.692   2.465  19.141  1.00  0.00    -0.545 OA
ATOM     12  O   UNL     1      18.343   4.116  19.961  1.00  0.00    -0.545 OA
ENDBRANCH   2  10
TORSDOF 2
ENDMDL
MODEL 4
REMARK VINA RESULT:    -3.075     11.751     13.337
REMARK INTER + INTRA:          -2.817
REMARK INTER:                  -2.714
REMARK INTRA:                  -0.103
REMARK UNBOUND:                 0.617
REMARK SMILES O=C([O-])c1ccccc1C(=O)[O-]
REMARK SMILES IDX 4 1 9 2 5 3 8 4 6 5 7 6 2 7 1 8 3 9 10 10 11 11 12 12
REMARK H PARENT
REMARK Flexibility Score: inf
ROOT
ATOM      1  C   UNL     1      20.321   4.672  18.456  1.00  0.00     0.006 A 
ATOM      2  C   UNL     1      21.249   5.499  19.149  1.00  0.00     0.006 A 
ATOM      3  C   UNL     1      20.250   4.750  17.052  1.00  0.00     0.010 A 
ATOM      4  C   UNL     1      22.115   6.325  18.408  1.00  0.00     0.010 A 
ATOM      5  C   UNL     1      21.103   5.593  16.341  1.00  0.00     0.001 A 
ATOM      6  C   UNL     1      22.042   6.370  17.016  1.00  0.00     0.001 A 
ENDROOT
BRANCH   1   7
ATOM      7  C   UNL     1      19.471   3.673  19.145  1.00  0.00     0.072 C 
ATOM      8  O   UNL     1      19.785   2.453  19.125  1.00  0.00    -0.545 OA
ATOM      9  O   UNL     1      18.358   4.071  19.875  1.00  0.00    -0.545 OA
ENDBRANCH   1   7
BRANCH   2  10
ATOM     10  C   UNL     1      21.302   5.589  20.627  1.00  0.00     0.072 C 
ATOM     11  O   UNL     1      21.000   6.659  21.219  1.00  0.00    -0.545 OA
ATOM     12  O   UNL     1      21.751   4.508  21.375  1.00  0.00    -0.545 OA
ENDBRANCH   2  10
TORSDOF 2
ENDMDL
MODEL 5
REMARK VINA RESULT:    -2.926      2.111      3.264
REMARK INTER + INTRA:          -2.651
REMARK INTER:                  -2.984
REMARK INTRA:                   0.333
REMARK UNBOUND:                 0.617
REMARK SMILES O=C([O-])c1ccccc1C(=O)[O-]
REMARK SMILES IDX 4 1 9 2 5 3 8 4 6 5 7 6 2 7 1 8 3 9 10 10 11 11 12 12
REMARK H PARENT
REMARK Flexibility Score: inf
ROOT
ATOM      1  C   UNL     1      22.490   6.996   5.991  1.00  0.00     0.006 A 
ATOM      2  C   UNL     1      22.919   5.639   6.020  1.00  0.00     0.006 A 
ATOM      3  C   UNL     1      23.342   7.971   5.439  1.00  0.00     0.010 A 
ATOM      4  C   UNL     1      24.154   5.300   5.437  1.00  0.00     0.010 A 
ATOM      5  C   UNL     1      24.572   7.614   4.887  1.00  0.00     0.001 A 
ATOM      6  C   UNL     1      24.973   6.280   4.875  1.00  0.00     0.001 A 
ENDROOT
BRANCH   1   7
ATOM      7  C   UNL     1      21.149   7.421   6.454  1.00  0.00     0.072 C 
ATOM      8  O   UNL     1      20.129   7.162   5.761  1.00  0.00    -0.545 OA
ATOM      9  O   UNL     1      20.988   8.047   7.684  1.00  0.00    -0.545 OA
ENDBRANCH   1   7
BRANCH   2  10
ATOM     10  C   UNL     1      22.157   4.567   6.701  1.00  0.00     0.072 C 
ATOM     11  O   UNL     1      21.391   4.833   7.664  1.00  0.00    -0.545 OA
ATOM     12  O   UNL     1      22.330   3.241   6.323  1.00  0.00    -0.545 OA
ENDBRANCH   2  10
TORSDOF 2
ENDMDL
MODEL 6
REMARK VINA RESULT:    -2.889      2.093      3.962
REMARK INTER + INTRA:          -2.610
REMARK INTER:                  -2.988
REMARK INTRA:                   0.378
REMARK UNBOUND:                 0.617
REMARK SMILES O=C([O-])c1ccccc1C(=O)[O-]
REMARK SMILES IDX 4 1 9 2 5 3 8 4 6 5 7 6 2 7 1 8 3 9 10 10 11 11 12 12
REMARK H PARENT
REMARK Flexibility Score: inf
ROOT
ATOM      1  C   UNL     1      22.955   5.588   6.041  1.00  0.00     0.006 A 
ATOM      2  C   UNL     1      22.509   6.938   5.999  1.00  0.00     0.006 A 
ATOM      3  C   UNL     1      24.192   5.257   5.456  1.00  0.00     0.010 A 
ATOM      4  C   UNL     1      23.344   7.918   5.430  1.00  0.00     0.010 A 
ATOM      5  C   UNL     1      24.994   6.242   4.878  1.00  0.00     0.001 A 
ATOM      6  C   UNL     1      24.577   7.571   4.876  1.00  0.00     0.001 A 
ENDROOT
BRANCH   1   7
ATOM      7  C   UNL     1      22.205   4.520   6.742  1.00  0.00     0.072 C 
ATOM      8  O   UNL     1      21.395   4.814   7.662  1.00  0.00    -0.545 OA
ATOM      9  O   UNL     1      22.333   3.192   6.354  1.00  0.00    -0.545 OA
ENDBRANCH   1   7
BRANCH   2  10
ATOM     10  C   UNL     1      21.166   7.359   6.463  1.00  0.00     0.072 C 
ATOM     11  O   UNL     1      20.138   7.100   5.782  1.00  0.00    -0.545 OA
ATOM     12  O   UNL     1      21.032   8.104   7.628  1.00  0.00    -0.545 OA
ENDBRANCH   2  10
TORSDOF 2
ENDMDL
MODEL 7
REMARK VINA RESULT:    -2.372      2.200      3.371
REMARK INTER + INTRA:          -2.032
REMARK INTER:                  -2.291
REMARK INTRA:                   0.260
REMARK UNBOUND:                 0.617
REMARK SMILES O=C([O-])c1ccccc1C(=O)[O-]
REMARK SMILES IDX 4 1 9 2 5 3 8 4 6 5 7 6 2 7 1 8 3 9 10 10 11 11 12 12
REMARK H PARENT
REMARK Flexibility Score: inf
ROOT
ATOM      1  C   UNL     1      23.034   6.306   5.989  1.00  0.00     0.006 A 
ATOM      2  C   UNL     1      21.811   6.515   6.685  1.00  0.00     0.006 A 
ATOM      3  C   UNL     1      23.527   4.995   5.849  1.00  0.00     0.010 A 
ATOM      4  C   UNL     1      21.095   5.401   7.160  1.00  0.00     0.010 A 
ATOM      5  C   UNL     1      22.811   3.907   6.348  1.00  0.00     0.001 A 
ATOM      6  C   UNL     1      21.591   4.108   6.991  1.00  0.00     0.001 A 
ENDROOT
BRANCH   1   7
ATOM      7  C   UNL     1      23.781   7.407   5.336  1.00  0.00     0.072 C 
ATOM      8  O   UNL     1      23.164   8.405   4.876  1.00  0.00    -0.545 OA
ATOM      9  O   UNL     1      25.169   7.388   5.282  1.00  0.00    -0.545 OA
ENDBRANCH   1   7
BRANCH   2  10
ATOM     10  C   UNL     1      21.283   7.863   7.001  1.00  0.00     0.072 C 
ATOM     11  O   UNL     1      21.724   8.512   7.987  1.00  0.00    -0.545 OA
ATOM     12  O   UNL     1      20.246   8.400   6.249  1.00  0.00    -0.545 OA
ENDBRANCH   2  10
TORSDOF 2
ENDMDL
MODEL 8
REMARK VINA RESULT:    -2.354      2.207      3.852
REMARK INTER + INTRA:          -2.012
REMARK INTER:                  -2.220
REMARK INTRA:                   0.208
REMARK UNBOUND:                 0.617
REMARK SMILES O=C([O-])c1ccccc1C(=O)[O-]
REMARK SMILES IDX 4 1 9 2 5 3 8 4 6 5 7 6 2 7 1 8 3 9 10 10 11 11 12 12
REMARK H PARENT
REMARK Flexibility Score: inf
ROOT
ATOM      1  C   UNL     1      21.810   6.480   6.681  1.00  0.00     0.006 A 
ATOM      2  C   UNL     1      23.039   6.316   5.983  1.00  0.00     0.006 A 
ATOM      3  C   UNL     1      21.117   5.337   7.124  1.00  0.00     0.010 A 
ATOM      4  C   UNL     1      23.561   5.020   5.810  1.00  0.00     0.010 A 
ATOM      5  C   UNL     1      21.643   4.061   6.922  1.00  0.00     0.001 A 
ATOM      6  C   UNL     1      22.867   3.903   6.277  1.00  0.00     0.001 A 
ENDROOT
BRANCH   1   7
ATOM      7  C   UNL     1      21.259   7.810   7.029  1.00  0.00     0.072 C 
ATOM      8  O   UNL     1      20.288   8.283   6.379  1.00  0.00    -0.545 OA
ATOM      9  O   UNL     1      21.758   8.524   8.112  1.00  0.00    -0.545 OA
ENDBRANCH   1   7
BRANCH   2  10
ATOM     10  C   UNL     1      23.770   7.445   5.360  1.00  0.00     0.072 C 
ATOM     11  O   UNL     1      23.146   8.426   4.875  1.00  0.00    -0.545 OA
ATOM     12  O   UNL     1      25.154   7.401   5.246  1.00  0.00    -0.545 OA
ENDBRANCH   2  10
TORSDOF 2
ENDMDL
MODEL 9
REMARK VINA RESULT:    -2.194     11.900     13.259
REMARK INTER + INTRA:          -1.833
REMARK INTER:                  -2.049
REMARK INTRA:                   0.216
REMARK UNBOUND:                 0.617
REMARK SMILES O=C([O-])c1ccccc1C(=O)[O-]
REMARK SMILES IDX 4 1 9 2 5 3 8 4 6 5 7 6 2 7 1 8 3 9 10 10 11 11 12 12
REMARK H PARENT
REMARK Flexibility Score: inf
ROOT
ATOM      1  C   UNL     1      20.378   4.811  18.425  1.00  0.00     0.006 A 
ATOM      2  C   UNL     1      20.361   4.806  19.848  1.00  0.00     0.006 A 
ATOM      3  C   UNL     1      19.328   4.183  17.727  1.00  0.00     0.010 A 
ATOM      4  C   UNL     1      19.266   4.232  20.518  1.00  0.00     0.010 A 
ATOM      5  C   UNL     1      18.263   3.601  18.413  1.00  0.00     0.001 A 
ATOM      6  C   UNL     1      18.225   3.635  19.805  1.00  0.00     0.001 A 
ENDROOT
BRANCH   1   7
ATOM      7  C   UNL     1      21.418   5.513  17.639  1.00  0.00     0.072 C 
ATOM      8  O   UNL     1      21.722   5.107  16.485  1.00  0.00    -0.545 OA
ATOM      9  O   UNL     1      22.024   6.662  18.131  1.00  0.00    -0.545 OA
ENDBRANCH   1   7
BRANCH   2  10
ATOM     10  C   UNL     1      21.484   5.317  20.668  1.00  0.00     0.072 C 
ATOM     11  O   UNL     1      22.521   4.625  20.844  1.00  0.00    -0.545 OA
ATOM     12  O   UNL     1      21.377   6.546  21.309  1.00  0.00    -0.545 OA
ENDBRANCH   2  10
TORSDOF 2
ENDMDL
