MODEL 1
REMARK VINA RESULT:    -3.380      0.000      0.000
REMARK INTER + INTRA:         -10.234
REMARK INTER:                  -8.913
REMARK INTRA:                  -1.321
REMARK UNBOUND:                -1.321
REMARK SMILES CCCCCCCCCCCCCCCCCCCCCCCCCCCCCC(=O)[O-]
REMARK SMILES IDX 16 1 17 2 18 3 19 4 20 5 21 6 22 7 23 8 24 9 25 10 26 11
REMARK SMILES IDX 27 12 28 13 29 14 30 15 31 16 32 17 15 18 14 19 13 20 12 21
REMARK SMILES IDX 11 22 10 23 9 24 8 25 7 26 6 27 5 28 4 29 3 30 2 31 1 32
REMARK H PARENT
REMARK Flexibility Score: inf
ROOT
ATOM      1  C   UNL     1       6.976  -4.158  -4.926  1.00  0.00     0.000 C 
ENDROOT
BRANCH   1   2
ATOM      2  C   UNL     1       7.519  -3.947  -6.352  1.00  0.00     0.000 C 
BRANCH   2   3
ATOM      3  C   UNL     1       8.563  -4.980  -6.816  1.00  0.00     0.000 C 
BRANCH   3   4
ATOM      4  C   UNL     1       8.637  -5.125  -8.347  1.00  0.00     0.000 C 
BRANCH   4   5
ATOM      5  C   UNL     1       9.023  -6.547  -8.801  1.00  0.00     0.000 C 
BRANCH   5   6
ATOM      6  C   UNL     1       9.042  -7.611  -7.691  1.00  0.00     0.000 C 
BRANCH   6   7
ATOM      7  C   UNL     1       8.492  -8.972  -8.147  1.00  0.00     0.000 C 
BRANCH   7   8
ATOM      8  C   UNL     1       8.791  -9.276  -9.626  1.00  0.00     0.000 C 
BRANCH   8   9
ATOM      9  C   UNL     1       7.553  -9.470 -10.521  1.00  0.00     0.000 C 
BRANCH   9  10
ATOM     10  C   UNL     1       6.255  -9.676  -9.722  1.00  0.00     0.000 C 
BRANCH  10  11
ATOM     11  C   UNL     1       5.277 -10.628 -10.443  1.00  0.00     0.000 C 
BRANCH  11  12
ATOM     12  C   UNL     1       4.883 -10.167 -11.857  1.00  0.00     0.000 C 
BRANCH  12  13
ATOM     13  C   UNL     1       3.371 -10.239 -12.113  1.00  0.00     0.006 C 
BRANCH  13  14
ATOM     14  C   UNL     1       2.585  -9.556 -10.988  1.00  0.00     0.053 C 
BRANCH  14  15
ATOM     15  C   UNL     1       2.042  -8.234 -11.437  1.00  0.00     0.041 C 
ATOM     16  O   UNL     1       2.827  -7.321 -11.808  1.00  0.00    -0.550 OA
ATOM     17  O   UNL     1       0.672  -8.001 -11.430  1.00  0.00    -0.550 OA
ENDBRANCH  14  15
ENDBRANCH  13  14
ENDBRANCH  12  13
ENDBRANCH  11  12
ENDBRANCH  10  11
ENDBRANCH   9  10
ENDBRANCH   8   9
ENDBRANCH   7   8
ENDBRANCH   6   7
ENDBRANCH   5   6
ENDBRANCH   4   5
ENDBRANCH   3   4
ENDBRANCH   2   3
ENDBRANCH   1   2
BRANCH   1  18
ATOM     18  C   UNL     1       7.936  -3.660  -3.831  1.00  0.00     0.000 C 
BRANCH  18  19
ATOM     19  C   UNL     1       8.831  -4.789  -3.275  1.00  0.00     0.000 C 
BRANCH  19  20
ATOM     20  C   UNL     1       8.112  -6.144  -3.154  1.00  0.00     0.000 C 
BRANCH  20  21
ATOM     21  C   UNL     1       8.105  -6.935  -4.469  1.00  0.00     0.000 C 
BRANCH  21  22
ATOM     22  C   UNL     1       8.766  -8.309  -4.288  1.00  0.00     0.000 C 
BRANCH  22  23
ATOM     23  C   UNL     1       7.788  -9.373  -3.761  1.00  0.00     0.000 C 
BRANCH  23  24
ATOM     24  C   UNL     1       8.125  -9.935  -2.365  1.00  0.00    -0.000 C 
BRANCH  24  25
ATOM     25  C   UNL     1       7.683  -9.026  -1.196  1.00  0.00    -0.000 C 
BRANCH  25  26
ATOM     26  C   UNL     1       8.056  -9.616   0.177  1.00  0.00    -0.000 C 
BRANCH  26  27
ATOM     27  C   UNL     1       7.124  -9.143   1.305  1.00  0.00    -0.000 C 
BRANCH  27  28
ATOM     28  C   UNL     1       5.981 -10.135   1.583  1.00  0.00    -0.000 C 
BRANCH  28  29
ATOM     29  C   UNL     1       6.259 -11.039   2.798  1.00  0.00    -0.000 C 
BRANCH  29  30
ATOM     30  C   UNL     1       5.362 -10.786   4.027  1.00  0.00    -0.000 C 
BRANCH  30  31
ATOM     31  C   UNL     1       3.851 -10.753   3.738  1.00  0.00    -0.003 C 
ATOM     32  C   UNL     1       3.185  -9.455   4.195  1.00  0.00     0.004 C 
ENDBRANCH  30  31
ENDBRANCH  29  30
ENDBRANCH  28  29
ENDBRANCH  27  28
ENDBRANCH  26  27
ENDBRANCH  25  26
ENDBRANCH  24  25
ENDBRANCH  23  24
ENDBRANCH  22  23
ENDBRANCH  21  22
ENDBRANCH  20  21
ENDBRANCH  19  20
ENDBRANCH  18  19
ENDBRANCH   1  18
TORSDOF 28
ENDMDL
MODEL 2
REMARK VINA RESULT:    -2.585      6.108     13.233
REMARK INTER + INTRA:          -8.139
REMARK INTER:                  -6.342
REMARK INTRA:                  -1.797
REMARK UNBOUND:                -1.321
REMARK SMILES CCCCCCCCCCCCCCCCCCCCCCCCCCCCCC(=O)[O-]
REMARK SMILES IDX 16 1 17 2 18 3 19 4 20 5 21 6 22 7 23 8 24 9 25 10 26 11
REMARK SMILES IDX 27 12 28 13 29 14 30 15 31 16 32 17 15 18 14 19 13 20 12 21
REMARK SMILES IDX 11 22 10 23 9 24 8 25 7 26 6 27 5 28 4 29 3 30 2 31 1 32
REMARK H PARENT
REMARK Flexibility Score: inf
ROOT
ATOM      1  C   UNL     1      -2.025  -8.023 -10.600  1.00  0.00     0.000 C 
ENDROOT
BRANCH   1   2
ATOM      2  C   UNL     1      -1.081  -9.152 -11.056  1.00  0.00     0.000 C 
BRANCH   2   3
ATOM      3  C   UNL     1       0.126  -8.698 -11.897  1.00  0.00     0.000 C 
BRANCH   3   4
ATOM      4  C   UNL     1       1.165  -9.811 -12.120  1.00  0.00     0.000 C 
BRANCH   4   5
ATOM      5  C   UNL     1       2.619  -9.300 -12.070  1.00  0.00     0.000 C 
BRANCH   5   6
ATOM      6  C   UNL     1       3.034  -8.621 -10.754  1.00  0.00     0.000 C 
BRANCH   6   7
ATOM      7  C   UNL     1       4.312  -9.216 -10.142  1.00  0.00     0.000 C 
BRANCH   7   8
ATOM      8  C   UNL     1       5.549  -9.037 -11.042  1.00  0.00     0.000 C 
BRANCH   8   9
ATOM      9  C   UNL     1       6.897  -9.385 -10.384  1.00  0.00     0.000 C 
BRANCH   9  10
ATOM     10  C   UNL     1       7.829  -8.169 -10.236  1.00  0.00     0.000 C 
BRANCH  10  11
ATOM     11  C   UNL     1       8.132  -7.852  -8.756  1.00  0.00     0.000 C 
BRANCH  11  12
ATOM     12  C   UNL     1       7.639  -6.469  -8.299  1.00  0.00     0.000 C 
BRANCH  12  13
ATOM     13  C   UNL     1       8.719  -5.654  -7.574  1.00  0.00     0.006 C 
BRANCH  13  14
ATOM     14  C   UNL     1       8.407  -5.527  -6.078  1.00  0.00     0.053 C 
BRANCH  14  15
ATOM     15  C   UNL     1       8.329  -4.089  -5.665  1.00  0.00     0.041 C 
ATOM     16  O   UNL     1       8.905  -3.702  -4.613  1.00  0.00    -0.550 OA
ATOM     17  O   UNL     1       7.608  -3.179  -6.428  1.00  0.00    -0.550 OA
ENDBRANCH  14  15
ENDBRANCH  13  14
ENDBRANCH  12  13
ENDBRANCH  11  12
ENDBRANCH  10  11
ENDBRANCH   9  10
ENDBRANCH   8   9
ENDBRANCH   7   8
ENDBRANCH   6   7
ENDBRANCH   5   6
ENDBRANCH   4   5
ENDBRANCH   3   4
ENDBRANCH   2   3
ENDBRANCH   1   2
BRANCH   1  18
ATOM     18  C   UNL     1      -3.260  -7.862 -11.504  1.00  0.00     0.000 C 
BRANCH  18  19
ATOM     19  C   UNL     1      -4.246  -9.043 -11.370  1.00  0.00     0.000 C 
BRANCH  19  20
ATOM     20  C   UNL     1      -5.648  -8.626 -10.894  1.00  0.00     0.000 C 
BRANCH  20  21
ATOM     21  C   UNL     1      -5.659  -7.259 -10.196  1.00  0.00     0.000 C 
BRANCH  21  22
ATOM     22  C   UNL     1      -6.639  -6.297 -10.884  1.00  0.00     0.000 C 
BRANCH  22  23
ATOM     23  C   UNL     1      -6.380  -4.825 -10.520  1.00  0.00     0.000 C 
BRANCH  23  24
ATOM     24  C   UNL     1      -6.006  -3.915 -11.707  1.00  0.00    -0.000 C 
BRANCH  24  25
ATOM     25  C   UNL     1      -4.519  -3.995 -12.120  1.00  0.00    -0.000 C 
BRANCH  25  26
ATOM     26  C   UNL     1      -3.595  -3.277 -11.119  1.00  0.00    -0.000 C 
BRANCH  26  27
ATOM     27  C   UNL     1      -3.967  -1.800 -10.913  1.00  0.00    -0.000 C 
BRANCH  27  28
ATOM     28  C   UNL     1      -2.836  -0.841 -11.325  1.00  0.00    -0.000 C 
BRANCH  28  29
ATOM     29  C   UNL     1      -1.722  -1.543 -12.125  1.00  0.00    -0.000 C 
BRANCH  29  30
ATOM     30  C   UNL     1      -0.315  -1.473 -11.497  1.00  0.00    -0.000 C 
BRANCH  30  31
ATOM     31  C   UNL     1       0.146  -0.065 -11.080  1.00  0.00    -0.003 C 
ATOM     32  C   UNL     1       1.064   0.592 -12.112  1.00  0.00     0.004 C 
ENDBRANCH  30  31
ENDBRANCH  29  30
ENDBRANCH  28  29
ENDBRANCH  27  28
ENDBRANCH  26  27
ENDBRANCH  25  26
ENDBRANCH  24  25
ENDBRANCH  23  24
ENDBRANCH  22  23
ENDBRANCH  21  22
ENDBRANCH  20  21
ENDBRANCH  19  20
ENDBRANCH  18  19
ENDBRANCH   1  18
TORSDOF 28
ENDMDL
MODEL 3
REMARK VINA RESULT:    -2.470     12.207     17.117
REMARK INTER + INTRA:          -7.835
REMARK INTER:                  -6.323
REMARK INTRA:                  -1.512
REMARK UNBOUND:                -1.321
REMARK SMILES CCCCCCCCCCCCCCCCCCCCCCCCCCCCCC(=O)[O-]
REMARK SMILES IDX 16 1 17 2 18 3 19 4 20 5 21 6 22 7 23 8 24 9 25 10 26 11
REMARK SMILES IDX 27 12 28 13 29 14 30 15 31 16 32 17 15 18 14 19 13 20 12 21
REMARK SMILES IDX 11 22 10 23 9 24 8 25 7 26 6 27 5 28 4 29 3 30 2 31 1 32
REMARK H PARENT
REMARK Flexibility Score: inf
ROOT
ATOM      1  C   UNL     1      -2.421  -0.473 -11.328  1.00  0.00     0.000 C 
ENDROOT
BRANCH   1   2
ATOM      2  C   UNL     1      -3.314  -1.554 -10.687  1.00  0.00     0.000 C 
BRANCH   2   3
ATOM      3  C   UNL     1      -3.435  -2.864 -11.489  1.00  0.00     0.000 C 
BRANCH   3   4
ATOM      4  C   UNL     1      -4.817  -3.529 -11.361  1.00  0.00     0.000 C 
BRANCH   4   5
ATOM      5  C   UNL     1      -4.845  -4.974 -11.899  1.00  0.00     0.000 C 
BRANCH   5   6
ATOM      6  C   UNL     1      -5.396  -6.029 -10.925  1.00  0.00     0.000 C 
BRANCH   6   7
ATOM      7  C   UNL     1      -4.357  -7.090 -10.530  1.00  0.00     0.000 C 
BRANCH   7   8
ATOM      8  C   UNL     1      -4.150  -8.162 -11.615  1.00  0.00     0.000 C 
BRANCH   8   9
ATOM      9  C   UNL     1      -3.570  -9.499 -11.117  1.00  0.00     0.000 C 
BRANCH   9  10
ATOM     10  C   UNL     1      -2.295  -9.923 -11.867  1.00  0.00     0.000 C 
BRANCH  10  11
ATOM     11  C   UNL     1      -1.194  -8.843 -11.790  1.00  0.00     0.000 C 
BRANCH  11  12
ATOM     12  C   UNL     1       0.216  -9.365 -12.111  1.00  0.00     0.000 C 
BRANCH  12  13
ATOM     13  C   UNL     1       1.326  -8.575 -11.403  1.00  0.00     0.006 C 
BRANCH  13  14
ATOM     14  C   UNL     1       2.709  -8.954 -11.945  1.00  0.00     0.053 C 
BRANCH  14  15
ATOM     15  C   UNL     1       3.624  -9.375 -10.836  1.00  0.00     0.041 C 
ATOM     16  O   UNL     1       3.174 -10.035  -9.861  1.00  0.00    -0.550 OA
ATOM     17  O   UNL     1       4.968  -9.025 -10.866  1.00  0.00    -0.550 OA
ENDBRANCH  14  15
ENDBRANCH  13  14
ENDBRANCH  12  13
ENDBRANCH  11  12
ENDBRANCH  10  11
ENDBRANCH   9  10
ENDBRANCH   8   9
ENDBRANCH   7   8
ENDBRANCH   6   7
ENDBRANCH   5   6
ENDBRANCH   4   5
ENDBRANCH   3   4
ENDBRANCH   2   3
ENDBRANCH   1   2
BRANCH   1  18
ATOM     18  C   UNL     1      -2.763   0.952 -10.860  1.00  0.00     0.000 C 
BRANCH  18  19
ATOM     19  C   UNL     1      -3.098   1.894 -12.036  1.00  0.00     0.000 C 
BRANCH  19  20
ATOM     20  C   UNL     1      -4.588   2.268 -12.123  1.00  0.00     0.000 C 
BRANCH  20  21
ATOM     21  C   UNL     1      -4.977   3.393 -11.155  1.00  0.00     0.000 C 
BRANCH  21  22
ATOM     22  C   UNL     1      -6.480   3.695 -11.237  1.00  0.00     0.000 C 
BRANCH  22  23
ATOM     23  C   UNL     1      -6.793   5.195 -11.100  1.00  0.00     0.000 C 
BRANCH  23  24
ATOM     24  C   UNL     1      -5.688   6.141 -11.611  1.00  0.00    -0.000 C 
BRANCH  24  25
ATOM     25  C   UNL     1      -5.804   7.590 -11.086  1.00  0.00    -0.000 C 
BRANCH  25  26
ATOM     26  C   UNL     1      -6.550   7.666  -9.740  1.00  0.00    -0.000 C 
BRANCH  26  27
ATOM     27  C   UNL     1      -7.530   8.847  -9.666  1.00  0.00    -0.000 C 
BRANCH  27  28
ATOM     28  C   UNL     1      -8.507   8.732  -8.482  1.00  0.00    -0.000 C 
BRANCH  28  29
ATOM     29  C   UNL     1      -9.881   8.173  -8.895  1.00  0.00    -0.000 C 
BRANCH  29  30
ATOM     30  C   UNL     1     -10.208   6.764  -8.361  1.00  0.00    -0.000 C 
BRANCH  30  31
ATOM     31  C   UNL     1      -9.269   5.646  -8.847  1.00  0.00    -0.003 C 
ATOM     32  C   UNL     1     -10.016   4.478  -9.492  1.00  0.00     0.004 C 
ENDBRANCH  30  31
ENDBRANCH  29  30
ENDBRANCH  28  29
ENDBRANCH  27  28
ENDBRANCH  26  27
ENDBRANCH  25  26
ENDBRANCH  24  25
ENDBRANCH  23  24
ENDBRANCH  22  23
ENDBRANCH  21  22
ENDBRANCH  20  21
ENDBRANCH  19  20
ENDBRANCH  18  19
ENDBRANCH   1  18
TORSDOF 28
ENDMDL
MODEL 4
REMARK VINA RESULT:    -1.826      1.233      1.997
REMARK INTER + INTRA:          -6.136
REMARK INTER:                  -4.463
REMARK INTRA:                  -1.673
REMARK UNBOUND:                -1.321
REMARK SMILES CCCCCCCCCCCCCCCCCCCCCCCCCCCCCC(=O)[O-]
REMARK SMILES IDX 16 1 17 2 18 3 19 4 20 5 21 6 22 7 23 8 24 9 25 10 26 11
REMARK SMILES IDX 27 12 28 13 29 14 30 15 31 16 32 17 15 18 14 19 13 20 12 21
REMARK SMILES IDX 11 22 10 23 9 24 8 25 7 26 6 27 5 28 4 29 3 30 2 31 1 32
REMARK H PARENT
REMARK Flexibility Score: inf
ROOT
ATOM      1  C   UNL     1       7.511  -4.325  -5.960  1.00  0.00     0.000 C 
ENDROOT
BRANCH   1   2
ATOM      2  C   UNL     1       8.195  -5.538  -6.622  1.00  0.00     0.000 C 
BRANCH   2   3
ATOM      3  C   UNL     1       7.354  -6.829  -6.652  1.00  0.00     0.000 C 
BRANCH   3   4
ATOM      4  C   UNL     1       8.174  -8.079  -7.017  1.00  0.00     0.000 C 
BRANCH   4   5
ATOM      5  C   UNL     1       9.082  -7.868  -8.245  1.00  0.00     0.000 C 
BRANCH   5   6
ATOM      6  C   UNL     1       8.348  -7.611  -9.572  1.00  0.00     0.000 C 
BRANCH   6   7
ATOM      7  C   UNL     1       8.985  -8.337 -10.768  1.00  0.00     0.000 C 
BRANCH   7   8
ATOM      8  C   UNL     1       8.035  -9.349 -11.432  1.00  0.00     0.000 C 
BRANCH   8   9
ATOM      9  C   UNL     1       6.595  -9.358 -10.884  1.00  0.00     0.000 C 
BRANCH   9  10
ATOM     10  C   UNL     1       5.631 -10.207 -11.730  1.00  0.00     0.000 C 
BRANCH  10  11
ATOM     11  C   UNL     1       4.276 -10.421 -11.022  1.00  0.00     0.000 C 
BRANCH  11  12
ATOM     12  C   UNL     1       3.065 -10.406 -11.971  1.00  0.00     0.000 C 
BRANCH  12  13
ATOM     13  C   UNL     1       1.722 -10.489 -11.233  1.00  0.00     0.006 C 
BRANCH  13  14
ATOM     14  C   UNL     1       0.571 -10.002 -12.121  1.00  0.00     0.053 C 
BRANCH  14  15
ATOM     15  C   UNL     1       0.089  -8.652 -11.685  1.00  0.00     0.041 C 
ATOM     16  O   UNL     1       0.915  -7.728 -11.461  1.00  0.00    -0.550 OA
ATOM     17  O   UNL     1      -1.269  -8.417 -11.506  1.00  0.00    -0.550 OA
ENDBRANCH  14  15
ENDBRANCH  13  14
ENDBRANCH  12  13
ENDBRANCH  11  12
ENDBRANCH  10  11
ENDBRANCH   9  10
ENDBRANCH   8   9
ENDBRANCH   7   8
ENDBRANCH   6   7
ENDBRANCH   5   6
ENDBRANCH   4   5
ENDBRANCH   3   4
ENDBRANCH   2   3
ENDBRANCH   1   2
BRANCH   1  18
ATOM     18  C   UNL     1       7.827  -4.195  -4.460  1.00  0.00     0.000 C 
BRANCH  18  19
ATOM     19  C   UNL     1       7.308  -5.398  -3.642  1.00  0.00     0.000 C 
BRANCH  19  20
ATOM     20  C   UNL     1       8.428  -6.293  -3.085  1.00  0.00     0.000 C 
BRANCH  20  21
ATOM     21  C   UNL     1       8.024  -7.771  -3.001  1.00  0.00     0.000 C 
BRANCH  21  22
ATOM     22  C   UNL     1       8.964  -8.548  -2.067  1.00  0.00     0.000 C 
BRANCH  22  23
ATOM     23  C   UNL     1       8.711  -8.242  -0.581  1.00  0.00     0.000 C 
BRANCH  23  24
ATOM     24  C   UNL     1       9.123  -9.363   0.394  1.00  0.00    -0.000 C 
BRANCH  24  25
ATOM     25  C   UNL     1       8.049 -10.457   0.590  1.00  0.00    -0.000 C 
BRANCH  25  26
ATOM     26  C   UNL     1       6.621  -9.881   0.587  1.00  0.00    -0.000 C 
BRANCH  26  27
ATOM     27  C   UNL     1       6.101  -9.563   1.999  1.00  0.00    -0.000 C 
BRANCH  27  28
ATOM     28  C   UNL     1       5.942 -10.822   2.868  1.00  0.00    -0.000 C 
BRANCH  28  29
ATOM     29  C   UNL     1       5.081 -10.577   4.121  1.00  0.00    -0.000 C 
BRANCH  29  30
ATOM     30  C   UNL     1       3.625 -10.148   3.847  1.00  0.00    -0.000 C 
BRANCH  30  31
ATOM     31  C   UNL     1       3.004  -9.225   4.910  1.00  0.00    -0.003 C 
ATOM     32  C   UNL     1       3.094  -7.744   4.539  1.00  0.00     0.004 C 
ENDBRANCH  30  31
ENDBRANCH  29  30
ENDBRANCH  28  29
ENDBRANCH  27  28
ENDBRANCH  26  27
ENDBRANCH  25  26
ENDBRANCH  24  25
ENDBRANCH  23  24
ENDBRANCH  22  23
ENDBRANCH  21  22
ENDBRANCH  20  21
ENDBRANCH  19  20
ENDBRANCH  18  19
ENDBRANCH   1  18
TORSDOF 28
ENDMDL
MODEL 5
REMARK VINA RESULT:    -0.736      1.850      3.129
REMARK INTER + INTRA:          -3.262
REMARK INTER:                  -5.116
REMARK INTRA:                   1.854
REMARK UNBOUND:                -1.321
REMARK SMILES CCCCCCCCCCCCCCCCCCCCCCCCCCCCCC(=O)[O-]
REMARK SMILES IDX 16 1 17 2 18 3 19 4 20 5 21 6 22 7 23 8 24 9 25 10 26 11
REMARK SMILES IDX 27 12 28 13 29 14 30 15 31 16 32 17 15 18 14 19 13 20 12 21
REMARK SMILES IDX 11 22 10 23 9 24 8 25 7 26 6 27 5 28 4 29 3 30 2 31 1 32
REMARK H PARENT
REMARK Flexibility Score: inf
ROOT
ATOM      1  C   UNL     1       8.023  -4.575  -3.972  1.00  0.00     0.000 C 
ENDROOT
BRANCH   1   2
ATOM      2  C   UNL     1       8.529  -4.193  -5.376  1.00  0.00     0.000 C 
BRANCH   2   3
ATOM      3  C   UNL     1       7.517  -3.433  -6.254  1.00  0.00     0.000 C 
BRANCH   3   4
ATOM      4  C   UNL     1       7.623  -3.786  -7.748  1.00  0.00     0.000 C 
BRANCH   4   5
ATOM      5  C   UNL     1       7.436  -5.291  -8.028  1.00  0.00     0.000 C 
BRANCH   5   6
ATOM      6  C   UNL     1       8.728  -6.126  -8.037  1.00  0.00     0.000 C 
BRANCH   6   7
ATOM      7  C   UNL     1       9.125  -6.643  -6.645  1.00  0.00     0.000 C 
BRANCH   7   8
ATOM      8  C   UNL     1       8.982  -8.170  -6.509  1.00  0.00     0.000 C 
BRANCH   8   9
ATOM      9  C   UNL     1       8.922  -8.946  -7.837  1.00  0.00     0.000 C 
BRANCH   9  10
ATOM     10  C   UNL     1       9.104  -8.047  -9.072  1.00  0.00     0.000 C 
BRANCH  10  11
ATOM     11  C   UNL     1       7.986  -8.261 -10.114  1.00  0.00     0.000 C 
BRANCH  11  12
ATOM     12  C   UNL     1       8.474  -8.870 -11.439  1.00  0.00     0.000 C 
BRANCH  12  13
ATOM     13  C   UNL     1       7.782 -10.197 -11.782  1.00  0.00     0.006 C 
BRANCH  13  14
ATOM     14  C   UNL     1       6.269 -10.006 -11.947  1.00  0.00     0.053 C 
BRANCH  14  15
ATOM     15  C   UNL     1       5.530 -10.510 -10.745  1.00  0.00     0.041 C 
ATOM     16  O   UNL     1       4.272 -10.587 -10.763  1.00  0.00    -0.550 OA
ATOM     17  O   UNL     1       6.225 -10.877  -9.598  1.00  0.00    -0.550 OA
ENDBRANCH  14  15
ENDBRANCH  13  14
ENDBRANCH  12  13
ENDBRANCH  11  12
ENDBRANCH  10  11
ENDBRANCH   9  10
ENDBRANCH   8   9
ENDBRANCH   7   8
ENDBRANCH   6   7
ENDBRANCH   5   6
ENDBRANCH   4   5
ENDBRANCH   3   4
ENDBRANCH   2   3
ENDBRANCH   1   2
BRANCH   1  18
ATOM     18  C   UNL     1       8.529  -5.949  -3.497  1.00  0.00     0.000 C 
BRANCH  18  19
ATOM     19  C   UNL     1       7.497  -6.682  -2.613  1.00  0.00     0.000 C 
BRANCH  19  20
ATOM     20  C   UNL     1       8.101  -7.821  -1.774  1.00  0.00     0.000 C 
BRANCH  20  21
ATOM     21  C   UNL     1       7.918  -9.201  -2.421  1.00  0.00     0.000 C 
BRANCH  21  22
ATOM     22  C   UNL     1       7.897 -10.309  -1.359  1.00  0.00     0.000 C 
BRANCH  22  23
ATOM     23  C   UNL     1       9.125 -10.267  -0.433  1.00  0.00     0.000 C 
BRANCH  23  24
ATOM     24  C   UNL     1       8.813  -9.985   1.051  1.00  0.00    -0.000 C 
BRANCH  24  25
ATOM     25  C   UNL     1       7.934 -11.062   1.727  1.00  0.00    -0.000 C 
BRANCH  25  26
ATOM     26  C   UNL     1       8.152 -11.123   3.250  1.00  0.00    -0.000 C 
BRANCH  26  27
ATOM     27  C   UNL     1       6.851 -10.936   4.049  1.00  0.00    -0.000 C 
BRANCH  27  28
ATOM     28  C   UNL     1       5.730 -10.296   3.211  1.00  0.00    -0.000 C 
BRANCH  28  29
ATOM     29  C   UNL     1       4.383 -11.029   3.360  1.00  0.00    -0.000 C 
BRANCH  29  30
ATOM     30  C   UNL     1       3.226 -10.176   3.917  1.00  0.00    -0.000 C 
BRANCH  30  31
ATOM     31  C   UNL     1       3.642  -9.084   4.919  1.00  0.00    -0.003 C 
ATOM     32  C   UNL     1       3.633  -7.681   4.309  1.00  0.00     0.004 C 
ENDBRANCH  30  31
ENDBRANCH  29  30
ENDBRANCH  28  29
ENDBRANCH  27  28
ENDBRANCH  26  27
ENDBRANCH  25  26
ENDBRANCH  24  25
ENDBRANCH  23  24
ENDBRANCH  22  23
ENDBRANCH  21  22
ENDBRANCH  20  21
ENDBRANCH  19  20
ENDBRANCH  18  19
ENDBRANCH   1  18
TORSDOF 28
ENDMDL
MODEL 6
REMARK VINA RESULT:    -0.483      8.270     14.748
REMARK INTER + INTRA:          -2.594
REMARK INTER:                  -1.648
REMARK INTRA:                  -0.946
REMARK UNBOUND:                -1.321
REMARK SMILES CCCCCCCCCCCCCCCCCCCCCCCCCCCCCC(=O)[O-]
REMARK SMILES IDX 16 1 17 2 18 3 19 4 20 5 21 6 22 7 23 8 24 9 25 10 26 11
REMARK SMILES IDX 27 12 28 13 29 14 30 15 31 16 32 17 15 18 14 19 13 20 12 21
REMARK SMILES IDX 11 22 10 23 9 24 8 25 7 26 6 27 5 28 4 29 3 30 2 31 1 32
REMARK H PARENT
REMARK Flexibility Score: inf
ROOT
ATOM      1  C   UNL     1      -2.042  -7.665 -10.306  1.00  0.00     0.000 C 
ENDROOT
BRANCH   1   2
ATOM      2  C   UNL     1      -1.300  -8.897 -10.859  1.00  0.00     0.000 C 
BRANCH   2   3
ATOM      3  C   UNL     1       0.002  -8.590 -11.623  1.00  0.00     0.000 C 
BRANCH   3   4
ATOM      4  C   UNL     1       0.742  -9.854 -12.096  1.00  0.00     0.000 C 
BRANCH   4   5
ATOM      5  C   UNL     1       2.274  -9.743 -11.962  1.00  0.00     0.000 C 
BRANCH   5   6
ATOM      6  C   UNL     1       2.772  -8.857 -10.808  1.00  0.00     0.000 C 
BRANCH   6   7
ATOM      7  C   UNL     1       4.219  -9.162 -10.391  1.00  0.00     0.000 C 
BRANCH   7   8
ATOM      8  C   UNL     1       5.253  -8.723 -11.444  1.00  0.00     0.000 C 
BRANCH   8   9
ATOM      9  C   UNL     1       6.374  -9.739 -11.729  1.00  0.00     0.000 C 
BRANCH   9  10
ATOM     10  C   UNL     1       7.784  -9.140 -11.588  1.00  0.00     0.000 C 
BRANCH  10  11
ATOM     11  C   UNL     1       7.886  -8.181 -10.383  1.00  0.00     0.000 C 
BRANCH  11  12
ATOM     12  C   UNL     1       9.018  -8.528  -9.401  1.00  0.00     0.000 C 
BRANCH  12  13
ATOM     13  C   UNL     1       8.583  -9.513  -8.306  1.00  0.00     0.006 C 
BRANCH  13  14
ATOM     14  C   UNL     1       8.526  -8.828  -6.936  1.00  0.00     0.053 C 
BRANCH  14  15
ATOM     15  C   UNL     1       7.992  -9.760  -5.891  1.00  0.00     0.041 C 
ATOM     16  O   UNL     1       7.926  -9.390  -4.688  1.00  0.00    -0.550 OA
ATOM     17  O   UNL     1       7.584 -11.042  -6.239  1.00  0.00    -0.550 OA
ENDBRANCH  14  15
ENDBRANCH  13  14
ENDBRANCH  12  13
ENDBRANCH  11  12
ENDBRANCH  10  11
ENDBRANCH   9  10
ENDBRANCH   8   9
ENDBRANCH   7   8
ENDBRANCH   6   7
ENDBRANCH   5   6
ENDBRANCH   4   5
ENDBRANCH   3   4
ENDBRANCH   2   3
ENDBRANCH   1   2
BRANCH   1  18
ATOM     18  C   UNL     1      -3.071  -7.083 -11.291  1.00  0.00     0.000 C 
BRANCH  18  19
ATOM     19  C   UNL     1      -4.234  -8.059 -11.573  1.00  0.00     0.000 C 
BRANCH  19  20
ATOM     20  C   UNL     1      -5.624  -7.409 -11.468  1.00  0.00     0.000 C 
BRANCH  20  21
ATOM     21  C   UNL     1      -5.724  -6.397 -10.319  1.00  0.00     0.000 C 
BRANCH  21  22
ATOM     22  C   UNL     1      -5.409  -4.976 -10.809  1.00  0.00     0.000 C 
BRANCH  22  23
ATOM     23  C   UNL     1      -6.155  -4.615 -12.105  1.00  0.00     0.000 C 
BRANCH  23  24
ATOM     24  C   UNL     1      -6.870  -3.249 -12.087  1.00  0.00    -0.000 C 
BRANCH  24  25
ATOM     25  C   UNL     1      -7.832  -3.055 -10.893  1.00  0.00    -0.000 C 
BRANCH  25  26
ATOM     26  C   UNL     1      -8.790  -4.248 -10.714  1.00  0.00    -0.000 C 
BRANCH  26  27
ATOM     27  C   UNL     1      -9.731  -4.444 -11.914  1.00  0.00    -0.000 C 
BRANCH  27  28
ATOM     28  C   UNL     1     -10.823  -3.363 -11.992  1.00  0.00    -0.000 C 
BRANCH  28  29
ATOM     29  C   UNL     1     -10.246  -1.942 -12.124  1.00  0.00    -0.000 C 
BRANCH  29  30
ATOM     30  C   UNL     1     -11.104  -0.821 -11.503  1.00  0.00    -0.000 C 
BRANCH  30  31
ATOM     31  C   UNL     1     -10.906   0.574 -12.123  1.00  0.00    -0.003 C 
ATOM     32  C   UNL     1     -11.120   1.708 -11.120  1.00  0.00     0.004 C 
ENDBRANCH  30  31
ENDBRANCH  29  30
ENDBRANCH  28  29
ENDBRANCH  27  28
ENDBRANCH  26  27
ENDBRANCH  25  26
ENDBRANCH  24  25
ENDBRANCH  23  24
ENDBRANCH  22  23
ENDBRANCH  21  22
ENDBRANCH  20  21
ENDBRANCH  19  20
ENDBRANCH  18  19
ENDBRANCH   1  18
TORSDOF 28
ENDMDL
MODEL 7
REMARK VINA RESULT:    -0.439     12.858     17.685
REMARK INTER + INTRA:          -2.479
REMARK INTER:                  -1.565
REMARK INTRA:                  -0.914
REMARK UNBOUND:                -1.321
REMARK SMILES CCCCCCCCCCCCCCCCCCCCCCCCCCCCCC(=O)[O-]
REMARK SMILES IDX 16 1 17 2 18 3 19 4 20 5 21 6 22 7 23 8 24 9 25 10 26 11
REMARK SMILES IDX 27 12 28 13 29 14 30 15 31 16 32 17 15 18 14 19 13 20 12 21
REMARK SMILES IDX 11 22 10 23 9 24 8 25 7 26 6 27 5 28 4 29 3 30 2 31 1 32
REMARK H PARENT
REMARK Flexibility Score: inf
ROOT
ATOM      1  C   UNL     1      -3.807   0.613  -8.160  1.00  0.00     0.000 C 
ENDROOT
BRANCH   1   2
ATOM      2  C   UNL     1      -3.141  -0.689  -8.645  1.00  0.00     0.000 C 
BRANCH   2   3
ATOM      3  C   UNL     1      -3.983  -1.531  -9.623  1.00  0.00     0.000 C 
BRANCH   3   4
ATOM      4  C   UNL     1      -3.152  -2.157 -10.757  1.00  0.00     0.000 C 
BRANCH   4   5
ATOM      5  C   UNL     1      -3.863  -2.107 -12.125  1.00  0.00     0.000 C 
BRANCH   5   6
ATOM      6  C   UNL     1      -5.327  -2.578 -12.125  1.00  0.00     0.000 C 
BRANCH   6   7
ATOM      7  C   UNL     1      -5.661  -3.517 -10.956  1.00  0.00     0.000 C 
BRANCH   7   8
ATOM      8  C   UNL     1      -5.927  -4.966 -11.406  1.00  0.00     0.000 C 
BRANCH   8   9
ATOM      9  C   UNL     1      -4.782  -5.959 -11.137  1.00  0.00     0.000 C 
BRANCH   9  10
ATOM     10  C   UNL     1      -4.929  -6.702  -9.798  1.00  0.00     0.000 C 
BRANCH  10  11
ATOM     11  C   UNL     1      -5.659  -8.052  -9.963  1.00  0.00     0.000 C 
BRANCH  11  12
ATOM     12  C   UNL     1      -6.043  -8.382 -11.416  1.00  0.00     0.000 C 
BRANCH  12  13
ATOM     13  C   UNL     1      -5.076  -9.369 -12.084  1.00  0.00     0.006 C 
BRANCH  13  14
ATOM     14  C   UNL     1      -3.644  -8.820 -12.094  1.00  0.00     0.053 C 
BRANCH  14  15
ATOM     15  C   UNL     1      -2.693  -9.787 -11.459  1.00  0.00     0.041 C 
ATOM     16  O   UNL     1      -3.026 -10.993 -11.306  1.00  0.00    -0.550 OA
ATOM     17  O   UNL     1      -1.447  -9.358 -11.018  1.00  0.00    -0.550 OA
ENDBRANCH  14  15
ENDBRANCH  13  14
ENDBRANCH  12  13
ENDBRANCH  11  12
ENDBRANCH  10  11
ENDBRANCH   9  10
ENDBRANCH   8   9
ENDBRANCH   7   8
ENDBRANCH   6   7
ENDBRANCH   5   6
ENDBRANCH   4   5
ENDBRANCH   3   4
ENDBRANCH   2   3
ENDBRANCH   1   2
BRANCH   1  18
ATOM     18  C   UNL     1      -3.571   1.805  -9.104  1.00  0.00     0.000 C 
BRANCH  18  19
ATOM     19  C   UNL     1      -4.256   1.616 -10.474  1.00  0.00     0.000 C 
BRANCH  19  20
ATOM     20  C   UNL     1      -4.715   2.933 -11.123  1.00  0.00     0.000 C 
BRANCH  20  21
ATOM     21  C   UNL     1      -5.862   2.738 -12.123  1.00  0.00     0.000 C 
BRANCH  21  22
ATOM     22  C   UNL     1      -6.888   3.875 -12.013  1.00  0.00     0.000 C 
BRANCH  22  23
ATOM     23  C   UNL     1      -8.300   3.369 -11.671  1.00  0.00     0.000 C 
BRANCH  23  24
ATOM     24  C   UNL     1      -8.747   3.615 -10.216  1.00  0.00    -0.000 C 
BRANCH  24  25
ATOM     25  C   UNL     1     -10.248   3.951 -10.065  1.00  0.00    -0.000 C 
BRANCH  25  26
ATOM     26  C   UNL     1     -10.528   5.458 -10.211  1.00  0.00    -0.000 C 
BRANCH  26  27
ATOM     27  C   UNL     1     -10.803   6.149  -8.865  1.00  0.00    -0.000 C 
BRANCH  27  28
ATOM     28  C   UNL     1      -9.774   5.773  -7.785  1.00  0.00    -0.000 C 
BRANCH  28  29
ATOM     29  C   UNL     1      -8.867   6.952  -7.390  1.00  0.00    -0.000 C 
BRANCH  29  30
ATOM     30  C   UNL     1      -7.737   7.279  -8.388  1.00  0.00    -0.000 C 
BRANCH  30  31
ATOM     31  C   UNL     1      -7.650   8.754  -8.817  1.00  0.00    -0.003 C 
ATOM     32  C   UNL     1      -8.299   9.020 -10.175  1.00  0.00     0.004 C 
ENDBRANCH  30  31
ENDBRANCH  29  30
ENDBRANCH  28  29
ENDBRANCH  27  28
ENDBRANCH  26  27
ENDBRANCH  25  26
ENDBRANCH  24  25
ENDBRANCH  23  24
ENDBRANCH  22  23
ENDBRANCH  21  22
ENDBRANCH  20  21
ENDBRANCH  19  20
ENDBRANCH  18  19
ENDBRANCH   1  18
TORSDOF 28
ENDMDL
