MODEL 1
REMARK VINA RESULT:    -6.920      0.000      0.000
REMARK INTER + INTRA:          -6.920
REMARK INTER:                  -6.920
REMARK INTRA:                   0.000
REMARK UNBOUND:                 0.000
REMARK SMILES C=C1CCC[C@]2(C)CC(=O)C(=C(C)C)C[C@H]12
REMARK SMILES IDX 13 1 12 2 11 3 15 4 16 5 2 6 1 7 3 8 4 9 5 10 6 11 8 12 9 13
REMARK SMILES IDX 10 14 7 15 14 16
REMARK H PARENT
REMARK Flexibility Score: inf
ROOT
ATOM      1  C   UNL     1     -14.032 -33.545  26.138  1.00  0.00     0.039 C 
ATOM      2  C   UNL     1     -13.950 -32.998  27.544  1.00  0.00    -0.070 C 
ATOM      3  C   UNL     1     -13.339 -33.693  28.546  1.00  0.00    -0.006 C 
ATOM      4  C   UNL     1     -13.291 -33.169  29.969  1.00  0.00     0.047 C 
ATOM      5  C   UNL     1     -13.312 -34.290  31.038  1.00  0.00     0.025 C 
ATOM      6  C   UNL     1     -13.066 -33.683  32.408  1.00  0.00    -0.073 C 
ATOM      7  C   UNL     1     -14.091 -33.197  33.126  1.00  0.00     0.008 C 
ATOM      8  C   UNL     1     -11.667 -33.638  32.983  1.00  0.00     0.031 C 
ATOM      9  C   UNL     1     -10.589 -33.801  31.905  1.00  0.00     0.005 C 
ATOM     10  C   UNL     1     -10.817 -34.971  30.921  1.00  0.00     0.008 C 
ATOM     11  C   UNL     1     -12.301 -35.446  30.761  1.00  0.00    -0.018 C 
ATOM     12  C   UNL     1     -12.535 -36.010  29.335  1.00  0.00     0.088 C 
ATOM     13  C   UNL     1     -12.569 -34.936  28.293  1.00  0.00     0.159 C 
ATOM     14  O   UNL     1     -11.933 -35.104  27.218  1.00  0.00    -0.295 OA
ATOM     15  C   UNL     1     -12.569 -36.617  31.747  1.00  0.00     0.012 C 
ATOM     16  C   UNL     1     -14.609 -31.663  27.803  1.00  0.00     0.039 C 
ENDROOT
TORSDOF 0
ENDMDL
MODEL 2
REMARK VINA RESULT:    -6.868      2.109      3.664
REMARK INTER + INTRA:          -6.868
REMARK INTER:                  -6.868
REMARK INTRA:                   0.000
REMARK UNBOUND:                 0.000
REMARK SMILES C=C1CCC[C@]2(C)CC(=O)C(=C(C)C)C[C@H]12
REMARK SMILES IDX 13 1 12 2 11 3 15 4 16 5 2 6 1 7 3 8 4 9 5 10 6 11 8 12 9 13
REMARK SMILES IDX 10 14 7 15 14 16
REMARK H PARENT
REMARK Flexibility Score: inf
ROOT
ATOM      1  C   UNL     1     -16.064 -30.611  29.736  1.00  0.00     0.039 C 
ATOM      2  C   UNL     1     -15.036 -31.603  29.244  1.00  0.00    -0.070 C 
ATOM      3  C   UNL     1     -14.379 -32.435  30.103  1.00  0.00    -0.006 C 
ATOM      4  C   UNL     1     -13.314 -33.403  29.620  1.00  0.00     0.047 C 
ATOM      5  C   UNL     1     -12.194 -33.653  30.660  1.00  0.00     0.025 C 
ATOM      6  C   UNL     1     -11.292 -34.772  30.169  1.00  0.00    -0.073 C 
ATOM      7  C   UNL     1     -10.259 -34.499  29.356  1.00  0.00     0.008 C 
ATOM      8  C   UNL     1     -11.539 -36.199  30.606  1.00  0.00     0.031 C 
ATOM      9  C   UNL     1     -12.963 -36.409  31.135  1.00  0.00     0.005 C 
ATOM     10  C   UNL     1     -13.443 -35.355  32.160  1.00  0.00     0.008 C 
ATOM     11  C   UNL     1     -12.722 -33.966  32.095  1.00  0.00    -0.018 C 
ATOM     12  C   UNL     1     -13.686 -32.837  32.551  1.00  0.00     0.088 C 
ATOM     13  C   UNL     1     -14.747 -32.546  31.536  1.00  0.00     0.159 C 
ATOM     14  O   UNL     1     -15.940 -32.408  31.918  1.00  0.00    -0.295 OA
ATOM     15  C   UNL     1     -11.535 -33.962  33.097  1.00  0.00     0.012 C 
ATOM     16  C   UNL     1     -14.739 -31.610  27.762  1.00  0.00     0.039 C 
ENDROOT
TORSDOF 0
ENDMDL
MODEL 3
REMARK VINA RESULT:    -6.518      1.981      4.558
REMARK INTER + INTRA:          -6.518
REMARK INTER:                  -6.518
REMARK INTRA:                   0.000
REMARK UNBOUND:                 0.000
REMARK SMILES C=C1CCC[C@]2(C)CC(=O)C(=C(C)C)C[C@H]12
REMARK SMILES IDX 13 1 12 2 11 3 15 4 16 5 2 6 1 7 3 8 4 9 5 10 6 11 8 12 9 13
REMARK SMILES IDX 10 14 7 15 14 16
REMARK H PARENT
REMARK Flexibility Score: inf
ROOT
ATOM      1  C   UNL     1     -13.991 -32.071  34.154  1.00  0.00     0.039 C 
ATOM      2  C   UNL     1     -14.382 -32.596  32.792  1.00  0.00    -0.070 C 
ATOM      3  C   UNL     1     -13.466 -33.169  31.958  1.00  0.00    -0.006 C 
ATOM      4  C   UNL     1     -13.843 -33.659  30.572  1.00  0.00     0.047 C 
ATOM      5  C   UNL     1     -12.695 -33.530  29.541  1.00  0.00     0.025 C 
ATOM      6  C   UNL     1     -13.099 -34.220  28.249  1.00  0.00    -0.073 C 
ATOM      7  C   UNL     1     -13.798 -33.553  27.318  1.00  0.00     0.008 C 
ATOM      8  C   UNL     1     -12.701 -35.657  27.995  1.00  0.00     0.031 C 
ATOM      9  C   UNL     1     -12.324 -36.395  29.285  1.00  0.00     0.005 C 
ATOM     10  C   UNL     1     -11.346 -35.636  30.211  1.00  0.00     0.008 C 
ATOM     11  C   UNL     1     -11.325 -34.079  30.049  1.00  0.00    -0.018 C 
ATOM     12  C   UNL     1     -10.963 -33.401  31.398  1.00  0.00     0.088 C 
ATOM     13  C   UNL     1     -12.080 -33.471  32.392  1.00  0.00     0.159 C 
ATOM     14  O   UNL     1     -11.822 -33.795  33.582  1.00  0.00    -0.295 OA
ATOM     15  C   UNL     1     -10.205 -33.687  29.046  1.00  0.00     0.012 C 
ATOM     16  C   UNL     1     -15.825 -32.427  32.376  1.00  0.00     0.039 C 
ENDROOT
TORSDOF 0
ENDMDL
MODEL 4
REMARK VINA RESULT:    -6.465      1.893      3.481
REMARK INTER + INTRA:          -6.465
REMARK INTER:                  -6.465
REMARK INTRA:                   0.000
REMARK UNBOUND:                 0.000
REMARK SMILES C=C1CCC[C@]2(C)CC(=O)C(=C(C)C)C[C@H]12
REMARK SMILES IDX 13 1 12 2 11 3 15 4 16 5 2 6 1 7 3 8 4 9 5 10 6 11 8 12 9 13
REMARK SMILES IDX 10 14 7 15 14 16
REMARK H PARENT
REMARK Flexibility Score: inf
ROOT
ATOM      1  C   UNL     1     -16.187 -31.239  30.603  1.00  0.00     0.039 C 
ATOM      2  C   UNL     1     -15.126 -32.123  31.214  1.00  0.00    -0.070 C 
ATOM      3  C   UNL     1     -14.170 -32.725  30.449  1.00  0.00    -0.006 C 
ATOM      4  C   UNL     1     -13.127 -33.649  31.051  1.00  0.00     0.047 C 
ATOM      5  C   UNL     1     -12.686 -34.784  30.094  1.00  0.00     0.025 C 
ATOM      6  C   UNL     1     -11.512 -35.529  30.706  1.00  0.00    -0.073 C 
ATOM      7  C   UNL     1     -11.726 -36.544  31.557  1.00  0.00     0.008 C 
ATOM      8  C   UNL     1     -10.094 -35.145  30.346  1.00  0.00     0.031 C 
ATOM      9  C   UNL     1     -10.005 -33.735  29.750  1.00  0.00     0.005 C 
ATOM     10  C   UNL     1     -11.032 -33.429  28.636  1.00  0.00     0.008 C 
ATOM     11  C   UNL     1     -12.335 -34.296  28.654  1.00  0.00    -0.018 C 
ATOM     12  C   UNL     1     -13.527 -33.489  28.074  1.00  0.00     0.088 C 
ATOM     13  C   UNL     1     -14.001 -32.419  29.007  1.00  0.00     0.159 C 
ATOM     14  O   UNL     1     -14.242 -31.269  28.549  1.00  0.00    -0.295 OA
ATOM     15  C   UNL     1     -12.141 -35.525  27.723  1.00  0.00     0.012 C 
ATOM     16  C   UNL     1     -15.189 -32.344  32.708  1.00  0.00     0.039 C 
ENDROOT
TORSDOF 0
ENDMDL
MODEL 5
REMARK VINA RESULT:    -5.723      2.365      4.279
REMARK INTER + INTRA:          -5.723
REMARK INTER:                  -5.723
REMARK INTRA:                   0.000
REMARK UNBOUND:                 0.000
REMARK SMILES C=C1CCC[C@]2(C)CC(=O)C(=C(C)C)C[C@H]12
REMARK SMILES IDX 13 1 12 2 11 3 15 4 16 5 2 6 1 7 3 8 4 9 5 10 6 11 8 12 9 13
REMARK SMILES IDX 10 14 7 15 14 16
REMARK H PARENT
REMARK Flexibility Score: inf
ROOT
ATOM      1  C   UNL     1     -15.345 -32.071  33.050  1.00  0.00     0.039 C 
ATOM      2  C   UNL     1     -14.943 -32.344  31.620  1.00  0.00    -0.070 C 
ATOM      3  C   UNL     1     -14.201 -33.438  31.282  1.00  0.00    -0.006 C 
ATOM      4  C   UNL     1     -13.757 -33.694  29.854  1.00  0.00     0.047 C 
ATOM      5  C   UNL     1     -12.391 -34.416  29.755  1.00  0.00     0.025 C 
ATOM      6  C   UNL     1     -12.128 -34.800  28.309  1.00  0.00    -0.073 C 
ATOM      7  C   UNL     1     -11.548 -33.924  27.473  1.00  0.00     0.008 C 
ATOM      8  C   UNL     1     -12.500 -36.176  27.805  1.00  0.00     0.031 C 
ATOM      9  C   UNL     1     -13.527 -36.870  28.708  1.00  0.00     0.005 C 
ATOM     10  C   UNL     1     -13.203 -36.830  30.220  1.00  0.00     0.008 C 
ATOM     11  C   UNL     1     -12.267 -35.664  30.684  1.00  0.00    -0.018 C 
ATOM     12  C   UNL     1     -12.596 -35.258  32.145  1.00  0.00     0.088 C 
ATOM     13  C   UNL     1     -13.890 -34.514  32.255  1.00  0.00     0.159 C 
ATOM     14  O   UNL     1     -14.699 -34.823  33.171  1.00  0.00    -0.295 OA
ATOM     15  C   UNL     1     -10.795 -36.164  30.687  1.00  0.00     0.012 C 
ATOM     16  C   UNL     1     -15.366 -31.331  30.580  1.00  0.00     0.039 C 
ENDROOT
TORSDOF 0
ENDMDL
MODEL 6
REMARK VINA RESULT:    -5.518      1.897      4.732
REMARK INTER + INTRA:          -5.518
REMARK INTER:                  -5.518
REMARK INTRA:                   0.000
REMARK UNBOUND:                 0.000
REMARK SMILES C=C1CCC[C@]2(C)CC(=O)C(=C(C)C)C[C@H]12
REMARK SMILES IDX 13 1 12 2 11 3 15 4 16 5 2 6 1 7 3 8 4 9 5 10 6 11 8 12 9 13
REMARK SMILES IDX 10 14 7 15 14 16
REMARK H PARENT
REMARK Flexibility Score: inf
ROOT
ATOM      1  C   UNL     1     -10.248 -33.767  34.041  1.00  0.00     0.039 C 
ATOM      2  C   UNL     1     -11.408 -33.476  33.118  1.00  0.00    -0.070 C 
ATOM      3  C   UNL     1     -11.445 -33.961  31.843  1.00  0.00    -0.006 C 
ATOM      4  C   UNL     1     -12.586 -33.637  30.897  1.00  0.00     0.047 C 
ATOM      5  C   UNL     1     -12.151 -33.559  29.413  1.00  0.00     0.025 C 
ATOM      6  C   UNL     1     -13.382 -33.426  28.533  1.00  0.00    -0.073 C 
ATOM      7  C   UNL     1     -13.903 -32.215  28.280  1.00  0.00     0.008 C 
ATOM      8  C   UNL     1     -14.019 -34.654  27.922  1.00  0.00     0.031 C 
ATOM      9  C   UNL     1     -13.609 -35.944  28.642  1.00  0.00     0.005 C 
ATOM     10  C   UNL     1     -12.092 -36.096  28.901  1.00  0.00     0.008 C 
ATOM     11  C   UNL     1     -11.273 -34.762  28.947  1.00  0.00    -0.018 C 
ATOM     12  C   UNL     1     -10.053 -34.912  29.896  1.00  0.00     0.088 C 
ATOM     13  C   UNL     1     -10.450 -34.939  31.339  1.00  0.00     0.159 C 
ATOM     14  O   UNL     1      -9.935 -35.801  32.100  1.00  0.00    -0.295 OA
ATOM     15  C   UNL     1     -10.698 -34.470  27.534  1.00  0.00     0.012 C 
ATOM     16  C   UNL     1     -12.510 -32.591  33.653  1.00  0.00     0.039 C 
ENDROOT
TORSDOF 0
ENDMDL
MODEL 7
REMARK VINA RESULT:    -5.138      2.396      5.153
REMARK INTER + INTRA:          -5.138
REMARK INTER:                  -5.138
REMARK INTRA:                   0.000
REMARK UNBOUND:                 0.000
REMARK SMILES C=C1CCC[C@]2(C)CC(=O)C(=C(C)C)C[C@H]12
REMARK SMILES IDX 13 1 12 2 11 3 15 4 16 5 2 6 1 7 3 8 4 9 5 10 6 11 8 12 9 13
REMARK SMILES IDX 10 14 7 15 14 16
REMARK H PARENT
REMARK Flexibility Score: inf
ROOT
ATOM      1  C   UNL     1     -12.753 -31.698  35.475  1.00  0.00     0.039 C 
ATOM      2  C   UNL     1     -11.849 -32.144  34.350  1.00  0.00    -0.070 C 
ATOM      3  C   UNL     1     -12.331 -32.842  33.281  1.00  0.00    -0.006 C 
ATOM      4  C   UNL     1     -11.421 -33.331  32.169  1.00  0.00     0.047 C 
ATOM      5  C   UNL     1     -11.891 -34.662  31.531  1.00  0.00     0.025 C 
ATOM      6  C   UNL     1     -11.037 -34.964  30.312  1.00  0.00    -0.073 C 
ATOM      7  C   UNL     1      -9.875 -35.621  30.447  1.00  0.00     0.008 C 
ATOM      8  C   UNL     1     -11.498 -34.542  28.934  1.00  0.00     0.031 C 
ATOM      9  C   UNL     1     -12.568 -33.445  28.987  1.00  0.00     0.005 C 
ATOM     10  C   UNL     1     -13.728 -33.709  29.975  1.00  0.00     0.008 C 
ATOM     11  C   UNL     1     -13.406 -34.684  31.157  1.00  0.00    -0.018 C 
ATOM     12  C   UNL     1     -14.253 -34.316  32.405  1.00  0.00     0.088 C 
ATOM     13  C   UNL     1     -13.783 -33.058  33.066  1.00  0.00     0.159 C 
ATOM     14  O   UNL     1     -14.632 -32.197  33.421  1.00  0.00    -0.295 OA
ATOM     15  C   UNL     1     -13.820 -36.126  30.754  1.00  0.00     0.012 C 
ATOM     16  C   UNL     1     -10.379 -31.816  34.475  1.00  0.00     0.039 C 
ENDROOT
TORSDOF 0
ENDMDL
MODEL 8
REMARK VINA RESULT:    -4.955      1.859      3.845
REMARK INTER + INTRA:          -4.955
REMARK INTER:                  -4.955
REMARK INTRA:                   0.000
REMARK UNBOUND:                 0.000
REMARK SMILES C=C1CCC[C@]2(C)CC(=O)C(=C(C)C)C[C@H]12
REMARK SMILES IDX 13 1 12 2 11 3 15 4 16 5 2 6 1 7 3 8 4 9 5 10 6 11 8 12 9 13
REMARK SMILES IDX 10 14 7 15 14 16
REMARK H PARENT
REMARK Flexibility Score: inf
ROOT
ATOM      1  C   UNL     1     -13.539 -38.483  28.656  1.00  0.00     0.039 C 
ATOM      2  C   UNL     1     -13.043 -37.994  29.997  1.00  0.00    -0.070 C 
ATOM      3  C   UNL     1     -12.728 -36.683  30.207  1.00  0.00    -0.006 C 
ATOM      4  C   UNL     1     -12.188 -36.194  31.538  1.00  0.00     0.047 C 
ATOM      5  C   UNL     1     -11.202 -35.007  31.403  1.00  0.00     0.025 C 
ATOM      6  C   UNL     1     -10.872 -34.467  32.784  1.00  0.00    -0.073 C 
ATOM      7  C   UNL     1      -9.876 -35.009  33.501  1.00  0.00     0.008 C 
ATOM      8  C   UNL     1     -11.653 -33.303  33.354  1.00  0.00     0.031 C 
ATOM      9  C   UNL     1     -12.998 -33.101  32.647  1.00  0.00     0.005 C 
ATOM     10  C   UNL     1     -12.934 -33.107  31.102  1.00  0.00     0.008 C 
ATOM     11  C   UNL     1     -11.715 -33.862  30.475  1.00  0.00    -0.018 C 
ATOM     12  C   UNL     1     -12.098 -34.449  29.090  1.00  0.00     0.088 C 
ATOM     13  C   UNL     1     -13.012 -35.629  29.202  1.00  0.00     0.159 C 
ATOM     14  O   UNL     1     -14.015 -35.702  28.443  1.00  0.00    -0.295 OA
ATOM     15  C   UNL     1     -10.566 -32.848  30.220  1.00  0.00     0.012 C 
ATOM     16  C   UNL     1     -12.874 -39.027  31.088  1.00  0.00     0.039 C 
ENDROOT
TORSDOF 0
ENDMDL
MODEL 9
REMARK VINA RESULT:    -4.184      2.318      4.939
REMARK INTER + INTRA:          -4.184
REMARK INTER:                  -4.184
REMARK INTRA:                   0.000
REMARK UNBOUND:                 0.000
REMARK SMILES C=C1CCC[C@]2(C)CC(=O)C(=C(C)C)C[C@H]12
REMARK SMILES IDX 13 1 12 2 11 3 15 4 16 5 2 6 1 7 3 8 4 9 5 10 6 11 8 12 9 13
REMARK SMILES IDX 10 14 7 15 14 16
REMARK H PARENT
REMARK Flexibility Score: inf
ROOT
ATOM      1  C   UNL     1     -12.812 -38.342  31.633  1.00  0.00     0.039 C 
ATOM      2  C   UNL     1     -13.251 -37.758  30.311  1.00  0.00    -0.070 C 
ATOM      3  C   UNL     1     -12.615 -36.683  29.759  1.00  0.00    -0.006 C 
ATOM      4  C   UNL     1     -13.078 -36.064  28.453  1.00  0.00     0.047 C 
ATOM      5  C   UNL     1     -12.836 -34.537  28.377  1.00  0.00     0.025 C 
ATOM      6  C   UNL     1     -13.147 -34.047  26.973  1.00  0.00    -0.073 C 
ATOM      7  C   UNL     1     -14.401 -33.705  26.640  1.00  0.00     0.008 C 
ATOM      8  C   UNL     1     -12.043 -33.924  25.946  1.00  0.00     0.031 C 
ATOM      9  C   UNL     1     -10.806 -34.751  26.316  1.00  0.00     0.005 C 
ATOM     10  C   UNL     1     -10.318 -34.582  27.774  1.00  0.00     0.008 C 
ATOM     11  C   UNL     1     -11.398 -34.103  28.802  1.00  0.00    -0.018 C 
ATOM     12  C   UNL     1     -11.083 -34.664  30.214  1.00  0.00     0.088 C 
ATOM     13  C   UNL     1     -11.359 -36.131  30.323  1.00  0.00     0.159 C 
ATOM     14  O   UNL     1     -10.512 -36.874  30.886  1.00  0.00    -0.295 OA
ATOM     15  C   UNL     1     -11.336 -32.555  28.919  1.00  0.00     0.012 C 
ATOM     16  C   UNL     1     -14.449 -38.390  29.641  1.00  0.00     0.039 C 
ENDROOT
TORSDOF 0
ENDMDL
