MODEL 1
REMARK VINA RESULT:    -3.604      0.000      0.000
REMARK INTER + INTRA:          -4.803
REMARK INTER:                  -5.079
REMARK INTRA:                   0.277
REMARK UNBOUND:                 0.277
REMARK SMILES CC1=CCC(=C(C)C)C(=O)CC(C)=CCC1
REMARK SMILES IDX 12 1 14 2 13 3 15 4 16 5 2 6 1 7 3 8 11 10 9 11 10 12 5 13
REMARK SMILES IDX 6 14 7 15 8 16 4 17
REMARK H PARENT
REMARK Flexibility Score: 60.00
ROOT
ATOM      1  C   UNL     1     148.756 151.532 168.796  1.00  0.00    -0.070 C 
ATOM      2  C   UNL     1     149.943 151.379 168.154  1.00  0.00    -0.027 C 
ATOM      3  C   UNL     1     148.421 150.532 169.876  1.00  0.00     0.039 C 
ENDROOT
BRANCH   2   4
ATOM      4  C   UNL     1     150.524 152.313 167.120  1.00  0.00     0.032 C 
BRANCH   4   5
ATOM      5  C   UNL     1     149.941 152.102 165.716  1.00  0.00     0.034 C 
BRANCH   5   6
ATOM      6  C   UNL     1     149.375 153.404 165.183  1.00  0.00    -0.077 C 
ATOM      7  C   UNL     1     150.317 154.562 164.977  1.00  0.00     0.039 C 
ATOM      8  C   UNL     1     148.054 153.606 164.956  1.00  0.00    -0.023 CG0
ATOM      9  G   UNL     1     146.968 152.566 165.092  1.00  0.00     0.000 G0
ENDBRANCH   5   6
ENDBRANCH   4   5
ENDBRANCH   2   4
BRANCH   1  10
ATOM     10  C   UNL     1     147.715 152.590 168.443  1.00  0.00     0.111 C 
BRANCH  10  11
ATOM     11  C   UNL     1     146.568 152.068 167.615  1.00  0.00     0.163 C 
ATOM     12  O   UNL     1     146.010 151.003 167.996  1.00  0.00    -0.294 OA
BRANCH  11  13
ATOM     13  C   UNL     1     146.115 152.731 166.347  1.00  0.00    -0.002 C 
ATOM     14  C   UNL     1     144.989 153.512 166.329  1.00  0.00    -0.069 C 
ATOM     15  C   UNL     1     144.566 154.267 165.089  1.00  0.00     0.039 C 
ATOM     16  C   UNL     1     144.078 153.624 167.532  1.00  0.00     0.039 C 
BRANCH  13  17
ATOM     17  C   UNL     1     146.963 152.564 165.088  1.00  0.00     0.066 CG0
ATOM     18  G   UNL     1     148.038 153.619 164.981  1.00  0.00     0.000 G0
ENDBRANCH  13  17
ENDBRANCH  11  13
ENDBRANCH  10  11
ENDBRANCH   1  10
TORSDOF 0
ENDMDL
MODEL 2
REMARK VINA RESULT:    -3.376      1.761      3.804
REMARK INTER + INTRA:          -4.480
REMARK INTER:                  -4.791
REMARK INTRA:                   0.311
REMARK UNBOUND:                 0.277
REMARK SMILES CC1=CCC(=C(C)C)C(=O)CC(C)=CCC1
REMARK SMILES IDX 12 1 14 2 13 3 15 4 16 5 2 6 1 7 3 8 11 10 9 11 10 12 5 13
REMARK SMILES IDX 6 14 7 15 8 16 4 17
REMARK H PARENT
REMARK Flexibility Score: 60.00
ROOT
ATOM      1  C   UNL     1     148.704 152.085 168.280  1.00  0.00    -0.070 C 
ATOM      2  C   UNL     1     147.528 151.485 168.602  1.00  0.00    -0.027 C 
ATOM      3  C   UNL     1     149.973 151.340 168.613  1.00  0.00     0.039 C 
ENDROOT
BRANCH   2   4
ATOM      4  C   UNL     1     146.147 151.997 168.274  1.00  0.00     0.032 C 
BRANCH   4   5
ATOM      5  C   UNL     1     145.766 151.808 166.799  1.00  0.00     0.034 C 
BRANCH   5   6
ATOM      6  C   UNL     1     145.359 153.136 166.189  1.00  0.00    -0.077 C 
ATOM      7  C   UNL     1     144.074 153.773 166.652  1.00  0.00     0.039 C 
ATOM      8  C   UNL     1     146.051 153.742 165.194  1.00  0.00    -0.023 CG0
ATOM      9  G   UNL     1     147.360 153.266 164.613  1.00  0.00     0.000 G0
ENDBRANCH   5   6
ENDBRANCH   4   5
ENDBRANCH   2   4
BRANCH   1  10
ATOM     10  C   UNL     1     148.823 153.485 167.684  1.00  0.00     0.111 C 
BRANCH  10  11
ATOM     11  C   UNL     1     149.350 153.507 166.272  1.00  0.00     0.163 C 
ATOM     12  O   UNL     1     150.526 153.091 166.081  1.00  0.00    -0.294 OA
BRANCH  11  13
ATOM     13  C   UNL     1     148.559 154.051 165.118  1.00  0.00    -0.002 C 
ATOM     14  C   UNL     1     148.937 155.212 164.497  1.00  0.00    -0.069 C 
ATOM     15  C   UNL     1     148.215 155.730 163.272  1.00  0.00     0.039 C 
ATOM     16  C   UNL     1     150.065 156.069 165.028  1.00  0.00     0.039 C 
BRANCH  13  17
ATOM     17  C   UNL     1     147.357 153.256 164.612  1.00  0.00     0.066 CG0
ATOM     18  G   UNL     1     146.059 153.746 165.207  1.00  0.00     0.000 G0
ENDBRANCH  13  17
ENDBRANCH  11  13
ENDBRANCH  10  11
ENDBRANCH   1  10
TORSDOF 0
ENDMDL
MODEL 3
REMARK VINA RESULT:    -3.227      1.853      3.842
REMARK INTER + INTRA:          -4.271
REMARK INTER:                  -4.363
REMARK INTRA:                   0.091
REMARK UNBOUND:                 0.277
REMARK SMILES CC1=CCC(=C(C)C)C(=O)CC(C)=CCC1
REMARK SMILES IDX 12 1 14 2 13 3 15 4 16 5 2 6 1 7 3 8 11 10 9 11 10 12 5 13
REMARK SMILES IDX 6 14 7 15 8 16 4 17
REMARK H PARENT
REMARK Flexibility Score: 60.00
ROOT
ATOM      1  C   UNL     1     150.757 152.213 166.950  1.00  0.00    -0.070 C 
ATOM      2  C   UNL     1     150.317 152.021 168.221  1.00  0.00    -0.027 C 
ATOM      3  C   UNL     1     152.172 152.707 166.775  1.00  0.00     0.039 C 
ENDROOT
BRANCH   2   4
ATOM      4  C   UNL     1     148.983 151.441 168.625  1.00  0.00     0.032 C 
BRANCH   4   5
ATOM      5  C   UNL     1     147.862 152.487 168.689  1.00  0.00     0.034 C 
BRANCH   5   6
ATOM      6  C   UNL     1     146.622 151.968 167.987  1.00  0.00    -0.077 C 
ATOM      7  C   UNL     1     145.915 150.772 168.571  1.00  0.00     0.039 C 
ATOM      8  C   UNL     1     146.161 152.476 166.818  1.00  0.00    -0.023 CG0
ATOM      9  G   UNL     1     146.724 153.674 166.093  1.00  0.00     0.000 G0
ENDBRANCH   5   6
ENDBRANCH   4   5
ENDBRANCH   2   4
BRANCH   1  10
ATOM     10  C   UNL     1     149.893 152.041 165.704  1.00  0.00     0.111 C 
BRANCH  10  11
ATOM     11  C   UNL     1     149.163 153.293 165.287  1.00  0.00     0.163 C 
ATOM     12  O   UNL     1     149.820 154.370 165.256  1.00  0.00    -0.294 OA
BRANCH  11  13
ATOM     13  C   UNL     1     147.696 153.310 164.970  1.00  0.00    -0.002 C 
ATOM     14  C   UNL     1     147.244 152.952 163.727  1.00  0.00    -0.069 C 
ATOM     15  C   UNL     1     145.767 152.868 163.412  1.00  0.00     0.039 C 
ATOM     16  C   UNL     1     148.196 152.669 162.585  1.00  0.00     0.039 C 
BRANCH  13  17
ATOM     17  C   UNL     1     146.710 153.681 166.076  1.00  0.00     0.066 CG0
ATOM     18  G   UNL     1     146.186 152.467 166.804  1.00  0.00     0.000 G0
ENDBRANCH  13  17
ENDBRANCH  11  13
ENDBRANCH  10  11
ENDBRANCH   1  10
TORSDOF 0
ENDMDL
MODEL 4
REMARK VINA RESULT:    -3.195      2.260      5.396
REMARK INTER + INTRA:          -4.226
REMARK INTER:                  -4.313
REMARK INTRA:                   0.086
REMARK UNBOUND:                 0.277
REMARK SMILES CC1=CCC(=C(C)C)C(=O)CC(C)=CCC1
REMARK SMILES IDX 12 1 14 2 13 3 15 4 16 5 2 6 1 7 3 8 11 10 9 11 10 12 5 13
REMARK SMILES IDX 6 14 7 15 8 16 4 17
REMARK H PARENT
REMARK Flexibility Score: 60.00
ROOT
ATOM      1  C   UNL     1     148.047 155.109 163.348  1.00  0.00    -0.070 C 
ATOM      2  C   UNL     1     146.760 154.812 163.028  1.00  0.00    -0.027 C 
ATOM      3  C   UNL     1     148.571 156.458 162.921  1.00  0.00     0.039 C 
ENDROOT
BRANCH   2   4
ATOM      4  C   UNL     1     146.002 153.573 163.440  1.00  0.00     0.032 C 
BRANCH   4   5
ATOM      5  C   UNL     1     145.525 153.612 164.898  1.00  0.00     0.034 C 
BRANCH   5   6
ATOM      6  C   UNL     1     145.881 152.316 165.600  1.00  0.00    -0.077 C 
ATOM      7  C   UNL     1     145.159 151.058 165.190  1.00  0.00     0.039 C 
ATOM      8  C   UNL     1     146.758 152.242 166.631  1.00  0.00    -0.023 CG0
ATOM      9  G   UNL     1     147.583 153.386 167.169  1.00  0.00     0.000 G0
ENDBRANCH   5   6
ENDBRANCH   4   5
ENDBRANCH   2   4
BRANCH   1  10
ATOM     10  C   UNL     1     149.010 154.144 164.033  1.00  0.00     0.111 C 
BRANCH  10  11
ATOM     11  C   UNL     1     149.256 154.452 165.488  1.00  0.00     0.163 C 
ATOM     12  O   UNL     1     149.742 155.582 165.773  1.00  0.00    -0.294 OA
BRANCH  11  13
ATOM     13  C   UNL     1     149.001 153.458 166.584  1.00  0.00    -0.002 C 
ATOM     14  C   UNL     1     150.013 152.666 167.059  1.00  0.00    -0.069 C 
ATOM     15  C   UNL     1     149.805 151.726 168.226  1.00  0.00     0.039 C 
ATOM     16  C   UNL     1     151.381 152.649 166.413  1.00  0.00     0.039 C 
BRANCH  13  17
ATOM     17  C   UNL     1     147.604 153.384 167.198  1.00  0.00     0.066 CG0
ATOM     18  G   UNL     1     146.788 152.251 166.623  1.00  0.00     0.000 G0
ENDBRANCH  13  17
ENDBRANCH  11  13
ENDBRANCH  10  11
ENDBRANCH   1  10
TORSDOF 0
ENDMDL
MODEL 5
REMARK VINA RESULT:    -3.175      2.844      4.742
REMARK INTER + INTRA:          -4.197
REMARK INTER:                  -4.419
REMARK INTRA:                   0.222
REMARK UNBOUND:                 0.277
REMARK SMILES CC1=CCC(=C(C)C)C(=O)CC(C)=CCC1
REMARK SMILES IDX 12 1 14 2 13 3 15 4 16 5 2 6 1 7 3 8 11 10 9 11 10 12 5 13
REMARK SMILES IDX 6 14 7 15 8 16 4 17
REMARK H PARENT
REMARK Flexibility Score: 60.00
ROOT
ATOM      1  C   UNL     1     151.561 150.020 163.767  1.00  0.00    -0.070 C 
ATOM      2  C   UNL     1     151.040 149.829 162.527  1.00  0.00    -0.027 C 
ATOM      3  C   UNL     1     153.065 150.017 163.892  1.00  0.00     0.039 C 
ENDROOT
BRANCH   2   4
ATOM      4  C   UNL     1     149.578 149.895 162.154  1.00  0.00     0.032 C 
BRANCH   4   5
ATOM      5  C   UNL     1     148.991 151.309 162.252  1.00  0.00     0.034 C 
BRANCH   5   6
ATOM      6  C   UNL     1     147.743 151.298 163.114  1.00  0.00    -0.077 C 
ATOM      7  C   UNL     1     146.572 150.460 162.668  1.00  0.00     0.039 C 
ATOM      8  C   UNL     1     147.595 152.064 164.222  1.00  0.00    -0.023 CG0
ATOM      9  G   UNL     1     148.656 152.952 164.827  1.00  0.00     0.000 G0
ENDBRANCH   5   6
ENDBRANCH   4   5
ENDBRANCH   2   4
BRANCH   1  10
ATOM     10  C   UNL     1     150.730 150.153 165.040  1.00  0.00     0.111 C 
BRANCH  10  11
ATOM     11  C   UNL     1     150.703 151.548 165.611  1.00  0.00     0.163 C 
ATOM     12  O   UNL     1     151.810 152.105 165.847  1.00  0.00    -0.294 OA
BRANCH  11  13
ATOM     13  C   UNL     1     149.427 152.260 165.955  1.00  0.00    -0.002 C 
ATOM     14  C   UNL     1     148.991 152.327 167.252  1.00  0.00    -0.069 C 
ATOM     15  C   UNL     1     147.761 153.119 167.638  1.00  0.00     0.039 C 
ATOM     16  C   UNL     1     149.684 151.572 168.365  1.00  0.00     0.039 C 
BRANCH  13  17
ATOM     17  C   UNL     1     148.651 152.958 164.839  1.00  0.00     0.066 CG0
ATOM     18  G   UNL     1     147.615 152.055 164.215  1.00  0.00     0.000 G0
ENDBRANCH  13  17
ENDBRANCH  11  13
ENDBRANCH  10  11
ENDBRANCH   1  10
TORSDOF 0
ENDMDL
MODEL 6
REMARK VINA RESULT:    -3.014      2.042      4.696
REMARK INTER + INTRA:          -3.970
REMARK INTER:                  -4.256
REMARK INTRA:                   0.286
REMARK UNBOUND:                 0.277
REMARK SMILES CC1=CCC(=C(C)C)C(=O)CC(C)=CCC1
REMARK SMILES IDX 12 1 14 2 13 3 15 4 16 5 2 6 1 7 3 8 11 10 9 11 10 12 5 13
REMARK SMILES IDX 6 14 7 15 8 16 4 17
REMARK H PARENT
REMARK Flexibility Score: 60.00
ROOT
ATOM      1  C   UNL     1     146.752 152.936 164.954  1.00  0.00    -0.070 C 
ATOM      2  C   UNL     1     146.559 153.011 166.297  1.00  0.00    -0.027 C 
ATOM      3  C   UNL     1     146.047 153.959 164.097  1.00  0.00     0.039 C 
ENDROOT
BRANCH   2   4
ATOM      4  C   UNL     1     147.239 152.163 167.344  1.00  0.00     0.032 C 
BRANCH   4   5
ATOM      5  C   UNL     1     148.346 152.908 168.101  1.00  0.00     0.034 C 
BRANCH   5   6
ATOM      6  C   UNL     1     149.704 152.340 167.735  1.00  0.00    -0.077 C 
ATOM      7  C   UNL     1     150.257 151.212 168.566  1.00  0.00     0.039 C 
ATOM      8  C   UNL     1     150.482 152.847 166.746  1.00  0.00    -0.023 CG0
ATOM      9  G   UNL     1     150.095 153.960 165.804  1.00  0.00     0.000 G0
ENDBRANCH   5   6
ENDBRANCH   4   5
ENDBRANCH   2   4
BRANCH   1  10
ATOM     10  C   UNL     1     147.562 151.845 164.259  1.00  0.00     0.111 C 
BRANCH  10  11
ATOM     11  C   UNL     1     149.054 152.057 164.319  1.00  0.00     0.163 C 
ATOM     12  O   UNL     1     149.789 151.032 164.340  1.00  0.00    -0.294 OA
BRANCH  11  13
ATOM     13  C   UNL     1     149.677 153.420 164.412  1.00  0.00    -0.002 C 
ATOM     14  C   UNL     1     149.833 154.195 163.294  1.00  0.00    -0.069 C 
ATOM     15  C   UNL     1     150.369 155.608 163.375  1.00  0.00     0.039 C 
ATOM     16  C   UNL     1     149.527 153.667 161.910  1.00  0.00     0.039 C 
BRANCH  13  17
ATOM     17  C   UNL     1     150.083 153.949 165.787  1.00  0.00     0.066 CG0
ATOM     18  G   UNL     1     150.486 152.840 166.728  1.00  0.00     0.000 G0
ENDBRANCH  13  17
ENDBRANCH  11  13
ENDBRANCH  10  11
ENDBRANCH   1  10
TORSDOF 0
ENDMDL
MODEL 7
REMARK VINA RESULT:    -2.947      1.848      4.341
REMARK INTER + INTRA:          -3.876
REMARK INTER:                  -4.383
REMARK INTRA:                   0.508
REMARK UNBOUND:                 0.277
REMARK SMILES CC1=CCC(=C(C)C)C(=O)CC(C)=CCC1
REMARK SMILES IDX 12 1 14 2 13 3 15 4 16 5 2 6 1 7 3 8 11 10 9 11 10 12 5 13
REMARK SMILES IDX 6 14 7 15 8 16 4 17
REMARK H PARENT
REMARK Flexibility Score: 60.00
ROOT
ATOM      1  C   UNL     1     147.559 152.889 167.793  1.00  0.00    -0.070 C 
ATOM      2  C   UNL     1     146.258 152.778 167.417  1.00  0.00    -0.027 C 
ATOM      3  C   UNL     1     148.140 151.763 168.612  1.00  0.00     0.039 C 
ENDROOT
BRANCH   2   4
ATOM      4  C   UNL     1     145.506 153.728 166.517  1.00  0.00     0.032 C 
BRANCH   4   5
ATOM      5  C   UNL     1     145.518 153.304 165.043  1.00  0.00     0.034 C 
BRANCH   5   6
ATOM      6  C   UNL     1     146.015 151.877 164.913  1.00  0.00    -0.077 C 
ATOM      7  C   UNL     1     145.077 150.755 165.276  1.00  0.00     0.039 C 
ATOM      8  C   UNL     1     147.285 151.559 164.562  1.00  0.00    -0.023 CG0
ATOM      9  G   UNL     1     148.358 152.539 164.152  1.00  0.00     0.000 G0
ENDBRANCH   5   6
ENDBRANCH   4   5
ENDBRANCH   2   4
BRANCH   1  10
ATOM     10  C   UNL     1     148.437 154.106 167.512  1.00  0.00     0.111 C 
BRANCH  10  11
ATOM     11  C   UNL     1     149.028 154.127 166.125  1.00  0.00     0.163 C 
ATOM     12  O   UNL     1     149.256 155.253 165.604  1.00  0.00    -0.294 OA
BRANCH  11  13
ATOM     13  C   UNL     1     149.296 152.878 165.337  1.00  0.00    -0.002 C 
ATOM     14  C   UNL     1     150.317 152.035 165.687  1.00  0.00    -0.069 C 
ATOM     15  C   UNL     1     150.547 150.723 164.970  1.00  0.00     0.039 C 
ATOM     16  C   UNL     1     151.305 152.391 166.777  1.00  0.00     0.039 C 
BRANCH  13  17
ATOM     17  C   UNL     1     148.372 152.533 164.170  1.00  0.00     0.066 CG0
ATOM     18  G   UNL     1     147.279 151.573 164.572  1.00  0.00     0.000 G0
ENDBRANCH  13  17
ENDBRANCH  11  13
ENDBRANCH  10  11
ENDBRANCH   1  10
TORSDOF 0
ENDMDL
MODEL 8
REMARK VINA RESULT:    -2.899      2.267      4.608
REMARK INTER + INTRA:          -3.808
REMARK INTER:                  -3.973
REMARK INTRA:                   0.165
REMARK UNBOUND:                 0.277
REMARK SMILES CC1=CCC(=C(C)C)C(=O)CC(C)=CCC1
REMARK SMILES IDX 12 1 14 2 13 3 15 4 16 5 2 6 1 7 3 8 11 10 9 11 10 12 5 13
REMARK SMILES IDX 6 14 7 15 8 16 4 17
REMARK H PARENT
REMARK Flexibility Score: 60.00
ROOT
ATOM      1  C   UNL     1     145.653 152.998 165.736  1.00  0.00    -0.070 C 
ATOM      2  C   UNL     1     146.000 153.426 166.978  1.00  0.00    -0.027 C 
ATOM      3  C   UNL     1     144.476 153.673 165.076  1.00  0.00     0.039 C 
ENDROOT
BRANCH   2   4
ATOM      4  C   UNL     1     147.196 152.968 167.777  1.00  0.00     0.032 C 
BRANCH   4   5
ATOM      5  C   UNL     1     148.524 153.537 167.260  1.00  0.00     0.034 C 
BRANCH   5   6
ATOM      6  C   UNL     1     149.545 152.426 167.106  1.00  0.00    -0.077 C 
ATOM      7  C   UNL     1     150.024 151.718 168.347  1.00  0.00     0.039 C 
ATOM      8  C   UNL     1     150.107 152.090 165.920  1.00  0.00    -0.023 CG0
ATOM      9  G   UNL     1     149.746 152.674 164.576  1.00  0.00     0.000 G0
ENDBRANCH   5   6
ENDBRANCH   4   5
ENDBRANCH   2   4
BRANCH   1  10
ATOM     10  C   UNL     1     146.321 151.835 165.007  1.00  0.00     0.111 C 
BRANCH  10  11
ATOM     11  C   UNL     1     147.252 152.260 163.899  1.00  0.00     0.163 C 
ATOM     12  O   UNL     1     146.771 152.965 162.970  1.00  0.00    -0.294 OA
BRANCH  11  13
ATOM     13  C   UNL     1     148.689 151.830 163.837  1.00  0.00    -0.002 C 
ATOM     14  C   UNL     1     149.061 150.737 163.101  1.00  0.00    -0.069 C 
ATOM     15  C   UNL     1     150.512 150.341 162.944  1.00  0.00     0.039 C 
ATOM     16  C   UNL     1     148.040 149.834 162.444  1.00  0.00     0.039 C 
BRANCH  13  17
ATOM     17  C   UNL     1     149.738 152.669 164.566  1.00  0.00     0.066 CG0
ATOM     18  G   UNL     1     150.090 152.093 165.916  1.00  0.00     0.000 G0
ENDBRANCH  13  17
ENDBRANCH  11  13
ENDBRANCH  10  11
ENDBRANCH   1  10
TORSDOF 0
ENDMDL
MODEL 9
REMARK VINA RESULT:    -2.825      2.594      4.605
REMARK INTER + INTRA:          -3.704
REMARK INTER:                  -3.936
REMARK INTRA:                   0.232
REMARK UNBOUND:                 0.277
REMARK SMILES CC1=CCC(=C(C)C)C(=O)CC(C)=CCC1
REMARK SMILES IDX 12 1 14 2 13 3 15 4 16 5 2 6 1 7 3 8 11 10 9 11 10 12 5 13
REMARK SMILES IDX 6 14 7 15 8 16 4 17
REMARK H PARENT
REMARK Flexibility Score: 60.00
ROOT
ATOM      1  C   UNL     1     149.390 151.260 163.654  1.00  0.00    -0.070 C 
ATOM      2  C   UNL     1     149.675 151.997 162.549  1.00  0.00    -0.027 C 
ATOM      3  C   UNL     1     150.245 150.043 163.912  1.00  0.00     0.039 C 
ENDROOT
BRANCH   2   4
ATOM      4  C   UNL     1     149.022 153.299 162.154  1.00  0.00     0.032 C 
BRANCH   4   5
ATOM      5  C   UNL     1     149.937 154.517 162.339  1.00  0.00     0.034 C 
BRANCH   5   6
ATOM      6  C   UNL     1     149.447 155.369 163.493  1.00  0.00    -0.077 C 
ATOM      7  C   UNL     1     148.568 156.554 163.186  1.00  0.00     0.039 C 
ATOM      8  C   UNL     1     149.822 155.168 164.780  1.00  0.00    -0.023 CG0
ATOM      9  G   UNL     1     150.680 154.031 165.281  1.00  0.00     0.000 G0
ENDBRANCH   5   6
ENDBRANCH   4   5
ENDBRANCH   2   4
BRANCH   1  10
ATOM     10  C   UNL     1     148.221 151.535 164.596  1.00  0.00     0.111 C 
BRANCH  10  11
ATOM     11  C   UNL     1     148.482 152.637 165.591  1.00  0.00     0.163 C 
ATOM     12  O   UNL     1     147.493 153.314 165.986  1.00  0.00    -0.294 OA
BRANCH  11  13
ATOM     13  C   UNL     1     149.860 152.987 166.073  1.00  0.00    -0.002 C 
ATOM     14  C   UNL     1     150.401 152.357 167.162  1.00  0.00    -0.069 C 
ATOM     15  C   UNL     1     151.822 152.621 167.609  1.00  0.00     0.039 C 
ATOM     16  C   UNL     1     149.594 151.399 168.011  1.00  0.00     0.039 C 
BRANCH  13  17
ATOM     17  C   UNL     1     150.671 154.019 165.292  1.00  0.00     0.066 CG0
ATOM     18  G   UNL     1     149.815 155.157 164.790  1.00  0.00     0.000 G0
ENDBRANCH  13  17
ENDBRANCH  11  13
ENDBRANCH  10  11
ENDBRANCH   1  10
TORSDOF 0
ENDMDL
