MODEL 1
REMARK VINA RESULT:    -5.416      0.000      0.000
REMARK INTER + INTRA:          -7.556
REMARK INTER:                  -6.841
REMARK INTRA:                  -0.715
REMARK UNBOUND:                -0.715
REMARK SMILES O=C(C=Cc1ccc(O)cc1)c1ccc(O)cc1O
REMARK SMILES IDX 4 1 3 2 5 3 6 4 7 5 8 6 11 7 10 8 9 9 2 11 1 12 12 13 18 14
REMARK SMILES IDX 13 15 17 16 14 17 15 18 19 19 16 21
REMARK H PARENT 9 10 19 20 16 22
REMARK Flexibility Score: inf
ROOT
ATOM      1  C   UNL     1      27.973  35.944  21.002  1.00  0.00     0.012 C 
ATOM      2  C   UNL     1      28.818  36.468  20.100  1.00  0.00     0.053 C 
ENDROOT
BRANCH   1   3
ATOM      3  C   UNL     1      28.249  34.708  21.773  1.00  0.00    -0.025 A 
ATOM      4  C   UNL     1      28.898  33.589  21.211  1.00  0.00     0.012 A 
ATOM      5  C   UNL     1      29.125  32.444  21.979  1.00  0.00     0.047 A 
ATOM      6  C   UNL     1      28.704  32.394  23.314  1.00  0.00     0.115 A 
ATOM      7  C   UNL     1      27.817  34.641  23.109  1.00  0.00     0.012 A 
ATOM      8  C   UNL     1      28.049  33.493  23.875  1.00  0.00     0.047 A 
BRANCH   6   9
ATOM      9  O   UNL     1      28.927  31.257  24.088  1.00  0.00    -0.508 OA
ATOM     10  H   UNL     1      28.884  30.328  23.688  1.00  0.00     0.293 HD
ENDBRANCH   6   9
ENDBRANCH   1   3
BRANCH   2  11
ATOM     11  C   UNL     1      28.518  37.702  19.344  1.00  0.00     0.189 C 
ATOM     12  O   UNL     1      28.749  37.714  18.105  1.00  0.00    -0.289 OA
BRANCH  11  13
ATOM     13  C   UNL     1      27.953  38.918  19.975  1.00  0.00     0.064 A 
ATOM     14  C   UNL     1      26.605  39.287  19.785  1.00  0.00     0.130 A 
ATOM     15  C   UNL     1      28.767  39.697  20.814  1.00  0.00     0.020 A 
ATOM     16  C   UNL     1      26.106  40.446  20.398  1.00  0.00     0.093 A 
ATOM     17  C   UNL     1      28.260  40.846  21.424  1.00  0.00     0.047 A 
ATOM     18  C   UNL     1      26.929  41.227  21.214  1.00  0.00     0.119 A 
BRANCH  14  19
ATOM     19  O   UNL     1      25.760  38.496  19.006  1.00  0.00    -0.507 OA
ATOM     20  H   UNL     1      24.757  38.641  18.993  1.00  0.00     0.293 HD
ENDBRANCH  14  19
BRANCH  18  21
ATOM     21  O   UNL     1      26.415  42.373  21.815  1.00  0.00    -0.508 OA
ATOM     22  H   UNL     1      26.686  42.647  22.751  1.00  0.00     0.293 HD
ENDBRANCH  18  21
ENDBRANCH  11  13
ENDBRANCH   2  11
TORSDOF 6
ENDMDL
MODEL 2
REMARK VINA RESULT:    -5.035      1.581      7.405
REMARK INTER + INTRA:          -7.074
REMARK INTER:                  -6.647
REMARK INTRA:                  -0.428
REMARK UNBOUND:                -0.715
REMARK SMILES O=C(C=Cc1ccc(O)cc1)c1ccc(O)cc1O
REMARK SMILES IDX 4 1 3 2 5 3 6 4 7 5 8 6 11 7 10 8 9 9 2 11 1 12 12 13 18 14
REMARK SMILES IDX 13 15 17 16 14 17 15 18 19 19 16 21
REMARK H PARENT 9 10 19 20 16 22
REMARK Flexibility Score: inf
ROOT
ATOM      1  C   UNL     1      28.421  38.119  19.978  1.00  0.00     0.012 C 
ATOM      2  C   UNL     1      27.823  36.994  20.398  1.00  0.00     0.053 C 
ENDROOT
BRANCH   1   3
ATOM      3  C   UNL     1      27.817  39.469  20.092  1.00  0.00    -0.025 A 
ATOM      4  C   UNL     1      27.250  39.950  21.290  1.00  0.00     0.012 A 
ATOM      5  C   UNL     1      26.684  41.227  21.342  1.00  0.00     0.047 A 
ATOM      6  C   UNL     1      26.668  42.038  20.200  1.00  0.00     0.115 A 
ATOM      7  C   UNL     1      27.781  40.286  18.949  1.00  0.00     0.012 A 
ATOM      8  C   UNL     1      27.216  41.563  19.006  1.00  0.00     0.047 A 
BRANCH   6   9
ATOM      9  O   UNL     1      26.108  43.313  20.242  1.00  0.00    -0.508 OA
ATOM     10  H   UNL     1      25.481  43.592  20.988  1.00  0.00     0.293 HD
ENDBRANCH   6   9
ENDBRANCH   1   3
BRANCH   2  11
ATOM     11  C   UNL     1      28.447  35.660  20.272  1.00  0.00     0.189 C 
ATOM     12  O   UNL     1      29.023  35.371  19.189  1.00  0.00    -0.289 OA
BRANCH  11  13
ATOM     13  C   UNL     1      28.432  34.655  21.361  1.00  0.00     0.064 A 
ATOM     14  C   UNL     1      28.759  33.303  21.120  1.00  0.00     0.130 A 
ATOM     15  C   UNL     1      28.128  35.065  22.669  1.00  0.00     0.020 A 
ATOM     16  C   UNL     1      28.733  32.380  22.176  1.00  0.00     0.093 A 
ATOM     17  C   UNL     1      28.110  34.141  23.716  1.00  0.00     0.047 A 
ATOM     18  C   UNL     1      28.408  32.795  23.471  1.00  0.00     0.119 A 
BRANCH  14  19
ATOM     19  O   UNL     1      29.125  32.883  19.841  1.00  0.00    -0.507 OA
ATOM     20  H   UNL     1      28.441  32.535  19.179  1.00  0.00     0.293 HD
ENDBRANCH  14  19
BRANCH  18  21
ATOM     21  O   UNL     1      28.389  31.863  24.507  1.00  0.00    -0.508 OA
ATOM     22  H   UNL     1      27.854  32.022  25.352  1.00  0.00     0.293 HD
ENDBRANCH  18  21
ENDBRANCH  11  13
ENDBRANCH   2  11
TORSDOF 6
ENDMDL
MODEL 3
REMARK VINA RESULT:    -4.695      2.941      9.315
REMARK INTER + INTRA:          -6.646
REMARK INTER:                  -6.275
REMARK INTRA:                  -0.371
REMARK UNBOUND:                -0.715
REMARK SMILES O=C(C=Cc1ccc(O)cc1)c1ccc(O)cc1O
REMARK SMILES IDX 4 1 3 2 5 3 6 4 7 5 8 6 11 7 10 8 9 9 2 11 1 12 12 13 18 14
REMARK SMILES IDX 13 15 17 16 14 17 15 18 19 19 16 21
REMARK H PARENT 9 10 19 20 16 22
REMARK Flexibility Score: inf
ROOT
ATOM      1  C   UNL     1      28.016  33.896  23.919  1.00  0.00     0.012 C 
ATOM      2  C   UNL     1      28.369  32.606  23.808  1.00  0.00     0.053 C 
ENDROOT
BRANCH   1   3
ATOM      3  C   UNL     1      27.770  34.788  22.759  1.00  0.00    -0.025 A 
ATOM      4  C   UNL     1      28.491  34.683  21.552  1.00  0.00     0.012 A 
ATOM      5  C   UNL     1      28.227  35.556  20.493  1.00  0.00     0.047 A 
ATOM      6  C   UNL     1      27.247  36.549  20.624  1.00  0.00     0.115 A 
ATOM      7  C   UNL     1      26.800  35.798  22.885  1.00  0.00     0.012 A 
ATOM      8  C   UNL     1      26.538  36.667  21.822  1.00  0.00     0.047 A 
BRANCH   6   9
ATOM      9  O   UNL     1      26.975  37.423  19.574  1.00  0.00    -0.508 OA
ATOM     10  H   UNL     1      26.219  38.095  19.627  1.00  0.00     0.293 HD
ENDBRANCH   6   9
ENDBRANCH   1   3
BRANCH   2  11
ATOM     11  C   UNL     1      28.609  31.738  24.980  1.00  0.00     0.189 C 
ATOM     12  O   UNL     1      29.125  32.253  26.009  1.00  0.00    -0.289 OA
BRANCH  11  13
ATOM     13  C   UNL     1      28.264  30.297  25.002  1.00  0.00     0.064 A 
ATOM     14  C   UNL     1      28.486  29.505  26.148  1.00  0.00     0.130 A 
ATOM     15  C   UNL     1      27.664  29.718  23.872  1.00  0.00     0.020 A 
ATOM     16  C   UNL     1      28.148  28.143  26.131  1.00  0.00     0.093 A 
ATOM     17  C   UNL     1      27.325  28.363  23.866  1.00  0.00     0.047 A 
ATOM     18  C   UNL     1      27.570  27.571  24.994  1.00  0.00     0.119 A 
BRANCH  14  19
ATOM     19  O   UNL     1      29.023  30.071  27.305  1.00  0.00    -0.507 OA
ATOM     20  H   UNL     1      29.516  29.512  27.991  1.00  0.00     0.293 HD
ENDBRANCH  14  19
BRANCH  18  21
ATOM     21  O   UNL     1      27.240  26.218  24.997  1.00  0.00    -0.508 OA
ATOM     22  H   UNL     1      26.280  25.907  24.900  1.00  0.00     0.293 HD
ENDBRANCH  18  21
ENDBRANCH  11  13
ENDBRANCH   2  11
TORSDOF 6
ENDMDL
MODEL 4
REMARK VINA RESULT:    -4.537      2.415      8.489
REMARK INTER + INTRA:          -6.446
REMARK INTER:                  -6.035
REMARK INTRA:                  -0.411
REMARK UNBOUND:                -0.715
REMARK SMILES O=C(C=Cc1ccc(O)cc1)c1ccc(O)cc1O
REMARK SMILES IDX 4 1 3 2 5 3 6 4 7 5 8 6 11 7 10 8 9 9 2 11 1 12 12 13 18 14
REMARK SMILES IDX 13 15 17 16 14 17 15 18 19 19 16 21
REMARK H PARENT 9 10 19 20 16 22
REMARK Flexibility Score: inf
ROOT
ATOM      1  C   UNL     1      27.541  35.055  23.105  1.00  0.00     0.012 C 
ATOM      2  C   UNL     1      28.524  34.142  23.069  1.00  0.00     0.053 C 
ENDROOT
BRANCH   1   3
ATOM      3  C   UNL     1      27.174  35.919  21.957  1.00  0.00    -0.025 A 
ATOM      4  C   UNL     1      28.005  36.081  20.829  1.00  0.00     0.012 A 
ATOM      5  C   UNL     1      27.616  36.917  19.778  1.00  0.00     0.047 A 
ATOM      6  C   UNL     1      26.398  37.607  19.839  1.00  0.00     0.115 A 
ATOM      7  C   UNL     1      25.961  36.629  22.013  1.00  0.00     0.012 A 
ATOM      8  C   UNL     1      25.575  37.462  20.959  1.00  0.00     0.047 A 
BRANCH   6   9
ATOM      9  O   UNL     1      26.001  38.440  18.796  1.00  0.00    -0.508 OA
ATOM     10  H   UNL     1      26.541  39.257  18.536  1.00  0.00     0.293 HD
ENDBRANCH   6   9
ENDBRANCH   1   3
BRANCH   2  11
ATOM     11  C   UNL     1      28.871  33.293  24.228  1.00  0.00     0.189 C 
ATOM     12  O   UNL     1      29.113  33.856  25.329  1.00  0.00    -0.289 OA
BRANCH  11  13
ATOM     13  C   UNL     1      28.938  31.814  24.154  1.00  0.00     0.064 A 
ATOM     14  C   UNL     1      29.055  31.024  25.318  1.00  0.00     0.130 A 
ATOM     15  C   UNL     1      28.840  31.185  22.903  1.00  0.00     0.020 A 
ATOM     16  C   UNL     1      29.117  29.627  25.208  1.00  0.00     0.093 A 
ATOM     17  C   UNL     1      28.896  29.793  22.804  1.00  0.00     0.047 A 
ATOM     18  C   UNL     1      29.040  29.010  23.956  1.00  0.00     0.119 A 
BRANCH  14  19
ATOM     19  O   UNL     1      29.092  31.623  26.577  1.00  0.00    -0.507 OA
ATOM     20  H   UNL     1      29.605  31.212  27.347  1.00  0.00     0.293 HD
ENDBRANCH  14  19
BRANCH  18  21
ATOM     21  O   UNL     1      29.101  27.621  23.869  1.00  0.00    -0.508 OA
ATOM     22  H   UNL     1      29.752  27.084  24.429  1.00  0.00     0.293 HD
ENDBRANCH  18  21
ENDBRANCH  11  13
ENDBRANCH   2  11
TORSDOF 6
ENDMDL
MODEL 5
REMARK VINA RESULT:    -4.405      3.742      9.929
REMARK INTER + INTRA:          -6.279
REMARK INTER:                  -6.093
REMARK INTRA:                  -0.186
REMARK UNBOUND:                -0.715
REMARK SMILES O=C(C=Cc1ccc(O)cc1)c1ccc(O)cc1O
REMARK SMILES IDX 4 1 3 2 5 3 6 4 7 5 8 6 11 7 10 8 9 9 2 11 1 12 12 13 18 14
REMARK SMILES IDX 13 15 17 16 14 17 15 18 19 19 16 21
REMARK H PARENT 9 10 19 20 16 22
REMARK Flexibility Score: inf
ROOT
ATOM      1  C   UNL     1      28.364  32.534  24.193  1.00  0.00     0.012 C 
ATOM      2  C   UNL     1      28.743  31.253  24.318  1.00  0.00     0.053 C 
ENDROOT
BRANCH   1   3
ATOM      3  C   UNL     1      28.469  33.307  22.931  1.00  0.00    -0.025 A 
ATOM      4  C   UNL     1      29.042  32.775  21.758  1.00  0.00     0.012 A 
ATOM      5  C   UNL     1      29.125  33.550  20.597  1.00  0.00     0.047 A 
ATOM      6  C   UNL     1      28.645  34.866  20.592  1.00  0.00     0.115 A 
ATOM      7  C   UNL     1      28.005  34.634  22.918  1.00  0.00     0.012 A 
ATOM      8  C   UNL     1      28.088  35.405  21.754  1.00  0.00     0.047 A 
BRANCH   6   9
ATOM      9  O   UNL     1      28.722  35.646  19.439  1.00  0.00    -0.508 OA
ATOM     10  H   UNL     1      28.397  36.605  19.427  1.00  0.00     0.293 HD
ENDBRANCH   6   9
ENDBRANCH   1   3
BRANCH   2  11
ATOM     11  C   UNL     1      28.629  30.505  25.588  1.00  0.00     0.189 C 
ATOM     12  O   UNL     1      28.838  31.124  26.666  1.00  0.00    -0.289 OA
BRANCH  11  13
ATOM     13  C   UNL     1      28.273  29.068  25.650  1.00  0.00     0.064 A 
ATOM     14  C   UNL     1      27.120  28.567  25.009  1.00  0.00     0.130 A 
ATOM     15  C   UNL     1      29.125  28.179  26.325  1.00  0.00     0.020 A 
ATOM     16  C   UNL     1      26.815  27.200  25.090  1.00  0.00     0.093 A 
ATOM     17  C   UNL     1      28.816  26.819  26.397  1.00  0.00     0.047 A 
ATOM     18  C   UNL     1      27.658  26.326  25.783  1.00  0.00     0.119 A 
BRANCH  14  19
ATOM     19  O   UNL     1      26.291  29.420  24.279  1.00  0.00    -0.507 OA
ATOM     20  H   UNL     1      26.082  29.251  23.302  1.00  0.00     0.293 HD
ENDBRANCH  14  19
BRANCH  18  21
ATOM     21  O   UNL     1      27.338  24.972  25.851  1.00  0.00    -0.508 OA
ATOM     22  H   UNL     1      26.621  24.628  26.478  1.00  0.00     0.293 HD
ENDBRANCH  18  21
ENDBRANCH  11  13
ENDBRANCH   2  11
TORSDOF 6
ENDMDL
MODEL 6
REMARK VINA RESULT:    -4.396      1.809      7.487
REMARK INTER + INTRA:          -6.268
REMARK INTER:                  -5.951
REMARK INTRA:                  -0.317
REMARK UNBOUND:                -0.715
REMARK SMILES O=C(C=Cc1ccc(O)cc1)c1ccc(O)cc1O
REMARK SMILES IDX 4 1 3 2 5 3 6 4 7 5 8 6 11 7 10 8 9 9 2 11 1 12 12 13 18 14
REMARK SMILES IDX 13 15 17 16 14 17 15 18 19 19 16 21
REMARK H PARENT 9 10 19 20 16 22
REMARK Flexibility Score: inf
ROOT
ATOM      1  C   UNL     1      27.319  35.358  21.277  1.00  0.00     0.012 C 
ATOM      2  C   UNL     1      28.517  34.819  21.005  1.00  0.00     0.053 C 
ENDROOT
BRANCH   1   3
ATOM      3  C   UNL     1      26.946  36.754  20.943  1.00  0.00    -0.025 A 
ATOM      4  C   UNL     1      25.679  37.296  21.244  1.00  0.00     0.012 A 
ATOM      5  C   UNL     1      25.375  38.616  20.899  1.00  0.00     0.047 A 
ATOM      6  C   UNL     1      26.325  39.411  20.243  1.00  0.00     0.115 A 
ATOM      7  C   UNL     1      27.885  37.556  20.272  1.00  0.00     0.012 A 
ATOM      8  C   UNL     1      27.577  38.877  19.930  1.00  0.00     0.047 A 
BRANCH   6   9
ATOM      9  O   UNL     1      26.031  40.728  19.897  1.00  0.00    -0.508 OA
ATOM     10  H   UNL     1      26.703  41.474  20.035  1.00  0.00     0.293 HD
ENDBRANCH   6   9
ENDBRANCH   1   3
BRANCH   2  11
ATOM     11  C   UNL     1      28.864  33.424  21.349  1.00  0.00     0.189 C 
ATOM     12  O   UNL     1      29.124  32.624  20.410  1.00  0.00    -0.289 OA
BRANCH  11  13
ATOM     13  C   UNL     1      28.928  32.928  22.745  1.00  0.00     0.064 A 
ATOM     14  C   UNL     1      29.036  31.550  23.032  1.00  0.00     0.130 A 
ATOM     15  C   UNL     1      28.923  33.852  23.802  1.00  0.00     0.020 A 
ATOM     16  C   UNL     1      29.093  31.119  24.365  1.00  0.00     0.093 A 
ATOM     17  C   UNL     1      28.985  33.413  25.126  1.00  0.00     0.047 A 
ATOM     18  C   UNL     1      29.066  32.045  25.412  1.00  0.00     0.119 A 
BRANCH  14  19
ATOM     19  O   UNL     1      29.106  30.617  21.997  1.00  0.00    -0.507 OA
ATOM     20  H   UNL     1      29.806  30.684  21.267  1.00  0.00     0.293 HD
ENDBRANCH  14  19
BRANCH  18  21
ATOM     21  O   UNL     1      29.125  31.596  26.729  1.00  0.00    -0.508 OA
ATOM     22  H   UNL     1      28.299  31.565  27.315  1.00  0.00     0.293 HD
ENDBRANCH  18  21
ENDBRANCH  11  13
ENDBRANCH   2  11
TORSDOF 6
ENDMDL
MODEL 7
REMARK VINA RESULT:    -4.275      1.596      7.354
REMARK INTER + INTRA:          -6.115
REMARK INTER:                  -6.409
REMARK INTRA:                   0.294
REMARK UNBOUND:                -0.715
REMARK SMILES O=C(C=Cc1ccc(O)cc1)c1ccc(O)cc1O
REMARK SMILES IDX 4 1 3 2 5 3 6 4 7 5 8 6 11 7 10 8 9 9 2 11 1 12 12 13 18 14
REMARK SMILES IDX 13 15 17 16 14 17 15 18 19 19 16 21
REMARK H PARENT 9 10 19 20 16 22
REMARK Flexibility Score: inf
ROOT
ATOM      1  C   UNL     1      28.401  37.926  19.917  1.00  0.00     0.012 C 
ATOM      2  C   UNL     1      27.856  36.878  20.554  1.00  0.00     0.053 C 
ENDROOT
BRANCH   1   3
ATOM      3  C   UNL     1      27.896  39.316  20.030  1.00  0.00    -0.025 A 
ATOM      4  C   UNL     1      27.593  39.917  21.269  1.00  0.00     0.012 A 
ATOM      5  C   UNL     1      27.110  41.228  21.319  1.00  0.00     0.047 A 
ATOM      6  C   UNL     1      26.916  41.954  20.137  1.00  0.00     0.115 A 
ATOM      7  C   UNL     1      27.683  40.049  18.850  1.00  0.00     0.012 A 
ATOM      8  C   UNL     1      27.201  41.361  18.905  1.00  0.00     0.047 A 
BRANCH   6   9
ATOM      9  O   UNL     1      26.436  43.262  20.177  1.00  0.00    -0.508 OA
ATOM     10  H   UNL     1      26.321  43.756  21.054  1.00  0.00     0.293 HD
ENDBRANCH   6   9
ENDBRANCH   1   3
BRANCH   2  11
ATOM     11  C   UNL     1      28.378  35.501  20.424  1.00  0.00     0.189 C 
ATOM     12  O   UNL     1      28.850  35.145  19.311  1.00  0.00    -0.289 OA
BRANCH  11  13
ATOM     13  C   UNL     1      28.379  34.529  21.542  1.00  0.00     0.064 A 
ATOM     14  C   UNL     1      27.630  34.756  22.715  1.00  0.00     0.130 A 
ATOM     15  C   UNL     1      29.109  33.336  21.412  1.00  0.00     0.020 A 
ATOM     16  C   UNL     1      27.656  33.812  23.753  1.00  0.00     0.093 A 
ATOM     17  C   UNL     1      29.125  32.400  22.449  1.00  0.00     0.047 A 
ATOM     18  C   UNL     1      28.402  32.637  23.624  1.00  0.00     0.119 A 
BRANCH  14  19
ATOM     19  O   UNL     1      26.847  35.904  22.842  1.00  0.00    -0.507 OA
ATOM     20  H   UNL     1      26.063  35.946  23.482  1.00  0.00     0.293 HD
ENDBRANCH  14  19
BRANCH  18  21
ATOM     21  O   UNL     1      28.414  31.712  24.665  1.00  0.00    -0.508 OA
ATOM     22  H   UNL     1      29.211  31.622  25.284  1.00  0.00     0.293 HD
ENDBRANCH  18  21
ENDBRANCH  11  13
ENDBRANCH   2  11
TORSDOF 6
ENDMDL
MODEL 8
REMARK VINA RESULT:    -4.128      1.805      7.600
REMARK INTER + INTRA:          -5.929
REMARK INTER:                  -6.251
REMARK INTRA:                   0.322
REMARK UNBOUND:                -0.715
REMARK SMILES O=C(C=Cc1ccc(O)cc1)c1ccc(O)cc1O
REMARK SMILES IDX 4 1 3 2 5 3 6 4 7 5 8 6 11 7 10 8 9 9 2 11 1 12 12 13 18 14
REMARK SMILES IDX 13 15 17 16 14 17 15 18 19 19 16 21
REMARK H PARENT 9 10 19 20 16 22
REMARK Flexibility Score: inf
ROOT
ATOM      1  C   UNL     1      28.128  35.791  20.160  1.00  0.00     0.012 C 
ATOM      2  C   UNL     1      28.180  34.967  21.218  1.00  0.00     0.053 C 
ENDROOT
BRANCH   1   3
ATOM      3  C   UNL     1      27.599  37.176  20.215  1.00  0.00    -0.025 A 
ATOM      4  C   UNL     1      28.292  38.278  19.673  1.00  0.00     0.012 A 
ATOM      5  C   UNL     1      27.753  39.564  19.761  1.00  0.00     0.047 A 
ATOM      6  C   UNL     1      26.521  39.772  20.396  1.00  0.00     0.115 A 
ATOM      7  C   UNL     1      26.372  37.398  20.864  1.00  0.00     0.012 A 
ATOM      8  C   UNL     1      25.836  38.687  20.948  1.00  0.00     0.047 A 
BRANCH   6   9
ATOM      9  O   UNL     1      25.975  41.050  20.488  1.00  0.00    -0.508 OA
ATOM     10  H   UNL     1      26.560  41.868  20.611  1.00  0.00     0.293 HD
ENDBRANCH   6   9
ENDBRANCH   1   3
BRANCH   2  11
ATOM     11  C   UNL     1      28.712  33.591  21.135  1.00  0.00     0.189 C 
ATOM     12  O   UNL     1      29.123  33.176  20.019  1.00  0.00    -0.289 OA
BRANCH  11  13
ATOM     13  C   UNL     1      28.791  32.684  22.305  1.00  0.00     0.064 A 
ATOM     14  C   UNL     1      28.571  33.155  23.617  1.00  0.00     0.130 A 
ATOM     15  C   UNL     1      29.047  31.319  22.098  1.00  0.00     0.020 A 
ATOM     16  C   UNL     1      28.655  32.266  24.700  1.00  0.00     0.093 A 
ATOM     17  C   UNL     1      29.123  30.441  23.182  1.00  0.00     0.047 A 
ATOM     18  C   UNL     1      28.932  30.913  24.486  1.00  0.00     0.119 A 
BRANCH  14  19
ATOM     19  O   UNL     1      28.253  34.494  23.842  1.00  0.00    -0.507 OA
ATOM     20  H   UNL     1      28.819  35.082  24.443  1.00  0.00     0.293 HD
ENDBRANCH  14  19
BRANCH  18  21
ATOM     21  O   UNL     1      29.009  30.047  25.574  1.00  0.00    -0.508 OA
ATOM     22  H   UNL     1      29.828  29.472  25.736  1.00  0.00     0.293 HD
ENDBRANCH  18  21
ENDBRANCH  11  13
ENDBRANCH   2  11
TORSDOF 6
ENDMDL
