MODEL 1
REMARK VINA RESULT:    -4.081      0.000      0.000
REMARK INTER + INTRA:          -4.702
REMARK INTER:                  -4.558
REMARK INTRA:                  -0.143
REMARK UNBOUND:                -0.143
REMARK SMILES O=C([O-])C=Cc1ccccc1
REMARK SMILES IDX 4 1 5 2 2 3 1 4 3 5 6 6 7 7 11 8 8 9 10 10 9 11
REMARK H PARENT
REMARK Flexibility Score: inf
ROOT
ATOM      1  C   UNL     1     -44.255 -46.250  71.585  1.00  0.00     0.025 C 
ATOM      2  C   UNL     1     -44.511 -47.363  70.883  1.00  0.00     0.010 C 
ENDROOT
BRANCH   1   3
ATOM      3  C   UNL     1     -42.915 -45.639  71.610  1.00  0.00     0.064 C 
ATOM      4  O   UNL     1     -41.927 -46.325  71.983  1.00  0.00    -0.545 OA
ATOM      5  O   UNL     1     -42.722 -44.317  71.228  1.00  0.00    -0.545 OA
ENDBRANCH   1   3
BRANCH   2   6
ATOM      6  C   UNL     1     -45.837 -48.036  70.811  1.00  0.00    -0.026 A 
ATOM      7  C   UNL     1     -45.996 -49.413  70.538  1.00  0.00     0.008 A 
ATOM      8  C   UNL     1     -46.989 -47.257  71.027  1.00  0.00     0.008 A 
ATOM      9  C   UNL     1     -47.273 -49.982  70.484  1.00  0.00     0.001 A 
ATOM     10  C   UNL     1     -48.261 -47.831  70.972  1.00  0.00     0.001 A 
ATOM     11  C   UNL     1     -48.403 -49.193  70.701  1.00  0.00     0.000 A 
ENDBRANCH   2   6
TORSDOF 2
ENDMDL
MODEL 2
REMARK VINA RESULT:    -3.994      1.006      1.857
REMARK INTER + INTRA:          -4.604
REMARK INTER:                  -4.468
REMARK INTRA:                  -0.136
REMARK UNBOUND:                -0.143
REMARK SMILES O=C([O-])C=Cc1ccccc1
REMARK SMILES IDX 4 1 5 2 2 3 1 4 3 5 6 6 7 7 11 8 8 9 10 10 9 11
REMARK H PARENT
REMARK Flexibility Score: inf
ROOT
ATOM      1  C   UNL     1     -43.783 -45.848  70.490  1.00  0.00     0.025 C 
ATOM      2  C   UNL     1     -44.654 -46.371  71.365  1.00  0.00     0.010 C 
ENDROOT
BRANCH   1   3
ATOM      3  C   UNL     1     -42.862 -44.763  70.867  1.00  0.00     0.064 C 
ATOM      4  O   UNL     1     -42.966 -44.225  72.000  1.00  0.00    -0.545 OA
ATOM      5  O   UNL     1     -41.878 -44.320  69.990  1.00  0.00    -0.545 OA
ENDBRANCH   1   3
BRANCH   2   6
ATOM      6  C   UNL     1     -45.613 -47.467  71.057  1.00  0.00    -0.026 A 
ATOM      7  C   UNL     1     -47.016 -47.308  71.107  1.00  0.00     0.008 A 
ATOM      8  C   UNL     1     -45.092 -48.723  70.697  1.00  0.00     0.008 A 
ATOM      9  C   UNL     1     -47.862 -48.381  70.806  1.00  0.00     0.001 A 
ATOM     10  C   UNL     1     -45.942 -49.791  70.397  1.00  0.00     0.001 A 
ATOM     11  C   UNL     1     -47.326 -49.620  70.451  1.00  0.00     0.000 A 
ENDBRANCH   2   6
TORSDOF 2
ENDMDL
MODEL 3
REMARK VINA RESULT:    -3.989      4.328      5.724
REMARK INTER + INTRA:          -4.599
REMARK INTER:                  -4.468
REMARK INTRA:                  -0.131
REMARK UNBOUND:                -0.143
REMARK SMILES O=C([O-])C=Cc1ccccc1
REMARK SMILES IDX 4 1 5 2 2 3 1 4 3 5 6 6 7 7 11 8 8 9 10 10 9 11
REMARK H PARENT
REMARK Flexibility Score: inf
ROOT
ATOM      1  C   UNL     1     -49.146 -49.340  70.881  1.00  0.00     0.025 C 
ATOM      2  C   UNL     1     -48.374 -48.245  70.889  1.00  0.00     0.010 C 
ENDROOT
BRANCH   1   3
ATOM      3  C   UNL     1     -50.614 -49.255  70.957  1.00  0.00     0.064 C 
ATOM      4  O   UNL     1     -51.305 -49.521  69.939  1.00  0.00    -0.545 OA
ATOM      5  O   UNL     1     -51.252 -48.886  72.136  1.00  0.00    -0.545 OA
ENDBRANCH   1   3
BRANCH   2   6
ATOM      6  C   UNL     1     -46.887 -48.253  70.816  1.00  0.00    -0.026 A 
ATOM      7  C   UNL     1     -46.130 -49.408  70.517  1.00  0.00     0.008 A 
ATOM      8  C   UNL     1     -46.204 -47.046  71.056  1.00  0.00     0.008 A 
ATOM      9  C   UNL     1     -44.733 -49.346  70.464  1.00  0.00     0.001 A 
ATOM     10  C   UNL     1     -44.809 -46.991  71.001  1.00  0.00     0.001 A 
ATOM     11  C   UNL     1     -44.074 -48.140  70.705  1.00  0.00     0.000 A 
ENDBRANCH   2   6
TORSDOF 2
ENDMDL
MODEL 4
REMARK VINA RESULT:    -3.957      4.300      5.852
REMARK INTER + INTRA:          -4.563
REMARK INTER:                  -4.429
REMARK INTRA:                  -0.133
REMARK UNBOUND:                -0.143
REMARK SMILES O=C([O-])C=Cc1ccccc1
REMARK SMILES IDX 4 1 5 2 2 3 1 4 3 5 6 6 7 7 11 8 8 9 10 10 9 11
REMARK H PARENT
REMARK Flexibility Score: inf
ROOT
ATOM      1  C   UNL     1     -49.117 -48.615  70.964  1.00  0.00     0.025 C 
ATOM      2  C   UNL     1     -47.963 -49.259  70.742  1.00  0.00     0.010 C 
ENDROOT
BRANCH   1   3
ATOM      3  C   UNL     1     -50.416 -49.306  70.900  1.00  0.00     0.064 C 
ATOM      4  O   UNL     1     -50.639 -50.125  69.969  1.00  0.00    -0.545 OA
ATOM      5  O   UNL     1     -51.403 -49.070  71.850  1.00  0.00    -0.545 OA
ENDBRANCH   1   3
BRANCH   2   6
ATOM      6  C   UNL     1     -46.615 -48.628  70.789  1.00  0.00    -0.026 A 
ATOM      7  C   UNL     1     -46.404 -47.273  71.128  1.00  0.00     0.008 A 
ATOM      8  C   UNL     1     -45.498 -49.426  70.481  1.00  0.00     0.008 A 
ATOM      9  C   UNL     1     -45.109 -46.743  71.153  1.00  0.00     0.001 A 
ATOM     10  C   UNL     1     -44.208 -48.890  70.509  1.00  0.00     0.001 A 
ATOM     11  C   UNL     1     -44.014 -47.549  70.844  1.00  0.00     0.000 A 
ENDBRANCH   2   6
TORSDOF 2
ENDMDL
MODEL 5
REMARK VINA RESULT:    -3.888      4.017      5.657
REMARK INTER + INTRA:          -4.486
REMARK INTER:                  -4.352
REMARK INTRA:                  -0.134
REMARK UNBOUND:                -0.143
REMARK SMILES O=C([O-])C=Cc1ccccc1
REMARK SMILES IDX 4 1 5 2 2 3 1 4 3 5 6 6 7 7 11 8 8 9 10 10 9 11
REMARK H PARENT
REMARK Flexibility Score: inf
ROOT
ATOM      1  C   UNL     1     -48.366 -48.812  70.770  1.00  0.00     0.025 C 
ATOM      2  C   UNL     1     -47.131 -49.331  70.702  1.00  0.00     0.010 C 
ENDROOT
BRANCH   1   3
ATOM      3  C   UNL     1     -49.568 -49.659  70.701  1.00  0.00     0.064 C 
ATOM      4  O   UNL     1     -49.568 -50.785  71.265  1.00  0.00    -0.545 OA
ATOM      5  O   UNL     1     -50.706 -49.236  70.023  1.00  0.00    -0.545 OA
ENDBRANCH   1   3
BRANCH   2   6
ATOM      6  C   UNL     1     -45.872 -48.539  70.765  1.00  0.00    -0.026 A 
ATOM      7  C   UNL     1     -45.834 -47.166  71.096  1.00  0.00     0.008 A 
ATOM      8  C   UNL     1     -44.661 -49.195  70.480  1.00  0.00     0.008 A 
ATOM      9  C   UNL     1     -44.615 -46.481  71.136  1.00  0.00     0.001 A 
ATOM     10  C   UNL     1     -43.447 -48.505  70.522  1.00  0.00     0.001 A 
ATOM     11  C   UNL     1     -43.424 -47.149  70.850  1.00  0.00     0.000 A 
ENDBRANCH   2   6
TORSDOF 2
ENDMDL
MODEL 6
REMARK VINA RESULT:    -3.521      4.882      6.086
REMARK INTER + INTRA:          -4.076
REMARK INTER:                  -3.948
REMARK INTRA:                  -0.128
REMARK UNBOUND:                -0.143
REMARK SMILES O=C([O-])C=Cc1ccccc1
REMARK SMILES IDX 4 1 5 2 2 3 1 4 3 5 6 6 7 7 11 8 8 9 10 10 9 11
REMARK H PARENT
REMARK Flexibility Score: inf
ROOT
ATOM      1  C   UNL     1     -49.126 -47.132  67.306  1.00  0.00     0.025 C 
ATOM      2  C   UNL     1     -48.931 -47.866  68.410  1.00  0.00     0.010 C 
ENDROOT
BRANCH   1   3
ATOM      3  C   UNL     1     -50.414 -47.131  66.592  1.00  0.00     0.064 C 
ATOM      4  O   UNL     1     -50.562 -46.396  65.580  1.00  0.00    -0.545 OA
ATOM      5  O   UNL     1     -51.471 -47.927  67.016  1.00  0.00    -0.545 OA
ENDBRANCH   1   3
BRANCH   2   6
ATOM      6  C   UNL     1     -47.660 -47.918  69.183  1.00  0.00    -0.026 A 
ATOM      7  C   UNL     1     -46.512 -48.617  68.745  1.00  0.00     0.008 A 
ATOM      8  C   UNL     1     -47.602 -47.235  70.411  1.00  0.00     0.008 A 
ATOM      9  C   UNL     1     -45.349 -48.625  69.521  1.00  0.00     0.001 A 
ATOM     10  C   UNL     1     -46.436 -47.247  71.182  1.00  0.00     0.001 A 
ATOM     11  C   UNL     1     -45.310 -47.942  70.737  1.00  0.00     0.000 A 
ENDBRANCH   2   6
TORSDOF 2
ENDMDL
MODEL 7
REMARK VINA RESULT:    -3.499      2.391      3.347
REMARK INTER + INTRA:          -4.052
REMARK INTER:                  -3.916
REMARK INTRA:                  -0.136
REMARK UNBOUND:                -0.143
REMARK SMILES O=C([O-])C=Cc1ccccc1
REMARK SMILES IDX 4 1 5 2 2 3 1 4 3 5 6 6 7 7 11 8 8 9 10 10 9 11
REMARK H PARENT
REMARK Flexibility Score: inf
ROOT
ATOM      1  C   UNL     1     -44.236 -45.248  73.826  1.00  0.00     0.025 C 
ATOM      2  C   UNL     1     -43.854 -45.399  72.551  1.00  0.00     0.010 C 
ENDROOT
BRANCH   1   3
ATOM      3  C   UNL     1     -43.908 -44.037  74.597  1.00  0.00     0.064 C 
ATOM      4  O   UNL     1     -43.319 -43.081  74.029  1.00  0.00    -0.545 OA
ATOM      5  O   UNL     1     -44.238 -43.932  75.944  1.00  0.00    -0.545 OA
ENDBRANCH   1   3
BRANCH   2   6
ATOM      6  C   UNL     1     -44.148 -46.592  71.711  1.00  0.00    -0.026 A 
ATOM      7  C   UNL     1     -43.147 -47.440  71.188  1.00  0.00     0.008 A 
ATOM      8  C   UNL     1     -45.494 -46.887  71.426  1.00  0.00     0.008 A 
ATOM      9  C   UNL     1     -43.493 -48.546  70.404  1.00  0.00     0.001 A 
ATOM     10  C   UNL     1     -45.834 -47.994  70.643  1.00  0.00     0.001 A 
ATOM     11  C   UNL     1     -44.833 -48.823  70.133  1.00  0.00     0.000 A 
ENDBRANCH   2   6
TORSDOF 2
ENDMDL
MODEL 8
REMARK VINA RESULT:    -3.440      3.004      5.483
REMARK INTER + INTRA:          -3.985
REMARK INTER:                  -3.857
REMARK INTRA:                  -0.128
REMARK UNBOUND:                -0.143
REMARK SMILES O=C([O-])C=Cc1ccccc1
REMARK SMILES IDX 4 1 5 2 2 3 1 4 3 5 6 6 7 7 11 8 8 9 10 10 9 11
REMARK H PARENT
REMARK Flexibility Score: inf
ROOT
ATOM      1  C   UNL     1     -46.441 -47.214  71.168  1.00  0.00     0.025 C 
ATOM      2  C   UNL     1     -45.112 -47.289  71.010  1.00  0.00     0.010 C 
ENDROOT
BRANCH   1   3
ATOM      3  C   UNL     1     -47.322 -48.359  70.884  1.00  0.00     0.064 C 
ATOM      4  O   UNL     1     -48.570 -48.192  70.862  1.00  0.00    -0.545 OA
ATOM      5  O   UNL     1     -46.800 -49.624  70.639  1.00  0.00    -0.545 OA
ENDBRANCH   1   3
BRANCH   2   6
ATOM      6  C   UNL     1     -44.161 -46.175  71.277  1.00  0.00    -0.026 A 
ATOM      7  C   UNL     1     -43.801 -45.755  72.577  1.00  0.00     0.008 A 
ATOM      8  C   UNL     1     -43.592 -45.510  70.175  1.00  0.00     0.008 A 
ATOM      9  C   UNL     1     -42.900 -44.700  72.757  1.00  0.00     0.001 A 
ATOM     10  C   UNL     1     -42.692 -44.457  70.361  1.00  0.00     0.001 A 
ATOM     11  C   UNL     1     -42.347 -44.053  71.652  1.00  0.00     0.000 A 
ENDBRANCH   2   6
TORSDOF 2
ENDMDL
MODEL 9
REMARK VINA RESULT:    -3.399      7.522      8.918
REMARK INTER + INTRA:          -3.939
REMARK INTER:                  -3.804
REMARK INTRA:                  -0.135
REMARK UNBOUND:                -0.143
REMARK SMILES O=C([O-])C=Cc1ccccc1
REMARK SMILES IDX 4 1 5 2 2 3 1 4 3 5 6 6 7 7 11 8 8 9 10 10 9 11
REMARK H PARENT
REMARK Flexibility Score: inf
ROOT
ATOM      1  C   UNL     1     -45.499 -39.449  72.245  1.00  0.00     0.025 C 
ATOM      2  C   UNL     1     -44.352 -40.138  72.162  1.00  0.00     0.010 C 
ENDROOT
BRANCH   1   3
ATOM      3  C   UNL     1     -46.366 -39.526  73.432  1.00  0.00     0.064 C 
ATOM      4  O   UNL     1     -47.414 -38.830  73.481  1.00  0.00    -0.545 OA
ATOM      5  O   UNL     1     -46.047 -40.354  74.502  1.00  0.00    -0.545 OA
ENDBRANCH   1   3
BRANCH   2   6
ATOM      6  C   UNL     1     -43.426 -40.111  70.996  1.00  0.00    -0.026 A 
ATOM      7  C   UNL     1     -43.045 -41.267  70.279  1.00  0.00     0.008 A 
ATOM      8  C   UNL     1     -42.908 -38.867  70.590  1.00  0.00     0.008 A 
ATOM      9  C   UNL     1     -42.170 -41.170  69.192  1.00  0.00     0.001 A 
ATOM     10  C   UNL     1     -42.034 -38.777  69.503  1.00  0.00     0.001 A 
ATOM     11  C   UNL     1     -41.666 -39.928  68.805  1.00  0.00     0.000 A 
ENDBRANCH   2   6
TORSDOF 2
ENDMDL
