MODEL 1
REMARK VINA RESULT:    -5.996      0.000      0.000
REMARK INTER + INTRA:          -9.002
REMARK INTER:                  -8.100
REMARK INTRA:                  -0.902
REMARK UNBOUND:                -0.902
REMARK SMILES CC(=O)CCC=C(C)CCC=C(C)C
REMARK SMILES IDX 7 1 6 2 8 3 9 4 10 5 11 6 13 7 12 8 14 9 5 10 4 11 2 12 3 13
REMARK SMILES IDX 1 14
REMARK H PARENT
REMARK Flexibility Score: inf
ROOT
ATOM      1  C   UNL     1      -8.504  32.722  20.967  1.00  0.00    -0.077 C 
ATOM      2  C   UNL     1      -8.742  33.657  21.916  1.00  0.00    -0.028 C 
ATOM      3  C   UNL     1      -7.311  32.808  20.045  1.00  0.00     0.039 C 
ENDROOT
BRANCH   1   4
ATOM      4  C   UNL     1      -9.469  31.565  20.817  1.00  0.00     0.034 C 
BRANCH   4   5
ATOM      5  C   UNL     1      -8.907  30.295  21.465  1.00  0.00     0.032 C 
BRANCH   5   6
ATOM      6  C   UNL     1      -8.968  30.375  22.972  1.00  0.00    -0.028 C 
ATOM      7  C   UNL     1      -8.032  30.231  25.261  1.00  0.00     0.039 C 
ATOM      8  C   UNL     1      -7.900  30.133  23.764  1.00  0.00    -0.080 C 
ATOM      9  C   UNL     1      -6.556  29.763  23.188  1.00  0.00     0.039 C 
ENDBRANCH   5   6
ENDBRANCH   4   5
ENDBRANCH   1   4
BRANCH   2  10
ATOM     10  C   UNL     1      -7.845  34.836  22.197  1.00  0.00     0.035 C 
BRANCH  10  11
ATOM     11  C   UNL     1      -7.181  34.699  23.570  1.00  0.00     0.079 C 
BRANCH  11  12
ATOM     12  C   UNL     1      -8.216  34.720  24.666  1.00  0.00     0.130 C 
ATOM     13  O   UNL     1      -8.389  33.721  25.347  1.00  0.00    -0.300 OA
ATOM     14  C   UNL     1      -9.049  35.938  24.932  1.00  0.00     0.087 C 
ENDBRANCH  11  12
ENDBRANCH  10  11
ENDBRANCH   2  10
TORSDOF 6
ENDMDL
MODEL 2
REMARK VINA RESULT:    -5.750      2.117      3.680
REMARK INTER + INTRA:          -8.669
REMARK INTER:                  -7.617
REMARK INTRA:                  -1.051
REMARK UNBOUND:                -0.902
REMARK SMILES CC(=O)CCC=C(C)CCC=C(C)C
REMARK SMILES IDX 7 1 6 2 8 3 9 4 10 5 11 6 13 7 12 8 14 9 5 10 4 11 2 12 3 13
REMARK SMILES IDX 1 14
REMARK H PARENT
REMARK Flexibility Score: inf
ROOT
ATOM      1  C   UNL     1      -9.288  32.154  24.588  1.00  0.00    -0.077 C 
ATOM      2  C   UNL     1      -9.864  31.989  23.374  1.00  0.00    -0.028 C 
ATOM      3  C   UNL     1      -8.379  33.323  24.886  1.00  0.00     0.039 C 
ENDROOT
BRANCH   1   4
ATOM      4  C   UNL     1      -9.552  31.130  25.671  1.00  0.00     0.034 C 
BRANCH   4   5
ATOM      5  C   UNL     1      -8.526  29.992  25.611  1.00  0.00     0.032 C 
BRANCH   5   6
ATOM      6  C   UNL     1      -8.861  29.009  24.514  1.00  0.00    -0.028 C 
ATOM      7  C   UNL     1      -8.509  27.875  22.341  1.00  0.00     0.039 C 
ATOM      8  C   UNL     1      -8.116  28.877  23.395  1.00  0.00    -0.080 C 
ATOM      9  C   UNL     1      -6.883  29.714  23.161  1.00  0.00     0.039 C 
ENDBRANCH   5   6
ENDBRANCH   4   5
ENDBRANCH   1   4
BRANCH   2  10
ATOM     10  C   UNL     1      -9.717  32.950  22.221  1.00  0.00     0.035 C 
BRANCH  10  11
ATOM     11  C   UNL     1      -8.641  32.466  21.244  1.00  0.00     0.079 C 
BRANCH  11  12
ATOM     12  C   UNL     1      -7.774  33.614  20.797  1.00  0.00     0.130 C 
ATOM     13  O   UNL     1      -7.142  33.520  19.756  1.00  0.00    -0.300 OA
ATOM     14  C   UNL     1      -7.658  34.870  21.610  1.00  0.00     0.087 C 
ENDBRANCH  11  12
ENDBRANCH  10  11
ENDBRANCH   2  10
TORSDOF 6
ENDMDL
MODEL 3
REMARK VINA RESULT:    -5.725      1.706      3.191
REMARK INTER + INTRA:          -8.636
REMARK INTER:                  -7.718
REMARK INTRA:                  -0.918
REMARK UNBOUND:                -0.902
REMARK SMILES CC(=O)CCC=C(C)CCC=C(C)C
REMARK SMILES IDX 7 1 6 2 8 3 9 4 10 5 11 6 13 7 12 8 14 9 5 10 4 11 2 12 3 13
REMARK SMILES IDX 1 14
REMARK H PARENT
REMARK Flexibility Score: inf
ROOT
ATOM      1  C   UNL     1      -8.546  33.463  22.999  1.00  0.00    -0.077 C 
ATOM      2  C   UNL     1      -9.145  32.875  24.060  1.00  0.00    -0.028 C 
ATOM      3  C   UNL     1      -7.611  34.638  23.162  1.00  0.00     0.039 C 
ENDROOT
BRANCH   1   4
ATOM      4  C   UNL     1      -8.831  32.935  21.609  1.00  0.00     0.034 C 
BRANCH   4   5
ATOM      5  C   UNL     1      -7.946  31.725  21.290  1.00  0.00     0.032 C 
BRANCH   5   6
ATOM      6  C   UNL     1      -8.627  30.432  21.670  1.00  0.00    -0.028 C 
ATOM      7  C   UNL     1      -8.811  28.262  22.851  1.00  0.00     0.039 C 
ATOM      8  C   UNL     1      -8.075  29.533  22.515  1.00  0.00    -0.080 C 
ATOM      9  C   UNL     1      -6.724  29.764  23.145  1.00  0.00     0.039 C 
ENDBRANCH   5   6
ENDBRANCH   4   5
ENDBRANCH   1   4
BRANCH   2  10
ATOM     10  C   UNL     1      -8.921  33.274  25.497  1.00  0.00     0.035 C 
BRANCH  10  11
ATOM     11  C   UNL     1      -9.341  32.148  26.446  1.00  0.00     0.079 C 
BRANCH  11  12
ATOM     12  C   UNL     1      -8.132  31.440  27.000  1.00  0.00     0.130 C 
ATOM     13  O   UNL     1      -7.353  32.051  27.715  1.00  0.00    -0.300 OA
ATOM     14  C   UNL     1      -7.854  30.001  26.682  1.00  0.00     0.087 C 
ENDBRANCH  11  12
ENDBRANCH  10  11
ENDBRANCH   2  10
TORSDOF 6
ENDMDL
MODEL 4
REMARK VINA RESULT:    -5.611      1.734      3.224
REMARK INTER + INTRA:          -8.481
REMARK INTER:                  -7.344
REMARK INTRA:                  -1.137
REMARK UNBOUND:                -0.902
REMARK SMILES CC(=O)CCC=C(C)CCC=C(C)C
REMARK SMILES IDX 7 1 6 2 8 3 9 4 10 5 11 6 13 7 12 8 14 9 5 10 4 11 2 12 3 13
REMARK SMILES IDX 1 14
REMARK H PARENT
REMARK Flexibility Score: inf
ROOT
ATOM      1  C   UNL     1      -8.123  29.661  22.564  1.00  0.00    -0.077 C 
ATOM      2  C   UNL     1      -8.624  30.587  21.713  1.00  0.00    -0.028 C 
ATOM      3  C   UNL     1      -6.720  29.761  23.116  1.00  0.00     0.039 C 
ENDROOT
BRANCH   1   4
ATOM      4  C   UNL     1      -8.990  28.486  22.963  1.00  0.00     0.034 C 
BRANCH   4   5
ATOM      5  C   UNL     1      -9.136  28.405  24.486  1.00  0.00     0.032 C 
BRANCH   5   6
ATOM      6  C   UNL     1      -9.808  29.639  25.040  1.00  0.00    -0.028 C 
ATOM      7  C   UNL     1      -9.975  31.631  26.502  1.00  0.00     0.039 C 
ATOM      8  C   UNL     1      -9.248  30.412  25.996  1.00  0.00    -0.080 C 
ATOM      9  C   UNL     1      -7.896  30.092  26.583  1.00  0.00     0.039 C 
ENDBRANCH   5   6
ENDBRANCH   4   5
ENDBRANCH   1   4
BRANCH   2  10
ATOM     10  C   UNL     1      -7.885  31.823  21.265  1.00  0.00     0.035 C 
BRANCH  10  11
ATOM     11  C   UNL     1      -8.750  33.073  21.456  1.00  0.00     0.079 C 
BRANCH  11  12
ATOM     12  C   UNL     1      -8.123  34.005  22.459  1.00  0.00     0.130 C 
ATOM     13  O   UNL     1      -7.561  35.017  22.069  1.00  0.00    -0.300 OA
ATOM     14  C   UNL     1      -8.164  33.714  23.930  1.00  0.00     0.087 C 
ENDBRANCH  11  12
ENDBRANCH  10  11
ENDBRANCH   2  10
TORSDOF 6
ENDMDL
MODEL 5
REMARK VINA RESULT:    -5.577      2.286      4.635
REMARK INTER + INTRA:          -8.436
REMARK INTER:                  -7.657
REMARK INTRA:                  -0.778
REMARK UNBOUND:                -0.902
REMARK SMILES CC(=O)CCC=C(C)CCC=C(C)C
REMARK SMILES IDX 7 1 6 2 8 3 9 4 10 5 11 6 13 7 12 8 14 9 5 10 4 11 2 12 3 13
REMARK SMILES IDX 1 14
REMARK H PARENT
REMARK Flexibility Score: inf
ROOT
ATOM      1  C   UNL     1      -7.784  33.923  22.668  1.00  0.00    -0.077 C 
ATOM      2  C   UNL     1      -7.638  32.601  22.916  1.00  0.00    -0.028 C 
ATOM      3  C   UNL     1      -7.866  34.466  21.260  1.00  0.00     0.039 C 
ENDROOT
BRANCH   1   4
ATOM      4  C   UNL     1      -7.853  34.885  23.834  1.00  0.00     0.034 C 
BRANCH   4   5
ATOM      5  C   UNL     1      -8.995  34.512  24.786  1.00  0.00     0.032 C 
BRANCH   5   6
ATOM      6  C   UNL     1      -8.466  34.008  26.107  1.00  0.00    -0.028 C 
ATOM      7  C   UNL     1      -8.203  32.347  27.926  1.00  0.00     0.039 C 
ATOM      8  C   UNL     1      -8.767  32.786  26.600  1.00  0.00    -0.080 C 
ATOM      9  C   UNL     1      -9.664  31.830  25.853  1.00  0.00     0.039 C 
ENDBRANCH   5   6
ENDBRANCH   4   5
ENDBRANCH   1   4
BRANCH   2  10
ATOM     10  C   UNL     1      -7.593  31.532  21.853  1.00  0.00     0.035 C 
BRANCH  10  11
ATOM     11  C   UNL     1      -8.616  30.431  22.145  1.00  0.00     0.079 C 
BRANCH  11  12
ATOM     12  C   UNL     1      -7.937  29.209  22.706  1.00  0.00     0.130 C 
ATOM     13  O   UNL     1      -6.799  29.299  23.140  1.00  0.00    -0.300 OA
ATOM     14  C   UNL     1      -8.624  27.875  22.732  1.00  0.00     0.087 C 
ENDBRANCH  11  12
ENDBRANCH  10  11
ENDBRANCH   2  10
TORSDOF 6
ENDMDL
MODEL 6
REMARK VINA RESULT:    -5.507      2.078      4.844
REMARK INTER + INTRA:          -8.341
REMARK INTER:                  -7.386
REMARK INTRA:                  -0.955
REMARK UNBOUND:                -0.902
REMARK SMILES CC(=O)CCC=C(C)CCC=C(C)C
REMARK SMILES IDX 7 1 6 2 8 3 9 4 10 5 11 6 13 7 12 8 14 9 5 10 4 11 2 12 3 13
REMARK SMILES IDX 1 14
REMARK H PARENT
REMARK Flexibility Score: inf
ROOT
ATOM      1  C   UNL     1      -7.847  30.083  22.296  1.00  0.00    -0.077 C 
ATOM      2  C   UNL     1      -8.816  29.138  22.306  1.00  0.00    -0.028 C 
ATOM      3  C   UNL     1      -6.621  29.978  23.172  1.00  0.00     0.039 C 
ENDROOT
BRANCH   1   4
ATOM      4  C   UNL     1      -8.005  31.286  21.391  1.00  0.00     0.034 C 
BRANCH   4   5
ATOM      5  C   UNL     1      -9.163  32.175  21.858  1.00  0.00     0.032 C 
BRANCH   5   6
ATOM      6  C   UNL     1      -8.804  32.927  23.117  1.00  0.00    -0.028 C 
ATOM      7  C   UNL     1      -7.878  34.834  24.399  1.00  0.00     0.039 C 
ATOM      8  C   UNL     1      -8.209  34.140  23.103  1.00  0.00    -0.080 C 
ATOM      9  C   UNL     1      -7.859  34.834  21.811  1.00  0.00     0.039 C 
ENDBRANCH   5   6
ENDBRANCH   4   5
ENDBRANCH   1   4
BRANCH   2  10
ATOM     10  C   UNL     1      -8.768  27.875  23.129  1.00  0.00     0.035 C 
BRANCH  10  11
ATOM     11  C   UNL     1      -9.827  27.906  24.235  1.00  0.00     0.079 C 
BRANCH  11  12
ATOM     12  C   UNL     1      -9.460  28.909  25.296  1.00  0.00     0.130 C 
ATOM     13  O   UNL     1      -8.614  28.621  26.128  1.00  0.00    -0.300 OA
ATOM     14  C   UNL     1     -10.120  30.255  25.362  1.00  0.00     0.087 C 
ENDBRANCH  11  12
ENDBRANCH  10  11
ENDBRANCH   2  10
TORSDOF 6
ENDMDL
MODEL 7
REMARK VINA RESULT:    -5.491      1.320      3.777
REMARK INTER + INTRA:          -8.319
REMARK INTER:                  -7.512
REMARK INTRA:                  -0.807
REMARK UNBOUND:                -0.902
REMARK SMILES CC(=O)CCC=C(C)CCC=C(C)C
REMARK SMILES IDX 7 1 6 2 8 3 9 4 10 5 11 6 13 7 12 8 14 9 5 10 4 11 2 12 3 13
REMARK SMILES IDX 1 14
REMARK H PARENT
REMARK Flexibility Score: inf
ROOT
ATOM      1  C   UNL     1      -8.239  30.393  23.077  1.00  0.00    -0.077 C 
ATOM      2  C   UNL     1      -9.216  30.529  24.003  1.00  0.00    -0.028 C 
ATOM      3  C   UNL     1      -6.788  30.239  23.466  1.00  0.00     0.039 C 
ENDROOT
BRANCH   1   4
ATOM      4  C   UNL     1      -8.611  30.410  21.610  1.00  0.00     0.034 C 
BRANCH   4   5
ATOM      5  C   UNL     1      -9.481  31.629  21.279  1.00  0.00     0.032 C 
BRANCH   5   6
ATOM      6  C   UNL     1      -8.926  32.885  21.907  1.00  0.00    -0.028 C 
ATOM      7  C   UNL     1      -7.483  34.897  21.990  1.00  0.00     0.039 C 
ATOM      8  C   UNL     1      -7.993  33.655  21.306  1.00  0.00    -0.080 C 
ATOM      9  C   UNL     1      -7.436  33.308  19.948  1.00  0.00     0.039 C 
ENDBRANCH   5   6
ENDBRANCH   4   5
ENDBRANCH   1   4
BRANCH   2  10
ATOM     10  C   UNL     1      -8.991  30.491  25.494  1.00  0.00     0.035 C 
BRANCH  10  11
ATOM     11  C   UNL     1      -9.640  31.701  26.173  1.00  0.00     0.079 C 
BRANCH  11  12
ATOM     12  C   UNL     1      -8.628  32.796  26.389  1.00  0.00     0.130 C 
ATOM     13  O   UNL     1      -7.886  32.745  27.358  1.00  0.00    -0.300 OA
ATOM     14  C   UNL     1      -8.518  33.957  25.446  1.00  0.00     0.087 C 
ENDBRANCH  11  12
ENDBRANCH  10  11
ENDBRANCH   2  10
TORSDOF 6
ENDMDL
MODEL 8
REMARK VINA RESULT:    -5.472      2.173      4.075
REMARK INTER + INTRA:          -8.294
REMARK INTER:                  -7.519
REMARK INTRA:                  -0.775
REMARK UNBOUND:                -0.902
REMARK SMILES CC(=O)CCC=C(C)CCC=C(C)C
REMARK SMILES IDX 7 1 6 2 8 3 9 4 10 5 11 6 13 7 12 8 14 9 5 10 4 11 2 12 3 13
REMARK SMILES IDX 1 14
REMARK H PARENT
REMARK Flexibility Score: inf
ROOT
ATOM      1  C   UNL     1      -8.155  29.672  23.066  1.00  0.00    -0.077 C 
ATOM      2  C   UNL     1      -8.288  30.936  22.601  1.00  0.00    -0.028 C 
ATOM      3  C   UNL     1      -8.647  28.479  22.281  1.00  0.00     0.039 C 
ENDROOT
BRANCH   1   4
ATOM      4  C   UNL     1      -7.508  29.451  24.416  1.00  0.00     0.034 C 
BRANCH   4   5
ATOM      5  C   UNL     1      -8.550  29.504  25.539  1.00  0.00     0.032 C 
BRANCH   5   6
ATOM      6  C   UNL     1      -8.099  30.404  26.665  1.00  0.00    -0.028 C 
ATOM      7  C   UNL     1      -7.991  32.537  27.918  1.00  0.00     0.039 C 
ATOM      8  C   UNL     1      -8.479  31.696  26.767  1.00  0.00    -0.080 C 
ATOM      9  C   UNL     1      -9.392  32.336  25.751  1.00  0.00     0.039 C 
ENDBRANCH   5   6
ENDBRANCH   4   5
ENDBRANCH   1   4
BRANCH   2  10
ATOM     10  C   UNL     1      -8.878  31.296  21.260  1.00  0.00     0.035 C 
BRANCH  10  11
ATOM     11  C   UNL     1      -9.234  32.784  21.204  1.00  0.00     0.079 C 
BRANCH  11  12
ATOM     12  C   UNL     1      -8.009  33.613  20.920  1.00  0.00     0.130 C 
ATOM     13  O   UNL     1      -7.273  33.302  19.996  1.00  0.00    -0.300 OA
ATOM     14  C   UNL     1      -7.663  34.810  21.755  1.00  0.00     0.087 C 
ENDBRANCH  11  12
ENDBRANCH  10  11
ENDBRANCH   2  10
TORSDOF 6
ENDMDL
MODEL 9
REMARK VINA RESULT:    -5.332      1.983      4.620
REMARK INTER + INTRA:          -8.105
REMARK INTER:                  -7.354
REMARK INTRA:                  -0.750
REMARK UNBOUND:                -0.902
REMARK SMILES CC(=O)CCC=C(C)CCC=C(C)C
REMARK SMILES IDX 7 1 6 2 8 3 9 4 10 5 11 6 13 7 12 8 14 9 5 10 4 11 2 12 3 13
REMARK SMILES IDX 1 14
REMARK H PARENT
REMARK Flexibility Score: inf
ROOT
ATOM      1  C   UNL     1      -8.486  29.503  22.828  1.00  0.00    -0.077 C 
ATOM      2  C   UNL     1      -8.485  30.030  24.075  1.00  0.00    -0.028 C 
ATOM      3  C   UNL     1      -8.585  28.014  22.591  1.00  0.00     0.039 C 
ENDROOT
BRANCH   1   4
ATOM      4  C   UNL     1      -8.371  30.432  21.639  1.00  0.00     0.034 C 
BRANCH   4   5
ATOM      5  C   UNL     1      -9.345  31.609  21.767  1.00  0.00     0.032 C 
BRANCH   5   6
ATOM      6  C   UNL     1      -8.701  32.904  21.333  1.00  0.00    -0.028 C 
ATOM      7  C   UNL     1      -7.567  35.075  21.705  1.00  0.00     0.039 C 
ATOM      8  C   UNL     1      -8.197  33.801  22.208  1.00  0.00    -0.080 C 
ATOM      9  C   UNL     1      -8.242  33.567  23.698  1.00  0.00     0.039 C 
ENDBRANCH   5   6
ENDBRANCH   4   5
ENDBRANCH   1   4
BRANCH   2  10
ATOM     10  C   UNL     1      -8.630  29.225  25.342  1.00  0.00     0.035 C 
BRANCH  10  11
ATOM     11  C   UNL     1      -7.729  29.783  26.447  1.00  0.00     0.079 C 
BRANCH  11  12
ATOM     12  C   UNL     1      -8.553  30.409  27.541  1.00  0.00     0.130 C 
ATOM     13  O   UNL     1      -9.272  29.702  28.231  1.00  0.00    -0.300 OA
ATOM     14  C   UNL     1      -8.521  31.887  27.796  1.00  0.00     0.087 C 
ENDBRANCH  11  12
ENDBRANCH  10  11
ENDBRANCH   2  10
TORSDOF 6
ENDMDL
