MODEL 1
REMARK VINA RESULT:    -6.346      0.000      0.000
REMARK INTER + INTRA:          -7.639
REMARK INTER:                  -7.645
REMARK INTRA:                   0.006
REMARK UNBOUND:                 0.006
REMARK SMILES Oc1cc(O)c2c(c1)O[C@H](c1ccc(O)c(O)c1)[C@@H](O)C2
REMARK SMILES IDX 21 1 19 2 10 3 9 4 7 5 8 6 2 7 3 8 4 9 6 10 20 11 11 13
REMARK SMILES IDX 18 14 12 15 16 16 13 17 14 18 17 19 15 21 5 23 1 25
REMARK H PARENT 20 12 17 20 15 22 5 24 1 26
REMARK Flexibility Score: inf
ROOT
ATOM      1  C   UNL     1      10.146  15.607 166.177  1.00  0.00     0.079 C 
ATOM      2  C   UNL     1      10.503  15.789 164.689  1.00  0.00     0.164 C 
ATOM      3  C   UNL     1      10.490  17.283 164.327  1.00  0.00     0.232 C 
ATOM      4  O   UNL     1       9.215  17.846 164.639  1.00  0.00    -0.482 OA
ATOM      5  C   UNL     1       8.500  17.484 165.785  1.00  0.00     0.131 A 
ATOM      6  C   UNL     1       7.355  18.209 166.126  1.00  0.00     0.093 A 
ATOM      7  C   UNL     1       6.628  17.881 167.272  1.00  0.00     0.122 A 
ATOM      8  C   UNL     1       7.056  16.829 168.089  1.00  0.00     0.092 A 
ATOM      9  C   UNL     1       8.202  16.094 167.764  1.00  0.00     0.126 A 
ATOM     10  C   UNL     1       8.916  16.393 166.579  1.00  0.00     0.039 A 
ENDROOT
BRANCH   2  11
ATOM     11  O   UNL     1      11.775  15.251 164.437  1.00  0.00    -0.389 OA
ATOM     12  H   UNL     1      12.368  16.014 164.209  1.00  0.00     0.211 HD
ENDBRANCH   2  11
BRANCH   3  13
ATOM     13  C   UNL     1      10.791  17.492 162.861  1.00  0.00    -0.001 A 
ATOM     14  C   UNL     1      10.666  16.427 161.954  1.00  0.00     0.057 A 
ATOM     15  C   UNL     1      11.154  18.762 162.381  1.00  0.00     0.012 A 
ATOM     16  C   UNL     1      10.918  16.623 160.588  1.00  0.00     0.157 A 
ATOM     17  C   UNL     1      11.407  18.958 161.022  1.00  0.00     0.050 A 
ATOM     18  C   UNL     1      11.291  17.890 160.121  1.00  0.00     0.157 A 
BRANCH  16  19
ATOM     19  O   UNL     1      10.799  15.564 159.690  1.00  0.00    -0.504 OA
ATOM     20  H   UNL     1      11.401  14.751 159.745  1.00  0.00     0.293 HD
ENDBRANCH  16  19
BRANCH  18  21
ATOM     21  O   UNL     1      11.543  18.081 158.764  1.00  0.00    -0.504 OA
ATOM     22  H   UNL     1      11.719  17.300 158.142  1.00  0.00     0.293 HD
ENDBRANCH  18  21
ENDBRANCH   3  13
BRANCH   9  23
ATOM     23  O   UNL     1       8.605  15.085 168.641  1.00  0.00    -0.507 OA
ATOM     24  H   UNL     1       9.440  14.530 168.504  1.00  0.00     0.293 HD
ENDBRANCH   9  23
BRANCH   7  25
ATOM     25  O   UNL     1       5.488  18.614 167.595  1.00  0.00    -0.508 OA
ATOM     26  H   UNL     1       5.504  19.328 168.313  1.00  0.00     0.293 HD
ENDBRANCH   7  25
TORSDOF 6
ENDMDL
MODEL 2
REMARK VINA RESULT:    -6.194      1.579      1.896
REMARK INTER + INTRA:          -7.456
REMARK INTER:                  -7.314
REMARK INTRA:                  -0.142
REMARK UNBOUND:                 0.006
REMARK SMILES Oc1cc(O)c2c(c1)O[C@H](c1ccc(O)c(O)c1)[C@@H](O)C2
REMARK SMILES IDX 21 1 19 2 10 3 9 4 7 5 8 6 2 7 3 8 4 9 6 10 20 11 11 13
REMARK SMILES IDX 18 14 12 15 16 16 13 17 14 18 17 19 15 21 5 23 1 25
REMARK H PARENT 20 12 17 20 15 22 5 24 1 26
REMARK Flexibility Score: inf
ROOT
ATOM      1  C   UNL     1       9.984  15.376 166.943  1.00  0.00     0.079 C 
ATOM      2  C   UNL     1      10.664  14.995 165.614  1.00  0.00     0.164 C 
ATOM      3  C   UNL     1      10.989  16.265 164.810  1.00  0.00     0.232 C 
ATOM      4  O   UNL     1       9.797  17.022 164.599  1.00  0.00    -0.482 OA
ATOM      5  C   UNL     1       8.811  17.151 165.581  1.00  0.00     0.131 A 
ATOM      6  C   UNL     1       7.765  18.057 165.377  1.00  0.00     0.093 A 
ATOM      7  C   UNL     1       6.774  18.219 166.346  1.00  0.00     0.122 A 
ATOM      8  C   UNL     1       6.833  17.478 167.532  1.00  0.00     0.092 A 
ATOM      9  C   UNL     1       7.873  16.568 167.753  1.00  0.00     0.126 A 
ATOM     10  C   UNL     1       8.856  16.368 166.754  1.00  0.00     0.039 A 
ENDROOT
BRANCH   2  11
ATOM     11  O   UNL     1      11.846  14.282 165.873  1.00  0.00    -0.389 OA
ATOM     12  H   UNL     1      12.357  14.259 165.022  1.00  0.00     0.211 HD
ENDBRANCH   2  11
BRANCH   3  13
ATOM     13  C   UNL     1      11.616  15.923 163.479  1.00  0.00    -0.001 A 
ATOM     14  C   UNL     1      10.827  15.872 162.317  1.00  0.00     0.057 A 
ATOM     15  C   UNL     1      12.999  15.700 163.378  1.00  0.00     0.012 A 
ATOM     16  C   UNL     1      11.409  15.582 161.075  1.00  0.00     0.157 A 
ATOM     17  C   UNL     1      13.580  15.409 162.141  1.00  0.00     0.050 A 
ATOM     18  C   UNL     1      12.788  15.348 160.987  1.00  0.00     0.157 A 
BRANCH  16  19
ATOM     19  O   UNL     1      10.626  15.525 159.924  1.00  0.00    -0.504 OA
ATOM     20  H   UNL     1      10.980  15.132 159.060  1.00  0.00     0.293 HD
ENDBRANCH  16  19
BRANCH  18  21
ATOM     21  O   UNL     1      13.363  15.059 159.751  1.00  0.00    -0.504 OA
ATOM     22  H   UNL     1      14.314  14.716 159.676  1.00  0.00     0.293 HD
ENDBRANCH  18  21
ENDBRANCH   3  13
BRANCH   9  23
ATOM     23  O   UNL     1       7.904  15.892 168.975  1.00  0.00    -0.507 OA
ATOM     24  H   UNL     1       8.335  14.984 169.097  1.00  0.00     0.293 HD
ENDBRANCH   9  23
BRANCH   7  25
ATOM     25  O   UNL     1       5.739  19.125 166.124  1.00  0.00    -0.508 OA
ATOM     26  H   UNL     1       5.921  20.113 165.989  1.00  0.00     0.293 HD
ENDBRANCH   7  25
TORSDOF 6
ENDMDL
MODEL 3
REMARK VINA RESULT:    -6.163      1.684      6.715
REMARK INTER + INTRA:          -7.419
REMARK INTER:                  -7.307
REMARK INTRA:                  -0.111
REMARK UNBOUND:                 0.006
REMARK SMILES Oc1cc(O)c2c(c1)O[C@H](c1ccc(O)c(O)c1)[C@@H](O)C2
REMARK SMILES IDX 21 1 19 2 10 3 9 4 7 5 8 6 2 7 3 8 4 9 6 10 20 11 11 13
REMARK SMILES IDX 18 14 12 15 16 16 13 17 14 18 17 19 15 21 5 23 1 25
REMARK H PARENT 20 12 17 20 15 22 5 24 1 26
REMARK Flexibility Score: inf
ROOT
ATOM      1  C   UNL     1      12.231  15.058 164.839  1.00  0.00     0.079 C 
ATOM      2  C   UNL     1      11.264  15.898 165.695  1.00  0.00     0.164 C 
ATOM      3  C   UNL     1       9.860  15.878 165.069  1.00  0.00     0.232 C 
ATOM      4  O   UNL     1       9.923  16.349 163.723  1.00  0.00    -0.482 OA
ATOM      5  C   UNL     1      10.982  16.027 162.868  1.00  0.00     0.131 A 
ATOM      6  C   UNL     1      10.887  16.362 161.514  1.00  0.00     0.093 A 
ATOM      7  C   UNL     1      11.922  16.041 160.634  1.00  0.00     0.122 A 
ATOM      8  C   UNL     1      13.055  15.370 161.108  1.00  0.00     0.092 A 
ATOM      9  C   UNL     1      13.166  15.025 162.460  1.00  0.00     0.126 A 
ATOM     10  C   UNL     1      12.140  15.389 163.365  1.00  0.00     0.039 A 
ENDROOT
BRANCH   2  11
ATOM     11  O   UNL     1      11.210  15.378 166.998  1.00  0.00    -0.389 OA
ATOM     12  H   UNL     1      10.267  15.111 167.160  1.00  0.00     0.211 HD
ENDBRANCH   2  11
BRANCH   3  13
ATOM     13  C   UNL     1       8.897  16.731 165.860  1.00  0.00    -0.001 A 
ATOM     14  C   UNL     1       8.263  16.211 167.001  1.00  0.00     0.057 A 
ATOM     15  C   UNL     1       8.661  18.067 165.494  1.00  0.00     0.012 A 
ATOM     16  C   UNL     1       7.389  17.009 167.754  1.00  0.00     0.157 A 
ATOM     17  C   UNL     1       7.789  18.862 166.243  1.00  0.00     0.050 A 
ATOM     18  C   UNL     1       7.150  18.336 167.374  1.00  0.00     0.157 A 
BRANCH  16  19
ATOM     19  O   UNL     1       6.756  16.490 168.882  1.00  0.00    -0.504 OA
ATOM     20  H   UNL     1       7.241  16.393 169.766  1.00  0.00     0.293 HD
ENDBRANCH  16  19
BRANCH  18  21
ATOM     21  O   UNL     1       6.281  19.125 168.124  1.00  0.00    -0.504 OA
ATOM     22  H   UNL     1       6.587  19.597 168.967  1.00  0.00     0.293 HD
ENDBRANCH  18  21
ENDBRANCH   3  13
BRANCH   9  23
ATOM     23  O   UNL     1      14.299  14.316 162.865  1.00  0.00    -0.507 OA
ATOM     24  H   UNL     1      14.439  13.985 163.812  1.00  0.00     0.293 HD
ENDBRANCH   9  23
BRANCH   7  25
ATOM     25  O   UNL     1      11.810  16.384 159.289  1.00  0.00    -0.508 OA
ATOM     26  H   UNL     1      11.192  17.127 158.982  1.00  0.00     0.293 HD
ENDBRANCH   7  25
TORSDOF 6
ENDMDL
MODEL 4
REMARK VINA RESULT:    -6.117      2.969      6.794
REMARK INTER + INTRA:          -7.363
REMARK INTER:                  -7.012
REMARK INTRA:                  -0.351
REMARK UNBOUND:                 0.006
REMARK SMILES Oc1cc(O)c2c(c1)O[C@H](c1ccc(O)c(O)c1)[C@@H](O)C2
REMARK SMILES IDX 21 1 19 2 10 3 9 4 7 5 8 6 2 7 3 8 4 9 6 10 20 11 11 13
REMARK SMILES IDX 18 14 12 15 16 16 13 17 14 18 17 19 15 21 5 23 1 25
REMARK H PARENT 20 12 17 20 15 22 5 24 1 26
REMARK Flexibility Score: inf
ROOT
ATOM      1  C   UNL     1      12.949  14.502 164.508  1.00  0.00     0.079 C 
ATOM      2  C   UNL     1      12.031  15.608 165.062  1.00  0.00     0.164 C 
ATOM      3  C   UNL     1      10.625  15.039 165.319  1.00  0.00     0.232 C 
ATOM      4  O   UNL     1      10.106  14.470 164.117  1.00  0.00    -0.482 OA
ATOM      5  C   UNL     1      10.907  13.750 163.225  1.00  0.00     0.131 A 
ATOM      6  C   UNL     1      10.299  13.063 162.171  1.00  0.00     0.093 A 
ATOM      7  C   UNL     1      11.071  12.324 161.272  1.00  0.00     0.122 A 
ATOM      8  C   UNL     1      12.459  12.263 161.435  1.00  0.00     0.092 A 
ATOM      9  C   UNL     1      13.084  12.943 162.486  1.00  0.00     0.126 A 
ATOM     10  C   UNL     1      12.311  13.730 163.373  1.00  0.00     0.039 A 
ENDROOT
BRANCH   2  11
ATOM     11  O   UNL     1      12.564  16.113 166.259  1.00  0.00    -0.389 OA
ATOM     12  H   UNL     1      13.052  15.364 166.692  1.00  0.00     0.211 HD
ENDBRANCH   2  11
BRANCH   3  13
ATOM     13  C   UNL     1       9.686  16.111 165.820  1.00  0.00    -0.001 A 
ATOM     14  C   UNL     1       9.008  15.944 167.040  1.00  0.00     0.057 A 
ATOM     15  C   UNL     1       9.515  17.304 165.099  1.00  0.00     0.012 A 
ATOM     16  C   UNL     1       8.156  16.948 167.523  1.00  0.00     0.157 A 
ATOM     17  C   UNL     1       8.666  18.304 165.578  1.00  0.00     0.050 A 
ATOM     18  C   UNL     1       7.983  18.130 166.789  1.00  0.00     0.157 A 
BRANCH  16  19
ATOM     19  O   UNL     1       7.479  16.780 168.729  1.00  0.00    -0.504 OA
ATOM     20  H   UNL     1       7.412  17.528 169.409  1.00  0.00     0.293 HD
ENDBRANCH  16  19
BRANCH  18  21
ATOM     21  O   UNL     1       7.135  19.125 167.271  1.00  0.00    -0.504 OA
ATOM     22  H   UNL     1       6.646  19.754 166.645  1.00  0.00     0.293 HD
ENDBRANCH  18  21
ENDBRANCH   3  13
BRANCH   9  23
ATOM     23  O   UNL     1      14.467  12.807 162.625  1.00  0.00    -0.507 OA
ATOM     24  H   UNL     1      14.945  12.865 163.516  1.00  0.00     0.293 HD
ENDBRANCH   9  23
BRANCH   7  25
ATOM     25  O   UNL     1      10.447  11.647 160.227  1.00  0.00    -0.508 OA
ATOM     26  H   UNL     1       9.453  11.746 160.050  1.00  0.00     0.293 HD
ENDBRANCH   7  25
TORSDOF 6
ENDMDL
MODEL 5
REMARK VINA RESULT:    -5.753      1.889      6.968
REMARK INTER + INTRA:          -6.924
REMARK INTER:                  -7.307
REMARK INTRA:                   0.383
REMARK UNBOUND:                 0.006
REMARK SMILES Oc1cc(O)c2c(c1)O[C@H](c1ccc(O)c(O)c1)[C@@H](O)C2
REMARK SMILES IDX 21 1 19 2 10 3 9 4 7 5 8 6 2 7 3 8 4 9 6 10 20 11 11 13
REMARK SMILES IDX 18 14 12 15 16 16 13 17 14 18 17 19 15 21 5 23 1 25
REMARK H PARENT 20 12 17 20 15 22 5 24 1 26
REMARK Flexibility Score: inf
ROOT
ATOM      1  C   UNL     1      11.356  17.282 162.254  1.00  0.00     0.079 C 
ATOM      2  C   UNL     1      10.278  17.669 163.284  1.00  0.00     0.164 C 
ATOM      3  C   UNL     1      10.416  16.791 164.540  1.00  0.00     0.232 C 
ATOM      4  O   UNL     1      10.335  15.413 164.178  1.00  0.00    -0.482 OA
ATOM      5  C   UNL     1      10.918  14.911 163.010  1.00  0.00     0.131 A 
ATOM      6  C   UNL     1      10.964  13.528 162.815  1.00  0.00     0.093 A 
ATOM      7  C   UNL     1      11.552  12.997 161.666  1.00  0.00     0.122 A 
ATOM      8  C   UNL     1      12.109  13.854 160.710  1.00  0.00     0.092 A 
ATOM      9  C   UNL     1      12.074  15.242 160.890  1.00  0.00     0.126 A 
ATOM     10  C   UNL     1      11.438  15.786 162.032  1.00  0.00     0.039 A 
ENDROOT
BRANCH   2  11
ATOM     11  O   UNL     1      10.418  19.021 163.633  1.00  0.00    -0.389 OA
ATOM     12  H   UNL     1      11.261  19.338 163.214  1.00  0.00     0.211 HD
ENDBRANCH   2  11
BRANCH   3  13
ATOM     13  C   UNL     1       9.343  17.114 165.552  1.00  0.00    -0.001 A 
ATOM     14  C   UNL     1       9.108  16.250 166.634  1.00  0.00     0.057 A 
ATOM     15  C   UNL     1       8.602  18.303 165.451  1.00  0.00     0.012 A 
ATOM     16  C   UNL     1       8.131  16.559 167.592  1.00  0.00     0.157 A 
ATOM     17  C   UNL     1       7.627  18.612 166.404  1.00  0.00     0.050 A 
ATOM     18  C   UNL     1       7.388  17.742 167.476  1.00  0.00     0.157 A 
BRANCH  16  19
ATOM     19  O   UNL     1       7.894  15.698 168.662  1.00  0.00    -0.504 OA
ATOM     20  H   UNL     1       8.023  15.996 169.622  1.00  0.00     0.293 HD
ENDBRANCH  16  19
BRANCH  18  21
ATOM     21  O   UNL     1       6.418  18.046 168.428  1.00  0.00    -0.504 OA
ATOM     22  H   UNL     1       6.648  18.129 169.412  1.00  0.00     0.293 HD
ENDBRANCH  18  21
ENDBRANCH   3  13
BRANCH   9  23
ATOM     23  O   UNL     1      12.687  16.045 159.925  1.00  0.00    -0.507 OA
ATOM     24  H   UNL     1      12.380  16.984 159.708  1.00  0.00     0.293 HD
ENDBRANCH   9  23
BRANCH   7  25
ATOM     25  O   UNL     1      11.586  11.616 161.488  1.00  0.00    -0.508 OA
ATOM     26  H   UNL     1      11.877  10.993 162.232  1.00  0.00     0.293 HD
ENDBRANCH   7  25
TORSDOF 6
ENDMDL
MODEL 6
REMARK VINA RESULT:    -5.133      2.760      6.970
REMARK INTER + INTRA:          -6.177
REMARK INTER:                  -5.976
REMARK INTRA:                  -0.202
REMARK UNBOUND:                 0.006
REMARK SMILES Oc1cc(O)c2c(c1)O[C@H](c1ccc(O)c(O)c1)[C@@H](O)C2
REMARK SMILES IDX 21 1 19 2 10 3 9 4 7 5 8 6 2 7 3 8 4 9 6 10 20 11 11 13
REMARK SMILES IDX 18 14 12 15 16 16 13 17 14 18 17 19 15 21 5 23 1 25
REMARK H PARENT 20 12 17 20 15 22 5 24 1 26
REMARK Flexibility Score: inf
ROOT
ATOM      1  C   UNL     1      12.091  16.125 161.334  1.00  0.00     0.079 C 
ATOM      2  C   UNL     1      10.889  16.514 162.216  1.00  0.00     0.164 C 
ATOM      3  C   UNL     1      11.385  17.189 163.506  1.00  0.00     0.232 C 
ATOM      4  O   UNL     1      12.287  16.321 164.192  1.00  0.00    -0.482 OA
ATOM      5  C   UNL     1      13.220  15.529 163.515  1.00  0.00     0.131 A 
ATOM      6  C   UNL     1      14.195  14.850 164.252  1.00  0.00     0.093 A 
ATOM      7  C   UNL     1      15.148  14.063 163.604  1.00  0.00     0.122 A 
ATOM      8  C   UNL     1      15.134  13.963 162.208  1.00  0.00     0.092 A 
ATOM      9  C   UNL     1      14.167  14.637 161.454  1.00  0.00     0.126 A 
ATOM     10  C   UNL     1      13.170  15.400 162.110  1.00  0.00     0.039 A 
ENDROOT
BRANCH   2  11
ATOM     11  O   UNL     1      10.049  17.392 161.514  1.00  0.00    -0.389 OA
ATOM     12  H   UNL     1      10.534  18.256 161.444  1.00  0.00     0.211 HD
ENDBRANCH   2  11
BRANCH   3  13
ATOM     13  C   UNL     1      10.231  17.542 164.416  1.00  0.00    -0.001 A 
ATOM     14  C   UNL     1       9.809  16.640 165.407  1.00  0.00     0.057 A 
ATOM     15  C   UNL     1       9.598  18.792 164.313  1.00  0.00     0.012 A 
ATOM     16  C   UNL     1       8.757  16.974 166.271  1.00  0.00     0.157 A 
ATOM     17  C   UNL     1       8.548  19.125 165.172  1.00  0.00     0.050 A 
ATOM     18  C   UNL     1       8.123  18.218 166.152  1.00  0.00     0.157 A 
BRANCH  16  19
ATOM     19  O   UNL     1       8.335  16.076 167.250  1.00  0.00    -0.504 OA
ATOM     20  H   UNL     1       8.986  15.663 167.907  1.00  0.00     0.293 HD
ENDBRANCH  16  19
BRANCH  18  21
ATOM     21  O   UNL     1       7.076  18.546 167.011  1.00  0.00    -0.504 OA
ATOM     22  H   UNL     1       6.414  19.278 166.784  1.00  0.00     0.293 HD
ENDBRANCH  18  21
ENDBRANCH   3  13
BRANCH   9  23
ATOM     23  O   UNL     1      14.231  14.537 160.063  1.00  0.00    -0.507 OA
ATOM     24  H   UNL     1      15.101  14.537 159.545  1.00  0.00     0.293 HD
ENDBRANCH   9  23
BRANCH   7  25
ATOM     25  O   UNL     1      16.110  13.392 164.355  1.00  0.00    -0.508 OA
ATOM     26  H   UNL     1      15.854  12.673 165.022  1.00  0.00     0.293 HD
ENDBRANCH   7  25
TORSDOF 6
ENDMDL
MODEL 7
REMARK VINA RESULT:    -4.883      1.868      7.340
REMARK INTER + INTRA:          -5.876
REMARK INTER:                  -6.235
REMARK INTRA:                   0.358
REMARK UNBOUND:                 0.006
REMARK SMILES Oc1cc(O)c2c(c1)O[C@H](c1ccc(O)c(O)c1)[C@@H](O)C2
REMARK SMILES IDX 21 1 19 2 10 3 9 4 7 5 8 6 2 7 3 8 4 9 6 10 20 11 11 13
REMARK SMILES IDX 18 14 12 15 16 16 13 17 14 18 17 19 15 21 5 23 1 25
REMARK H PARENT 20 12 17 20 15 22 5 24 1 26
REMARK Flexibility Score: inf
ROOT
ATOM      1  C   UNL     1      10.526  17.380 163.459  1.00  0.00     0.079 C 
ATOM      2  C   UNL     1       9.443  17.225 164.544  1.00  0.00     0.164 C 
ATOM      3  C   UNL     1      10.074  16.683 165.838  1.00  0.00     0.232 C 
ATOM      4  O   UNL     1      10.740  15.449 165.572  1.00  0.00    -0.482 OA
ATOM      5  C   UNL     1      11.463  15.229 164.395  1.00  0.00     0.131 A 
ATOM      6  C   UNL     1      12.243  14.074 164.285  1.00  0.00     0.093 A 
ATOM      7  C   UNL     1      12.988  13.835 163.129  1.00  0.00     0.122 A 
ATOM      8  C   UNL     1      12.962  14.761 162.080  1.00  0.00     0.092 A 
ATOM      9  C   UNL     1      12.188  15.923 162.175  1.00  0.00     0.126 A 
ATOM     10  C   UNL     1      11.396  16.148 163.326  1.00  0.00     0.039 A 
ENDROOT
BRANCH   2  11
ATOM     11  O   UNL     1       8.841  18.469 164.795  1.00  0.00    -0.389 OA
ATOM     12  H   UNL     1       8.838  18.963 163.934  1.00  0.00     0.211 HD
ENDBRANCH   2  11
BRANCH   3  13
ATOM     13  C   UNL     1       9.030  16.476 166.909  1.00  0.00    -0.001 A 
ATOM     14  C   UNL     1       8.061  17.464 167.154  1.00  0.00     0.057 A 
ATOM     15  C   UNL     1       8.985  15.277 167.640  1.00  0.00     0.012 A 
ATOM     16  C   UNL     1       7.073  17.264 168.129  1.00  0.00     0.157 A 
ATOM     17  C   UNL     1       8.002  15.078 168.612  1.00  0.00     0.050 A 
ATOM     18  C   UNL     1       7.044  16.070 168.861  1.00  0.00     0.157 A 
BRANCH  16  19
ATOM     19  O   UNL     1       6.116  18.247 168.375  1.00  0.00    -0.504 OA
ATOM     20  H   UNL     1       5.338  18.084 169.003  1.00  0.00     0.293 HD
ENDBRANCH  16  19
BRANCH  18  21
ATOM     21  O   UNL     1       6.062  15.875 169.830  1.00  0.00    -0.504 OA
ATOM     22  H   UNL     1       5.289  15.237 169.681  1.00  0.00     0.293 HD
ENDBRANCH  18  21
ENDBRANCH   3  13
BRANCH   9  23
ATOM     23  O   UNL     1      12.239  16.833 161.116  1.00  0.00    -0.507 OA
ATOM     24  H   UNL     1      11.857  16.640 160.199  1.00  0.00     0.293 HD
ENDBRANCH   9  23
BRANCH   7  25
ATOM     25  O   UNL     1      13.758  12.677 163.036  1.00  0.00    -0.508 OA
ATOM     26  H   UNL     1      14.758  12.718 162.881  1.00  0.00     0.293 HD
ENDBRANCH   7  25
TORSDOF 6
ENDMDL
