MODEL 1
REMARK VINA RESULT:    -4.576      0.000      0.000
REMARK INTER + INTRA:          -5.170
REMARK INTER:                  -4.978
REMARK INTRA:                  -0.193
REMARK UNBOUND:                -0.193
REMARK SMILES C=C1CCC[C@]2(C)CC[C@H](C(C)(C)O)C[C@H]12
REMARK SMILES IDX 11 1 12 2 13 3 10 4 7 5 6 6 5 7 16 8 8 9 4 10 2 11 15 12
REMARK SMILES IDX 9 13 3 14 1 15 14 16
REMARK H PARENT 14 17
REMARK Flexibility Score: inf
ROOT
ATOM      1  C   UNL     1       1.060 -12.924  13.959  1.00  0.00     0.062 C 
ATOM      2  C   UNL     1      -0.032 -11.875  13.624  1.00  0.00     0.042 C 
ATOM      3  C   UNL     1       2.023 -12.298  14.988  1.00  0.00     0.042 C 
ENDROOT
BRANCH   1   4
ATOM      4  C   UNL     1       1.858 -13.409  12.690  1.00  0.00     0.021 C 
ATOM      5  C   UNL     1       3.760 -15.263   9.240  1.00  0.00     0.012 C 
ATOM      6  C   UNL     1       2.711 -15.186  10.381  1.00  0.00    -0.026 C 
ATOM      7  C   UNL     1       1.836 -16.478  10.370  1.00  0.00     0.008 C 
ATOM      8  C   UNL     1       1.822 -13.916  10.181  1.00  0.00     0.021 C 
ATOM      9  C   UNL     1       3.502 -15.084  11.716  1.00  0.00     0.008 C 
ATOM     10  C   UNL     1       0.968 -16.606   9.106  1.00  0.00     0.005 C 
ATOM     11  C   UNL     1       0.897 -14.097   8.988  1.00  0.00    -0.074 C 
ATOM     12  C   UNL     1       0.980 -13.570  11.428  1.00  0.00     0.015 C 
ATOM     13  C   UNL     1       2.637 -14.721  12.931  1.00  0.00     0.007 C 
ATOM     14  C   UNL     1       0.089 -15.371   8.879  1.00  0.00     0.031 C 
ATOM     15  C   UNL     1       0.694 -13.091   8.123  1.00  0.00     0.008 C 
ENDBRANCH   1   4
BRANCH   1  16
ATOM     16  O   UNL     1       0.476 -14.040  14.596  1.00  0.00    -0.390 OA
ATOM     17  H   UNL     1      -0.452 -14.154  14.263  1.00  0.00     0.211 HD
ENDBRANCH   1  16
TORSDOF 2
ENDMDL
MODEL 2
REMARK VINA RESULT:    -4.326      2.371      3.897
REMARK INTER + INTRA:          -4.898
REMARK INTER:                  -4.689
REMARK INTRA:                  -0.209
REMARK UNBOUND:                -0.193
REMARK SMILES C=C1CCC[C@]2(C)CC[C@H](C(C)(C)O)C[C@H]12
REMARK SMILES IDX 11 1 12 2 13 3 10 4 7 5 6 6 5 7 16 8 8 9 4 10 2 11 15 12
REMARK SMILES IDX 9 13 3 14 1 15 14 16
REMARK H PARENT 14 17
REMARK Flexibility Score: inf
ROOT
ATOM      1  C   UNL     1       1.723 -17.670  14.822  1.00  0.00     0.062 C 
ATOM      2  C   UNL     1       2.509 -18.848  14.190  1.00  0.00     0.042 C 
ATOM      3  C   UNL     1       0.429 -18.236  15.440  1.00  0.00     0.042 C 
ENDROOT
BRANCH   1   4
ATOM      4  C   UNL     1       1.380 -16.533  13.785  1.00  0.00     0.021 C 
ATOM      5  C   UNL     1       1.025 -13.291  10.901  1.00  0.00     0.012 C 
ATOM      6  C   UNL     1       1.814 -14.323  11.750  1.00  0.00    -0.026 C 
ATOM      7  C   UNL     1       3.344 -14.122  11.521  1.00  0.00     0.008 C 
ATOM      8  C   UNL     1       1.379 -15.768  11.342  1.00  0.00     0.021 C 
ATOM      9  C   UNL     1       1.454 -14.053  13.240  1.00  0.00     0.008 C 
ATOM     10  C   UNL     1       3.783 -14.444  10.082  1.00  0.00     0.005 C 
ATOM     11  C   UNL     1       1.908 -16.110   9.958  1.00  0.00    -0.074 C 
ATOM     12  C   UNL     1       1.852 -16.842  12.346  1.00  0.00     0.015 C 
ATOM     13  C   UNL     1       1.923 -15.149  14.206  1.00  0.00     0.007 C 
ATOM     14  C   UNL     1       3.366 -15.854   9.650  1.00  0.00     0.031 C 
ATOM     15  C   UNL     1       1.132 -16.756   9.074  1.00  0.00     0.008 C 
ENDBRANCH   1   4
BRANCH   1  16
ATOM     16  O   UNL     1       2.460 -17.118  15.891  1.00  0.00    -0.390 OA
ATOM     17  H   UNL     1       2.741 -17.848  16.502  1.00  0.00     0.211 HD
ENDBRANCH   1  16
TORSDOF 2
ENDMDL
MODEL 3
REMARK VINA RESULT:    -4.323      3.318      5.752
REMARK INTER + INTRA:          -4.895
REMARK INTER:                  -4.682
REMARK INTRA:                  -0.214
REMARK UNBOUND:                -0.193
REMARK SMILES C=C1CCC[C@]2(C)CC[C@H](C(C)(C)O)C[C@H]12
REMARK SMILES IDX 11 1 12 2 13 3 10 4 7 5 6 6 5 7 16 8 8 9 4 10 2 11 15 12
REMARK SMILES IDX 9 13 3 14 1 15 14 16
REMARK H PARENT 14 17
REMARK Flexibility Score: inf
ROOT
ATOM      1  C   UNL     1       2.130 -15.860  10.488  1.00  0.00     0.062 C 
ATOM      2  C   UNL     1       3.356 -15.495   9.610  1.00  0.00     0.042 C 
ATOM      3  C   UNL     1       1.026 -14.816  10.226  1.00  0.00     0.042 C 
ENDROOT
BRANCH   1   4
ATOM      4  C   UNL     1       2.471 -15.920  12.026  1.00  0.00     0.021 C 
ATOM      5  C   UNL     1       2.828 -15.985  16.364  1.00  0.00     0.012 C 
ATOM      6  C   UNL     1       2.036 -15.959  15.030  1.00  0.00    -0.026 C 
ATOM      7  C   UNL     1       0.509 -15.872  15.334  1.00  0.00     0.008 C 
ATOM      8  C   UNL     1       2.363 -17.250  14.211  1.00  0.00     0.021 C 
ATOM      9  C   UNL     1       2.502 -14.695  14.252  1.00  0.00     0.008 C 
ATOM     10  C   UNL     1      -0.036 -17.126  16.040  1.00  0.00     0.005 C 
ATOM     11  C   UNL     1       1.732 -18.468  14.865  1.00  0.00    -0.074 C 
ATOM     12  C   UNL     1       1.895 -17.163  12.742  1.00  0.00     0.015 C 
ATOM     13  C   UNL     1       2.033 -14.651  12.791  1.00  0.00     0.007 C 
ATOM     14  C   UNL     1       0.275 -18.410  15.263  1.00  0.00     0.031 C 
ATOM     15  C   UNL     1       2.414 -19.620  14.960  1.00  0.00     0.008 C 
ENDBRANCH   1   4
BRANCH   1  16
ATOM     16  O   UNL     1       1.600 -17.102  10.081  1.00  0.00    -0.390 OA
ATOM     17  H   UNL     1       0.638 -17.140  10.326  1.00  0.00     0.211 HD
ENDBRANCH   1  16
TORSDOF 2
ENDMDL
MODEL 4
REMARK VINA RESULT:    -4.200      5.275      7.299
REMARK INTER + INTRA:          -4.761
REMARK INTER:                  -4.522
REMARK INTRA:                  -0.240
REMARK UNBOUND:                -0.193
REMARK SMILES C=C1CCC[C@]2(C)CC[C@H](C(C)(C)O)C[C@H]12
REMARK SMILES IDX 11 1 12 2 13 3 10 4 7 5 6 6 5 7 16 8 8 9 4 10 2 11 15 12
REMARK SMILES IDX 9 13 3 14 1 15 14 16
REMARK H PARENT 14 17
REMARK Flexibility Score: inf
ROOT
ATOM      1  C   UNL     1       3.758 -21.165  14.651  1.00  0.00     0.062 C 
ATOM      2  C   UNL     1       4.139 -21.835  15.997  1.00  0.00     0.042 C 
ATOM      3  C   UNL     1       4.994 -20.407  14.128  1.00  0.00     0.042 C 
ENDROOT
BRANCH   1   4
ATOM      4  C   UNL     1       2.529 -20.186  14.778  1.00  0.00     0.021 C 
ATOM      5  C   UNL     1      -0.549 -17.207  15.556  1.00  0.00     0.012 C 
ATOM      6  C   UNL     1       0.870 -17.819  15.704  1.00  0.00    -0.026 C 
ATOM      7  C   UNL     1       1.705 -16.959  16.702  1.00  0.00     0.008 C 
ATOM      8  C   UNL     1       1.561 -17.865  14.302  1.00  0.00     0.021 C 
ATOM      9  C   UNL     1       0.685 -19.260  16.260  1.00  0.00     0.008 C 
ATOM     10  C   UNL     1       1.989 -15.539  16.181  1.00  0.00     0.005 C 
ATOM     11  C   UNL     1       1.928 -16.462  13.846  1.00  0.00    -0.074 C 
ATOM     12  C   UNL     1       2.825 -18.751  14.285  1.00  0.00     0.015 C 
ATOM     13  C   UNL     1       1.957 -20.118  16.211  1.00  0.00     0.007 C 
ATOM     14  C   UNL     1       2.662 -15.552  14.804  1.00  0.00     0.031 C 
ATOM     15  C   UNL     1       1.731 -16.087  12.572  1.00  0.00     0.008 C 
ENDBRANCH   1   4
BRANCH   1  16
ATOM     16  O   UNL     1       3.467 -22.154  13.687  1.00  0.00    -0.390 OA
ATOM     17  H   UNL     1       2.751 -21.820  13.086  1.00  0.00     0.211 HD
ENDBRANCH   1  16
TORSDOF 2
ENDMDL
MODEL 5
REMARK VINA RESULT:    -4.186     13.631     15.818
REMARK INTER + INTRA:          -4.745
REMARK INTER:                  -4.550
REMARK INTRA:                  -0.195
REMARK UNBOUND:                -0.193
REMARK SMILES C=C1CCC[C@]2(C)CC[C@H](C(C)(C)O)C[C@H]12
REMARK SMILES IDX 11 1 12 2 13 3 10 4 7 5 6 6 5 7 16 8 8 9 4 10 2 11 15 12
REMARK SMILES IDX 9 13 3 14 1 15 14 16
REMARK H PARENT 14 17
REMARK Flexibility Score: inf
ROOT
ATOM      1  C   UNL     1      -4.414 -29.196  10.688  1.00  0.00     0.062 C 
ATOM      2  C   UNL     1      -4.732 -28.375  11.965  1.00  0.00     0.042 C 
ATOM      3  C   UNL     1      -5.443 -30.339  10.588  1.00  0.00     0.042 C 
ENDROOT
BRANCH   1   4
ATOM      4  C   UNL     1      -2.949 -29.776  10.679  1.00  0.00     0.021 C 
ATOM      5  C   UNL     1       1.231 -30.928  10.284  1.00  0.00     0.012 C 
ATOM      6  C   UNL     1       0.022 -29.976  10.087  1.00  0.00    -0.026 C 
ATOM      7  C   UNL     1       0.471 -28.728   9.265  1.00  0.00     0.008 C 
ATOM      8  C   UNL     1      -0.530 -29.546  11.485  1.00  0.00     0.021 C 
ATOM      9  C   UNL     1      -1.060 -30.774   9.304  1.00  0.00     0.008 C 
ATOM     10  C   UNL     1       1.489 -27.850  10.014  1.00  0.00     0.005 C 
ATOM     11  C   UNL     1       0.440 -28.597  12.170  1.00  0.00    -0.074 C 
ATOM     12  C   UNL     1      -1.920 -28.877  11.402  1.00  0.00     0.015 C 
ATOM     13  C   UNL     1      -2.433 -30.089   9.257  1.00  0.00     0.007 C 
ATOM     14  C   UNL     1       0.978 -27.418  11.392  1.00  0.00     0.031 C 
ATOM     15  C   UNL     1       0.704 -28.722  13.480  1.00  0.00     0.008 C 
ENDBRANCH   1   4
BRANCH   1  16
ATOM     16  O   UNL     1      -4.604 -28.395   9.542  1.00  0.00    -0.390 OA
ATOM     17  H   UNL     1      -4.989 -27.522   9.816  1.00  0.00     0.211 HD
ENDBRANCH   1  16
TORSDOF 2
ENDMDL
MODEL 6
REMARK VINA RESULT:    -4.183      2.175      4.664
REMARK INTER + INTRA:          -4.743
REMARK INTER:                  -4.518
REMARK INTRA:                  -0.225
REMARK UNBOUND:                -0.193
REMARK SMILES C=C1CCC[C@]2(C)CC[C@H](C(C)(C)O)C[C@H]12
REMARK SMILES IDX 11 1 12 2 13 3 10 4 7 5 6 6 5 7 16 8 8 9 4 10 2 11 15 12
REMARK SMILES IDX 9 13 3 14 1 15 14 16
REMARK H PARENT 14 17
REMARK Flexibility Score: inf
ROOT
ATOM      1  C   UNL     1       0.993 -13.148   8.757  1.00  0.00     0.062 C 
ATOM      2  C   UNL     1       2.384 -12.708   8.230  1.00  0.00     0.042 C 
ATOM      3  C   UNL     1       0.263 -11.895   9.281  1.00  0.00     0.042 C 
ENDROOT
BRANCH   1   4
ATOM      4  C   UNL     1       1.082 -14.242   9.888  1.00  0.00     0.021 C 
ATOM      5  C   UNL     1       1.917 -17.162  13.007  1.00  0.00     0.012 C 
ATOM      6  C   UNL     1       2.290 -16.003  12.046  1.00  0.00    -0.026 C 
ATOM      7  C   UNL     1       3.805 -15.665  12.203  1.00  0.00     0.008 C 
ATOM      8  C   UNL     1       1.408 -14.755  12.375  1.00  0.00     0.021 C 
ATOM      9  C   UNL     1       1.998 -16.502  10.601  1.00  0.00     0.008 C 
ATOM     10  C   UNL     1       4.153 -15.095  13.589  1.00  0.00     0.005 C 
ATOM     11  C   UNL     1       1.831 -14.141  13.700  1.00  0.00    -0.074 C 
ATOM     12  C   UNL     1       1.464 -13.673  11.274  1.00  0.00     0.015 C 
ATOM     13  C   UNL     1       2.044 -15.398   9.536  1.00  0.00     0.007 C 
ATOM     14  C   UNL     1       3.299 -13.872  13.943  1.00  0.00     0.031 C 
ATOM     15  C   UNL     1       0.910 -13.716  14.578  1.00  0.00     0.008 C 
ENDBRANCH   1   4
BRANCH   1  16
ATOM     16  O   UNL     1       0.210 -13.642   7.693  1.00  0.00    -0.390 OA
ATOM     17  H   UNL     1       0.335 -13.058   6.899  1.00  0.00     0.211 HD
ENDBRANCH   1  16
TORSDOF 2
ENDMDL
MODEL 7
REMARK VINA RESULT:    -4.061      2.978      3.987
REMARK INTER + INTRA:          -4.610
REMARK INTER:                  -4.421
REMARK INTRA:                  -0.189
REMARK UNBOUND:                -0.193
REMARK SMILES C=C1CCC[C@]2(C)CC[C@H](C(C)(C)O)C[C@H]12
REMARK SMILES IDX 11 1 12 2 13 3 10 4 7 5 6 6 5 7 16 8 8 9 4 10 2 11 15 12
REMARK SMILES IDX 9 13 3 14 1 15 14 16
REMARK H PARENT 14 17
REMARK Flexibility Score: inf
ROOT
ATOM      1  C   UNL     1      -0.045 -17.232  16.007  1.00  0.00     0.062 C 
ATOM      2  C   UNL     1      -0.491 -16.063  16.924  1.00  0.00     0.042 C 
ATOM      3  C   UNL     1       0.295 -18.439  16.903  1.00  0.00     0.042 C 
ENDROOT
BRANCH   1   4
ATOM      4  C   UNL     1       1.187 -16.863  15.096  1.00  0.00     0.021 C 
ATOM      5  C   UNL     1       4.233 -15.967  12.117  1.00  0.00     0.012 C 
ATOM      6  C   UNL     1       2.789 -16.295  12.581  1.00  0.00    -0.026 C 
ATOM      7  C   UNL     1       1.861 -16.429  11.334  1.00  0.00     0.008 C 
ATOM      8  C   UNL     1       2.280 -15.160  13.528  1.00  0.00     0.021 C 
ATOM      9  C   UNL     1       2.856 -17.646  13.348  1.00  0.00     0.008 C 
ATOM     10  C   UNL     1       1.689 -15.107  10.567  1.00  0.00     0.005 C 
ATOM     11  C   UNL     1       2.017 -13.888  12.738  1.00  0.00    -0.074 C 
ATOM     12  C   UNL     1       1.001 -15.551  14.300  1.00  0.00     0.015 C 
ATOM     13  C   UNL     1       1.575 -17.994  14.118  1.00  0.00     0.007 C 
ATOM     14  C   UNL     1       1.197 -13.972  11.471  1.00  0.00     0.031 C 
ATOM     15  C   UNL     1       2.385 -12.694  13.228  1.00  0.00     0.008 C 
ENDBRANCH   1   4
BRANCH   1  16
ATOM     16  O   UNL     1      -1.121 -17.640  15.190  1.00  0.00    -0.390 OA
ATOM     17  H   UNL     1      -1.561 -16.836  14.807  1.00  0.00     0.211 HD
ENDBRANCH   1  16
TORSDOF 2
ENDMDL
MODEL 8
REMARK VINA RESULT:    -3.994      2.628      3.808
REMARK INTER + INTRA:          -4.537
REMARK INTER:                  -4.298
REMARK INTRA:                  -0.239
REMARK UNBOUND:                -0.193
REMARK SMILES C=C1CCC[C@]2(C)CC[C@H](C(C)(C)O)C[C@H]12
REMARK SMILES IDX 11 1 12 2 13 3 10 4 7 5 6 6 5 7 16 8 8 9 4 10 2 11 15 12
REMARK SMILES IDX 9 13 3 14 1 15 14 16
REMARK H PARENT 14 17
REMARK Flexibility Score: inf
ROOT
ATOM      1  C   UNL     1       5.026 -15.605  12.244  1.00  0.00     0.062 C 
ATOM      2  C   UNL     1       4.529 -15.737  13.707  1.00  0.00     0.042 C 
ATOM      3  C   UNL     1       5.848 -14.306  12.133  1.00  0.00     0.042 C 
ENDROOT
BRANCH   1   4
ATOM      4  C   UNL     1       3.850 -15.599  11.194  1.00  0.00     0.021 C 
ATOM      5  C   UNL     1       0.335 -15.190   8.658  1.00  0.00     0.012 C 
ATOM      6  C   UNL     1       1.245 -14.803   9.853  1.00  0.00    -0.026 C 
ATOM      7  C   UNL     1       0.572 -13.656  10.669  1.00  0.00     0.008 C 
ATOM      8  C   UNL     1       2.641 -14.351   9.314  1.00  0.00     0.021 C 
ATOM      9  C   UNL     1       1.396 -16.074  10.738  1.00  0.00     0.008 C 
ATOM     10  C   UNL     1       0.457 -12.342   9.877  1.00  0.00     0.005 C 
ATOM     11  C   UNL     1       2.531 -13.002   8.622  1.00  0.00    -0.074 C 
ATOM     12  C   UNL     1       3.714 -14.267  10.421  1.00  0.00     0.015 C 
ATOM     13  C   UNL     1       2.483 -15.962  11.815  1.00  0.00     0.007 C 
ATOM     14  C   UNL     1       1.810 -11.876   9.329  1.00  0.00     0.031 C 
ATOM     15  C   UNL     1       3.180 -12.772   7.470  1.00  0.00     0.008 C 
ENDBRANCH   1   4
BRANCH   1  16
ATOM     16  O   UNL     1       5.914 -16.659  11.941  1.00  0.00    -0.390 OA
ATOM     17  H   UNL     1       6.823 -16.419  12.261  1.00  0.00     0.211 HD
ENDBRANCH   1  16
TORSDOF 2
ENDMDL
MODEL 9
REMARK VINA RESULT:    -3.928     14.386     16.644
REMARK INTER + INTRA:          -4.465
REMARK INTER:                  -4.226
REMARK INTRA:                  -0.239
REMARK UNBOUND:                -0.193
REMARK SMILES C=C1CCC[C@]2(C)CC[C@H](C(C)(C)O)C[C@H]12
REMARK SMILES IDX 11 1 12 2 13 3 10 4 7 5 6 6 5 7 16 8 8 9 4 10 2 11 15 12
REMARK SMILES IDX 9 13 3 14 1 15 14 16
REMARK H PARENT 14 17
REMARK Flexibility Score: inf
ROOT
ATOM      1  C   UNL     1      -4.373 -29.323  10.380  1.00  0.00     0.062 C 
ATOM      2  C   UNL     1      -4.867 -30.720   9.920  1.00  0.00     0.042 C 
ATOM      3  C   UNL     1      -2.881 -29.441  10.750  1.00  0.00     0.042 C 
ENDROOT
BRANCH   1   4
ATOM      4  C   UNL     1      -5.194 -28.751  11.598  1.00  0.00     0.021 C 
ATOM      5  C   UNL     1      -7.239 -27.631  15.275  1.00  0.00     0.012 C 
ATOM      6  C   UNL     1      -6.226 -28.455  14.438  1.00  0.00    -0.026 C 
ATOM      7  C   UNL     1      -5.548 -29.525  15.349  1.00  0.00     0.008 C 
ATOM      8  C   UNL     1      -5.156 -27.493  13.827  1.00  0.00     0.021 C 
ATOM      9  C   UNL     1      -7.034 -29.150  13.304  1.00  0.00     0.008 C 
ATOM     10  C   UNL     1      -4.670 -28.907  16.451  1.00  0.00     0.005 C 
ATOM     11  C   UNL     1      -4.231 -26.969  14.914  1.00  0.00    -0.074 C 
ATOM     12  C   UNL     1      -4.310 -28.160  12.720  1.00  0.00     0.015 C 
ATOM     13  C   UNL     1      -6.163 -29.786  12.213  1.00  0.00     0.007 C 
ATOM     14  C   UNL     1      -3.614 -27.953  15.883  1.00  0.00     0.031 C 
ATOM     15  C   UNL     1      -3.858 -25.680  14.928  1.00  0.00     0.008 C 
ENDBRANCH   1   4
BRANCH   1  16
ATOM     16  O   UNL     1      -4.440 -28.411   9.305  1.00  0.00    -0.390 OA
ATOM     17  H   UNL     1      -5.289 -27.899   9.367  1.00  0.00     0.211 HD
ENDBRANCH   1  16
TORSDOF 2
ENDMDL
