MODEL 1
REMARK VINA RESULT:    -3.786      0.000      0.000
REMARK INTER + INTRA:          -5.500
REMARK INTER:                  -5.335
REMARK INTRA:                  -0.164
REMARK UNBOUND:                -0.164
REMARK SMILES CC1=CCC(=C(C)C)C(=O)CC(C)=CCC1
REMARK SMILES IDX 12 1 14 2 13 3 15 4 16 5 2 6 1 7 3 8 11 10 9 11 10 12 5 13
REMARK SMILES IDX 6 14 7 15 8 16 4 17
REMARK H PARENT
REMARK Flexibility Score: 60.00
ROOT
ATOM      1  C   UNL     1      24.829  23.940   4.613  1.00  0.00    -0.070 C 
ATOM      2  C   UNL     1      23.603  23.428   4.870  1.00  0.00    -0.027 C 
ATOM      3  C   UNL     1      24.980  24.855   3.424  1.00  0.00     0.039 C 
ENDROOT
BRANCH   2   4
ATOM      4  C   UNL     1      23.244  22.621   6.092  1.00  0.00     0.032 C 
BRANCH   4   5
ATOM      5  C   UNL     1      23.395  21.125   5.789  1.00  0.00     0.034 C 
BRANCH   5   6
ATOM      6  C   UNL     1      24.033  20.365   6.935  1.00  0.00    -0.077 C 
ATOM      7  C   UNL     1      23.216  20.111   8.178  1.00  0.00     0.039 C 
ATOM      8  C   UNL     1      25.328  19.961   6.938  1.00  0.00    -0.023 CG0
ATOM      9  G   UNL     1      26.324  20.049   5.797  1.00  0.00     0.000 G0
ENDBRANCH   5   6
ENDBRANCH   4   5
ENDBRANCH   2   4
BRANCH   1  10
ATOM     10  C   UNL     1      26.056  23.624   5.445  1.00  0.00     0.111 C 
BRANCH  10  11
ATOM     11  C   UNL     1      26.812  22.434   4.906  1.00  0.00     0.163 C 
ATOM     12  O   UNL     1      27.070  22.428   3.672  1.00  0.00    -0.294 OA
BRANCH  11  13
ATOM     13  C   UNL     1      27.243  21.269   5.749  1.00  0.00    -0.002 C 
ATOM     14  C   UNL     1      28.486  21.248   6.322  1.00  0.00    -0.069 C 
ATOM     15  C   UNL     1      29.046  20.005   6.977  1.00  0.00     0.039 C 
ATOM     16  C   UNL     1      29.352  22.486   6.375  1.00  0.00     0.039 C 
BRANCH  13  17
ATOM     17  C   UNL     1      26.334  20.046   5.792  1.00  0.00     0.066 CG0
ATOM     18  G   UNL     1      25.331  19.989   6.929  1.00  0.00     0.000 G0
ENDBRANCH  13  17
ENDBRANCH  11  13
ENDBRANCH  10  11
ENDBRANCH   1  10
TORSDOF 0
ENDMDL
MODEL 2
REMARK VINA RESULT:    -3.491      2.141      4.562
REMARK INTER + INTRA:          -5.085
REMARK INTER:                  -5.883
REMARK INTRA:                   0.799
REMARK UNBOUND:                -0.164
REMARK SMILES CC1=CCC(=C(C)C)C(=O)CC(C)=CCC1
REMARK SMILES IDX 12 1 14 2 13 3 15 4 16 5 2 6 1 7 3 8 11 10 9 11 10 12 5 13
REMARK SMILES IDX 6 14 7 15 8 16 4 17
REMARK H PARENT
REMARK Flexibility Score: 60.00
ROOT
ATOM      1  C   UNL     1      26.573  21.860   3.893  1.00  0.00    -0.070 C 
ATOM      2  C   UNL     1      26.280  22.834   3.000  1.00  0.00    -0.027 C 
ATOM      3  C   UNL     1      26.921  20.493   3.362  1.00  0.00     0.039 C 
ENDROOT
BRANCH   2   4
ATOM      4  C   UNL     1      26.056  24.284   3.346  1.00  0.00     0.032 C 
BRANCH   4   5
ATOM      5  C   UNL     1      24.560  24.610   3.279  1.00  0.00     0.034 C 
BRANCH   5   6
ATOM      6  C   UNL     1      23.962  24.873   4.647  1.00  0.00    -0.077 C 
ATOM      7  C   UNL     1      23.895  26.296   5.144  1.00  0.00     0.039 C 
ATOM      8  C   UNL     1      23.549  23.891   5.487  1.00  0.00    -0.023 CG0
ATOM      9  G   UNL     1      23.465  22.404   5.196  1.00  0.00     0.000 G0
ENDBRANCH   5   6
ENDBRANCH   4   5
ENDBRANCH   2   4
BRANCH   1  10
ATOM     10  C   UNL     1      26.549  22.071   5.394  1.00  0.00     0.111 C 
BRANCH  10  11
ATOM     11  C   UNL     1      25.564  21.154   6.077  1.00  0.00     0.163 C 
ATOM     12  O   UNL     1      26.016  20.075   6.547  1.00  0.00    -0.294 OA
BRANCH  11  13
ATOM     13  C   UNL     1      24.097  21.449   6.201  1.00  0.00    -0.002 C 
ATOM     14  C   UNL     1      23.320  20.750   7.084  1.00  0.00    -0.069 C 
ATOM     15  C   UNL     1      21.811  20.850   7.077  1.00  0.00     0.039 C 
ATOM     16  C   UNL     1      23.933  19.875   8.155  1.00  0.00     0.039 C 
BRANCH  13  17
ATOM     17  C   UNL     1      23.477  22.410   5.193  1.00  0.00     0.066 CG0
ATOM     18  G   UNL     1      23.565  23.888   5.525  1.00  0.00     0.000 G0
ENDBRANCH  13  17
ENDBRANCH  11  13
ENDBRANCH  10  11
ENDBRANCH   1  10
TORSDOF 0
ENDMDL
MODEL 3
REMARK VINA RESULT:    -3.482      2.928      5.416
REMARK INTER + INTRA:          -5.072
REMARK INTER:                  -5.513
REMARK INTRA:                   0.441
REMARK UNBOUND:                -0.164
REMARK SMILES CC1=CCC(=C(C)C)C(=O)CC(C)=CCC1
REMARK SMILES IDX 12 1 14 2 13 3 15 4 16 5 2 6 1 7 3 8 11 10 9 11 10 12 5 13
REMARK SMILES IDX 6 14 7 15 8 16 4 17
REMARK H PARENT
REMARK Flexibility Score: 60.00
ROOT
ATOM      1  C   UNL     1      29.232  23.284   7.874  1.00  0.00    -0.070 C 
ATOM      2  C   UNL     1      30.189  22.613   8.554  1.00  0.00    -0.027 C 
ATOM      3  C   UNL     1      28.361  24.247   8.640  1.00  0.00     0.039 C 
ENDROOT
BRANCH   2   4
ATOM      4  C   UNL     1      31.237  21.729   7.925  1.00  0.00     0.032 C 
BRANCH   4   5
ATOM      5  C   UNL     1      30.583  20.452   7.384  1.00  0.00     0.034 C 
BRANCH   5   6
ATOM      6  C   UNL     1      30.989  20.156   5.954  1.00  0.00    -0.077 C 
ATOM      7  C   UNL     1      32.458  20.126   5.611  1.00  0.00     0.039 C 
ATOM      8  C   UNL     1      30.101  19.989   4.942  1.00  0.00    -0.023 CG0
ATOM      9  G   UNL     1      28.588  19.920   5.044  1.00  0.00     0.000 G0
ENDBRANCH   5   6
ENDBRANCH   4   5
ENDBRANCH   2   4
BRANCH   1  10
ATOM     10  C   UNL     1      28.980  23.101   6.390  1.00  0.00     0.111 C 
BRANCH  10  11
ATOM     11  C   UNL     1      27.848  22.139   6.125  1.00  0.00     0.163 C 
ATOM     12  O   UNL     1      26.903  22.120   6.959  1.00  0.00    -0.294 OA
BRANCH  11  13
ATOM     13  C   UNL     1      27.805  21.206   4.949  1.00  0.00    -0.002 C 
ATOM     14  C   UNL     1      26.957  21.446   3.902  1.00  0.00    -0.069 C 
ATOM     15  C   UNL     1      26.712  20.421   2.817  1.00  0.00     0.039 C 
ATOM     16  C   UNL     1      26.255  22.776   3.743  1.00  0.00     0.039 C 
BRANCH  13  17
ATOM     17  C   UNL     1      28.590  19.902   5.046  1.00  0.00     0.066 CG0
ATOM     18  G   UNL     1      30.099  20.013   4.938  1.00  0.00     0.000 G0
ENDBRANCH  13  17
ENDBRANCH  11  13
ENDBRANCH  10  11
ENDBRANCH   1  10
TORSDOF 0
ENDMDL
MODEL 4
REMARK VINA RESULT:    -3.368      2.194      5.093
REMARK INTER + INTRA:          -4.911
REMARK INTER:                  -5.423
REMARK INTRA:                   0.512
REMARK UNBOUND:                -0.164
REMARK SMILES CC1=CCC(=C(C)C)C(=O)CC(C)=CCC1
REMARK SMILES IDX 12 1 14 2 13 3 15 4 16 5 2 6 1 7 3 8 11 10 9 11 10 12 5 13
REMARK SMILES IDX 6 14 7 15 8 16 4 17
REMARK H PARENT
REMARK Flexibility Score: 60.00
ROOT
ATOM      1  C   UNL     1      27.882  20.070   5.009  1.00  0.00    -0.070 C 
ATOM      2  C   UNL     1      29.183  20.413   4.868  1.00  0.00    -0.027 C 
ATOM      3  C   UNL     1      27.057  19.891   3.760  1.00  0.00     0.039 C 
ENDROOT
BRANCH   2   4
ATOM      4  C   UNL     1      30.183  20.488   5.994  1.00  0.00     0.032 C 
BRANCH   4   5
ATOM      5  C   UNL     1      30.389  21.950   6.410  1.00  0.00     0.034 C 
BRANCH   5   6
ATOM      6  C   UNL     1      29.595  22.317   7.647  1.00  0.00    -0.077 C 
ATOM      7  C   UNL     1      30.221  22.093   9.001  1.00  0.00     0.039 C 
ATOM      8  C   UNL     1      28.316  22.770   7.611  1.00  0.00    -0.023 CG0
ATOM      9  G   UNL     1      27.499  23.127   6.383  1.00  0.00     0.000 G0
ENDBRANCH   5   6
ENDBRANCH   4   5
ENDBRANCH   2   4
BRANCH   1  10
ATOM     10  C   UNL     1      27.211  19.876   6.354  1.00  0.00     0.111 C 
BRANCH  10  11
ATOM     11  C   UNL     1      26.172  20.937   6.625  1.00  0.00     0.163 C 
ATOM     12  O   UNL     1      25.185  20.605   7.336  1.00  0.00    -0.294 OA
BRANCH  11  13
ATOM     13  C   UNL     1      26.245  22.334   6.080  1.00  0.00    -0.002 C 
ATOM     14  C   UNL     1      25.292  22.793   5.212  1.00  0.00    -0.069 C 
ATOM     15  C   UNL     1      25.450  24.097   4.464  1.00  0.00     0.039 C 
ATOM     16  C   UNL     1      23.998  22.041   4.991  1.00  0.00     0.039 C 
BRANCH  13  17
ATOM     17  C   UNL     1      27.499  23.148   6.377  1.00  0.00     0.066 CG0
ATOM     18  G   UNL     1      28.298  22.738   7.601  1.00  0.00     0.000 G0
ENDBRANCH  13  17
ENDBRANCH  11  13
ENDBRANCH  10  11
ENDBRANCH   1  10
TORSDOF 0
ENDMDL
MODEL 5
REMARK VINA RESULT:    -3.347      2.665      5.883
REMARK INTER + INTRA:          -4.882
REMARK INTER:                  -5.252
REMARK INTRA:                   0.370
REMARK UNBOUND:                -0.164
REMARK SMILES CC1=CCC(=C(C)C)C(=O)CC(C)=CCC1
REMARK SMILES IDX 12 1 14 2 13 3 15 4 16 5 2 6 1 7 3 8 11 10 9 11 10 12 5 13
REMARK SMILES IDX 6 14 7 15 8 16 4 17
REMARK H PARENT
REMARK Flexibility Score: 60.00
ROOT
ATOM      1  C   UNL     1      30.961  24.357   7.588  1.00  0.00    -0.070 C 
ATOM      2  C   UNL     1      32.110  23.680   7.815  1.00  0.00    -0.027 C 
ATOM      3  C   UNL     1      30.774  25.686   8.274  1.00  0.00     0.039 C 
ENDROOT
BRANCH   2   4
ATOM      4  C   UNL     1      32.523  22.417   7.102  1.00  0.00     0.032 C 
BRANCH   4   5
ATOM      5  C   UNL     1      31.648  21.247   7.568  1.00  0.00     0.034 C 
BRANCH   5   6
ATOM      6  C   UNL     1      31.175  20.383   6.416  1.00  0.00    -0.077 C 
ATOM      7  C   UNL     1      32.196  19.876   5.427  1.00  0.00     0.039 C 
ATOM      8  C   UNL     1      29.870  20.099   6.178  1.00  0.00    -0.023 CG0
ATOM      9  G   UNL     1      28.677  20.443   7.050  1.00  0.00     0.000 G0
ENDBRANCH   5   6
ENDBRANCH   4   5
ENDBRANCH   2   4
BRANCH   1  10
ATOM     10  C   UNL     1      29.849  23.839   6.698  1.00  0.00     0.111 C 
BRANCH  10  11
ATOM     11  C   UNL     1      28.858  22.999   7.465  1.00  0.00     0.163 C 
ATOM     12  O   UNL     1      28.685  23.282   8.681  1.00  0.00    -0.294 OA
BRANCH  11  13
ATOM     13  C   UNL     1      28.097  21.851   6.866  1.00  0.00    -0.002 C 
ATOM     14  C   UNL     1      26.853  22.045   6.331  1.00  0.00    -0.069 C 
ATOM     15  C   UNL     1      25.962  20.889   5.933  1.00  0.00     0.039 C 
ATOM     16  C   UNL     1      26.318  23.433   6.059  1.00  0.00     0.039 C 
BRANCH  13  17
ATOM     17  C   UNL     1      28.672  20.449   7.040  1.00  0.00     0.066 CG0
ATOM     18  G   UNL     1      29.869  20.097   6.176  1.00  0.00     0.000 G0
ENDBRANCH  13  17
ENDBRANCH  11  13
ENDBRANCH  10  11
ENDBRANCH   1  10
TORSDOF 0
ENDMDL
MODEL 6
REMARK VINA RESULT:    -2.887      1.607      4.524
REMARK INTER + INTRA:          -4.233
REMARK INTER:                  -4.553
REMARK INTRA:                   0.320
REMARK UNBOUND:                -0.164
REMARK SMILES CC1=CCC(=C(C)C)C(=O)CC(C)=CCC1
REMARK SMILES IDX 12 1 14 2 13 3 15 4 16 5 2 6 1 7 3 8 11 10 9 11 10 12 5 13
REMARK SMILES IDX 6 14 7 15 8 16 4 17
REMARK H PARENT
REMARK Flexibility Score: 60.00
ROOT
ATOM      1  C   UNL     1      24.684  20.607   5.734  1.00  0.00    -0.070 C 
ATOM      2  C   UNL     1      25.552  20.094   6.636  1.00  0.00    -0.027 C 
ATOM      3  C   UNL     1      23.280  20.907   6.193  1.00  0.00     0.039 C 
ENDROOT
BRANCH   2   4
ATOM      4  C   UNL     1      27.024  19.875   6.391  1.00  0.00     0.032 C 
BRANCH   4   5
ATOM      5  C   UNL     1      27.846  20.739   7.354  1.00  0.00     0.034 C 
BRANCH   5   6
ATOM      6  C   UNL     1      28.526  21.899   6.654  1.00  0.00    -0.077 C 
ATOM      7  C   UNL     1      30.015  21.829   6.421  1.00  0.00     0.039 C 
ATOM      8  C   UNL     1      27.883  23.037   6.289  1.00  0.00    -0.023 CG0
ATOM      9  G   UNL     1      26.394  23.319   6.366  1.00  0.00     0.000 G0
ENDBRANCH   5   6
ENDBRANCH   4   5
ENDBRANCH   2   4
BRANCH   1  10
ATOM     10  C   UNL     1      25.047  20.875   4.287  1.00  0.00     0.111 C 
BRANCH  10  11
ATOM     11  C   UNL     1      25.800  22.173   4.125  1.00  0.00     0.163 C 
ATOM     12  O   UNL     1      26.624  22.243   3.173  1.00  0.00    -0.294 OA
BRANCH  11  13
ATOM     13  C   UNL     1      25.636  23.353   5.039  1.00  0.00    -0.002 C 
ATOM     14  C   UNL     1      24.954  24.465   4.623  1.00  0.00    -0.069 C 
ATOM     15  C   UNL     1      24.964  25.753   5.414  1.00  0.00     0.039 C 
ATOM     16  C   UNL     1      24.109  24.449   3.369  1.00  0.00     0.039 C 
BRANCH  13  17
ATOM     17  C   UNL     1      26.400  23.344   6.358  1.00  0.00     0.066 CG0
ATOM     18  G   UNL     1      27.884  23.036   6.276  1.00  0.00     0.000 G0
ENDBRANCH  13  17
ENDBRANCH  11  13
ENDBRANCH  10  11
ENDBRANCH   1  10
TORSDOF 0
ENDMDL
MODEL 7
REMARK VINA RESULT:    -2.791      1.829      3.847
REMARK INTER + INTRA:          -4.097
REMARK INTER:                  -5.378
REMARK INTRA:                   1.280
REMARK UNBOUND:                -0.164
REMARK SMILES CC1=CCC(=C(C)C)C(=O)CC(C)=CCC1
REMARK SMILES IDX 12 1 14 2 13 3 15 4 16 5 2 6 1 7 3 8 11 10 9 11 10 12 5 13
REMARK SMILES IDX 6 14 7 15 8 16 4 17
REMARK H PARENT
REMARK Flexibility Score: 60.00
ROOT
ATOM      1  C   UNL     1      25.052  24.871   4.014  1.00  0.00    -0.070 C 
ATOM      2  C   UNL     1      25.433  24.103   2.967  1.00  0.00    -0.027 C 
ATOM      3  C   UNL     1      24.619  26.288   3.733  1.00  0.00     0.039 C 
ENDROOT
BRANCH   2   4
ATOM      4  C   UNL     1      25.752  22.631   3.047  1.00  0.00     0.032 C 
BRANCH   4   5
ATOM      5  C   UNL     1      27.134  22.433   3.682  1.00  0.00     0.034 C 
BRANCH   5   6
ATOM      6  C   UNL     1      27.281  21.072   4.334  1.00  0.00    -0.077 C 
ATOM      7  C   UNL     1      27.995  19.981   3.576  1.00  0.00     0.039 C 
ATOM      8  C   UNL     1      26.739  20.754   5.537  1.00  0.00    -0.023 CG0
ATOM      9  G   UNL     1      26.032  21.685   6.505  1.00  0.00     0.000 G0
ENDBRANCH   5   6
ENDBRANCH   4   5
ENDBRANCH   2   4
BRANCH   1  10
ATOM     10  C   UNL     1      25.057  24.386   5.450  1.00  0.00     0.111 C 
BRANCH  10  11
ATOM     11  C   UNL     1      24.128  23.214   5.653  1.00  0.00     0.163 C 
ATOM     12  O   UNL     1      22.934  23.356   5.273  1.00  0.00    -0.294 OA
BRANCH  11  13
ATOM     13  C   UNL     1      24.544  21.921   6.292  1.00  0.00    -0.002 C 
ATOM     14  C   UNL     1      23.607  21.066   6.806  1.00  0.00    -0.069 C 
ATOM     15  C   UNL     1      23.988  19.877   7.658  1.00  0.00     0.039 C 
ATOM     16  C   UNL     1      22.134  21.236   6.505  1.00  0.00     0.039 C 
BRANCH  13  17
ATOM     17  C   UNL     1      26.034  21.684   6.513  1.00  0.00     0.066 CG0
ATOM     18  G   UNL     1      26.724  20.757   5.529  1.00  0.00     0.000 G0
ENDBRANCH  13  17
ENDBRANCH  11  13
ENDBRANCH  10  11
ENDBRANCH   1  10
TORSDOF 0
ENDMDL
MODEL 8
REMARK VINA RESULT:    -2.668      1.658      3.667
REMARK INTER + INTRA:          -3.925
REMARK INTER:                  -4.700
REMARK INTRA:                   0.776
REMARK UNBOUND:                -0.164
REMARK SMILES CC1=CCC(=C(C)C)C(=O)CC(C)=CCC1
REMARK SMILES IDX 12 1 14 2 13 3 15 4 16 5 2 6 1 7 3 8 11 10 9 11 10 12 5 13
REMARK SMILES IDX 6 14 7 15 8 16 4 17
REMARK H PARENT
REMARK Flexibility Score: 60.00
ROOT
ATOM      1  C   UNL     1      25.330  20.511   6.249  1.00  0.00    -0.070 C 
ATOM      2  C   UNL     1      24.446  21.515   6.450  1.00  0.00    -0.027 C 
ATOM      3  C   UNL     1      25.967  19.875   7.459  1.00  0.00     0.039 C 
ENDROOT
BRANCH   2   4
ATOM      4  C   UNL     1      23.611  22.159   5.372  1.00  0.00     0.032 C 
BRANCH   4   5
ATOM      5  C   UNL     1      23.893  23.666   5.327  1.00  0.00     0.034 C 
BRANCH   5   6
ATOM      6  C   UNL     1      24.851  24.041   4.213  1.00  0.00    -0.077 C 
ATOM      7  C   UNL     1      24.298  24.718   2.983  1.00  0.00     0.039 C 
ATOM      8  C   UNL     1      26.172  23.736   4.225  1.00  0.00    -0.023 CG0
ATOM      9  G   UNL     1      26.965  23.114   5.360  1.00  0.00     0.000 G0
ENDBRANCH   5   6
ENDBRANCH   4   5
ENDBRANCH   2   4
BRANCH   1  10
ATOM     10  C   UNL     1      25.724  20.010   4.874  1.00  0.00     0.111 C 
BRANCH  10  11
ATOM     11  C   UNL     1      26.924  20.744   4.329  1.00  0.00     0.163 C 
ATOM     12  O   UNL     1      27.316  20.424   3.174  1.00  0.00    -0.294 OA
BRANCH  11  13
ATOM     13  C   UNL     1      27.672  21.801   5.089  1.00  0.00    -0.002 C 
ATOM     14  C   UNL     1      28.892  21.527   5.643  1.00  0.00    -0.069 C 
ATOM     15  C   UNL     1      29.567  22.478   6.606  1.00  0.00     0.039 C 
ATOM     16  C   UNL     1      29.660  20.275   5.283  1.00  0.00     0.039 C 
BRANCH  13  17
ATOM     17  C   UNL     1      26.952  23.114   5.375  1.00  0.00     0.066 CG0
ATOM     18  G   UNL     1      26.186  23.732   4.220  1.00  0.00     0.000 G0
ENDBRANCH  13  17
ENDBRANCH  11  13
ENDBRANCH  10  11
ENDBRANCH   1  10
TORSDOF 0
ENDMDL
MODEL 9
REMARK VINA RESULT:    -2.638      1.879      3.469
REMARK INTER + INTRA:          -3.881
REMARK INTER:                  -5.311
REMARK INTRA:                   1.429
REMARK UNBOUND:                -0.164
REMARK SMILES CC1=CCC(=C(C)C)C(=O)CC(C)=CCC1
REMARK SMILES IDX 12 1 14 2 13 3 15 4 16 5 2 6 1 7 3 8 11 10 9 11 10 12 5 13
REMARK SMILES IDX 6 14 7 15 8 16 4 17
REMARK H PARENT
REMARK Flexibility Score: 60.00
ROOT
ATOM      1  C   UNL     1      26.535  20.188   4.340  1.00  0.00    -0.070 C 
ATOM      2  C   UNL     1      25.244  20.585   4.420  1.00  0.00    -0.027 C 
ATOM      3  C   UNL     1      27.144  20.027   2.971  1.00  0.00     0.039 C 
ENDROOT
BRANCH   2   4
ATOM      4  C   UNL     1      24.526  20.937   5.698  1.00  0.00     0.032 C 
BRANCH   4   5
ATOM      5  C   UNL     1      23.967  22.362   5.605  1.00  0.00     0.034 C 
BRANCH   5   6
ATOM      6  C   UNL     1      24.997  23.356   5.106  1.00  0.00    -0.077 C 
ATOM      7  C   UNL     1      24.631  24.256   3.951  1.00  0.00     0.039 C 
ATOM      8  C   UNL     1      26.261  23.433   5.590  1.00  0.00    -0.023 CG0
ATOM      9  G   UNL     1      26.844  22.682   6.773  1.00  0.00     0.000 G0
ENDBRANCH   5   6
ENDBRANCH   4   5
ENDBRANCH   2   4
BRANCH   1  10
ATOM     10  C   UNL     1      27.389  19.880   5.554  1.00  0.00     0.111 C 
BRANCH  10  11
ATOM     11  C   UNL     1      28.460  20.921   5.769  1.00  0.00     0.163 C 
ATOM     12  O   UNL     1      29.578  20.716   5.223  1.00  0.00    -0.294 OA
BRANCH  11  13
ATOM     13  C   UNL     1      28.269  22.155   6.603  1.00  0.00    -0.002 C 
ATOM     14  C   UNL     1      29.312  22.678   7.319  1.00  0.00    -0.069 C 
ATOM     15  C   UNL     1      29.111  23.770   8.346  1.00  0.00     0.039 C 
ATOM     16  C   UNL     1      30.736  22.228   7.083  1.00  0.00     0.039 C 
BRANCH  13  17
ATOM     17  C   UNL     1      26.851  22.687   6.771  1.00  0.00     0.066 CG0
ATOM     18  G   UNL     1      26.260  23.424   5.583  1.00  0.00     0.000 G0
ENDBRANCH  13  17
ENDBRANCH  11  13
ENDBRANCH  10  11
ENDBRANCH   1  10
TORSDOF 0
ENDMDL
