MODEL 1
REMARK VINA RESULT:    -4.683      0.000      0.000
REMARK INTER + INTRA:          -5.815
REMARK INTER:                  -5.641
REMARK INTRA:                  -0.174
REMARK UNBOUND:                -0.174
REMARK SMILES NC(=O)C[C@H]([NH3+])C(=O)[O-]
REMARK SMILES IDX 4 1 5 2 6 3 7 7 8 8 9 9 2 10 3 11 1 12
REMARK H PARENT 6 4 6 5 6 6 1 13 1 14
REMARK Flexibility Score: inf
ROOT
ATOM      1  C   UNL     1     -20.770  68.481  -1.575  1.00  0.00     0.171 C 
ENDROOT
BRANCH   1   2
ATOM      2  C   UNL     1     -21.693  68.107  -0.398  1.00  0.00     0.237 C 
BRANCH   2   3
ATOM      3  N   UNL     1     -23.101  68.196  -0.801  1.00  0.00    -0.350 N 
ATOM      4  H   UNL     1     -23.602  67.316  -0.534  1.00  0.00     0.345 HD
ATOM      5  H   UNL     1     -23.182  68.335  -1.835  1.00  0.00     0.345 HD
ATOM      6  H   UNL     1     -23.562  68.995  -0.308  1.00  0.00     0.345 HD
ENDBRANCH   2   3
BRANCH   2   7
ATOM      7  C   UNL     1     -21.434  68.992   0.795  1.00  0.00     0.100 C 
ATOM      8  O   UNL     1     -21.132  68.489   1.910  1.00  0.00    -0.544 OA
ATOM      9  O   UNL     1     -21.543  70.371   0.672  1.00  0.00    -0.544 OA
ENDBRANCH   2   7
ENDBRANCH   1   2
BRANCH   1  10
ATOM     10  C   UNL     1     -19.322  68.284  -1.228  1.00  0.00     0.223 C 
ATOM     11  O   UNL     1     -18.858  67.119  -1.114  1.00  0.00    -0.275 OA
ATOM     12  N   UNL     1     -18.460  69.409  -1.062  1.00  0.00    -0.369 N 
ATOM     13  H   UNL     1     -18.826  70.381  -1.169  1.00  0.00     0.159 HD
ATOM     14  H   UNL     1     -17.450  69.271  -0.834  1.00  0.00     0.159 HD
ENDBRANCH   1  10
TORSDOF 4
ENDMDL
MODEL 2
REMARK VINA RESULT:    -4.586      1.332      3.788
REMARK INTER + INTRA:          -5.698
REMARK INTER:                  -5.308
REMARK INTRA:                  -0.390
REMARK UNBOUND:                -0.174
REMARK SMILES NC(=O)C[C@H]([NH3+])C(=O)[O-]
REMARK SMILES IDX 4 1 5 2 6 3 7 7 8 8 9 9 2 10 3 11 1 12
REMARK H PARENT 6 4 6 5 6 6 1 13 1 14
REMARK Flexibility Score: inf
ROOT
ATOM      1  C   UNL     1     -20.231  68.053   0.554  1.00  0.00     0.171 C 
ENDROOT
BRANCH   1   2
ATOM      2  C   UNL     1     -19.203  67.831  -0.574  1.00  0.00     0.237 C 
BRANCH   2   3
ATOM      3  N   UNL     1     -18.866  69.105  -1.220  1.00  0.00    -0.350 N 
ATOM      4  H   UNL     1     -18.402  69.740  -0.530  1.00  0.00     0.345 HD
ATOM      5  H   UNL     1     -19.728  69.572  -1.588  1.00  0.00     0.345 HD
ATOM      6  H   UNL     1     -18.200  68.937  -2.009  1.00  0.00     0.345 HD
ENDBRANCH   2   3
BRANCH   2   7
ATOM      7  C   UNL     1     -19.722  66.849  -1.594  1.00  0.00     0.100 C 
ATOM      8  O   UNL     1     -19.208  65.704  -1.698  1.00  0.00    -0.544 OA
ATOM      9  O   UNL     1     -20.765  67.211  -2.437  1.00  0.00    -0.544 OA
ENDBRANCH   2   7
ENDBRANCH   1   2
BRANCH   1  10
ATOM     10  C   UNL     1     -21.294  69.034   0.150  1.00  0.00     0.223 C 
ATOM     11  O   UNL     1     -21.055  70.270   0.194  1.00  0.00    -0.275 OA
ATOM     12  N   UNL     1     -22.562  68.574  -0.318  1.00  0.00    -0.369 N 
ATOM     13  H   UNL     1     -22.769  67.552  -0.374  1.00  0.00     0.159 HD
ATOM     14  H   UNL     1     -23.296  69.257  -0.611  1.00  0.00     0.159 HD
ENDBRANCH   1  10
TORSDOF 4
ENDMDL
MODEL 3
REMARK VINA RESULT:    -4.444      1.821      3.566
REMARK INTER + INTRA:          -5.527
REMARK INTER:                  -5.366
REMARK INTRA:                  -0.161
REMARK UNBOUND:                -0.174
REMARK SMILES NC(=O)C[C@H]([NH3+])C(=O)[O-]
REMARK SMILES IDX 4 1 5 2 6 3 7 7 8 8 9 9 2 10 3 11 1 12
REMARK H PARENT 6 4 6 5 6 6 1 13 1 14
REMARK Flexibility Score: inf
ROOT
ATOM      1  C   UNL     1     -20.871  68.801  -1.373  1.00  0.00     0.171 C 
ENDROOT
BRANCH   1   2
ATOM      2  C   UNL     1     -19.625  68.734  -0.469  1.00  0.00     0.237 C 
BRANCH   2   3
ATOM      3  N   UNL     1     -18.534  69.535  -1.037  1.00  0.00    -0.350 N 
ATOM      4  H   UNL     1     -18.829  70.536  -1.108  1.00  0.00     0.345 HD
ATOM      5  H   UNL     1     -18.277  69.187  -1.990  1.00  0.00     0.345 HD
ATOM      6  H   UNL     1     -17.695  69.485  -0.414  1.00  0.00     0.345 HD
ENDBRANCH   2   3
BRANCH   2   7
ATOM      7  C   UNL     1     -19.176  67.309  -0.268  1.00  0.00     0.100 C 
ATOM      8  O   UNL     1     -18.863  66.893   0.879  1.00  0.00    -0.544 OA
ATOM      9  O   UNL     1     -19.093  66.449  -1.355  1.00  0.00    -0.544 OA
ENDBRANCH   2   7
ENDBRANCH   1   2
BRANCH   1  10
ATOM     10  C   UNL     1     -22.112  68.382  -0.638  1.00  0.00     0.223 C 
ATOM     11  O   UNL     1     -22.939  67.610  -1.192  1.00  0.00    -0.275 OA
ATOM     12  N   UNL     1     -22.343  68.825   0.699  1.00  0.00    -0.369 N 
ATOM     13  H   UNL     1     -21.660  69.452   1.177  1.00  0.00     0.159 HD
ATOM     14  H   UNL     1     -23.200  68.522   1.214  1.00  0.00     0.159 HD
ENDBRANCH   1  10
TORSDOF 4
ENDMDL
MODEL 4
REMARK VINA RESULT:    -4.425      2.110      2.987
REMARK INTER + INTRA:          -5.505
REMARK INTER:                  -5.423
REMARK INTRA:                  -0.082
REMARK UNBOUND:                -0.174
REMARK SMILES NC(=O)C[C@H]([NH3+])C(=O)[O-]
REMARK SMILES IDX 4 1 5 2 6 3 7 7 8 8 9 9 2 10 3 11 1 12
REMARK H PARENT 6 4 6 5 6 6 1 13 1 14
REMARK Flexibility Score: inf
ROOT
ATOM      1  C   UNL     1     -19.069  67.326  -0.885  1.00  0.00     0.171 C 
ENDROOT
BRANCH   1   2
ATOM      2  C   UNL     1     -19.455  68.806  -1.080  1.00  0.00     0.237 C 
BRANCH   2   3
ATOM      3  N   UNL     1     -18.269  69.664  -0.977  1.00  0.00    -0.350 N 
ATOM      4  H   UNL     1     -18.134  70.191  -1.871  1.00  0.00     0.345 HD
ATOM      5  H   UNL     1     -17.413  69.091  -0.786  1.00  0.00     0.345 HD
ATOM      6  H   UNL     1     -18.398  70.358  -0.205  1.00  0.00     0.345 HD
ENDBRANCH   2   3
BRANCH   2   7
ATOM      7  C   UNL     1     -20.496  69.231  -0.076  1.00  0.00     0.100 C 
ATOM      8  O   UNL     1     -21.045  70.361  -0.164  1.00  0.00    -0.544 OA
ATOM      9  O   UNL     1     -20.845  68.379   0.964  1.00  0.00    -0.544 OA
ENDBRANCH   2   7
ENDBRANCH   1   2
BRANCH   1  10
ATOM     10  C   UNL     1     -19.789  66.433  -1.855  1.00  0.00     0.223 C 
ATOM     11  O   UNL     1     -20.785  66.871  -2.489  1.00  0.00    -0.275 OA
ATOM     12  N   UNL     1     -19.329  65.102  -2.090  1.00  0.00    -0.369 N 
ATOM     13  H   UNL     1     -18.495  64.731  -1.583  1.00  0.00     0.159 HD
ATOM     14  H   UNL     1     -19.822  64.487  -2.774  1.00  0.00     0.159 HD
ENDBRANCH   1  10
TORSDOF 4
ENDMDL
MODEL 5
REMARK VINA RESULT:    -4.381      2.055      3.267
REMARK INTER + INTRA:          -5.451
REMARK INTER:                  -5.353
REMARK INTRA:                  -0.098
REMARK UNBOUND:                -0.174
REMARK SMILES NC(=O)C[C@H]([NH3+])C(=O)[O-]
REMARK SMILES IDX 4 1 5 2 6 3 7 7 8 8 9 9 2 10 3 11 1 12
REMARK H PARENT 6 4 6 5 6 6 1 13 1 14
REMARK Flexibility Score: inf
ROOT
ATOM      1  C   UNL     1     -21.665  69.406   0.786  1.00  0.00     0.171 C 
ENDROOT
BRANCH   1   2
ATOM      2  C   UNL     1     -21.783  68.754  -0.606  1.00  0.00     0.237 C 
BRANCH   2   3
ATOM      3  N   UNL     1     -23.033  67.993  -0.713  1.00  0.00    -0.350 N 
ATOM      4  H   UNL     1     -23.122  67.341   0.101  1.00  0.00     0.345 HD
ATOM      5  H   UNL     1     -23.054  67.438  -1.600  1.00  0.00     0.345 HD
ATOM      6  H   UNL     1     -23.850  68.647  -0.697  1.00  0.00     0.345 HD
ENDBRANCH   2   3
BRANCH   2   7
ATOM      7  C   UNL     1     -20.602  67.860  -0.887  1.00  0.00     0.100 C 
ATOM      8  O   UNL     1     -19.647  67.786  -0.069  1.00  0.00    -0.544 OA
ATOM      9  O   UNL     1     -20.556  67.121  -2.063  1.00  0.00    -0.544 OA
ENDBRANCH   2   7
ENDBRANCH   1   2
BRANCH   1  10
ATOM     10  C   UNL     1     -21.246  70.845   0.690  1.00  0.00     0.223 C 
ATOM     11  O   UNL     1     -20.595  71.243  -0.311  1.00  0.00    -0.275 OA
ATOM     12  N   UNL     1     -21.613  71.773   1.712  1.00  0.00    -0.369 N 
ATOM     13  H   UNL     1     -22.165  71.461   2.541  1.00  0.00     0.159 HD
ATOM     14  H   UNL     1     -21.333  72.776   1.638  1.00  0.00     0.159 HD
ENDBRANCH   1  10
TORSDOF 4
ENDMDL
MODEL 6
REMARK VINA RESULT:    -4.268      1.743      3.022
REMARK INTER + INTRA:          -5.315
REMARK INTER:                  -5.340
REMARK INTRA:                   0.025
REMARK UNBOUND:                -0.174
REMARK SMILES NC(=O)C[C@H]([NH3+])C(=O)[O-]
REMARK SMILES IDX 4 1 5 2 6 3 7 7 8 8 9 9 2 10 3 11 1 12
REMARK H PARENT 6 4 6 5 6 6 1 13 1 14
REMARK Flexibility Score: inf
ROOT
ATOM      1  C   UNL     1     -21.850  68.189  -0.547  1.00  0.00     0.171 C 
ENDROOT
BRANCH   1   2
ATOM      2  C   UNL     1     -20.711  68.152  -1.585  1.00  0.00     0.237 C 
BRANCH   2   3
ATOM      3  N   UNL     1     -20.779  66.919  -2.379  1.00  0.00    -0.350 N 
ATOM      4  H   UNL     1     -21.776  66.697  -2.604  1.00  0.00     0.345 HD
ATOM      5  H   UNL     1     -20.361  66.117  -1.852  1.00  0.00     0.345 HD
ATOM      6  H   UNL     1     -20.262  67.047  -3.279  1.00  0.00     0.345 HD
ENDBRANCH   2   3
BRANCH   2   7
ATOM      7  C   UNL     1     -19.365  68.269  -0.916  1.00  0.00     0.100 C 
ATOM      8  O   UNL     1     -18.811  67.256  -0.412  1.00  0.00    -0.544 OA
ATOM      9  O   UNL     1     -18.733  69.503  -0.841  1.00  0.00    -0.544 OA
ENDBRANCH   2   7
ENDBRANCH   1   2
BRANCH   1  10
ATOM     10  C   UNL     1     -21.505  69.065   0.623  1.00  0.00     0.223 C 
ATOM     11  O   UNL     1     -21.240  68.546   1.739  1.00  0.00    -0.275 OA
ATOM     12  N   UNL     1     -21.442  70.483   0.469  1.00  0.00    -0.369 N 
ATOM     13  H   UNL     1     -21.645  70.927  -0.454  1.00  0.00     0.159 HD
ATOM     14  H   UNL     1     -21.190  71.091   1.279  1.00  0.00     0.159 HD
ENDBRANCH   1  10
TORSDOF 4
ENDMDL
MODEL 7
REMARK VINA RESULT:    -4.048      1.850      2.131
REMARK INTER + INTRA:          -5.050
REMARK INTER:                  -4.983
REMARK INTRA:                  -0.067
REMARK UNBOUND:                -0.174
REMARK SMILES NC(=O)C[C@H]([NH3+])C(=O)[O-]
REMARK SMILES IDX 4 1 5 2 6 3 7 7 8 8 9 9 2 10 3 11 1 12
REMARK H PARENT 6 4 6 5 6 6 1 13 1 14
REMARK Flexibility Score: inf
ROOT
ATOM      1  C   UNL     1     -19.506  69.117  -0.781  1.00  0.00     0.171 C 
ENDROOT
BRANCH   1   2
ATOM      2  C   UNL     1     -20.938  69.615  -0.501  1.00  0.00     0.237 C 
BRANCH   2   3
ATOM      3  N   UNL     1     -20.909  70.963   0.078  1.00  0.00    -0.350 N 
ATOM      4  H   UNL     1     -20.286  71.580  -0.492  1.00  0.00     0.345 HD
ATOM      5  H   UNL     1     -20.555  70.936   1.063  1.00  0.00     0.345 HD
ATOM      6  H   UNL     1     -21.872  71.374   0.069  1.00  0.00     0.345 HD
ENDBRANCH   2   3
BRANCH   2   7
ATOM      7  C   UNL     1     -21.670  68.669   0.416  1.00  0.00     0.100 C 
ATOM      8  O   UNL     1     -22.618  67.962  -0.019  1.00  0.00    -0.544 OA
ATOM      9  O   UNL     1     -21.310  68.582   1.755  1.00  0.00    -0.544 OA
ENDBRANCH   2   7
ENDBRANCH   1   2
BRANCH   1  10
ATOM     10  C   UNL     1     -19.462  67.626  -0.955  1.00  0.00     0.223 C 
ATOM     11  O   UNL     1     -18.803  66.920  -0.148  1.00  0.00    -0.275 OA
ATOM     12  N   UNL     1     -20.192  67.001  -2.011  1.00  0.00    -0.369 N 
ATOM     13  H   UNL     1     -20.754  67.572  -2.679  1.00  0.00     0.159 HD
ATOM     14  H   UNL     1     -20.171  65.963  -2.124  1.00  0.00     0.159 HD
ENDBRANCH   1  10
TORSDOF 4
ENDMDL
MODEL 8
REMARK VINA RESULT:    -3.753      2.073      2.179
REMARK INTER + INTRA:          -4.695
REMARK INTER:                  -4.280
REMARK INTRA:                  -0.415
REMARK UNBOUND:                -0.174
REMARK SMILES NC(=O)C[C@H]([NH3+])C(=O)[O-]
REMARK SMILES IDX 4 1 5 2 6 3 7 7 8 8 9 9 2 10 3 11 1 12
REMARK H PARENT 6 4 6 5 6 6 1 13 1 14
REMARK Flexibility Score: inf
ROOT
ATOM      1  C   UNL     1     -20.187  68.509  -1.627  1.00  0.00     0.171 C 
ENDROOT
BRANCH   1   2
ATOM      2  C   UNL     1     -21.407  69.245  -1.038  1.00  0.00     0.237 C 
BRANCH   2   3
ATOM      3  N   UNL     1     -20.975  70.319  -0.137  1.00  0.00    -0.350 N 
ATOM      4  H   UNL     1     -19.944  70.470  -0.235  1.00  0.00     0.345 HD
ATOM      5  H   UNL     1     -21.192  70.077   0.858  1.00  0.00     0.345 HD
ATOM      6  H   UNL     1     -21.461  71.211  -0.388  1.00  0.00     0.345 HD
ENDBRANCH   2   3
BRANCH   2   7
ATOM      7  C   UNL     1     -22.317  68.287  -0.310  1.00  0.00     0.100 C 
ATOM      8  O   UNL     1     -22.247  68.165   0.942  1.00  0.00    -0.544 OA
ATOM      9  O   UNL     1     -23.231  67.522  -1.022  1.00  0.00    -0.544 OA
ENDBRANCH   2   7
ENDBRANCH   1   2
BRANCH   1  10
ATOM     10  C   UNL     1     -19.068  68.405  -0.629  1.00  0.00     0.223 C 
ATOM     11  O   UNL     1     -18.194  69.309  -0.572  1.00  0.00    -0.275 OA
ATOM     12  N   UNL     1     -19.010  67.304   0.278  1.00  0.00    -0.369 N 
ATOM     13  H   UNL     1     -19.737  66.555   0.252  1.00  0.00     0.159 HD
ATOM     14  H   UNL     1     -18.240  67.239   0.979  1.00  0.00     0.159 HD
ENDBRANCH   1  10
TORSDOF 4
ENDMDL
MODEL 9
REMARK VINA RESULT:    -2.901      2.127      3.301
REMARK INTER + INTRA:          -3.669
REMARK INTER:                  -3.917
REMARK INTRA:                   0.248
REMARK UNBOUND:                -0.174
REMARK SMILES NC(=O)C[C@H]([NH3+])C(=O)[O-]
REMARK SMILES IDX 4 1 5 2 6 3 7 7 8 8 9 9 2 10 3 11 1 12
REMARK H PARENT 6 4 6 5 6 6 1 13 1 14
REMARK Flexibility Score: inf
ROOT
ATOM      1  C   UNL     1     -21.957  68.305   0.511  1.00  0.00     0.171 C 
ENDROOT
BRANCH   1   2
ATOM      2  C   UNL     1     -20.727  69.235   0.535  1.00  0.00     0.237 C 
BRANCH   2   3
ATOM      3  N   UNL     1     -21.045  70.523  -0.091  1.00  0.00    -0.350 N 
ATOM      4  H   UNL     1     -21.556  70.364  -0.990  1.00  0.00     0.345 HD
ATOM      5  H   UNL     1     -20.171  71.065  -0.286  1.00  0.00     0.345 HD
ATOM      6  H   UNL     1     -21.664  71.082   0.541  1.00  0.00     0.345 HD
ENDBRANCH   2   3
BRANCH   2   7
ATOM      7  C   UNL     1     -19.551  68.594  -0.156  1.00  0.00     0.100 C 
ATOM      8  O   UNL     1     -18.983  69.173  -1.120  1.00  0.00    -0.544 OA
ATOM      9  O   UNL     1     -19.095  67.350   0.260  1.00  0.00    -0.544 OA
ENDBRANCH   2   7
ENDBRANCH   1   2
BRANCH   1  10
ATOM     10  C   UNL     1     -22.337  67.924  -0.892  1.00  0.00     0.223 C 
ATOM     11  O   UNL     1     -23.525  68.073  -1.281  1.00  0.00    -0.275 OA
ATOM     12  N   UNL     1     -21.351  67.429  -1.797  1.00  0.00    -0.369 N 
ATOM     13  H   UNL     1     -20.359  67.315  -1.494  1.00  0.00     0.159 HD
ATOM     14  H   UNL     1     -21.614  67.177  -2.776  1.00  0.00     0.159 HD
ENDBRANCH   1  10
TORSDOF 4
ENDMDL
