MODEL 1
REMARK VINA RESULT:    -3.981      0.000      0.000
REMARK INTER + INTRA:          -6.224
REMARK INTER:                  -5.377
REMARK INTRA:                  -0.846
REMARK UNBOUND:                -0.846
REMARK SMILES CC(=O)CCC=C(C)CCC=C(C)C
REMARK SMILES IDX 7 1 6 2 8 3 9 4 10 5 11 6 13 7 12 8 14 9 5 10 4 11 2 12 3 13
REMARK SMILES IDX 1 14
REMARK H PARENT
REMARK Flexibility Score: inf
ROOT
ATOM      1  C   UNL     1     -32.004   1.097  58.685  1.00  0.00    -0.077 C 
ATOM      2  C   UNL     1     -31.946  -0.228  58.952  1.00  0.00    -0.028 C 
ATOM      3  C   UNL     1     -32.128   2.126  59.785  1.00  0.00     0.039 C 
ENDROOT
BRANCH   1   4
ATOM      4  C   UNL     1     -31.930   1.562  57.247  1.00  0.00     0.034 C 
BRANCH   4   5
ATOM      5  C   UNL     1     -32.857   2.760  57.011  1.00  0.00     0.032 C 
BRANCH   5   6
ATOM      6  C   UNL     1     -33.968   2.410  56.050  1.00  0.00    -0.028 C 
ATOM      7  C   UNL     1     -36.252   1.759  55.411  1.00  0.00     0.039 C 
ATOM      8  C   UNL     1     -35.217   2.092  56.454  1.00  0.00    -0.080 C 
ATOM      9  C   UNL     1     -35.592   2.066  57.917  1.00  0.00     0.039 C 
ENDBRANCH   5   6
ENDBRANCH   4   5
ENDBRANCH   1   4
BRANCH   2  10
ATOM     10  C   UNL     1     -32.047  -0.828  60.332  1.00  0.00     0.035 C 
BRANCH  10  11
ATOM     11  C   UNL     1     -32.499  -2.290  60.258  1.00  0.00     0.079 C 
BRANCH  11  12
ATOM     12  C   UNL     1     -33.778  -2.491  61.027  1.00  0.00     0.130 C 
ATOM     13  O   UNL     1     -34.167  -3.625  61.262  1.00  0.00    -0.300 OA
ATOM     14  C   UNL     1     -34.582  -1.326  61.523  1.00  0.00     0.087 C 
ENDBRANCH  11  12
ENDBRANCH  10  11
ENDBRANCH   2  10
TORSDOF 6
ENDMDL
MODEL 2
REMARK VINA RESULT:    -3.887      2.824      6.277
REMARK INTER + INTRA:          -6.097
REMARK INTER:                  -5.401
REMARK INTRA:                  -0.696
REMARK UNBOUND:                -0.846
REMARK SMILES CC(=O)CCC=C(C)CCC=C(C)C
REMARK SMILES IDX 7 1 6 2 8 3 9 4 10 5 11 6 13 7 12 8 14 9 5 10 4 11 2 12 3 13
REMARK SMILES IDX 1 14
REMARK H PARENT
REMARK Flexibility Score: inf
ROOT
ATOM      1  C   UNL     1     -33.288   1.232  58.732  1.00  0.00    -0.077 C 
ATOM      2  C   UNL     1     -33.855   2.019  57.788  1.00  0.00    -0.028 C 
ATOM      3  C   UNL     1     -31.875   0.714  58.593  1.00  0.00     0.039 C 
ENDROOT
BRANCH   1   4
ATOM      4  C   UNL     1     -34.086   0.872  59.966  1.00  0.00     0.034 C 
BRANCH   4   5
ATOM      5  C   UNL     1     -33.224   0.091  60.966  1.00  0.00     0.032 C 
BRANCH   5   6
ATOM      6  C   UNL     1     -33.925  -1.164  61.427  1.00  0.00    -0.028 C 
ATOM      7  C   UNL     1     -34.303  -3.590  61.579  1.00  0.00     0.039 C 
ATOM      8  C   UNL     1     -33.532  -2.403  61.061  1.00  0.00    -0.080 C 
ATOM      9  C   UNL     1     -32.347  -2.619  60.151  1.00  0.00     0.039 C 
ENDBRANCH   5   6
ENDBRANCH   4   5
ENDBRANCH   1   4
BRANCH   2  10
ATOM     10  C   UNL     1     -33.188   2.422  56.497  1.00  0.00     0.035 C 
BRANCH  10  11
ATOM     11  C   UNL     1     -34.174   2.338  55.327  1.00  0.00     0.079 C 
BRANCH  11  12
ATOM     12  C   UNL     1     -35.156   3.478  55.377  1.00  0.00     0.130 C 
ATOM     13  O   UNL     1     -36.353   3.239  55.436  1.00  0.00    -0.300 OA
ATOM     14  C   UNL     1     -34.697   4.907  55.368  1.00  0.00     0.087 C 
ENDBRANCH  11  12
ENDBRANCH  10  11
ENDBRANCH   2  10
TORSDOF 6
ENDMDL
MODEL 3
REMARK VINA RESULT:    -3.801     17.150     20.752
REMARK INTER + INTRA:          -5.980
REMARK INTER:                  -5.394
REMARK INTRA:                  -0.586
REMARK UNBOUND:                -0.846
REMARK SMILES CC(=O)CCC=C(C)CCC=C(C)C
REMARK SMILES IDX 7 1 6 2 8 3 9 4 10 5 11 6 13 7 12 8 14 9 5 10 4 11 2 12 3 13
REMARK SMILES IDX 1 14
REMARK H PARENT
REMARK Flexibility Score: inf
ROOT
ATOM      1  C   UNL     1     -48.143  -1.065  45.370  1.00  0.00    -0.077 C 
ATOM      2  C   UNL     1     -49.201  -1.720  44.838  1.00  0.00    -0.028 C 
ATOM      3  C   UNL     1     -47.922   0.412  45.138  1.00  0.00     0.039 C 
ENDROOT
BRANCH   1   4
ATOM      4  C   UNL     1     -47.162  -1.830  46.231  1.00  0.00     0.034 C 
BRANCH   4   5
ATOM      5  C   UNL     1     -46.263  -2.727  45.372  1.00  0.00     0.032 C 
BRANCH   5   6
ATOM      6  C   UNL     1     -44.998  -3.099  46.107  1.00  0.00    -0.028 C 
ATOM      7  C   UNL     1     -42.875  -4.293  46.447  1.00  0.00     0.039 C 
ATOM      8  C   UNL     1     -44.107  -3.995  45.631  1.00  0.00    -0.080 C 
ATOM      9  C   UNL     1     -44.319  -4.695  44.311  1.00  0.00     0.039 C 
ENDBRANCH   5   6
ENDBRANCH   4   5
ENDBRANCH   1   4
BRANCH   2  10
ATOM     10  C   UNL     1     -50.231  -1.089  43.934  1.00  0.00     0.035 C 
BRANCH  10  11
ATOM     11  C   UNL     1     -51.521  -0.791  44.703  1.00  0.00     0.079 C 
BRANCH  11  12
ATOM     12  C   UNL     1     -51.666   0.687  44.948  1.00  0.00     0.130 C 
ATOM     13  O   UNL     1     -51.703   1.453  43.997  1.00  0.00    -0.300 OA
ATOM     14  C   UNL     1     -51.777   1.243  46.337  1.00  0.00     0.087 C 
ENDBRANCH  11  12
ENDBRANCH  10  11
ENDBRANCH   2  10
TORSDOF 6
ENDMDL
MODEL 4
REMARK VINA RESULT:    -3.790     18.852     21.565
REMARK INTER + INTRA:          -5.966
REMARK INTER:                  -4.571
REMARK INTRA:                  -1.395
REMARK UNBOUND:                -0.846
REMARK SMILES CC(=O)CCC=C(C)CCC=C(C)C
REMARK SMILES IDX 7 1 6 2 8 3 9 4 10 5 11 6 13 7 12 8 14 9 5 10 4 11 2 12 3 13
REMARK SMILES IDX 1 14
REMARK H PARENT
REMARK Flexibility Score: inf
ROOT
ATOM      1  C   UNL     1     -51.737   0.893  45.052  1.00  0.00    -0.077 C 
ATOM      2  C   UNL     1     -51.835   1.227  46.360  1.00  0.00    -0.028 C 
ATOM      3  C   UNL     1     -51.521   1.935  43.978  1.00  0.00     0.039 C 
ENDROOT
BRANCH   1   4
ATOM      4  C   UNL     1     -51.833  -0.564  44.656  1.00  0.00     0.034 C 
BRANCH   4   5
ATOM      5  C   UNL     1     -50.547  -1.027  43.959  1.00  0.00     0.032 C 
BRANCH   5   6
ATOM      6  C   UNL     1     -49.486  -1.402  44.965  1.00  0.00    -0.028 C 
ATOM      7  C   UNL     1     -47.357  -1.151  46.171  1.00  0.00     0.039 C 
ATOM      8  C   UNL     1     -48.352  -0.688  45.138  1.00  0.00    -0.080 C 
ATOM      9  C   UNL     1     -48.067   0.551  44.325  1.00  0.00     0.039 C 
ENDBRANCH   5   6
ENDBRANCH   4   5
ENDBRANCH   1   4
BRANCH   2  10
ATOM     10  C   UNL     1     -51.794   2.639  46.888  1.00  0.00     0.035 C 
BRANCH  10  11
ATOM     11  C   UNL     1     -50.647   2.813  47.887  1.00  0.00     0.079 C 
BRANCH  11  12
ATOM     12  C   UNL     1     -49.329   2.931  47.169  1.00  0.00     0.130 C 
ATOM     13  O   UNL     1     -49.252   3.618  46.162  1.00  0.00    -0.300 OA
ATOM     14  C   UNL     1     -48.100   2.230  47.670  1.00  0.00     0.087 C 
ENDBRANCH  11  12
ENDBRANCH  10  11
ENDBRANCH   2  10
TORSDOF 6
ENDMDL
MODEL 5
REMARK VINA RESULT:    -3.752      3.353      4.691
REMARK INTER + INTRA:          -5.915
REMARK INTER:                  -4.420
REMARK INTRA:                  -1.495
REMARK UNBOUND:                -0.846
REMARK SMILES CC(=O)CCC=C(C)CCC=C(C)C
REMARK SMILES IDX 7 1 6 2 8 3 9 4 10 5 11 6 13 7 12 8 14 9 5 10 4 11 2 12 3 13
REMARK SMILES IDX 1 14
REMARK H PARENT
REMARK Flexibility Score: inf
ROOT
ATOM      1  C   UNL     1     -33.507   2.235  56.887  1.00  0.00    -0.077 C 
ATOM      2  C   UNL     1     -34.374   2.119  57.919  1.00  0.00    -0.028 C 
ATOM      3  C   UNL     1     -32.011   2.224  57.097  1.00  0.00     0.039 C 
ENDROOT
BRANCH   1   4
ATOM      4  C   UNL     1     -34.053   2.366  55.481  1.00  0.00     0.034 C 
BRANCH   4   5
ATOM      5  C   UNL     1     -35.109   3.475  55.405  1.00  0.00     0.032 C 
BRANCH   5   6
ATOM      6  C   UNL     1     -34.484   4.838  55.584  1.00  0.00    -0.028 C 
ATOM      7  C   UNL     1     -34.183   7.043  56.632  1.00  0.00     0.039 C 
ATOM      8  C   UNL     1     -34.875   5.707  56.541  1.00  0.00    -0.080 C 
ATOM      9  C   UNL     1     -35.981   5.368  57.511  1.00  0.00     0.039 C 
ENDBRANCH   5   6
ENDBRANCH   4   5
ENDBRANCH   1   4
BRANCH   2  10
ATOM     10  C   UNL     1     -33.968   2.020  59.369  1.00  0.00     0.035 C 
BRANCH  10  11
ATOM     11  C   UNL     1     -34.104   3.377  60.066  1.00  0.00     0.079 C 
BRANCH  11  12
ATOM     12  C   UNL     1     -32.755   4.023  60.240  1.00  0.00     0.130 C 
ATOM     13  O   UNL     1     -32.019   3.646  61.138  1.00  0.00    -0.300 OA
ATOM     14  C   UNL     1     -32.288   5.115  59.323  1.00  0.00     0.087 C 
ENDBRANCH  11  12
ENDBRANCH  10  11
ENDBRANCH   2  10
TORSDOF 6
ENDMDL
MODEL 6
REMARK VINA RESULT:    -3.725      2.461      3.564
REMARK INTER + INTRA:          -5.878
REMARK INTER:                  -4.814
REMARK INTRA:                  -1.064
REMARK UNBOUND:                -0.846
REMARK SMILES CC(=O)CCC=C(C)CCC=C(C)C
REMARK SMILES IDX 7 1 6 2 8 3 9 4 10 5 11 6 13 7 12 8 14 9 5 10 4 11 2 12 3 13
REMARK SMILES IDX 1 14
REMARK H PARENT
REMARK Flexibility Score: inf
ROOT
ATOM      1  C   UNL     1     -32.985   2.532  56.839  1.00  0.00    -0.077 C 
ATOM      2  C   UNL     1     -33.447   3.507  57.655  1.00  0.00    -0.028 C 
ATOM      3  C   UNL     1     -31.875   1.597  57.263  1.00  0.00     0.039 C 
ENDROOT
BRANCH   1   4
ATOM      4  C   UNL     1     -33.606   2.363  55.470  1.00  0.00     0.034 C 
BRANCH   4   5
ATOM      5  C   UNL     1     -34.968   3.065  55.397  1.00  0.00     0.032 C 
BRANCH   5   6
ATOM      6  C   UNL     1     -36.020   2.156  54.807  1.00  0.00    -0.028 C 
ATOM      7  C   UNL     1     -37.876   0.543  54.872  1.00  0.00     0.039 C 
ATOM      8  C   UNL     1     -36.861   1.418  55.562  1.00  0.00    -0.080 C 
ATOM      9  C   UNL     1     -36.805   1.453  57.071  1.00  0.00     0.039 C 
ENDBRANCH   5   6
ENDBRANCH   4   5
ENDBRANCH   1   4
BRANCH   2  10
ATOM     10  C   UNL     1     -32.895   3.808  59.026  1.00  0.00     0.035 C 
BRANCH  10  11
ATOM     11  C   UNL     1     -33.839   3.294  60.118  1.00  0.00     0.079 C 
BRANCH  11  12
ATOM     12  C   UNL     1     -33.383   1.953  60.627  1.00  0.00     0.130 C 
ATOM     13  O   UNL     1     -32.401   1.886  61.351  1.00  0.00    -0.300 OA
ATOM     14  C   UNL     1     -34.115   0.692  60.274  1.00  0.00     0.087 C 
ENDBRANCH  11  12
ENDBRANCH  10  11
ENDBRANCH   2  10
TORSDOF 6
ENDMDL
MODEL 7
REMARK VINA RESULT:    -3.711     18.159     21.320
REMARK INTER + INTRA:          -5.860
REMARK INTER:                  -5.307
REMARK INTRA:                  -0.553
REMARK UNBOUND:                -0.846
REMARK SMILES CC(=O)CCC=C(C)CCC=C(C)C
REMARK SMILES IDX 7 1 6 2 8 3 9 4 10 5 11 6 13 7 12 8 14 9 5 10 4 11 2 12 3 13
REMARK SMILES IDX 1 14
REMARK H PARENT
REMARK Flexibility Score: inf
ROOT
ATOM      1  C   UNL     1     -50.743  -0.833  44.641  1.00  0.00    -0.077 C 
ATOM      2  C   UNL     1     -50.648   0.387  45.221  1.00  0.00    -0.028 C 
ATOM      3  C   UNL     1     -52.049  -1.352  44.086  1.00  0.00     0.039 C 
ENDROOT
BRANCH   1   4
ATOM      4  C   UNL     1     -49.503  -1.694  44.535  1.00  0.00     0.034 C 
BRANCH   4   5
ATOM      5  C   UNL     1     -48.479  -1.313  45.611  1.00  0.00     0.032 C 
BRANCH   5   6
ATOM      6  C   UNL     1     -47.298  -2.254  45.598  1.00  0.00    -0.028 C 
ATOM      7  C   UNL     1     -44.912  -2.851  45.593  1.00  0.00     0.039 C 
ATOM      8  C   UNL     1     -46.017  -1.827  45.607  1.00  0.00    -0.080 C 
ATOM      9  C   UNL     1     -45.675  -0.356  45.631  1.00  0.00     0.039 C 
ENDBRANCH   5   6
ENDBRANCH   4   5
ENDBRANCH   1   4
BRANCH   2  10
ATOM     10  C   UNL     1     -51.808   1.329  45.425  1.00  0.00     0.035 C 
BRANCH  10  11
ATOM     11  C   UNL     1     -52.052   1.576  46.916  1.00  0.00     0.079 C 
BRANCH  11  12
ATOM     12  C   UNL     1     -51.368   2.840  47.365  1.00  0.00     0.130 C 
ATOM     13  O   UNL     1     -50.505   2.784  48.228  1.00  0.00    -0.300 OA
ATOM     14  C   UNL     1     -51.712   4.171  46.764  1.00  0.00     0.087 C 
ENDBRANCH  11  12
ENDBRANCH  10  11
ENDBRANCH   2  10
TORSDOF 6
ENDMDL
MODEL 8
REMARK VINA RESULT:    -3.706     18.979     22.040
REMARK INTER + INTRA:          -5.852
REMARK INTER:                  -5.110
REMARK INTRA:                  -0.742
REMARK UNBOUND:                -0.846
REMARK SMILES CC(=O)CCC=C(C)CCC=C(C)C
REMARK SMILES IDX 7 1 6 2 8 3 9 4 10 5 11 6 13 7 12 8 14 9 5 10 4 11 2 12 3 13
REMARK SMILES IDX 1 14
REMARK H PARENT
REMARK Flexibility Score: inf
ROOT
ATOM      1  C   UNL     1     -50.873   1.819  45.272  1.00  0.00    -0.077 C 
ATOM      2  C   UNL     1     -51.733   0.813  45.553  1.00  0.00    -0.028 C 
ATOM      3  C   UNL     1     -49.449   1.554  44.843  1.00  0.00     0.039 C 
ENDROOT
BRANCH   1   4
ATOM      4  C   UNL     1     -51.356   3.250  45.377  1.00  0.00     0.034 C 
BRANCH   4   5
ATOM      5  C   UNL     1     -51.902   3.541  46.780  1.00  0.00     0.032 C 
BRANCH   5   6
ATOM      6  C   UNL     1     -50.841   3.332  47.834  1.00  0.00    -0.028 C 
ATOM      7  C   UNL     1     -48.978   3.994  49.297  1.00  0.00     0.039 C 
ATOM      8  C   UNL     1     -50.002   4.310  48.238  1.00  0.00    -0.080 C 
ATOM      9  C   UNL     1     -50.071   5.701  47.653  1.00  0.00     0.039 C 
ENDBRANCH   5   6
ENDBRANCH   4   5
ENDBRANCH   1   4
BRANCH   2  10
ATOM     10  C   UNL     1     -51.374  -0.651  45.525  1.00  0.00     0.035 C 
BRANCH  10  11
ATOM     11  C   UNL     1     -51.842  -1.301  44.219  1.00  0.00     0.079 C 
BRANCH  11  12
ATOM     12  C   UNL     1     -50.667  -1.816  43.431  1.00  0.00     0.130 C 
ATOM     13  O   UNL     1     -49.731  -2.336  44.018  1.00  0.00    -0.300 OA
ATOM     14  C   UNL     1     -50.626  -1.716  41.935  1.00  0.00     0.087 C 
ENDBRANCH  11  12
ENDBRANCH  10  11
ENDBRANCH   2  10
TORSDOF 6
ENDMDL
MODEL 9
REMARK VINA RESULT:    -3.629      3.794      5.031
REMARK INTER + INTRA:          -5.748
REMARK INTER:                  -4.332
REMARK INTRA:                  -1.416
REMARK UNBOUND:                -0.846
REMARK SMILES CC(=O)CCC=C(C)CCC=C(C)C
REMARK SMILES IDX 7 1 6 2 8 3 9 4 10 5 11 6 13 7 12 8 14 9 5 10 4 11 2 12 3 13
REMARK SMILES IDX 1 14
REMARK H PARENT
REMARK Flexibility Score: inf
ROOT
ATOM      1  C   UNL     1     -32.695   2.356  57.991  1.00  0.00    -0.077 C 
ATOM      2  C   UNL     1     -31.925   3.383  58.420  1.00  0.00    -0.028 C 
ATOM      3  C   UNL     1     -33.639   1.627  58.918  1.00  0.00     0.039 C 
ENDROOT
BRANCH   1   4
ATOM      4  C   UNL     1     -32.619   1.936  56.539  1.00  0.00     0.034 C 
BRANCH   4   5
ATOM      5  C   UNL     1     -33.948   2.200  55.822  1.00  0.00     0.032 C 
BRANCH   5   6
ATOM      6  C   UNL     1     -34.062   3.645  55.397  1.00  0.00    -0.028 C 
ATOM      7  C   UNL     1     -34.982   5.925  55.442  1.00  0.00     0.039 C 
ATOM      8  C   UNL     1     -34.952   4.503  55.940  1.00  0.00    -0.080 C 
ATOM      9  C   UNL     1     -35.908   4.069  57.025  1.00  0.00     0.039 C 
ENDBRANCH   5   6
ENDBRANCH   4   5
ENDBRANCH   1   4
BRANCH   2  10
ATOM     10  C   UNL     1     -31.876   3.878  59.843  1.00  0.00     0.035 C 
BRANCH  10  11
ATOM     11  C   UNL     1     -32.152   5.383  59.905  1.00  0.00     0.079 C 
BRANCH  11  12
ATOM     12  C   UNL     1     -33.606   5.669  59.641  1.00  0.00     0.130 C 
ATOM     13  O   UNL     1     -33.914   6.454  58.757  1.00  0.00    -0.300 OA
ATOM     14  C   UNL     1     -34.691   4.998  60.431  1.00  0.00     0.087 C 
ENDBRANCH  11  12
ENDBRANCH  10  11
ENDBRANCH   2  10
TORSDOF 6
ENDMDL
