MODEL 1
REMARK VINA RESULT:     1.390      0.000      0.000
REMARK INTER + INTRA:           1.390
REMARK INTER:                   1.390
REMARK INTRA:                   0.000
REMARK UNBOUND:                 0.000
REMARK SMILES CC1=CC(=O)[C@H]2C[C@@H]1C2(C)C
REMARK SMILES IDX 1 1 2 2 3 3 4 4 5 5 6 6 7 7 8 8 9 9 10 10 11 11
REMARK H PARENT
REMARK Flexibility Score: inf
ROOT
ATOM      1  C   UNL     1      11.451  39.681 -15.788  1.00  0.00     0.040 C 
ATOM      2  C   UNL     1      12.248  38.504 -16.252  1.00  0.00    -0.066 C 
ATOM      3  C   UNL     1      12.204  38.083 -17.546  1.00  0.00     0.047 C 
ATOM      4  C   UNL     1      13.023  36.873 -17.878  1.00  0.00     0.159 C 
ATOM      5  O   UNL     1      13.035  36.365 -19.030  1.00  0.00    -0.295 OA
ATOM      6  C   UNL     1      13.842  36.299 -16.722  1.00  0.00     0.067 C 
ATOM      7  C   UNL     1      14.495  37.538 -16.071  1.00  0.00     0.021 C 
ATOM      8  C   UNL     1      13.171  37.721 -15.294  1.00  0.00     0.022 C 
ATOM      9  C   UNL     1      12.924  36.194 -15.471  1.00  0.00    -0.019 C 
ATOM     10  C   UNL     1      13.568  35.357 -14.336  1.00  0.00     0.012 C 
ATOM     11  C   UNL     1      11.461  35.704 -15.667  1.00  0.00     0.012 C 
ENDROOT
TORSDOF 0
ENDMDL
MODEL 2
REMARK VINA RESULT:     2.185      1.685      3.512
REMARK INTER + INTRA:           2.185
REMARK INTER:                   2.185
REMARK INTRA:                   0.000
REMARK UNBOUND:                 0.000
REMARK SMILES CC1=CC(=O)[C@H]2C[C@@H]1C2(C)C
REMARK SMILES IDX 1 1 2 2 3 3 4 4 5 5 6 6 7 7 8 8 9 9 10 10 11 11
REMARK H PARENT
REMARK Flexibility Score: inf
ROOT
ATOM      1  C   UNL     1      10.801  34.940 -16.032  1.00  0.00     0.040 C 
ATOM      2  C   UNL     1      11.837  35.997 -16.243  1.00  0.00    -0.066 C 
ATOM      3  C   UNL     1      12.781  36.264 -15.298  1.00  0.00     0.047 C 
ATOM      4  C   UNL     1      13.744  37.367 -15.615  1.00  0.00     0.159 C 
ATOM      5  O   UNL     1      14.636  37.733 -14.806  1.00  0.00    -0.295 OA
ATOM      6  C   UNL     1      13.566  38.018 -16.987  1.00  0.00     0.067 C 
ATOM      7  C   UNL     1      13.392  36.823 -17.950  1.00  0.00     0.021 C 
ATOM      8  C   UNL     1      11.900  36.824 -17.545  1.00  0.00     0.022 C 
ATOM      9  C   UNL     1      12.057  38.332 -17.193  1.00  0.00    -0.019 C 
ATOM     10  C   UNL     1      11.807  39.252 -18.416  1.00  0.00     0.012 C 
ATOM     11  C   UNL     1      11.248  38.894 -15.989  1.00  0.00     0.012 C 
ENDROOT
TORSDOF 0
ENDMDL
MODEL 3
REMARK VINA RESULT:     3.068     11.631     12.898
REMARK INTER + INTRA:           3.068
REMARK INTER:                   3.068
REMARK INTRA:                   0.000
REMARK UNBOUND:                 0.000
REMARK SMILES CC1=CC(=O)[C@H]2C[C@@H]1C2(C)C
REMARK SMILES IDX 1 1 2 2 3 3 4 4 5 5 6 6 7 7 8 8 9 9 10 10 11 11
REMARK H PARENT
REMARK Flexibility Score: inf
ROOT
ATOM      1  C   UNL     1       3.113  30.868 -26.125  1.00  0.00     0.040 C 
ATOM      2  C   UNL     1       3.999  31.952 -25.599  1.00  0.00    -0.066 C 
ATOM      3  C   UNL     1       5.257  31.684 -25.150  1.00  0.00     0.047 C 
ATOM      4  C   UNL     1       6.034  32.850 -24.619  1.00  0.00     0.159 C 
ATOM      5  O   UNL     1       7.191  32.725 -24.140  1.00  0.00    -0.295 OA
ATOM      6  C   UNL     1       5.323  34.202 -24.698  1.00  0.00     0.067 C 
ATOM      7  C   UNL     1       4.731  34.233 -26.125  1.00  0.00     0.021 C 
ATOM      8  C   UNL     1       3.542  33.425 -25.556  1.00  0.00     0.022 C 
ATOM      9  C   UNL     1       3.874  34.029 -24.160  1.00  0.00    -0.019 C 
ATOM     10  C   UNL     1       3.167  35.389 -23.924  1.00  0.00     0.012 C 
ATOM     11  C   UNL     1       3.652  33.142 -22.904  1.00  0.00     0.012 C 
ENDROOT
TORSDOF 0
ENDMDL
MODEL 4
REMARK VINA RESULT:     3.154      1.744      3.052
REMARK INTER + INTRA:           3.154
REMARK INTER:                   3.154
REMARK INTRA:                   0.000
REMARK UNBOUND:                 0.000
REMARK SMILES CC1=CC(=O)[C@H]2C[C@@H]1C2(C)C
REMARK SMILES IDX 1 1 2 2 3 3 4 4 5 5 6 6 7 7 8 8 9 9 10 10 11 11
REMARK H PARENT
REMARK Flexibility Score: inf
ROOT
ATOM      1  C   UNL     1      12.871  40.200 -16.301  1.00  0.00     0.040 C 
ATOM      2  C   UNL     1      12.772  38.709 -16.229  1.00  0.00    -0.066 C 
ATOM      3  C   UNL     1      13.406  38.003 -15.252  1.00  0.00     0.047 C 
ATOM      4  C   UNL     1      13.255  36.514 -15.307  1.00  0.00     0.159 C 
ATOM      5  O   UNL     1      13.824  35.750 -14.484  1.00  0.00    -0.295 OA
ATOM      6  C   UNL     1      12.363  35.986 -16.431  1.00  0.00     0.067 C 
ATOM      7  C   UNL     1      11.121  36.903 -16.388  1.00  0.00     0.021 C 
ATOM      8  C   UNL     1      11.934  37.901 -17.243  1.00  0.00     0.022 C 
ATOM      9  C   UNL     1      12.769  36.692 -17.756  1.00  0.00    -0.019 C 
ATOM     10  C   UNL     1      12.132  36.022 -19.000  1.00  0.00     0.012 C 
ATOM     11  C   UNL     1      14.281  36.911 -18.043  1.00  0.00     0.012 C 
ENDROOT
TORSDOF 0
ENDMDL
MODEL 5
REMARK VINA RESULT:     3.184      2.050      3.219
REMARK INTER + INTRA:           3.184
REMARK INTER:                   3.184
REMARK INTRA:                   0.000
REMARK UNBOUND:                 0.000
REMARK SMILES CC1=CC(=O)[C@H]2C[C@@H]1C2(C)C
REMARK SMILES IDX 1 1 2 2 3 3 4 4 5 5 6 6 7 7 8 8 9 9 10 10 11 11
REMARK H PARENT
REMARK Flexibility Score: inf
ROOT
ATOM      1  C   UNL     1      14.782  37.648 -14.871  1.00  0.00     0.040 C 
ATOM      2  C   UNL     1      13.594  38.022 -15.700  1.00  0.00    -0.066 C 
ATOM      3  C   UNL     1      12.601  38.809 -15.201  1.00  0.00     0.047 C 
ATOM      4  C   UNL     1      11.450  39.086 -16.119  1.00  0.00     0.159 C 
ATOM      5  O   UNL     1      10.453  39.767 -15.762  1.00  0.00    -0.295 OA
ATOM      6  C   UNL     1      11.571  38.484 -17.520  1.00  0.00     0.067 C 
ATOM      7  C   UNL     1      13.018  38.812 -17.948  1.00  0.00     0.021 C 
ATOM      8  C   UNL     1      13.445  37.552 -17.162  1.00  0.00     0.022 C 
ATOM      9  C   UNL     1      12.007  36.998 -17.383  1.00  0.00    -0.019 C 
ATOM     10  C   UNL     1      11.874  36.219 -18.717  1.00  0.00     0.012 C 
ATOM     11  C   UNL     1      11.368  36.141 -16.254  1.00  0.00     0.012 C 
ENDROOT
TORSDOF 0
ENDMDL
MODEL 6
REMARK VINA RESULT:     3.313      1.733      2.959
REMARK INTER + INTRA:           3.313
REMARK INTER:                   3.313
REMARK INTRA:                   0.000
REMARK UNBOUND:                 0.000
REMARK SMILES CC1=CC(=O)[C@H]2C[C@@H]1C2(C)C
REMARK SMILES IDX 1 1 2 2 3 3 4 4 5 5 6 6 7 7 8 8 9 9 10 10 11 11
REMARK H PARENT
REMARK Flexibility Score: inf
ROOT
ATOM      1  C   UNL     1      11.841  36.114 -19.523  1.00  0.00     0.040 C 
ATOM      2  C   UNL     1      12.046  36.865 -18.247  1.00  0.00    -0.066 C 
ATOM      3  C   UNL     1      12.129  38.224 -18.229  1.00  0.00     0.047 C 
ATOM      4  C   UNL     1      12.367  38.857 -16.892  1.00  0.00     0.159 C 
ATOM      5  O   UNL     1      12.501  40.101 -16.751  1.00  0.00    -0.295 OA
ATOM      6  C   UNL     1      12.436  37.887 -15.712  1.00  0.00     0.067 C 
ATOM      7  C   UNL     1      11.238  36.938 -15.933  1.00  0.00     0.021 C 
ATOM      8  C   UNL     1      12.155  36.141 -16.888  1.00  0.00     0.022 C 
ATOM      9  C   UNL     1      13.372  36.706 -16.097  1.00  0.00    -0.019 C 
ATOM     10  C   UNL     1      13.742  35.824 -14.877  1.00  0.00     0.012 C 
ATOM     11  C   UNL     1      14.676  37.022 -16.882  1.00  0.00     0.012 C 
ENDROOT
TORSDOF 0
ENDMDL
MODEL 7
REMARK VINA RESULT:     3.602      1.540      3.208
REMARK INTER + INTRA:           3.602
REMARK INTER:                   3.602
REMARK INTRA:                   0.000
REMARK UNBOUND:                 0.000
REMARK SMILES CC1=CC(=O)[C@H]2C[C@@H]1C2(C)C
REMARK SMILES IDX 1 1 2 2 3 3 4 4 5 5 6 6 7 7 8 8 9 9 10 10 11 11
REMARK H PARENT
REMARK Flexibility Score: inf
ROOT
ATOM      1  C   UNL     1      14.850  36.448 -18.957  1.00  0.00     0.040 C 
ATOM      2  C   UNL     1      13.779  36.572 -17.921  1.00  0.00    -0.066 C 
ATOM      3  C   UNL     1      12.679  35.769 -17.938  1.00  0.00     0.047 C 
ATOM      4  C   UNL     1      11.663  36.013 -16.865  1.00  0.00     0.159 C 
ATOM      5  O   UNL     1      10.586  35.363 -16.797  1.00  0.00    -0.295 OA
ATOM      6  C   UNL     1      12.023  37.106 -15.858  1.00  0.00     0.067 C 
ATOM      7  C   UNL     1      13.497  36.814 -15.497  1.00  0.00     0.021 C 
ATOM      8  C   UNL     1      13.875  37.600 -16.773  1.00  0.00     0.022 C 
ATOM      9  C   UNL     1      12.519  38.354 -16.641  1.00  0.00    -0.019 C 
ATOM     10  C   UNL     1      12.631  39.610 -15.738  1.00  0.00     0.012 C 
ATOM     11  C   UNL     1      11.771  38.756 -17.943  1.00  0.00     0.012 C 
ENDROOT
TORSDOF 0
ENDMDL
MODEL 8
REMARK VINA RESULT:     3.994     11.823     12.933
REMARK INTER + INTRA:           3.994
REMARK INTER:                   3.994
REMARK INTRA:                   0.000
REMARK UNBOUND:                 0.000
REMARK SMILES CC1=CC(=O)[C@H]2C[C@@H]1C2(C)C
REMARK SMILES IDX 1 1 2 2 3 3 4 4 5 5 6 6 7 7 8 8 9 9 10 10 11 11
REMARK H PARENT
REMARK Flexibility Score: inf
ROOT
ATOM      1  C   UNL     1       3.322  32.992 -21.921  1.00  0.00     0.040 C 
ATOM      2  C   UNL     1       3.624  33.478 -23.302  1.00  0.00    -0.066 C 
ATOM      3  C   UNL     1       2.741  34.255 -23.989  1.00  0.00     0.047 C 
ATOM      4  C   UNL     1       3.146  34.651 -25.376  1.00  0.00     0.159 C 
ATOM      5  O   UNL     1       2.399  35.335 -26.125  1.00  0.00    -0.295 OA
ATOM      6  C   UNL     1       4.527  34.168 -25.819  1.00  0.00     0.067 C 
ATOM      7  C   UNL     1       5.440  34.479 -24.612  1.00  0.00     0.021 C 
ATOM      8  C   UNL     1       4.954  33.141 -24.009  1.00  0.00     0.022 C 
ATOM      9  C   UNL     1       4.661  32.660 -25.460  1.00  0.00    -0.019 C 
ATOM     10  C   UNL     1       5.898  32.004 -26.125  1.00  0.00     0.012 C 
ATOM     11  C   UNL     1       3.435  31.734 -25.694  1.00  0.00     0.012 C 
ENDROOT
TORSDOF 0
ENDMDL
