MODEL 1
REMARK VINA RESULT:     0.000      0.000      0.000
REMARK INTER + INTRA:           0.000
REMARK INTER:                   0.000
REMARK INTRA:                   0.000
REMARK UNBOUND:                 0.000
REMARK SMILES Cc1cc(O)c2c(c1)C(=O)c1cc(O)cc(O)c1C2=O
REMARK SMILES IDX 1 1 2 2 8 3 7 4 6 5 4 6 3 7 19 8 20 9 18 10 11 11 9 12 10 13
REMARK SMILES IDX 12 14 13 15 15 16 16 17 5 18 17 20 14 22
REMARK H PARENT 5 19 17 21 14 23
REMARK Flexibility Score: inf
ROOT
ATOM      1  C   UNL     1     191.485 184.769 214.522  1.00  0.00     0.044 C 
ATOM      2  C   UNL     1     191.954 184.984 213.112  1.00  0.00    -0.047 A 
ATOM      3  C   UNL     1     191.251 184.420 212.042  1.00  0.00     0.016 A 
ATOM      4  C   UNL     1     191.706 184.578 210.723  1.00  0.00     0.038 A 
ATOM      5  C   UNL     1     192.900 185.290 210.471  1.00  0.00     0.076 A 
ATOM      6  C   UNL     1     193.584 185.899 211.555  1.00  0.00     0.127 A 
ATOM      7  C   UNL     1     193.123 185.711 212.862  1.00  0.00     0.050 A 
ATOM      8  C   UNL     1     193.426 185.310 209.082  1.00  0.00     0.201 C 
ATOM      9  O   UNL     1     194.668 185.393 208.882  1.00  0.00    -0.288 OA
ATOM     10  C   UNL     1     192.511 185.041 207.942  1.00  0.00     0.076 A 
ATOM     11  C   UNL     1     191.318 184.329 208.199  1.00  0.00     0.041 A 
ATOM     12  C   UNL     1     190.937 184.003 209.593  1.00  0.00     0.194 C 
ATOM     13  O   UNL     1     189.944 183.259 209.819  1.00  0.00    -0.289 OA
ATOM     14  C   UNL     1     190.496 183.935 207.128  1.00  0.00     0.059 A 
ATOM     15  C   UNL     1     190.839 184.256 205.816  1.00  0.00     0.120 A 
ATOM     16  C   UNL     1     191.996 184.995 205.561  1.00  0.00     0.093 A 
ATOM     17  C   UNL     1     192.821 185.416 206.608  1.00  0.00     0.131 A 
ENDROOT
BRANCH   6  18
ATOM     18  O   UNL     1     194.700 186.721 211.379  1.00  0.00    -0.507 OA
ATOM     19  H   UNL     1     194.956 187.133 210.492  1.00  0.00     0.293 HD
ENDBRANCH   6  18
BRANCH  17  20
ATOM     20  O   UNL     1     193.911 186.228 206.286  1.00  0.00    -0.507 OA
ATOM     21  H   UNL     1     193.870 187.238 206.272  1.00  0.00     0.293 HD
ENDBRANCH  17  20
BRANCH  15  22
ATOM     22  O   UNL     1     190.014 183.845 204.770  1.00  0.00    -0.508 OA
ATOM     23  H   UNL     1     189.005 183.860 204.854  1.00  0.00     0.293 HD
ENDBRANCH  15  22
TORSDOF 3
ENDMDL
MODEL 2
REMARK VINA RESULT:     0.000     12.015     14.279
REMARK INTER + INTRA:           0.000
REMARK INTER:                   0.000
REMARK INTRA:                   0.000
REMARK UNBOUND:                 0.000
REMARK SMILES Cc1cc(O)c2c(c1)C(=O)c1cc(O)cc(O)c1C2=O
REMARK SMILES IDX 1 1 2 2 8 3 7 4 6 5 4 6 3 7 19 8 20 9 18 10 11 11 9 12 10 13
REMARK SMILES IDX 12 14 13 15 15 16 16 17 5 18 17 20 14 22
REMARK H PARENT 5 19 17 21 14 23
REMARK Flexibility Score: inf
ROOT
ATOM      1  C   UNL     1     180.961 184.769 217.591  1.00  0.00     0.044 C 
ATOM      2  C   UNL     1     181.124 183.279 217.672  1.00  0.00    -0.047 A 
ATOM      3  C   UNL     1     181.984 182.615 216.791  1.00  0.00     0.016 A 
ATOM      4  C   UNL     1     182.109 181.217 216.830  1.00  0.00     0.038 A 
ATOM      5  C   UNL     1     181.341 180.467 217.749  1.00  0.00     0.076 A 
ATOM      6  C   UNL     1     180.506 181.149 218.671  1.00  0.00     0.127 A 
ATOM      7  C   UNL     1     180.382 182.539 218.599  1.00  0.00     0.050 A 
ATOM      8  C   UNL     1     181.392 178.984 217.660  1.00  0.00     0.201 C 
ATOM      9  O   UNL     1     180.387 178.302 217.996  1.00  0.00    -0.288 OA
ATOM     10  C   UNL     1     182.548 178.323 217.001  1.00  0.00     0.076 A 
ATOM     11  C   UNL     1     183.312 179.077 216.083  1.00  0.00     0.041 A 
ATOM     12  C   UNL     1     183.046 180.525 215.913  1.00  0.00     0.194 C 
ATOM     13  O   UNL     1     183.637 181.173 215.006  1.00  0.00    -0.289 OA
ATOM     14  C   UNL     1     184.325 178.450 215.337  1.00  0.00     0.059 A 
ATOM     15  C   UNL     1     184.594 177.092 215.507  1.00  0.00     0.120 A 
ATOM     16  C   UNL     1     183.868 176.353 216.443  1.00  0.00     0.093 A 
ATOM     17  C   UNL     1     182.868 176.956 217.211  1.00  0.00     0.131 A 
ENDROOT
BRANCH   6  18
ATOM     18  O   UNL     1     179.811 180.492 219.689  1.00  0.00    -0.507 OA
ATOM     19  H   UNL     1     180.025 179.553 219.997  1.00  0.00     0.293 HD
ENDBRANCH   6  18
BRANCH  17  20
ATOM     20  O   UNL     1     182.247 176.176 218.190  1.00  0.00    -0.507 OA
ATOM     21  H   UNL     1     182.570 176.118 219.146  1.00  0.00     0.293 HD
ENDBRANCH  17  20
BRANCH  15  22
ATOM     22  O   UNL     1     185.595 176.490 214.748  1.00  0.00    -0.508 OA
ATOM     23  H   UNL     1     186.464 176.968 214.541  1.00  0.00     0.293 HD
ENDBRANCH  15  22
TORSDOF 3
ENDMDL
MODEL 3
REMARK VINA RESULT:     0.000     14.312     16.567
REMARK INTER + INTRA:           0.000
REMARK INTER:                   0.000
REMARK INTRA:                   0.000
REMARK UNBOUND:                 0.000
REMARK SMILES Cc1cc(O)c2c(c1)C(=O)c1cc(O)cc(O)c1C2=O
REMARK SMILES IDX 1 1 2 2 8 3 7 4 6 5 4 6 3 7 19 8 20 9 18 10 11 11 9 12 10 13
REMARK SMILES IDX 12 14 13 15 15 16 16 17 5 18 17 20 14 22
REMARK H PARENT 5 19 17 21 14 23
REMARK Flexibility Score: inf
ROOT
ATOM      1  C   UNL     1     179.765 182.368 217.722  1.00  0.00     0.044 C 
ATOM      2  C   UNL     1     180.205 181.103 218.400  1.00  0.00    -0.047 A 
ATOM      3  C   UNL     1     181.311 180.394 217.921  1.00  0.00     0.016 A 
ATOM      4  C   UNL     1     181.703 179.186 218.521  1.00  0.00     0.038 A 
ATOM      5  C   UNL     1     180.960 178.665 219.604  1.00  0.00     0.076 A 
ATOM      6  C   UNL     1     179.867 179.411 220.116  1.00  0.00     0.127 A 
ATOM      7  C   UNL     1     179.483 180.600 219.489  1.00  0.00     0.050 A 
ATOM      8  C   UNL     1     181.317 177.316 220.115  1.00  0.00     0.201 C 
ATOM      9  O   UNL     1     180.427 176.581 220.620  1.00  0.00    -0.288 OA
ATOM     10  C   UNL     1     182.673 176.764 219.859  1.00  0.00     0.076 A 
ATOM     11  C   UNL     1     183.412 177.289 218.774  1.00  0.00     0.041 A 
ATOM     12  C   UNL     1     182.895 178.458 218.025  1.00  0.00     0.194 C 
ATOM     13  O   UNL     1     183.485 178.849 216.980  1.00  0.00    -0.289 OA
ATOM     14  C   UNL     1     184.637 176.700 218.415  1.00  0.00     0.059 A 
ATOM     15  C   UNL     1     185.138 175.612 219.129  1.00  0.00     0.120 A 
ATOM     16  C   UNL     1     184.430 175.117 220.226  1.00  0.00     0.093 A 
ATOM     17  C   UNL     1     183.219 175.695 220.617  1.00  0.00     0.131 A 
ENDROOT
BRANCH   6  18
ATOM     18  O   UNL     1     179.160 179.027 221.257  1.00  0.00    -0.507 OA
ATOM     19  H   UNL     1     179.579 178.542 222.038  1.00  0.00     0.293 HD
ENDBRANCH   6  18
BRANCH  17  20
ATOM     20  O   UNL     1     182.614 175.206 221.777  1.00  0.00    -0.507 OA
ATOM     21  H   UNL     1     181.637 174.954 221.834  1.00  0.00     0.293 HD
ENDBRANCH  17  20
BRANCH  15  22
ATOM     22  O   UNL     1     186.349 175.038 218.746  1.00  0.00    -0.508 OA
ATOM     23  H   UNL     1     187.163 175.606 218.543  1.00  0.00     0.293 HD
ENDBRANCH  15  22
TORSDOF 3
ENDMDL
MODEL 4
REMARK VINA RESULT:     0.000     12.402     14.674
REMARK INTER + INTRA:           0.000
REMARK INTER:                   0.000
REMARK INTRA:                   0.000
REMARK UNBOUND:                 0.000
REMARK SMILES Cc1cc(O)c2c(c1)C(=O)c1cc(O)cc(O)c1C2=O
REMARK SMILES IDX 1 1 2 2 8 3 7 4 6 5 4 6 3 7 19 8 20 9 18 10 11 11 9 12 10 13
REMARK SMILES IDX 12 14 13 15 15 16 16 17 5 18 17 20 14 22
REMARK H PARENT 5 19 17 21 14 23
REMARK Flexibility Score: inf
ROOT
ATOM      1  C   UNL     1     181.265 183.402 216.775  1.00  0.00     0.044 C 
ATOM      2  C   UNL     1     181.731 182.171 217.495  1.00  0.00    -0.047 A 
ATOM      3  C   UNL     1     182.799 181.421 216.991  1.00  0.00     0.016 A 
ATOM      4  C   UNL     1     183.214 180.243 217.634  1.00  0.00     0.038 A 
ATOM      5  C   UNL     1     182.532 179.793 218.786  1.00  0.00     0.076 A 
ATOM      6  C   UNL     1     181.480 180.581 219.320  1.00  0.00     0.127 A 
ATOM      7  C   UNL     1     181.071 181.739 218.651  1.00  0.00     0.050 A 
ATOM      8  C   UNL     1     182.905 178.469 219.350  1.00  0.00     0.201 C 
ATOM      9  O   UNL     1     182.039 177.776 219.948  1.00  0.00    -0.288 OA
ATOM     10  C   UNL     1     184.238 177.886 219.046  1.00  0.00     0.076 A 
ATOM     11  C   UNL     1     184.916 178.340 217.892  1.00  0.00     0.041 A 
ATOM     12  C   UNL     1     184.367 179.473 217.110  1.00  0.00     0.194 C 
ATOM     13  O   UNL     1     184.897 179.797 216.012  1.00  0.00    -0.289 OA
ATOM     14  C   UNL     1     186.111 177.716 217.494  1.00  0.00     0.059 A 
ATOM     15  C   UNL     1     186.643 176.662 218.237  1.00  0.00     0.120 A 
ATOM     16  C   UNL     1     185.997 176.238 219.400  1.00  0.00     0.093 A 
ATOM     17  C   UNL     1     184.817 176.854 219.829  1.00  0.00     0.131 A 
ENDROOT
BRANCH   6  18
ATOM     18  O   UNL     1     180.838 180.271 220.521  1.00  0.00    -0.507 OA
ATOM     19  H   UNL     1     179.857 180.037 220.586  1.00  0.00     0.293 HD
ENDBRANCH   6  18
BRANCH  17  20
ATOM     20  O   UNL     1     184.278 176.438 221.048  1.00  0.00    -0.507 OA
ATOM     21  H   UNL     1     183.808 175.553 221.178  1.00  0.00     0.293 HD
ENDBRANCH  17  20
BRANCH  15  22
ATOM     22  O   UNL     1     187.823 176.052 217.816  1.00  0.00    -0.508 OA
ATOM     23  H   UNL     1     188.227 176.249 216.908  1.00  0.00     0.293 HD
ENDBRANCH  15  22
TORSDOF 3
ENDMDL
MODEL 5
REMARK VINA RESULT:     0.000      9.262     11.761
REMARK INTER + INTRA:           0.000
REMARK INTER:                   0.000
REMARK INTRA:                   0.000
REMARK UNBOUND:                 0.000
REMARK SMILES Cc1cc(O)c2c(c1)C(=O)c1cc(O)cc(O)c1C2=O
REMARK SMILES IDX 1 1 2 2 8 3 7 4 6 5 4 6 3 7 19 8 20 9 18 10 11 11 9 12 10 13
REMARK SMILES IDX 12 14 13 15 15 16 16 17 5 18 17 20 14 22
REMARK H PARENT 5 19 17 21 14 23
REMARK Flexibility Score: inf
ROOT
ATOM      1  C   UNL     1     181.265 190.217 209.959  1.00  0.00     0.044 C 
ATOM      2  C   UNL     1     181.423 189.245 211.091  1.00  0.00    -0.047 A 
ATOM      3  C   UNL     1     182.547 188.415 211.155  1.00  0.00     0.016 A 
ATOM      4  C   UNL     1     182.683 187.471 212.186  1.00  0.00     0.038 A 
ATOM      5  C   UNL     1     181.665 187.337 213.156  1.00  0.00     0.076 A 
ATOM      6  C   UNL     1     180.550 188.213 213.114  1.00  0.00     0.127 A 
ATOM      7  C   UNL     1     180.426 189.131 212.066  1.00  0.00     0.050 A 
ATOM      8  C   UNL     1     181.776 186.231 214.143  1.00  0.00     0.201 C 
ATOM      9  O   UNL     1     180.733 185.706 214.616  1.00  0.00    -0.288 OA
ATOM     10  C   UNL     1     183.102 185.622 214.423  1.00  0.00     0.076 A 
ATOM     11  C   UNL     1     184.117 185.758 213.449  1.00  0.00     0.041 A 
ATOM     12  C   UNL     1     183.893 186.617 212.262  1.00  0.00     0.194 C 
ATOM     13  O   UNL     1     184.743 186.641 211.330  1.00  0.00    -0.289 OA
ATOM     14  C   UNL     1     185.338 185.081 213.614  1.00  0.00     0.059 A 
ATOM     15  C   UNL     1     185.563 184.287 214.738  1.00  0.00     0.120 A 
ATOM     16  C   UNL     1     184.578 184.183 215.722  1.00  0.00     0.093 A 
ATOM     17  C   UNL     1     183.362 184.861 215.593  1.00  0.00     0.131 A 
ENDROOT
BRANCH   6  18
ATOM     18  O   UNL     1     179.564 188.229 214.103  1.00  0.00    -0.507 OA
ATOM     19  H   UNL     1     178.778 188.864 214.099  1.00  0.00     0.293 HD
ENDBRANCH   6  18
BRANCH  17  20
ATOM     20  O   UNL     1     182.462 184.783 216.658  1.00  0.00    -0.507 OA
ATOM     21  H   UNL     1     181.923 183.956 216.874  1.00  0.00     0.293 HD
ENDBRANCH  17  20
BRANCH  15  22
ATOM     22  O   UNL     1     186.777 183.616 214.874  1.00  0.00    -0.508 OA
ATOM     23  H   UNL     1     187.443 183.567 214.112  1.00  0.00     0.293 HD
ENDBRANCH  15  22
TORSDOF 3
ENDMDL
MODEL 6
REMARK VINA RESULT:     0.000     16.120     18.503
REMARK INTER + INTRA:           0.000
REMARK INTER:                   0.000
REMARK INTRA:                   0.000
REMARK UNBOUND:                 0.000
REMARK SMILES Cc1cc(O)c2c(c1)C(=O)c1cc(O)cc(O)c1C2=O
REMARK SMILES IDX 1 1 2 2 8 3 7 4 6 5 4 6 3 7 19 8 20 9 18 10 11 11 9 12 10 13
REMARK SMILES IDX 12 14 13 15 15 16 16 17 5 18 17 20 14 22
REMARK H PARENT 5 19 17 21 14 23
REMARK Flexibility Score: inf
ROOT
ATOM      1  C   UNL     1     176.908 185.538 217.063  1.00  0.00     0.044 C 
ATOM      2  C   UNL     1     177.061 186.805 217.852  1.00  0.00    -0.047 A 
ATOM      3  C   UNL     1     178.280 187.491 217.854  1.00  0.00     0.016 A 
ATOM      4  C   UNL     1     178.447 188.653 218.624  1.00  0.00     0.038 A 
ATOM      5  C   UNL     1     177.384 189.125 219.427  1.00  0.00     0.076 A 
ATOM      6  C   UNL     1     176.135 188.452 219.385  1.00  0.00     0.127 A 
ATOM      7  C   UNL     1     175.999 187.286 218.626  1.00  0.00     0.050 A 
ATOM      8  C   UNL     1     177.646 190.269 220.338  1.00  0.00     0.201 C 
ATOM      9  O   UNL     1     177.009 190.367 221.421  1.00  0.00    -0.288 OA
ATOM     10  C   UNL     1     178.783 191.186 220.064  1.00  0.00     0.076 A 
ATOM     11  C   UNL     1     179.844 190.710 219.261  1.00  0.00     0.041 A 
ATOM     12  C   UNL     1     179.733 189.390 218.596  1.00  0.00     0.194 C 
ATOM     13  O   UNL     1     180.725 188.906 217.985  1.00  0.00    -0.289 OA
ATOM     14  C   UNL     1     180.998 191.494 219.093  1.00  0.00     0.059 A 
ATOM     15  C   UNL     1     181.100 192.746 219.699  1.00  0.00     0.120 A 
ATOM     16  C   UNL     1     180.036 193.237 220.459  1.00  0.00     0.093 A 
ATOM     17  C   UNL     1     178.869 192.486 220.627  1.00  0.00     0.131 A 
ENDROOT
BRANCH   6  18
ATOM     18  O   UNL     1     175.001 188.923 220.050  1.00  0.00    -0.507 OA
ATOM     19  H   UNL     1     174.057 188.762 219.729  1.00  0.00     0.293 HD
ENDBRANCH   6  18
BRANCH  17  20
ATOM     20  O   UNL     1     177.814 193.079 221.324  1.00  0.00    -0.507 OA
ATOM     21  H   UNL     1     177.943 193.758 222.061  1.00  0.00     0.293 HD
ENDBRANCH  17  20
BRANCH  15  22
ATOM     22  O   UNL     1     182.258 193.501 219.527  1.00  0.00    -0.508 OA
ATOM     23  H   UNL     1     182.842 193.762 220.313  1.00  0.00     0.293 HD
ENDBRANCH  15  22
TORSDOF 3
ENDMDL
MODEL 7
REMARK VINA RESULT:     0.000      4.373      6.970
REMARK INTER + INTRA:           0.000
REMARK INTER:                   0.000
REMARK INTRA:                   0.000
REMARK UNBOUND:                 0.000
REMARK SMILES Cc1cc(O)c2c(c1)C(=O)c1cc(O)cc(O)c1C2=O
REMARK SMILES IDX 1 1 2 2 8 3 7 4 6 5 4 6 3 7 19 8 20 9 18 10 11 11 9 12 10 13
REMARK SMILES IDX 12 14 13 15 15 16 16 17 5 18 17 20 14 22
REMARK H PARENT 5 19 17 21 14 23
REMARK Flexibility Score: inf
ROOT
ATOM      1  C   UNL     1     183.918 184.579 215.785  1.00  0.00     0.044 C 
ATOM      2  C   UNL     1     184.919 184.295 214.703  1.00  0.00    -0.047 A 
ATOM      3  C   UNL     1     186.287 184.288 214.993  1.00  0.00     0.016 A 
ATOM      4  C   UNL     1     187.233 184.067 213.979  1.00  0.00     0.038 A 
ATOM      5  C   UNL     1     186.805 183.876 212.646  1.00  0.00     0.076 A 
ATOM      6  C   UNL     1     185.414 183.838 212.366  1.00  0.00     0.127 A 
ATOM      7  C   UNL     1     184.492 184.081 213.388  1.00  0.00     0.050 A 
ATOM      8  C   UNL     1     187.838 183.792 211.581  1.00  0.00     0.201 C 
ATOM      9  O   UNL     1     187.571 184.189 210.416  1.00  0.00    -0.288 OA
ATOM     10  C   UNL     1     189.233 183.421 211.934  1.00  0.00     0.076 A 
ATOM     11  C   UNL     1     189.657 183.614 213.268  1.00  0.00     0.041 A 
ATOM     12  C   UNL     1     188.680 184.030 214.302  1.00  0.00     0.194 C 
ATOM     13  O   UNL     1     189.076 184.327 215.462  1.00  0.00    -0.289 OA
ATOM     14  C   UNL     1     191.005 183.407 213.609  1.00  0.00     0.059 A 
ATOM     15  C   UNL     1     191.925 182.996 212.646  1.00  0.00     0.120 A 
ATOM     16  C   UNL     1     191.502 182.765 211.336  1.00  0.00     0.093 A 
ATOM     17  C   UNL     1     190.163 182.945 210.973  1.00  0.00     0.131 A 
ENDROOT
BRANCH   6  18
ATOM     18  O   UNL     1     184.907 183.532 211.100  1.00  0.00    -0.507 OA
ATOM     19  H   UNL     1     184.014 183.085 210.949  1.00  0.00     0.293 HD
ENDBRANCH   6  18
BRANCH  17  20
ATOM     20  O   UNL     1     189.796 182.607 209.669  1.00  0.00    -0.507 OA
ATOM     21  H   UNL     1     188.902 182.201 209.428  1.00  0.00     0.293 HD
ENDBRANCH  17  20
BRANCH  15  22
ATOM     22  O   UNL     1     193.259 182.808 213.005  1.00  0.00    -0.508 OA
ATOM     23  H   UNL     1     194.002 183.355 212.588  1.00  0.00     0.293 HD
ENDBRANCH  15  22
TORSDOF 3
ENDMDL
MODEL 8
REMARK VINA RESULT:     0.000      8.987     11.073
REMARK INTER + INTRA:           0.000
REMARK INTER:                   0.000
REMARK INTRA:                   0.000
REMARK UNBOUND:                 0.000
REMARK SMILES Cc1cc(O)c2c(c1)C(=O)c1cc(O)cc(O)c1C2=O
REMARK SMILES IDX 1 1 2 2 8 3 7 4 6 5 4 6 3 7 19 8 20 9 18 10 11 11 9 12 10 13
REMARK SMILES IDX 12 14 13 15 15 16 16 17 5 18 17 20 14 22
REMARK H PARENT 5 19 17 21 14 23
REMARK Flexibility Score: inf
ROOT
ATOM      1  C   UNL     1     184.703 184.420 220.089  1.00  0.00     0.044 C 
ATOM      2  C   UNL     1     185.986 183.975 219.449  1.00  0.00    -0.047 A 
ATOM      3  C   UNL     1     187.207 184.181 220.100  1.00  0.00     0.016 A 
ATOM      4  C   UNL     1     188.416 183.808 219.490  1.00  0.00     0.038 A 
ATOM      5  C   UNL     1     188.406 183.243 218.195  1.00  0.00     0.076 A 
ATOM      6  C   UNL     1     187.162 182.994 217.559  1.00  0.00     0.127 A 
ATOM      7  C   UNL     1     185.973 183.392 218.177  1.00  0.00     0.050 A 
ATOM      8  C   UNL     1     189.710 182.999 217.525  1.00  0.00     0.201 C 
ATOM      9  O   UNL     1     189.790 183.059 216.269  1.00  0.00    -0.288 OA
ATOM     10  C   UNL     1     190.946 182.874 218.340  1.00  0.00     0.076 A 
ATOM     11  C   UNL     1     190.951 183.441 219.635  1.00  0.00     0.041 A 
ATOM     12  C   UNL     1     189.702 184.002 220.201  1.00  0.00     0.194 C 
ATOM     13  O   UNL     1     189.730 184.622 221.299  1.00  0.00    -0.289 OA
ATOM     14  C   UNL     1     192.142 183.465 220.381  1.00  0.00     0.059 A 
ATOM     15  C   UNL     1     193.316 182.920 219.863  1.00  0.00     0.120 A 
ATOM     16  C   UNL     1     193.305 182.323 218.601  1.00  0.00     0.093 A 
ATOM     17  C   UNL     1     192.130 182.267 217.845  1.00  0.00     0.131 A 
ENDROOT
BRANCH   6  18
ATOM     18  O   UNL     1     187.060 182.328 216.335  1.00  0.00    -0.507 OA
ATOM     19  H   UNL     1     187.856 182.094 215.758  1.00  0.00     0.293 HD
ENDBRANCH   6  18
BRANCH  17  20
ATOM     20  O   UNL     1     192.174 181.575 216.632  1.00  0.00    -0.507 OA
ATOM     21  H   UNL     1     192.317 182.023 215.738  1.00  0.00     0.293 HD
ENDBRANCH  17  20
BRANCH  15  22
ATOM     22  O   UNL     1     194.487 182.967 220.617  1.00  0.00    -0.508 OA
ATOM     23  H   UNL     1     194.675 182.288 221.345  1.00  0.00     0.293 HD
ENDBRANCH  15  22
TORSDOF 3
ENDMDL
MODEL 9
REMARK VINA RESULT:     0.000      8.072     10.403
REMARK INTER + INTRA:           0.000
REMARK INTER:                   0.000
REMARK INTRA:                   0.000
REMARK UNBOUND:                 0.000
REMARK SMILES Cc1cc(O)c2c(c1)C(=O)c1cc(O)cc(O)c1C2=O
REMARK SMILES IDX 1 1 2 2 8 3 7 4 6 5 4 6 3 7 19 8 20 9 18 10 11 11 9 12 10 13
REMARK SMILES IDX 12 14 13 15 15 16 16 17 5 18 17 20 14 22
REMARK H PARENT 5 19 17 21 14 23
REMARK Flexibility Score: inf
ROOT
ATOM      1  C   UNL     1     184.820 186.065 203.809  1.00  0.00     0.044 C 
ATOM      2  C   UNL     1     184.335 186.304 205.209  1.00  0.00    -0.047 A 
ATOM      3  C   UNL     1     184.546 185.340 206.202  1.00  0.00     0.016 A 
ATOM      4  C   UNL     1     184.057 185.534 207.504  1.00  0.00     0.038 A 
ATOM      5  C   UNL     1     183.321 186.701 207.813  1.00  0.00     0.076 A 
ATOM      6  C   UNL     1     183.150 187.695 206.816  1.00  0.00     0.127 A 
ATOM      7  C   UNL     1     183.628 187.470 205.521  1.00  0.00     0.050 A 
ATOM      8  C   UNL     1     182.697 186.801 209.158  1.00  0.00     0.201 C 
ATOM      9  O   UNL     1     181.629 187.453 209.306  1.00  0.00    -0.288 OA
ATOM     10  C   UNL     1     183.223 185.981 210.280  1.00  0.00     0.076 A 
ATOM     11  C   UNL     1     183.958 184.815 209.965  1.00  0.00     0.041 A 
ATOM     12  C   UNL     1     184.312 184.522 208.556  1.00  0.00     0.194 C 
ATOM     13  O   UNL     1     184.855 183.423 208.257  1.00  0.00    -0.289 OA
ATOM     14  C   UNL     1     184.353 183.941 210.993  1.00  0.00     0.059 A 
ATOM     15  C   UNL     1     184.040 184.221 212.322  1.00  0.00     0.120 A 
ATOM     16  C   UNL     1     183.350 185.392 212.641  1.00  0.00     0.093 A 
ATOM     17  C   UNL     1     182.962 186.289 211.641  1.00  0.00     0.131 A 
ENDROOT
BRANCH   6  18
ATOM     18  O   UNL     1     182.544 188.927 207.074  1.00  0.00    -0.507 OA
ATOM     19  H   UNL     1     182.250 189.567 206.350  1.00  0.00     0.293 HD
ENDBRANCH   6  18
BRANCH  17  20
ATOM     20  O   UNL     1     182.356 187.482 212.042  1.00  0.00    -0.507 OA
ATOM     21  H   UNL     1     181.355 187.618 212.069  1.00  0.00     0.293 HD
ENDBRANCH  17  20
BRANCH  15  22
ATOM     22  O   UNL     1     184.433 183.334 213.322  1.00  0.00    -0.508 OA
ATOM     23  H   UNL     1     185.259 183.501 213.885  1.00  0.00     0.293 HD
ENDBRANCH  15  22
TORSDOF 3
ENDMDL
