MODEL 1
REMARK VINA RESULT:    -5.904      0.000      0.000
REMARK INTER + INTRA:          -6.077
REMARK INTER:                  -6.077
REMARK INTRA:                   0.000
REMARK UNBOUND:                 0.000
REMARK SMILES O=c1ccc2cc(O)ccc2o1
REMARK SMILES IDX 9 1 10 2 11 3 5 4 4 5 3 6 2 7 1 8 12 9 6 10 7 11 8 12
REMARK H PARENT 8 13
REMARK Flexibility Score: inf
ROOT
ATOM      1  C   UNL     1     -29.008  -4.386  -1.359  1.00  0.00     0.050 A 
ATOM      2  C   UNL     1     -29.449  -4.960  -0.163  1.00  0.00     0.052 A 
ATOM      3  C   UNL     1     -29.262  -6.327   0.070  1.00  0.00     0.138 A 
ATOM      4  C   UNL     1     -28.626  -7.123  -0.908  1.00  0.00     0.021 A 
ATOM      5  C   UNL     1     -28.453  -8.486  -0.647  1.00  0.00     0.019 A 
ATOM      6  C   UNL     1     -28.908  -9.015   0.560  1.00  0.00     0.094 A 
ATOM      7  C   UNL     1     -29.530  -8.166   1.482  1.00  0.00     0.336 A 
ATOM      8  O   UNL     1     -29.947  -8.625   2.576  1.00  0.00    -0.246 OA
ATOM      9  O   UNL     1     -29.681  -6.872   1.209  1.00  0.00    -0.423 OA
ATOM     10  C   UNL     1     -28.185  -6.543  -2.107  1.00  0.00     0.058 A 
ATOM     11  C   UNL     1     -28.378  -5.172  -2.331  1.00  0.00     0.116 A 
ENDROOT
BRANCH  11  12
ATOM     12  O   UNL     1     -27.946  -4.580  -3.516  1.00  0.00    -0.508 OA
ATOM     13  H   UNL     1     -28.570  -4.022  -4.088  1.00  0.00     0.293 HD
ENDBRANCH  11  12
TORSDOF 1
ENDMDL
MODEL 2
REMARK VINA RESULT:    -5.689      1.599      4.144
REMARK INTER + INTRA:          -5.855
REMARK INTER:                  -5.855
REMARK INTRA:                   0.000
REMARK UNBOUND:                 0.000
REMARK SMILES O=c1ccc2cc(O)ccc2o1
REMARK SMILES IDX 9 1 10 2 11 3 5 4 4 5 3 6 2 7 1 8 12 9 6 10 7 11 8 12
REMARK H PARENT 8 13
REMARK Flexibility Score: inf
ROOT
ATOM      1  C   UNL     1     -29.384  -8.591   1.329  1.00  0.00     0.050 A 
ATOM      2  C   UNL     1     -29.700  -7.229   1.323  1.00  0.00     0.052 A 
ATOM      3  C   UNL     1     -29.288  -6.418   0.260  1.00  0.00     0.138 A 
ATOM      4  C   UNL     1     -28.553  -6.981  -0.807  1.00  0.00     0.021 A 
ATOM      5  C   UNL     1     -28.155  -6.145  -1.855  1.00  0.00     0.019 A 
ATOM      6  C   UNL     1     -28.494  -4.793  -1.819  1.00  0.00     0.094 A 
ATOM      7  C   UNL     1     -29.224  -4.305  -0.729  1.00  0.00     0.336 A 
ATOM      8  O   UNL     1     -29.539  -3.088  -0.679  1.00  0.00    -0.246 OA
ATOM      9  O   UNL     1     -29.591  -5.122   0.255  1.00  0.00    -0.423 OA
ATOM     10  C   UNL     1     -28.238  -8.347  -0.797  1.00  0.00     0.058 A 
ATOM     11  C   UNL     1     -28.655  -9.153   0.274  1.00  0.00     0.116 A 
ENDROOT
BRANCH  11  12
ATOM     12  O   UNL     1     -28.350 -10.512   0.299  1.00  0.00    -0.508 OA
ATOM     13  H   UNL     1     -27.982 -10.957   1.132  1.00  0.00     0.293 HD
ENDBRANCH  11  12
TORSDOF 1
ENDMDL
MODEL 3
REMARK VINA RESULT:    -5.617      1.430      2.196
REMARK INTER + INTRA:          -5.781
REMARK INTER:                  -5.781
REMARK INTRA:                   0.000
REMARK UNBOUND:                 0.000
REMARK SMILES O=c1ccc2cc(O)ccc2o1
REMARK SMILES IDX 9 1 10 2 11 3 5 4 4 5 3 6 2 7 1 8 12 9 6 10 7 11 8 12
REMARK H PARENT 8 13
REMARK Flexibility Score: inf
ROOT
ATOM      1  C   UNL     1     -28.259  -5.460  -2.271  1.00  0.00     0.050 A 
ATOM      2  C   UNL     1     -28.006  -6.798  -1.953  1.00  0.00     0.052 A 
ATOM      3  C   UNL     1     -28.523  -7.350  -0.777  1.00  0.00     0.138 A 
ATOM      4  C   UNL     1     -29.302  -6.551   0.088  1.00  0.00     0.021 A 
ATOM      5  C   UNL     1     -29.805  -7.130   1.257  1.00  0.00     0.019 A 
ATOM      6  C   UNL     1     -29.527  -8.468   1.533  1.00  0.00     0.094 A 
ATOM      7  C   UNL     1     -28.748  -9.199   0.629  1.00  0.00     0.336 A 
ATOM      8  O   UNL     1     -28.487 -10.408   0.860  1.00  0.00    -0.246 OA
ATOM      9  O   UNL     1     -28.281  -8.624  -0.477  1.00  0.00    -0.423 OA
ATOM     10  C   UNL     1     -29.553  -5.209  -0.233  1.00  0.00     0.058 A 
ATOM     11  C   UNL     1     -29.030  -4.664  -1.415  1.00  0.00     0.116 A 
ENDROOT
BRANCH  11  12
ATOM     12  O   UNL     1     -29.271  -3.333  -1.750  1.00  0.00    -0.508 OA
ATOM     13  H   UNL     1     -28.644  -2.818  -2.358  1.00  0.00     0.293 HD
ENDBRANCH  11  12
TORSDOF 1
ENDMDL
MODEL 4
REMARK VINA RESULT:    -5.493      9.993     11.716
REMARK INTER + INTRA:          -5.653
REMARK INTER:                  -5.653
REMARK INTRA:                   0.000
REMARK UNBOUND:                 0.000
REMARK SMILES O=c1ccc2cc(O)ccc2o1
REMARK SMILES IDX 9 1 10 2 11 3 5 4 4 5 3 6 2 7 1 8 12 9 6 10 7 11 8 12
REMARK H PARENT 8 13
REMARK Flexibility Score: inf
ROOT
ATOM      1  C   UNL     1     -31.489 -14.876   4.576  1.00  0.00     0.050 A 
ATOM      2  C   UNL     1     -32.564 -14.323   3.873  1.00  0.00     0.052 A 
ATOM      3  C   UNL     1     -33.852 -14.843   4.038  1.00  0.00     0.138 A 
ATOM      4  C   UNL     1     -34.061 -15.929   4.917  1.00  0.00     0.021 A 
ATOM      5  C   UNL     1     -35.359 -16.428   5.060  1.00  0.00     0.019 A 
ATOM      6  C   UNL     1     -36.401 -15.845   4.340  1.00  0.00     0.094 A 
ATOM      7  C   UNL     1     -36.119 -14.772   3.487  1.00  0.00     0.336 A 
ATOM      8  O   UNL     1     -37.045 -14.232   2.829  1.00  0.00    -0.246 OA
ATOM      9  O   UNL     1     -34.874 -14.315   3.369  1.00  0.00    -0.423 OA
ATOM     10  C   UNL     1     -32.980 -16.481   5.619  1.00  0.00     0.058 A 
ATOM     11  C   UNL     1     -31.692 -15.952   5.448  1.00  0.00     0.116 A 
ENDROOT
BRANCH  11  12
ATOM     12  O   UNL     1     -30.608 -16.489   6.138  1.00  0.00    -0.508 OA
ATOM     13  H   UNL     1     -30.656 -17.405   6.570  1.00  0.00     0.293 HD
ENDBRANCH  11  12
TORSDOF 1
ENDMDL
MODEL 5
REMARK VINA RESULT:    -5.483      1.585      2.129
REMARK INTER + INTRA:          -5.643
REMARK INTER:                  -5.643
REMARK INTRA:                   0.000
REMARK UNBOUND:                 0.000
REMARK SMILES O=c1ccc2cc(O)ccc2o1
REMARK SMILES IDX 9 1 10 2 11 3 5 4 4 5 3 6 2 7 1 8 12 9 6 10 7 11 8 12
REMARK H PARENT 8 13
REMARK Flexibility Score: inf
ROOT
ATOM      1  C   UNL     1     -30.424  -3.976   0.029  1.00  0.00     0.050 A 
ATOM      2  C   UNL     1     -30.201  -5.240   0.585  1.00  0.00     0.052 A 
ATOM      3  C   UNL     1     -29.407  -6.172  -0.091  1.00  0.00     0.138 A 
ATOM      4  C   UNL     1     -28.832  -5.831  -1.336  1.00  0.00     0.021 A 
ATOM      5  C   UNL     1     -28.043  -6.784  -1.988  1.00  0.00     0.019 A 
ATOM      6  C   UNL     1     -27.847  -8.032  -1.396  1.00  0.00     0.094 A 
ATOM      7  C   UNL     1     -28.448  -8.299  -0.161  1.00  0.00     0.336 A 
ATOM      8  O   UNL     1     -28.283  -9.419   0.388  1.00  0.00    -0.246 OA
ATOM      9  O   UNL     1     -29.194  -7.374   0.439  1.00  0.00    -0.423 OA
ATOM     10  C   UNL     1     -29.059  -4.563  -1.889  1.00  0.00     0.058 A 
ATOM     11  C   UNL     1     -29.857  -3.635  -1.204  1.00  0.00     0.116 A 
ENDROOT
BRANCH  11  12
ATOM     12  O   UNL     1     -30.092  -2.370  -1.740  1.00  0.00    -0.508 OA
ATOM     13  H   UNL     1     -29.573  -2.030  -2.541  1.00  0.00     0.293 HD
ENDBRANCH  11  12
TORSDOF 1
ENDMDL
MODEL 6
REMARK VINA RESULT:    -5.408      5.048      6.295
REMARK INTER + INTRA:          -5.566
REMARK INTER:                  -5.566
REMARK INTRA:                   0.000
REMARK UNBOUND:                 0.000
REMARK SMILES O=c1ccc2cc(O)ccc2o1
REMARK SMILES IDX 9 1 10 2 11 3 5 4 4 5 3 6 2 7 1 8 12 9 6 10 7 11 8 12
REMARK H PARENT 8 13
REMARK Flexibility Score: inf
ROOT
ATOM      1  C   UNL     1     -31.326  -8.470   2.671  1.00  0.00     0.050 A 
ATOM      2  C   UNL     1     -30.510  -9.501   2.192  1.00  0.00     0.052 A 
ATOM      3  C   UNL     1     -31.072 -10.729   1.831  1.00  0.00     0.138 A 
ATOM      4  C   UNL     1     -32.465 -10.925   1.951  1.00  0.00     0.021 A 
ATOM      5  C   UNL     1     -32.998 -12.164   1.582  1.00  0.00     0.019 A 
ATOM      6  C   UNL     1     -32.147 -13.162   1.110  1.00  0.00     0.094 A 
ATOM      7  C   UNL     1     -30.776 -12.897   1.018  1.00  0.00     0.336 A 
ATOM      8  O   UNL     1     -29.991 -13.785   0.594  1.00  0.00    -0.246 OA
ATOM      9  O   UNL     1     -30.294 -11.709   1.375  1.00  0.00    -0.423 OA
ATOM     10  C   UNL     1     -33.280  -9.889   2.432  1.00  0.00     0.058 A 
ATOM     11  C   UNL     1     -32.707  -8.660   2.792  1.00  0.00     0.116 A 
ENDROOT
BRANCH  11  12
ATOM     12  O   UNL     1     -33.503  -7.621   3.271  1.00  0.00    -0.508 OA
ATOM     13  H   UNL     1     -34.510  -7.630   3.158  1.00  0.00     0.293 HD
ENDBRANCH  11  12
TORSDOF 1
ENDMDL
MODEL 7
REMARK VINA RESULT:    -5.402      8.455     10.756
REMARK INTER + INTRA:          -5.559
REMARK INTER:                  -5.559
REMARK INTRA:                   0.000
REMARK UNBOUND:                 0.000
REMARK SMILES O=c1ccc2cc(O)ccc2o1
REMARK SMILES IDX 9 1 10 2 11 3 5 4 4 5 3 6 2 7 1 8 12 9 6 10 7 11 8 12
REMARK H PARENT 8 13
REMARK Flexibility Score: inf
ROOT
ATOM      1  C   UNL     1     -32.259 -13.432   2.684  1.00  0.00     0.050 A 
ATOM      2  C   UNL     1     -33.549 -13.970   2.737  1.00  0.00     0.052 A 
ATOM      3  C   UNL     1     -33.886 -14.888   3.738  1.00  0.00     0.138 A 
ATOM      4  C   UNL     1     -32.918 -15.269   4.693  1.00  0.00     0.021 A 
ATOM      5  C   UNL     1     -33.284 -16.188   5.681  1.00  0.00     0.019 A 
ATOM      6  C   UNL     1     -34.582 -16.698   5.695  1.00  0.00     0.094 A 
ATOM      7  C   UNL     1     -35.488 -16.275   4.716  1.00  0.00     0.336 A 
ATOM      8  O   UNL     1     -36.664 -16.723   4.712  1.00  0.00    -0.246 OA
ATOM      9  O   UNL     1     -35.114 -15.398   3.787  1.00  0.00    -0.423 OA
ATOM     10  C   UNL     1     -31.626 -14.727   4.636  1.00  0.00     0.058 A 
ATOM     11  C   UNL     1     -31.297 -13.808   3.629  1.00  0.00     0.116 A 
ENDROOT
BRANCH  11  12
ATOM     12  O   UNL     1     -30.018 -13.261   3.559  1.00  0.00    -0.508 OA
ATOM     13  H   UNL     1     -29.635 -12.918   2.685  1.00  0.00     0.293 HD
ENDBRANCH  11  12
TORSDOF 1
ENDMDL
MODEL 8
REMARK VINA RESULT:    -5.344      8.263     11.277
REMARK INTER + INTRA:          -5.500
REMARK INTER:                  -5.500
REMARK INTRA:                   0.000
REMARK UNBOUND:                 0.000
REMARK SMILES O=c1ccc2cc(O)ccc2o1
REMARK SMILES IDX 9 1 10 2 11 3 5 4 4 5 3 6 2 7 1 8 12 9 6 10 7 11 8 12
REMARK H PARENT 8 13
REMARK Flexibility Score: inf
ROOT
ATOM      1  C   UNL     1     -34.912 -16.302   5.300  1.00  0.00     0.050 A 
ATOM      2  C   UNL     1     -34.909 -15.492   4.160  1.00  0.00     0.052 A 
ATOM      3  C   UNL     1     -33.744 -14.816   3.784  1.00  0.00     0.138 A 
ATOM      4  C   UNL     1     -32.572 -14.955   4.559  1.00  0.00     0.021 A 
ATOM      5  C   UNL     1     -31.423 -14.266   4.158  1.00  0.00     0.019 A 
ATOM      6  C   UNL     1     -31.466 -13.470   3.014  1.00  0.00     0.094 A 
ATOM      7  C   UNL     1     -32.663 -13.379   2.296  1.00  0.00     0.336 A 
ATOM      8  O   UNL     1     -32.722 -12.666   1.261  1.00  0.00    -0.246 OA
ATOM      9  O   UNL     1     -33.743 -14.045   2.699  1.00  0.00    -0.423 OA
ATOM     10  C   UNL     1     -32.580 -15.769   5.701  1.00  0.00     0.058 A 
ATOM     11  C   UNL     1     -33.753 -16.443   6.071  1.00  0.00     0.116 A 
ENDROOT
BRANCH  11  12
ATOM     12  O   UNL     1     -33.777 -17.255   7.203  1.00  0.00    -0.508 OA
ATOM     13  H   UNL     1     -34.039 -16.889   8.112  1.00  0.00     0.293 HD
ENDBRANCH  11  12
TORSDOF 1
ENDMDL
MODEL 9
REMARK VINA RESULT:    -5.299      4.812      6.311
REMARK INTER + INTRA:          -5.454
REMARK INTER:                  -5.454
REMARK INTRA:                   0.000
REMARK UNBOUND:                 0.000
REMARK SMILES O=c1ccc2cc(O)ccc2o1
REMARK SMILES IDX 9 1 10 2 11 3 5 4 4 5 3 6 2 7 1 8 12 9 6 10 7 11 8 12
REMARK H PARENT 8 13
REMARK Flexibility Score: inf
ROOT
ATOM      1  C   UNL     1     -34.182 -10.642   1.649  1.00  0.00     0.050 A 
ATOM      2  C   UNL     1     -32.933 -11.195   1.347  1.00  0.00     0.052 A 
ATOM      3  C   UNL     1     -31.762 -10.542   1.747  1.00  0.00     0.138 A 
ATOM      4  C   UNL     1     -31.847  -9.324   2.455  1.00  0.00     0.021 A 
ATOM      5  C   UNL     1     -30.659  -8.694   2.841  1.00  0.00     0.019 A 
ATOM      6  C   UNL     1     -29.436  -9.283   2.519  1.00  0.00     0.094 A 
ATOM      7  C   UNL     1     -29.430 -10.492   1.815  1.00  0.00     0.336 A 
ATOM      8  O   UNL     1     -28.337 -11.039   1.516  1.00  0.00    -0.246 OA
ATOM      9  O   UNL     1     -30.575 -11.071   1.460  1.00  0.00    -0.423 OA
ATOM     10  C   UNL     1     -33.101  -8.772   2.755  1.00  0.00     0.058 A 
ATOM     11  C   UNL     1     -34.270  -9.434   2.350  1.00  0.00     0.116 A 
ENDROOT
BRANCH  11  12
ATOM     12  O   UNL     1     -35.523  -8.899   2.640  1.00  0.00    -0.508 OA
ATOM     13  H   UNL     1     -36.206  -8.726   1.912  1.00  0.00     0.293 HD
ENDBRANCH  11  12
TORSDOF 1
ENDMDL
