MODEL 1
REMARK VINA RESULT:    -3.821      0.000      0.000
REMARK INTER + INTRA:          -6.261
REMARK INTER:                  -5.831
REMARK INTRA:                  -0.429
REMARK UNBOUND:                -0.429
REMARK SMILES CC1=CCC[C@H](C)C(=O)C[C@H](C(C)C)C(=O)C1
REMARK SMILES IDX 8 1 9 2 6 3 7 4 5 5 4 6 3 7 2 8 1 9 10 11 11 12 15 13 16 14
REMARK SMILES IDX 17 15 12 17 13 18 14 19
REMARK H PARENT
REMARK Flexibility Score: 70.00
ROOT
ATOM      1  C   UNL     1     213.955 203.810 216.915  1.00  0.00     0.136 C 
ATOM      2  O   UNL     1     214.761 203.896 217.832  1.00  0.00    -0.299 OA
ENDROOT
BRANCH   1   3
ATOM      3  C   UNL     1     212.688 204.659 216.983  1.00  0.00     0.053 C 
ATOM      4  C   UNL     1     211.971 204.447 218.327  1.00  0.00     0.016 C 
BRANCH   3   5
ATOM      5  C   UNL     1     212.994 206.161 216.778  1.00  0.00     0.015 C 
BRANCH   5   6
ATOM      6  C   UNL     1     213.417 206.530 215.345  1.00  0.00     0.028 C 
BRANCH   6   7
ATOM      7  C   UNL     1     212.325 206.251 214.339  1.00  0.00    -0.028 C 
ATOM      8  C   UNL     1     212.352 205.306 213.369  1.00  0.00    -0.070 CG0
ATOM      9  C   UNL     1     211.139 205.177 212.482  1.00  0.00     0.039 C 
ATOM     10  G   UNL     1     213.508 204.343 213.151  1.00  0.00     0.000 G0
ENDBRANCH   6   7
ENDBRANCH   5   6
ENDBRANCH   3   5
ENDBRANCH   1   3
BRANCH   1  11
ATOM     11  C   UNL     1     214.341 202.948 215.722  1.00  0.00     0.087 C 
BRANCH  11  12
ATOM     12  C   UNL     1     213.161 202.370 214.893  1.00  0.00     0.066 C 
BRANCH  12  13
ATOM     13  C   UNL     1     213.143 202.918 213.474  1.00  0.00     0.140 C 
ATOM     14  O   UNL     1     212.903 202.148 212.554  1.00  0.00    -0.299 OA
BRANCH  13  15
ATOM     15  C   UNL     1     213.527 204.344 213.146  1.00  0.00     0.106 CG0
ATOM     16  G   UNL     1     212.360 205.296 213.357  1.00  0.00     0.000 G0
ENDBRANCH  13  15
ENDBRANCH  12  13
BRANCH  12  17
ATOM     17  C   UNL     1     213.161 200.803 214.856  1.00  0.00    -0.006 C 
ATOM     18  C   UNL     1     214.581 200.208 214.925  1.00  0.00     0.008 C 
ATOM     19  C   UNL     1     212.327 200.212 216.012  1.00  0.00     0.008 C 
ENDBRANCH  12  17
ENDBRANCH  11  12
ENDBRANCH   1  11
TORSDOF 1
ENDMDL
MODEL 2
REMARK VINA RESULT:    -3.796     13.734     15.387
REMARK INTER + INTRA:          -6.223
REMARK INTER:                  -5.839
REMARK INTRA:                  -0.385
REMARK UNBOUND:                -0.429
REMARK SMILES CC1=CCC[C@H](C)C(=O)C[C@H](C(C)C)C(=O)C1
REMARK SMILES IDX 8 1 9 2 6 3 7 4 5 5 4 6 3 7 2 8 1 9 10 11 11 12 15 13 16 14
REMARK SMILES IDX 17 15 12 17 13 18 14 19
REMARK H PARENT
REMARK Flexibility Score: 70.00
ROOT
ATOM      1  C   UNL     1     198.331 208.538 217.069  1.00  0.00     0.136 C 
ATOM      2  O   UNL     1     197.521 208.327 217.962  1.00  0.00    -0.299 OA
ENDROOT
BRANCH   1   3
ATOM      3  C   UNL     1     199.630 207.737 217.065  1.00  0.00     0.053 C 
ATOM      4  C   UNL     1     200.350 207.876 218.416  1.00  0.00     0.016 C 
BRANCH   3   5
ATOM      5  C   UNL     1     199.380 206.244 216.750  1.00  0.00     0.015 C 
BRANCH   5   6
ATOM      6  C   UNL     1     198.793 205.982 215.352  1.00  0.00     0.028 C 
BRANCH   6   7
ATOM      7  C   UNL     1     199.783 206.286 214.252  1.00  0.00    -0.028 C 
ATOM      8  C   UNL     1     199.659 207.249 213.306  1.00  0.00    -0.070 CG0
ATOM      9  C   UNL     1     200.781 207.402 212.311  1.00  0.00     0.039 C 
ATOM     10  G   UNL     1     198.482 208.208 213.218  1.00  0.00     0.000 G0
ENDBRANCH   6   7
ENDBRANCH   5   6
ENDBRANCH   3   5
ENDBRANCH   1   3
BRANCH   1  11
ATOM     11  C   UNL     1     197.919 209.501 215.964  1.00  0.00     0.087 C 
BRANCH  11  12
ATOM     12  C   UNL     1     199.069 210.033 215.065  1.00  0.00     0.066 C 
BRANCH  12  13
ATOM     13  C   UNL     1     198.891 209.620 213.613  1.00  0.00     0.140 C 
ATOM     14  O   UNL     1     198.987 210.478 212.745  1.00  0.00    -0.299 OA
BRANCH  13  15
ATOM     15  C   UNL     1     198.481 208.221 213.208  1.00  0.00     0.106 CG0
ATOM     16  G   UNL     1     199.646 207.249 213.309  1.00  0.00     0.000 G0
ENDBRANCH  13  15
ENDBRANCH  12  13
BRANCH  12  17
ATOM     17  C   UNL     1     199.235 211.589 215.157  1.00  0.00    -0.006 C 
ATOM     18  C   UNL     1     197.883 212.328 215.220  1.00  0.00     0.008 C 
ATOM     19  C   UNL     1     200.071 211.995 216.389  1.00  0.00     0.008 C 
ENDBRANCH  12  17
ENDBRANCH  11  12
ENDBRANCH   1  11
TORSDOF 1
ENDMDL
MODEL 3
REMARK VINA RESULT:    -3.361      2.047      4.224
REMARK INTER + INTRA:          -5.558
REMARK INTER:                  -5.491
REMARK INTRA:                  -0.067
REMARK UNBOUND:                -0.429
REMARK SMILES CC1=CCC[C@H](C)C(=O)C[C@H](C(C)C)C(=O)C1
REMARK SMILES IDX 8 1 9 2 6 3 7 4 5 5 4 6 3 7 2 8 1 9 10 11 11 12 15 13 16 14
REMARK SMILES IDX 17 15 12 17 13 18 14 19
REMARK H PARENT
REMARK Flexibility Score: 70.00
ROOT
ATOM      1  C   UNL     1     213.081 200.542 216.099  1.00  0.00     0.136 C 
ATOM      2  O   UNL     1     212.209 199.806 215.656  1.00  0.00    -0.299 OA
ENDROOT
BRANCH   1   3
ATOM      3  C   UNL     1     214.538 200.126 215.921  1.00  0.00     0.053 C 
ATOM      4  C   UNL     1     214.643 198.603 215.735  1.00  0.00     0.016 C 
BRANCH   3   5
ATOM      5  C   UNL     1     215.199 200.852 214.727  1.00  0.00     0.015 C 
BRANCH   5   6
ATOM      6  C   UNL     1     214.375 200.811 213.428  1.00  0.00     0.028 C 
BRANCH   6   7
ATOM      7  C   UNL     1     214.420 202.125 212.682  1.00  0.00    -0.028 C 
ATOM      8  C   UNL     1     213.518 203.131 212.779  1.00  0.00    -0.070 CG0
ATOM      9  C   UNL     1     213.766 204.375 211.962  1.00  0.00     0.039 C 
ATOM     10  G   UNL     1     212.303 203.100 213.692  1.00  0.00     0.000 G0
ENDBRANCH   6   7
ENDBRANCH   5   6
ENDBRANCH   3   5
ENDBRANCH   1   3
BRANCH   1  11
ATOM     11  C   UNL     1     212.639 201.874 216.689  1.00  0.00     0.087 C 
BRANCH  11  12
ATOM     12  C   UNL     1     213.352 203.134 216.124  1.00  0.00     0.066 C 
BRANCH  12  13
ATOM     13  C   UNL     1     212.546 203.793 215.016  1.00  0.00     0.140 C 
ATOM     14  O   UNL     1     212.012 204.870 215.243  1.00  0.00    -0.299 OA
BRANCH  13  15
ATOM     15  C   UNL     1     212.278 203.114 213.691  1.00  0.00     0.106 CG0
ATOM     16  G   UNL     1     213.506 203.142 212.794  1.00  0.00     0.000 G0
ENDBRANCH  13  15
ENDBRANCH  12  13
BRANCH  12  17
ATOM     17  C   UNL     1     213.682 204.188 217.237  1.00  0.00    -0.006 C 
ATOM     18  C   UNL     1     212.803 204.022 218.492  1.00  0.00     0.008 C 
ATOM     19  C   UNL     1     215.163 204.111 217.665  1.00  0.00     0.008 C 
ENDBRANCH  12  17
ENDBRANCH  11  12
ENDBRANCH   1  11
TORSDOF 1
ENDMDL
MODEL 4
REMARK VINA RESULT:    -3.178     13.868     15.093
REMARK INTER + INTRA:          -5.280
REMARK INTER:                  -5.010
REMARK INTRA:                  -0.270
REMARK UNBOUND:                -0.429
REMARK SMILES CC1=CCC[C@H](C)C(=O)C[C@H](C(C)C)C(=O)C1
REMARK SMILES IDX 8 1 9 2 6 3 7 4 5 5 4 6 3 7 2 8 1 9 10 11 11 12 15 13 16 14
REMARK SMILES IDX 17 15 12 17 13 18 14 19
REMARK H PARENT
REMARK Flexibility Score: 70.00
ROOT
ATOM      1  C   UNL     1     198.737 208.374 217.370  1.00  0.00     0.136 C 
ATOM      2  O   UNL     1     199.277 209.027 218.253  1.00  0.00    -0.299 OA
ENDROOT
BRANCH   1   3
ATOM      3  C   UNL     1     197.283 208.685 217.026  1.00  0.00     0.053 C 
ATOM      4  C   UNL     1     196.358 208.277 218.185  1.00  0.00     0.016 C 
BRANCH   3   5
ATOM      5  C   UNL     1     197.081 210.180 216.689  1.00  0.00     0.015 C 
BRANCH   5   6
ATOM      6  C   UNL     1     198.207 210.794 215.837  1.00  0.00     0.028 C 
BRANCH   6   7
ATOM      7  C   UNL     1     197.989 210.569 214.359  1.00  0.00    -0.028 C 
ATOM      8  C   UNL     1     198.770 209.825 213.539  1.00  0.00    -0.070 CG0
ATOM      9  C   UNL     1     198.358 209.710 212.093  1.00  0.00     0.039 C 
ATOM     10  G   UNL     1     200.005 209.065 213.997  1.00  0.00     0.000 G0
ENDBRANCH   6   7
ENDBRANCH   5   6
ENDBRANCH   3   5
ENDBRANCH   1   3
BRANCH   1  11
ATOM     11  C   UNL     1     199.602 207.383 216.605  1.00  0.00     0.087 C 
BRANCH  11  12
ATOM     12  C   UNL     1     199.052 206.928 215.225  1.00  0.00     0.066 C 
BRANCH  12  13
ATOM     13  C   UNL     1     199.792 207.589 214.074  1.00  0.00     0.140 C 
ATOM     14  O   UNL     1     200.313 206.876 213.227  1.00  0.00    -0.299 OA
BRANCH  13  15
ATOM     15  C   UNL     1     200.014 209.084 213.999  1.00  0.00     0.106 CG0
ATOM     16  G   UNL     1     198.765 209.808 213.523  1.00  0.00     0.000 G0
ENDBRANCH  13  15
ENDBRANCH  12  13
BRANCH  12  17
ATOM     17  C   UNL     1     199.081 205.371 215.049  1.00  0.00    -0.006 C 
ATOM     18  C   UNL     1     199.342 204.627 216.374  1.00  0.00     0.008 C 
ATOM     19  C   UNL     1     197.759 204.846 214.448  1.00  0.00     0.008 C 
ENDBRANCH  12  17
ENDBRANCH  11  12
ENDBRANCH   1  11
TORSDOF 1
ENDMDL
MODEL 5
REMARK VINA RESULT:    -3.174     13.717     15.234
REMARK INTER + INTRA:          -5.274
REMARK INTER:                  -4.796
REMARK INTRA:                  -0.478
REMARK UNBOUND:                -0.429
REMARK SMILES CC1=CCC[C@H](C)C(=O)C[C@H](C(C)C)C(=O)C1
REMARK SMILES IDX 8 1 9 2 6 3 7 4 5 5 4 6 3 7 2 8 1 9 10 11 11 12 15 13 16 14
REMARK SMILES IDX 17 15 12 17 13 18 14 19
REMARK H PARENT
REMARK Flexibility Score: 70.00
ROOT
ATOM      1  C   UNL     1     199.367 211.017 215.625  1.00  0.00     0.136 C 
ATOM      2  O   UNL     1     199.912 212.059 215.964  1.00  0.00    -0.299 OA
ENDROOT
BRANCH   1   3
ATOM      3  C   UNL     1     198.215 211.094 214.626  1.00  0.00     0.053 C 
ATOM      4  C   UNL     1     197.174 212.128 215.085  1.00  0.00     0.016 C 
BRANCH   3   5
ATOM      5  C   UNL     1     198.713 211.441 213.204  1.00  0.00     0.015 C 
BRANCH   5   6
ATOM      6  C   UNL     1     199.698 210.418 212.611  1.00  0.00     0.028 C 
BRANCH   6   7
ATOM      7  C   UNL     1     199.016 209.123 212.236  1.00  0.00    -0.028 C 
ATOM      8  C   UNL     1     199.264 207.903 212.770  1.00  0.00    -0.070 CG0
ATOM      9  C   UNL     1     198.448 206.738 212.268  1.00  0.00     0.039 C 
ATOM     10  G   UNL     1     200.279 207.647 213.874  1.00  0.00     0.000 G0
ENDBRANCH   6   7
ENDBRANCH   5   6
ENDBRANCH   3   5
ENDBRANCH   1   3
BRANCH   1  11
ATOM     11  C   UNL     1     199.964 209.715 216.139  1.00  0.00     0.087 C 
BRANCH  11  12
ATOM     12  C   UNL     1     199.030 208.474 216.089  1.00  0.00     0.066 C 
BRANCH  12  13
ATOM     13  C   UNL     1     199.604 207.367 215.219  1.00  0.00     0.140 C 
ATOM     14  O   UNL     1     199.604 206.223 215.654  1.00  0.00    -0.299 OA
BRANCH  13  15
ATOM     15  C   UNL     1     200.281 207.641 213.895  1.00  0.00     0.106 CG0
ATOM     16  G   UNL     1     199.265 207.897 212.793  1.00  0.00     0.000 G0
ENDBRANCH  13  15
ENDBRANCH  12  13
BRANCH  12  17
ATOM     17  C   UNL     1     198.700 207.911 217.514  1.00  0.00    -0.006 C 
ATOM     18  C   UNL     1     199.610 208.500 218.611  1.00  0.00     0.008 C 
ATOM     19  C   UNL     1     197.232 208.182 217.902  1.00  0.00     0.008 C 
ENDBRANCH  12  17
ENDBRANCH  11  12
ENDBRANCH   1  11
TORSDOF 1
ENDMDL
MODEL 6
REMARK VINA RESULT:    -3.102      1.768      2.723
REMARK INTER + INTRA:          -5.164
REMARK INTER:                  -5.149
REMARK INTRA:                  -0.015
REMARK UNBOUND:                -0.429
REMARK SMILES CC1=CCC[C@H](C)C(=O)C[C@H](C(C)C)C(=O)C1
REMARK SMILES IDX 8 1 9 2 6 3 7 4 5 5 4 6 3 7 2 8 1 9 10 11 11 12 15 13 16 14
REMARK SMILES IDX 17 15 12 17 13 18 14 19
REMARK H PARENT
REMARK Flexibility Score: 70.00
ROOT
ATOM      1  C   UNL     1     213.691 202.434 216.274  1.00  0.00     0.136 C 
ATOM      2  O   UNL     1     213.061 201.385 216.234  1.00  0.00    -0.299 OA
ENDROOT
BRANCH   1   3
ATOM      3  C   UNL     1     213.861 203.123 217.625  1.00  0.00     0.053 C 
ATOM      4  C   UNL     1     215.067 204.077 217.593  1.00  0.00     0.016 C 
BRANCH   3   5
ATOM      5  C   UNL     1     212.587 203.896 218.038  1.00  0.00     0.015 C 
BRANCH   5   6
ATOM      6  C   UNL     1     211.884 204.623 216.878  1.00  0.00     0.028 C 
BRANCH   6   7
ATOM      7  C   UNL     1     212.523 205.957 216.572  1.00  0.00    -0.028 C 
ATOM      8  C   UNL     1     212.745 206.475 215.339  1.00  0.00    -0.070 CG0
ATOM      9  C   UNL     1     213.376 207.842 215.257  1.00  0.00     0.039 C 
ATOM     10  G   UNL     1     212.357 205.781 214.043  1.00  0.00     0.000 G0
ENDBRANCH   6   7
ENDBRANCH   5   6
ENDBRANCH   3   5
ENDBRANCH   1   3
BRANCH   1  11
ATOM     11  C   UNL     1     214.356 202.900 214.987  1.00  0.00     0.087 C 
BRANCH  11  12
ATOM     12  C   UNL     1     213.394 203.329 213.845  1.00  0.00     0.066 C 
BRANCH  12  13
ATOM     13  C   UNL     1     213.462 204.825 213.578  1.00  0.00     0.140 C 
ATOM     14  O   UNL     1     214.479 205.283 213.074  1.00  0.00    -0.299 OA
BRANCH  13  15
ATOM     15  C   UNL     1     212.378 205.781 214.021  1.00  0.00     0.106 CG0
ATOM     16  G   UNL     1     212.743 206.470 215.326  1.00  0.00     0.000 G0
ENDBRANCH  13  15
ENDBRANCH  12  13
BRANCH  12  17
ATOM     17  C   UNL     1     213.651 202.542 212.514  1.00  0.00    -0.006 C 
ATOM     18  C   UNL     1     214.777 201.498 212.649  1.00  0.00     0.008 C 
ATOM     19  C   UNL     1     212.375 201.822 212.030  1.00  0.00     0.008 C 
ENDBRANCH  12  17
ENDBRANCH  11  12
ENDBRANCH   1  11
TORSDOF 1
ENDMDL
MODEL 7
REMARK VINA RESULT:    -3.069     13.751     15.758
REMARK INTER + INTRA:          -5.113
REMARK INTER:                  -4.889
REMARK INTRA:                  -0.224
REMARK UNBOUND:                -0.429
REMARK SMILES CC1=CCC[C@H](C)C(=O)C[C@H](C(C)C)C(=O)C1
REMARK SMILES IDX 8 1 9 2 6 3 7 4 5 5 4 6 3 7 2 8 1 9 10 11 11 12 15 13 16 14
REMARK SMILES IDX 17 15 12 17 13 18 14 19
REMARK H PARENT
REMARK Flexibility Score: 70.00
ROOT
ATOM      1  C   UNL     1     199.596 207.791 213.297  1.00  0.00     0.136 C 
ATOM      2  O   UNL     1     200.436 207.505 212.453  1.00  0.00    -0.299 OA
ENDROOT
BRANCH   1   3
ATOM      3  C   UNL     1     198.431 206.830 213.513  1.00  0.00     0.053 C 
ATOM      4  C   UNL     1     197.870 206.354 212.162  1.00  0.00     0.016 C 
BRANCH   3   5
ATOM      5  C   UNL     1     198.844 205.613 214.372  1.00  0.00     0.015 C 
BRANCH   5   6
ATOM      6  C   UNL     1     198.355 205.672 215.829  1.00  0.00     0.028 C 
BRANCH   6   7
ATOM      7  C   UNL     1     199.445 206.113 216.779  1.00  0.00    -0.028 C 
ATOM      8  C   UNL     1     199.505 207.297 217.435  1.00  0.00    -0.070 CG0
ATOM      9  C   UNL     1     200.673 207.528 218.360  1.00  0.00     0.039 C 
ATOM     10  G   UNL     1     198.446 208.384 217.328  1.00  0.00     0.000 G0
ENDBRANCH   6   7
ENDBRANCH   5   6
ENDBRANCH   3   5
ENDBRANCH   1   3
BRANCH   1  11
ATOM     11  C   UNL     1     199.851 209.028 214.146  1.00  0.00     0.087 C 
BRANCH  11  12
ATOM     12  C   UNL     1     198.633 209.558 214.954  1.00  0.00     0.066 C 
BRANCH  12  13
ATOM     13  C   UNL     1     198.893 209.533 216.452  1.00  0.00     0.140 C 
ATOM     14  O   UNL     1     199.574 210.425 216.941  1.00  0.00    -0.299 OA
BRANCH  13  15
ATOM     15  C   UNL     1     198.449 208.390 217.337  1.00  0.00     0.106 CG0
ATOM     16  G   UNL     1     199.524 207.319 217.443  1.00  0.00     0.000 G0
ENDBRANCH  13  15
ENDBRANCH  12  13
BRANCH  12  17
ATOM     17  C   UNL     1     198.200 210.998 214.515  1.00  0.00    -0.006 C 
ATOM     18  C   UNL     1     197.837 211.080 213.019  1.00  0.00     0.008 C 
ATOM     19  C   UNL     1     196.993 211.499 215.337  1.00  0.00     0.008 C 
ENDBRANCH  12  17
ENDBRANCH  11  12
ENDBRANCH   1  11
TORSDOF 1
ENDMDL
MODEL 8
REMARK VINA RESULT:    -2.977     13.379     14.945
REMARK INTER + INTRA:          -4.973
REMARK INTER:                  -4.593
REMARK INTRA:                  -0.381
REMARK UNBOUND:                -0.429
REMARK SMILES CC1=CCC[C@H](C)C(=O)C[C@H](C(C)C)C(=O)C1
REMARK SMILES IDX 8 1 9 2 6 3 7 4 5 5 4 6 3 7 2 8 1 9 10 11 11 12 15 13 16 14
REMARK SMILES IDX 17 15 12 17 13 18 14 19
REMARK H PARENT
REMARK Flexibility Score: 70.00
ROOT
ATOM      1  C   UNL     1     199.757 207.299 216.370  1.00  0.00     0.136 C 
ATOM      2  O   UNL     1     200.338 207.043 217.417  1.00  0.00    -0.299 OA
ENDROOT
BRANCH   1   3
ATOM      3  C   UNL     1     198.232 207.234 216.355  1.00  0.00     0.053 C 
ATOM      4  C   UNL     1     197.751 205.827 216.750  1.00  0.00     0.016 C 
BRANCH   3   5
ATOM      5  C   UNL     1     197.605 208.291 217.292  1.00  0.00     0.015 C 
BRANCH   5   6
ATOM      6  C   UNL     1     198.166 209.711 217.109  1.00  0.00     0.028 C 
BRANCH   6   7
ATOM      7  C   UNL     1     197.510 210.440 215.959  1.00  0.00    -0.028 C 
ATOM      8  C   UNL     1     198.098 210.783 214.788  1.00  0.00    -0.070 CG0
ATOM      9  C   UNL     1     197.251 211.488 213.759  1.00  0.00     0.039 C 
ATOM     10  G   UNL     1     199.541 210.461 214.434  1.00  0.00     0.000 G0
ENDBRANCH   6   7
ENDBRANCH   5   6
ENDBRANCH   3   5
ENDBRANCH   1   3
BRANCH   1  11
ATOM     11  C   UNL     1     200.603 207.778 215.199  1.00  0.00     0.087 C 
BRANCH  11  12
ATOM     12  C   UNL     1     199.867 207.895 213.835  1.00  0.00     0.066 C 
BRANCH  12  13
ATOM     13  C   UNL     1     199.654 209.344 213.429  1.00  0.00     0.140 C 
ATOM     14  O   UNL     1     199.665 209.625 212.237  1.00  0.00    -0.299 OA
BRANCH  13  15
ATOM     15  C   UNL     1     199.550 210.466 214.438  1.00  0.00     0.106 CG0
ATOM     16  G   UNL     1     198.101 210.772 214.782  1.00  0.00     0.000 G0
ENDBRANCH  13  15
ENDBRANCH  12  13
BRANCH  12  17
ATOM     17  C   UNL     1     200.604 207.125 212.686  1.00  0.00    -0.006 C 
ATOM     18  C   UNL     1     201.933 206.494 213.149  1.00  0.00     0.008 C 
ATOM     19  C   UNL     1     199.716 206.011 212.093  1.00  0.00     0.008 C 
ENDBRANCH  12  17
ENDBRANCH  11  12
ENDBRANCH   1  11
TORSDOF 1
ENDMDL
MODEL 9
REMARK VINA RESULT:    -2.969      1.949      5.298
REMARK INTER + INTRA:          -4.960
REMARK INTER:                  -4.690
REMARK INTRA:                  -0.270
REMARK UNBOUND:                -0.429
REMARK SMILES CC1=CCC[C@H](C)C(=O)C[C@H](C(C)C)C(=O)C1
REMARK SMILES IDX 8 1 9 2 6 3 7 4 5 5 4 6 3 7 2 8 1 9 10 11 11 12 15 13 16 14
REMARK SMILES IDX 17 15 12 17 13 18 14 19
REMARK H PARENT
REMARK Flexibility Score: 70.00
ROOT
ATOM      1  C   UNL     1     212.993 204.011 213.090  1.00  0.00     0.136 C 
ATOM      2  O   UNL     1     212.070 204.614 212.556  1.00  0.00    -0.299 OA
ENDROOT
BRANCH   1   3
ATOM      3  C   UNL     1     213.071 202.498 212.905  1.00  0.00     0.053 C 
ATOM      4  C   UNL     1     214.534 202.051 212.748  1.00  0.00     0.016 C 
BRANCH   3   5
ATOM      5  C   UNL     1     212.410 201.742 214.080  1.00  0.00     0.015 C 
BRANCH   5   6
ATOM      6  C   UNL     1     213.319 201.565 215.309  1.00  0.00     0.028 C 
BRANCH   6   7
ATOM      7  C   UNL     1     212.745 202.225 216.542  1.00  0.00    -0.028 C 
ATOM      8  C   UNL     1     213.226 203.333 217.155  1.00  0.00    -0.070 CG0
ATOM      9  C   UNL     1     212.484 203.843 218.364  1.00  0.00     0.039 C 
ATOM     10  G   UNL     1     214.437 204.115 216.671  1.00  0.00     0.000 G0
ENDBRANCH   6   7
ENDBRANCH   5   6
ENDBRANCH   3   5
ENDBRANCH   1   3
BRANCH   1  11
ATOM     11  C   UNL     1     214.055 204.840 213.796  1.00  0.00     0.087 C 
BRANCH  11  12
ATOM     12  C   UNL     1     213.533 205.847 214.859  1.00  0.00     0.066 C 
BRANCH  12  13
ATOM     13  C   UNL     1     214.057 205.525 216.249  1.00  0.00     0.140 C 
ATOM     14  O   UNL     1     214.270 206.450 217.022  1.00  0.00    -0.299 OA
BRANCH  13  15
ATOM     15  C   UNL     1     214.441 204.124 216.672  1.00  0.00     0.106 CG0
ATOM     16  G   UNL     1     213.232 203.341 217.159  1.00  0.00     0.000 G0
ENDBRANCH  13  15
ENDBRANCH  12  13
BRANCH  12  17
ATOM     17  C   UNL     1     213.869 207.334 214.496  1.00  0.00    -0.006 C 
ATOM     18  C   UNL     1     214.437 207.484 213.071  1.00  0.00     0.008 C 
ATOM     19  C   UNL     1     212.627 208.240 214.624  1.00  0.00     0.008 C 
ENDBRANCH  12  17
ENDBRANCH  11  12
ENDBRANCH   1  11
TORSDOF 1
ENDMDL
