MODEL 1
REMARK VINA RESULT:    -1.195      0.000      0.000
REMARK INTER + INTRA:          -0.764
REMARK INTER:                  -1.684
REMARK INTRA:                   0.920
REMARK UNBOUND:                 0.920
REMARK SMILES CC1=CCC(=C(C)C)C(=O)CC(C)=CCC1
REMARK SMILES IDX 12 1 14 2 13 3 15 4 16 5 2 6 1 7 3 8 11 10 9 11 10 12 5 13
REMARK SMILES IDX 6 14 7 15 8 16 4 17
REMARK H PARENT
REMARK Flexibility Score: 60.00
ROOT
ATOM      1  C   UNL     1      79.540  35.010  50.417  1.00  0.00    -0.070 C 
ATOM      2  C   UNL     1      80.333  33.976  50.052  1.00  0.00    -0.027 C 
ATOM      3  C   UNL     1      79.328  36.125  49.425  1.00  0.00     0.039 C 
ENDROOT
BRANCH   2   4
ATOM      4  C   UNL     1      80.770  32.858  50.964  1.00  0.00     0.032 C 
BRANCH   4   5
ATOM      5  C   UNL     1      79.669  31.795  51.050  1.00  0.00     0.034 C 
BRANCH   5   6
ATOM      6  C   UNL     1      79.119  31.643  52.454  1.00  0.00    -0.077 C 
ATOM      7  C   UNL     1      80.019  31.077  53.524  1.00  0.00     0.039 C 
ATOM      8  C   UNL     1      77.882  32.056  52.825  1.00  0.00    -0.023 CG0
ATOM      9  G   UNL     1      76.784  32.599  51.929  1.00  0.00     0.000 G0
ENDBRANCH   5   6
ENDBRANCH   4   5
ENDBRANCH   2   4
BRANCH   1  10
ATOM     10  C   UNL     1      78.843  35.092  51.760  1.00  0.00     0.111 C 
BRANCH  10  11
ATOM     11  C   UNL     1      77.341  35.126  51.614  1.00  0.00     0.163 C 
ATOM     12  O   UNL     1      76.850  36.084  50.957  1.00  0.00    -0.294 OA
BRANCH  11  13
ATOM     13  C   UNL     1      76.422  34.083  52.181  1.00  0.00    -0.002 C 
ATOM     14  C   UNL     1      75.227  34.441  52.744  1.00  0.00    -0.069 C 
ATOM     15  C   UNL     1      74.910  35.882  53.074  1.00  0.00     0.039 C 
ATOM     16  C   UNL     1      74.178  33.416  53.114  1.00  0.00     0.039 C 
BRANCH  13  17
ATOM     17  C   UNL     1      76.778  32.619  51.948  1.00  0.00     0.066 CG0
ATOM     18  G   UNL     1      77.880  32.043  52.820  1.00  0.00     0.000 G0
ENDBRANCH  13  17
ENDBRANCH  11  13
ENDBRANCH  10  11
ENDBRANCH   1  10
TORSDOF 0
ENDMDL
MODEL 2
REMARK VINA RESULT:    -0.502     14.220     15.904
REMARK INTER + INTRA:           0.212
REMARK INTER:                  -0.414
REMARK INTRA:                   0.626
REMARK UNBOUND:                 0.920
REMARK SMILES CC1=CCC(=C(C)C)C(=O)CC(C)=CCC1
REMARK SMILES IDX 12 1 14 2 13 3 15 4 16 5 2 6 1 7 3 8 11 10 9 11 10 12 5 13
REMARK SMILES IDX 6 14 7 15 8 16 4 17
REMARK H PARENT
REMARK Flexibility Score: 60.00
ROOT
ATOM      1  C   UNL     1      86.245  31.847  66.960  1.00  0.00    -0.070 C 
ATOM      2  C   UNL     1      85.358  30.871  66.657  1.00  0.00    -0.027 C 
ATOM      3  C   UNL     1      85.922  32.766  68.111  1.00  0.00     0.039 C 
ENDROOT
BRANCH   2   4
ATOM      4  C   UNL     1      85.449  29.964  65.457  1.00  0.00     0.032 C 
BRANCH   4   5
ATOM      5  C   UNL     1      84.281  30.243  64.503  1.00  0.00     0.034 C 
BRANCH   5   6
ATOM      6  C   UNL     1      83.540  31.518  64.851  1.00  0.00    -0.077 C 
ATOM      7  C   UNL     1      82.316  31.426  65.728  1.00  0.00     0.039 C 
ATOM      8  C   UNL     1      83.957  32.754  64.480  1.00  0.00    -0.023 CG0
ATOM      9  G   UNL     1      85.115  33.099  63.560  1.00  0.00     0.000 G0
ENDBRANCH   5   6
ENDBRANCH   4   5
ENDBRANCH   2   4
BRANCH   1  10
ATOM     10  C   UNL     1      87.551  32.047  66.218  1.00  0.00     0.111 C 
BRANCH  10  11
ATOM     11  C   UNL     1      87.327  32.364  64.759  1.00  0.00     0.163 C 
ATOM     12  O   UNL     1      87.907  31.627  63.916  1.00  0.00    -0.294 OA
BRANCH  11  13
ATOM     13  C   UNL     1      86.447  33.479  64.272  1.00  0.00    -0.002 C 
ATOM     14  C   UNL     1      86.884  34.775  64.308  1.00  0.00    -0.069 C 
ATOM     15  C   UNL     1      88.121  35.171  65.083  1.00  0.00     0.039 C 
ATOM     16  C   UNL     1      86.132  35.893  63.621  1.00  0.00     0.039 C 
BRANCH  13  17
ATOM     17  C   UNL     1      85.143  33.104  63.578  1.00  0.00     0.066 CG0
ATOM     18  G   UNL     1      83.970  32.763  64.480  1.00  0.00     0.000 G0
ENDBRANCH  13  17
ENDBRANCH  11  13
ENDBRANCH  10  11
ENDBRANCH   1  10
TORSDOF 0
ENDMDL
MODEL 3
REMARK VINA RESULT:    -0.279      1.796      3.444
REMARK INTER + INTRA:           0.526
REMARK INTER:                  -0.634
REMARK INTRA:                   1.161
REMARK UNBOUND:                 0.920
REMARK SMILES CC1=CCC(=C(C)C)C(=O)CC(C)=CCC1
REMARK SMILES IDX 12 1 14 2 13 3 15 4 16 5 2 6 1 7 3 8 11 10 9 11 10 12 5 13
REMARK SMILES IDX 6 14 7 15 8 16 4 17
REMARK H PARENT
REMARK Flexibility Score: 60.00
ROOT
ATOM      1  C   UNL     1      79.408  32.734  52.080  1.00  0.00    -0.070 C 
ATOM      2  C   UNL     1      80.383  33.667  51.979  1.00  0.00    -0.027 C 
ATOM      3  C   UNL     1      79.517  31.498  51.222  1.00  0.00     0.039 C 
ENDROOT
BRANCH   2   4
ATOM      4  C   UNL     1      80.358  35.018  52.646  1.00  0.00     0.032 C 
BRANCH   4   5
ATOM      5  C   UNL     1      80.118  36.112  51.599  1.00  0.00     0.034 C 
BRANCH   5   6
ATOM      6  C   UNL     1      79.288  35.623  50.429  1.00  0.00    -0.077 C 
ATOM      7  C   UNL     1      79.982  35.337  49.121  1.00  0.00     0.039 C 
ATOM      8  C   UNL     1      77.961  35.355  50.510  1.00  0.00    -0.023 CG0
ATOM      9  G   UNL     1      77.039  35.611  51.688  1.00  0.00     0.000 G0
ENDBRANCH   5   6
ENDBRANCH   4   5
ENDBRANCH   2   4
BRANCH   1  10
ATOM     10  C   UNL     1      78.229  32.859  53.023  1.00  0.00     0.111 C 
BRANCH  10  11
ATOM     11  C   UNL     1      76.934  33.083  52.280  1.00  0.00     0.163 C 
ATOM     12  O   UNL     1      76.417  32.082  51.713  1.00  0.00    -0.294 OA
BRANCH  11  13
ATOM     13  C   UNL     1      76.234  34.409  52.204  1.00  0.00    -0.002 C 
ATOM     14  C   UNL     1      74.978  34.563  52.727  1.00  0.00    -0.069 C 
ATOM     15  C   UNL     1      74.142  33.372  53.136  1.00  0.00     0.039 C 
ATOM     16  C   UNL     1      74.336  35.924  52.878  1.00  0.00     0.039 C 
BRANCH  13  17
ATOM     17  C   UNL     1      77.030  35.605  51.696  1.00  0.00     0.066 CG0
ATOM     18  G   UNL     1      77.952  35.353  50.516  1.00  0.00     0.000 G0
ENDBRANCH  13  17
ENDBRANCH  11  13
ENDBRANCH  10  11
ENDBRANCH   1  10
TORSDOF 0
ENDMDL
MODEL 4
REMARK VINA RESULT:    -0.098     14.332     15.763
REMARK INTER + INTRA:           0.782
REMARK INTER:                   0.610
REMARK INTRA:                   0.172
REMARK UNBOUND:                 0.920
REMARK SMILES CC1=CCC(=C(C)C)C(=O)CC(C)=CCC1
REMARK SMILES IDX 12 1 14 2 13 3 15 4 16 5 2 6 1 7 3 8 11 10 9 11 10 12 5 13
REMARK SMILES IDX 6 14 7 15 8 16 4 17
REMARK H PARENT
REMARK Flexibility Score: 60.00
ROOT
ATOM      1  C   UNL     1      86.557  28.191  64.709  1.00  0.00    -0.070 C 
ATOM      2  C   UNL     1      85.383  27.584  64.415  1.00  0.00    -0.027 C 
ATOM      3  C   UNL     1      87.832  27.526  64.255  1.00  0.00     0.039 C 
ENDROOT
BRANCH   2   4
ATOM      4  C   UNL     1      84.033  28.028  64.915  1.00  0.00     0.032 C 
BRANCH   4   5
ATOM      5  C   UNL     1      83.476  29.130  64.006  1.00  0.00     0.034 C 
BRANCH   5   6
ATOM      6  C   UNL     1      83.038  30.355  64.783  1.00  0.00    -0.077 C 
ATOM      7  C   UNL     1      81.879  30.227  65.740  1.00  0.00     0.039 C 
ATOM      8  C   UNL     1      83.676  31.550  64.723  1.00  0.00    -0.023 CG0
ATOM      9  G   UNL     1      84.820  31.940  63.804  1.00  0.00     0.000 G0
ENDBRANCH   5   6
ENDBRANCH   4   5
ENDBRANCH   2   4
BRANCH   1  10
ATOM     10  C   UNL     1      86.651  29.508  65.451  1.00  0.00     0.111 C 
BRANCH  10  11
ATOM     11  C   UNL     1      86.982  30.654  64.525  1.00  0.00     0.163 C 
ATOM     12  O   UNL     1      87.948  30.489  63.731  1.00  0.00    -0.294 OA
BRANCH  11  13
ATOM     13  C   UNL     1      86.219  31.946  64.489  1.00  0.00    -0.002 C 
ATOM     14  C   UNL     1      86.810  33.114  64.889  1.00  0.00    -0.069 C 
ATOM     15  C   UNL     1      88.124  33.118  65.637  1.00  0.00     0.039 C 
ATOM     16  C   UNL     1      86.163  34.461  64.653  1.00  0.00     0.039 C 
BRANCH  13  17
ATOM     17  C   UNL     1      84.845  31.942  63.829  1.00  0.00     0.066 CG0
ATOM     18  G   UNL     1      83.675  31.532  64.704  1.00  0.00     0.000 G0
ENDBRANCH  13  17
ENDBRANCH  11  13
ENDBRANCH  10  11
ENDBRANCH   1  10
TORSDOF 0
ENDMDL
MODEL 5
REMARK VINA RESULT:     0.416     14.328     15.943
REMARK INTER + INTRA:           1.505
REMARK INTER:                   1.045
REMARK INTRA:                   0.461
REMARK UNBOUND:                 0.920
REMARK SMILES CC1=CCC(=C(C)C)C(=O)CC(C)=CCC1
REMARK SMILES IDX 12 1 14 2 13 3 15 4 16 5 2 6 1 7 3 8 11 10 9 11 10 12 5 13
REMARK SMILES IDX 6 14 7 15 8 16 4 17
REMARK H PARENT
REMARK Flexibility Score: 60.00
ROOT
ATOM      1  C   UNL     1      88.006  31.150  64.396  1.00  0.00    -0.070 C 
ATOM      2  C   UNL     1      88.104  32.491  64.242  1.00  0.00    -0.027 C 
ATOM      3  C   UNL     1      88.118  30.284  63.167  1.00  0.00     0.039 C 
ENDROOT
BRANCH   2   4
ATOM      4  C   UNL     1      87.870  33.505  65.331  1.00  0.00     0.032 C 
BRANCH   4   5
ATOM      5  C   UNL     1      86.369  33.775  65.478  1.00  0.00     0.034 C 
BRANCH   5   6
ATOM      6  C   UNL     1      85.609  33.542  64.187  1.00  0.00    -0.077 C 
ATOM      7  C   UNL     1      85.884  34.449  63.014  1.00  0.00     0.039 C 
ATOM      8  C   UNL     1      84.745  32.514  64.000  1.00  0.00    -0.023 CG0
ATOM      9  G   UNL     1      84.267  31.511  65.035  1.00  0.00     0.000 G0
ENDBRANCH   5   6
ENDBRANCH   4   5
ENDBRANCH   2   4
BRANCH   1  10
ATOM     10  C   UNL     1      87.811  30.477  65.740  1.00  0.00     0.111 C 
BRANCH  10  11
ATOM     11  C   UNL     1      86.381  30.570  66.214  1.00  0.00     0.163 C 
ATOM     12  O   UNL     1      86.196  30.884  67.422  1.00  0.00    -0.294 OA
BRANCH  11  13
ATOM     13  C   UNL     1      85.191  30.333  65.330  1.00  0.00    -0.002 C 
ATOM     14  C   UNL     1      84.868  29.067  64.924  1.00  0.00    -0.069 C 
ATOM     15  C   UNL     1      85.828  27.912  65.100  1.00  0.00     0.039 C 
ATOM     16  C   UNL     1      83.559  28.757  64.232  1.00  0.00     0.039 C 
BRANCH  13  17
ATOM     17  C   UNL     1      84.264  31.511  65.055  1.00  0.00     0.066 CG0
ATOM     18  G   UNL     1      84.728  32.508  64.008  1.00  0.00     0.000 G0
ENDBRANCH  13  17
ENDBRANCH  11  13
ENDBRANCH  10  11
ENDBRANCH   1  10
TORSDOF 0
ENDMDL
MODEL 6
REMARK VINA RESULT:     0.452     14.925     16.629
REMARK INTER + INTRA:           1.556
REMARK INTER:                   1.268
REMARK INTRA:                   0.288
REMARK UNBOUND:                 0.920
REMARK SMILES CC1=CCC(=C(C)C)C(=O)CC(C)=CCC1
REMARK SMILES IDX 12 1 14 2 13 3 15 4 16 5 2 6 1 7 3 8 11 10 9 11 10 12 5 13
REMARK SMILES IDX 6 14 7 15 8 16 4 17
REMARK H PARENT
REMARK Flexibility Score: 60.00
ROOT
ATOM      1  C   UNL     1      84.795  30.634  65.160  1.00  0.00    -0.070 C 
ATOM      2  C   UNL     1      84.424  31.641  64.336  1.00  0.00    -0.027 C 
ATOM      3  C   UNL     1      84.315  29.241  64.839  1.00  0.00     0.039 C 
ENDROOT
BRANCH   2   4
ATOM      4  C   UNL     1      84.687  33.103  64.586  1.00  0.00     0.032 C 
BRANCH   4   5
ATOM      5  C   UNL     1      85.837  33.586  63.694  1.00  0.00     0.034 C 
BRANCH   5   6
ATOM      6  C   UNL     1      87.147  33.698  64.448  1.00  0.00    -0.077 C 
ATOM      7  C   UNL     1      87.460  34.989  65.163  1.00  0.00     0.039 C 
ATOM      8  C   UNL     1      88.028  32.676  64.579  1.00  0.00    -0.023 CG0
ATOM      9  G   UNL     1      87.965  31.313  63.913  1.00  0.00     0.000 G0
ENDBRANCH   5   6
ENDBRANCH   4   5
ENDBRANCH   2   4
BRANCH   1  10
ATOM     10  C   UNL     1      85.681  30.833  66.373  1.00  0.00     0.111 C 
BRANCH  10  11
ATOM     11  C   UNL     1      87.088  30.345  66.129  1.00  0.00     0.163 C 
ATOM     12  O   UNL     1      87.800  30.113  67.144  1.00  0.00    -0.294 OA
BRANCH  11  13
ATOM     13  C   UNL     1      87.664  30.107  64.763  1.00  0.00    -0.002 C 
ATOM     14  C   UNL     1      87.770  28.837  64.265  1.00  0.00    -0.069 C 
ATOM     15  C   UNL     1      87.587  27.624  65.150  1.00  0.00     0.039 C 
ATOM     16  C   UNL     1      88.124  28.570  62.819  1.00  0.00     0.039 C 
BRANCH  13  17
ATOM     17  C   UNL     1      87.953  31.323  63.891  1.00  0.00     0.066 CG0
ATOM     18  G   UNL     1      88.036  32.662  64.602  1.00  0.00     0.000 G0
ENDBRANCH  13  17
ENDBRANCH  11  13
ENDBRANCH  10  11
ENDBRANCH   1  10
TORSDOF 0
ENDMDL
MODEL 7
REMARK VINA RESULT:     0.479     13.964     16.310
REMARK INTER + INTRA:           1.595
REMARK INTER:                   0.078
REMARK INTRA:                   1.517
REMARK UNBOUND:                 0.920
REMARK SMILES CC1=CCC(=C(C)C)C(=O)CC(C)=CCC1
REMARK SMILES IDX 12 1 14 2 13 3 15 4 16 5 2 6 1 7 3 8 11 10 9 11 10 12 5 13
REMARK SMILES IDX 6 14 7 15 8 16 4 17
REMARK H PARENT
REMARK Flexibility Score: 60.00
ROOT
ATOM      1  C   UNL     1      85.181  33.141  64.002  1.00  0.00    -0.070 C 
ATOM      2  C   UNL     1      86.233  33.993  63.986  1.00  0.00    -0.027 C 
ATOM      3  C   UNL     1      84.401  32.954  62.726  1.00  0.00     0.039 C 
ENDROOT
BRANCH   2   4
ATOM      4  C   UNL     1      87.026  34.409  65.198  1.00  0.00     0.032 C 
BRANCH   4   5
ATOM      5  C   UNL     1      88.125  33.378  65.481  1.00  0.00     0.034 C 
BRANCH   5   6
ATOM      6  C   UNL     1      87.814  32.515  66.687  1.00  0.00    -0.077 C 
ATOM      7  C   UNL     1      87.964  33.116  68.062  1.00  0.00     0.039 C 
ATOM      8  C   UNL     1      87.336  31.249  66.601  1.00  0.00    -0.023 CG0
ATOM      9  G   UNL     1      87.156  30.414  65.346  1.00  0.00     0.000 G0
ENDBRANCH   5   6
ENDBRANCH   4   5
ENDBRANCH   2   4
BRANCH   1  10
ATOM     10  C   UNL     1      84.764  32.355  65.228  1.00  0.00     0.111 C 
BRANCH  10  11
ATOM     11  C   UNL     1      84.629  30.880  64.933  1.00  0.00     0.163 C 
ATOM     12  O   UNL     1      83.507  30.479  64.519  1.00  0.00    -0.294 OA
BRANCH  11  13
ATOM     13  C   UNL     1      85.749  29.892  65.084  1.00  0.00    -0.002 C 
ATOM     14  C   UNL     1      85.539  28.562  64.843  1.00  0.00    -0.069 C 
ATOM     15  C   UNL     1      84.144  27.996  64.700  1.00  0.00     0.039 C 
ATOM     16  C   UNL     1      86.680  27.573  64.758  1.00  0.00     0.039 C 
BRANCH  13  17
ATOM     17  C   UNL     1      87.150  30.438  65.332  1.00  0.00     0.066 CG0
ATOM     18  G   UNL     1      87.346  31.250  66.600  1.00  0.00     0.000 G0
ENDBRANCH  13  17
ENDBRANCH  11  13
ENDBRANCH  10  11
ENDBRANCH   1  10
TORSDOF 0
ENDMDL
MODEL 8
REMARK VINA RESULT:     0.587     14.011     16.157
REMARK INTER + INTRA:           1.747
REMARK INTER:                   1.151
REMARK INTRA:                   0.596
REMARK UNBOUND:                 0.920
REMARK SMILES CC1=CCC(=C(C)C)C(=O)CC(C)=CCC1
REMARK SMILES IDX 12 1 14 2 13 3 15 4 16 5 2 6 1 7 3 8 11 10 9 11 10 12 5 13
REMARK SMILES IDX 6 14 7 15 8 16 4 17
REMARK H PARENT
REMARK Flexibility Score: 60.00
ROOT
ATOM      1  C   UNL     1      87.487  31.390  66.754  1.00  0.00    -0.070 C 
ATOM      2  C   UNL     1      88.124  30.721  65.765  1.00  0.00    -0.027 C 
ATOM      3  C   UNL     1      88.125  32.650  67.283  1.00  0.00     0.039 C 
ENDROOT
BRANCH   2   4
ATOM      4  C   UNL     1      87.709  29.377  65.225  1.00  0.00     0.032 C 
BRANCH   4   5
ATOM      5  C   UNL     1      86.531  29.546  64.258  1.00  0.00     0.034 C 
BRANCH   5   6
ATOM      6  C   UNL     1      85.294  28.801  64.716  1.00  0.00    -0.077 C 
ATOM      7  C   UNL     1      85.397  27.318  64.972  1.00  0.00     0.039 C 
ATOM      8  C   UNL     1      84.109  29.405  64.982  1.00  0.00    -0.023 CG0
ATOM      9  G   UNL     1      83.744  30.860  64.751  1.00  0.00     0.000 G0
ENDBRANCH   5   6
ENDBRANCH   4   5
ENDBRANCH   2   4
BRANCH   1  10
ATOM     10  C   UNL     1      86.160  30.950  67.337  1.00  0.00     0.111 C 
BRANCH  10  11
ATOM     11  C   UNL     1      85.011  31.778  66.814  1.00  0.00     0.163 C 
ATOM     12  O   UNL     1      84.327  32.411  67.664  1.00  0.00    -0.294 OA
BRANCH  11  13
ATOM     13  C   UNL     1      84.665  31.901  65.359  1.00  0.00    -0.002 C 
ATOM     14  C   UNL     1      85.293  32.826  64.570  1.00  0.00    -0.069 C 
ATOM     15  C   UNL     1      86.132  33.934  65.168  1.00  0.00     0.039 C 
ATOM     16  C   UNL     1      85.145  32.829  63.065  1.00  0.00     0.039 C 
BRANCH  13  17
ATOM     17  C   UNL     1      83.736  30.852  64.758  1.00  0.00     0.066 CG0
ATOM     18  G   UNL     1      84.102  29.400  65.009  1.00  0.00     0.000 G0
ENDBRANCH  13  17
ENDBRANCH  11  13
ENDBRANCH  10  11
ENDBRANCH   1  10
TORSDOF 0
ENDMDL
MODEL 9
REMARK VINA RESULT:     0.640     13.599     15.467
REMARK INTER + INTRA:           1.822
REMARK INTER:                   0.162
REMARK INTRA:                   1.660
REMARK UNBOUND:                 0.920
REMARK SMILES CC1=CCC(=C(C)C)C(=O)CC(C)=CCC1
REMARK SMILES IDX 12 1 14 2 13 3 15 4 16 5 2 6 1 7 3 8 11 10 9 11 10 12 5 13
REMARK SMILES IDX 6 14 7 15 8 16 4 17
REMARK H PARENT
REMARK Flexibility Score: 60.00
ROOT
ATOM      1  C   UNL     1      86.575  33.387  64.718  1.00  0.00    -0.070 C 
ATOM      2  C   UNL     1      87.435  32.890  65.638  1.00  0.00    -0.027 C 
ATOM      3  C   UNL     1      86.463  34.884  64.588  1.00  0.00     0.039 C 
ENDROOT
BRANCH   2   4
ATOM      4  C   UNL     1      87.563  31.433  66.001  1.00  0.00     0.032 C 
BRANCH   4   5
ATOM      5  C   UNL     1      88.107  30.643  64.805  1.00  0.00     0.034 C 
BRANCH   5   6
ATOM      6  C   UNL     1      87.396  29.319  64.613  1.00  0.00    -0.077 C 
ATOM      7  C   UNL     1      88.125  28.204  63.905  1.00  0.00     0.039 C 
ATOM      8  C   UNL     1      86.161  29.051  65.106  1.00  0.00    -0.023 CG0
ATOM      9  G   UNL     1      85.215  30.017  65.797  1.00  0.00     0.000 G0
ENDBRANCH   5   6
ENDBRANCH   4   5
ENDBRANCH   2   4
BRANCH   1  10
ATOM     10  C   UNL     1      85.739  32.516  63.802  1.00  0.00     0.111 C 
BRANCH  10  11
ATOM     11  C   UNL     1      84.444  32.094  64.453  1.00  0.00     0.163 C 
ATOM     12  O   UNL     1      83.557  32.979  64.591  1.00  0.00    -0.294 OA
BRANCH  11  13
ATOM     13  C   UNL     1      84.159  30.694  64.914  1.00  0.00    -0.002 C 
ATOM     14  C   UNL     1      83.076  30.010  64.432  1.00  0.00    -0.069 C 
ATOM     15  C   UNL     1      81.983  30.709  63.656  1.00  0.00     0.039 C 
ATOM     16  C   UNL     1      82.882  28.532  64.689  1.00  0.00     0.039 C 
BRANCH  13  17
ATOM     17  C   UNL     1      85.203  30.005  65.785  1.00  0.00     0.066 CG0
ATOM     18  G   UNL     1      86.142  29.041  65.082  1.00  0.00     0.000 G0
ENDBRANCH  13  17
ENDBRANCH  11  13
ENDBRANCH  10  11
ENDBRANCH   1  10
TORSDOF 0
ENDMDL
