MODEL 1
REMARK VINA RESULT:    -6.380      0.000      0.000
REMARK INTER + INTRA:          -8.037
REMARK INTER:                  -7.685
REMARK INTRA:                  -0.352
REMARK UNBOUND:                -0.352
REMARK SMILES Oc1cc(O)c2cc(O)c(-c3ccc(O)c(O)c3)[o+]c2c1
REMARK SMILES IDX 10 1 19 2 20 3 21 4 2 5 3 6 4 7 6 8 7 9 8 10 11 11 12 12
REMARK SMILES IDX 13 13 14 14 18 15 16 16 15 17 17 19 9 21 1 23 5 25
REMARK H PARENT 15 18 17 20 9 22 1 24 5 26
REMARK Flexibility Score: inf
ROOT
ATOM      1  C   UNL     1      -6.253  53.260  31.385  1.00  0.00     0.402 A 
ATOM      2  O   UNL     1      -6.145  54.087  32.421  1.00  0.00    -0.202 OA
ATOM      3  C   UNL     1      -7.099  54.941  32.776  1.00  0.00     0.368 A 
ATOM      4  C   UNL     1      -6.891  55.773  33.879  1.00  0.00     0.162 A 
ATOM      5  C   UNL     1      -7.877  56.683  34.273  1.00  0.00     0.128 A 
ATOM      6  C   UNL     1      -9.075  56.760  33.560  1.00  0.00     0.093 A 
ATOM      7  C   UNL     1      -9.308  55.938  32.451  1.00  0.00     0.136 A 
ATOM      8  C   UNL     1      -8.311  55.011  32.049  1.00  0.00     0.125 A 
ATOM      9  C   UNL     1      -8.462  54.138  30.959  1.00  0.00     0.078 A 
ATOM     10  C   UNL     1      -7.437  53.248  30.625  1.00  0.00     0.223 A 
ENDROOT
BRANCH   1  11
ATOM     11  C   UNL     1      -5.114  52.361  31.084  1.00  0.00     0.087 A 
ATOM     12  C   UNL     1      -4.141  52.708  30.131  1.00  0.00     0.022 A 
ATOM     13  C   UNL     1      -3.062  51.855  29.881  1.00  0.00     0.051 A 
ATOM     14  C   UNL     1      -2.932  50.655  30.585  1.00  0.00     0.157 A 
ATOM     15  C   UNL     1      -4.969  51.165  31.804  1.00  0.00     0.068 A 
ATOM     16  C   UNL     1      -3.888  50.307  31.554  1.00  0.00     0.158 A 
BRANCH  14  17
ATOM     17  O   UNL     1      -1.846  49.822  30.313  1.00  0.00    -0.504 OA
ATOM     18  H   UNL     1      -1.086  49.696  30.970  1.00  0.00     0.293 HD
ENDBRANCH  14  17
BRANCH  16  19
ATOM     19  O   UNL     1      -3.762  49.115  32.265  1.00  0.00    -0.504 OA
ATOM     20  H   UNL     1      -3.571  48.235  31.798  1.00  0.00     0.293 HD
ENDBRANCH  16  19
ENDBRANCH   1  11
BRANCH  10  21
ATOM     21  O   UNL     1      -7.607  52.348  29.574  1.00  0.00    -0.500 OA
ATOM     22  H   UNL     1      -7.641  52.655  28.609  1.00  0.00     0.294 HD
ENDBRANCH  10  21
BRANCH   5  23
ATOM     23  O   UNL     1      -7.676  57.515  35.372  1.00  0.00    -0.507 OA
ATOM     24  H   UNL     1      -6.839  57.452  35.938  1.00  0.00     0.293 HD
ENDBRANCH   5  23
BRANCH   7  25
ATOM     25  O   UNL     1     -10.532  56.080  31.790  1.00  0.00    -0.507 OA
ATOM     26  H   UNL     1     -10.854  55.472  31.050  1.00  0.00     0.293 HD
ENDBRANCH   7  25
TORSDOF 6
ENDMDL
MODEL 2
REMARK VINA RESULT:    -6.288      1.272      6.985
REMARK INTER + INTRA:          -7.927
REMARK INTER:                  -7.575
REMARK INTRA:                  -0.352
REMARK UNBOUND:                -0.352
REMARK SMILES Oc1cc(O)c2cc(O)c(-c3ccc(O)c(O)c3)[o+]c2c1
REMARK SMILES IDX 10 1 19 2 20 3 21 4 2 5 3 6 4 7 6 8 7 9 8 10 11 11 12 12
REMARK SMILES IDX 13 13 14 14 18 15 16 16 15 17 17 19 9 21 1 23 5 25
REMARK H PARENT 15 18 17 20 9 22 1 24 5 26
REMARK Flexibility Score: inf
ROOT
ATOM      1  C   UNL     1      -5.971  53.609  31.688  1.00  0.00     0.402 A 
ATOM      2  O   UNL     1      -5.842  52.450  32.329  1.00  0.00    -0.202 OA
ATOM      3  C   UNL     1      -4.945  51.528  31.995  1.00  0.00     0.368 A 
ATOM      4  C   UNL     1      -4.888  50.339  32.726  1.00  0.00     0.162 A 
ATOM      5  C   UNL     1      -3.956  49.350  32.395  1.00  0.00     0.128 A 
ATOM      6  C   UNL     1      -3.080  49.553  31.327  1.00  0.00     0.093 A 
ATOM      7  C   UNL     1      -3.116  50.735  30.578  1.00  0.00     0.136 A 
ATOM      8  C   UNL     1      -4.059  51.742  30.912  1.00  0.00     0.125 A 
ATOM      9  C   UNL     1      -4.159  52.964  30.227  1.00  0.00     0.078 A 
ATOM     10  C   UNL     1      -5.110  53.911  30.617  1.00  0.00     0.223 A 
ENDROOT
BRANCH   1  11
ATOM     11  C   UNL     1      -7.016  54.552  32.149  1.00  0.00     0.087 A 
ATOM     12  C   UNL     1      -8.282  54.597  31.540  1.00  0.00     0.022 A 
ATOM     13  C   UNL     1      -9.260  55.479  32.008  1.00  0.00     0.051 A 
ATOM     14  C   UNL     1      -8.996  56.314  33.096  1.00  0.00     0.157 A 
ATOM     15  C   UNL     1      -6.762  55.378  33.256  1.00  0.00     0.068 A 
ATOM     16  C   UNL     1      -7.742  56.264  33.727  1.00  0.00     0.158 A 
BRANCH  14  17
ATOM     17  O   UNL     1      -9.992  57.185  33.540  1.00  0.00    -0.504 OA
ATOM     18  H   UNL     1     -10.236  57.269  34.520  1.00  0.00     0.293 HD
ENDBRANCH  14  17
BRANCH  16  19
ATOM     19  O   UNL     1      -7.474  57.090  34.817  1.00  0.00    -0.504 OA
ATOM     20  H   UNL     1      -6.625  57.641  34.870  1.00  0.00     0.293 HD
ENDBRANCH  16  19
ENDBRANCH   1  11
BRANCH  10  21
ATOM     21  O   UNL     1      -5.177  55.144  29.968  1.00  0.00    -0.500 OA
ATOM     22  H   UNL     1      -5.882  55.340  29.267  1.00  0.00     0.294 HD
ENDBRANCH  10  21
BRANCH   5  23
ATOM     23  O   UNL     1      -3.894  48.163  33.121  1.00  0.00    -0.507 OA
ATOM     24  H   UNL     1      -3.487  47.323  32.728  1.00  0.00     0.293 HD
ENDBRANCH   5  23
BRANCH   7  25
ATOM     25  O   UNL     1      -2.207  50.858  29.523  1.00  0.00    -0.507 OA
ATOM     26  H   UNL     1      -2.110  50.189  28.773  1.00  0.00     0.293 HD
ENDBRANCH   7  25
TORSDOF 6
ENDMDL
MODEL 3
REMARK VINA RESULT:    -6.090      2.877      4.821
REMARK INTER + INTRA:          -7.688
REMARK INTER:                  -7.392
REMARK INTRA:                  -0.296
REMARK UNBOUND:                -0.352
REMARK SMILES Oc1cc(O)c2cc(O)c(-c3ccc(O)c(O)c3)[o+]c2c1
REMARK SMILES IDX 10 1 19 2 20 3 21 4 2 5 3 6 4 7 6 8 7 9 8 10 11 11 12 12
REMARK SMILES IDX 13 13 14 14 18 15 16 16 15 17 17 19 9 21 1 23 5 25
REMARK H PARENT 15 18 17 20 9 22 1 24 5 26
REMARK Flexibility Score: inf
ROOT
ATOM      1  C   UNL     1      -8.557  53.287  30.267  1.00  0.00     0.402 A 
ATOM      2  O   UNL     1      -9.280  54.368  30.549  1.00  0.00    -0.202 OA
ATOM      3  C   UNL     1      -9.105  55.098  31.646  1.00  0.00     0.368 A 
ATOM      4  C   UNL     1      -9.917  56.215  31.856  1.00  0.00     0.162 A 
ATOM      5  C   UNL     1      -9.755  56.999  33.003  1.00  0.00     0.128 A 
ATOM      6  C   UNL     1      -8.778  56.662  33.942  1.00  0.00     0.093 A 
ATOM      7  C   UNL     1      -7.951  55.548  33.755  1.00  0.00     0.136 A 
ATOM      8  C   UNL     1      -8.110  54.750  32.591  1.00  0.00     0.125 A 
ATOM      9  C   UNL     1      -7.318  53.624  32.313  1.00  0.00     0.078 A 
ATOM     10  C   UNL     1      -7.530  52.890  31.143  1.00  0.00     0.223 A 
ENDROOT
BRANCH   1  11
ATOM     11  C   UNL     1      -8.856  52.551  29.016  1.00  0.00     0.087 A 
ATOM     12  C   UNL     1      -9.987  51.725  28.906  1.00  0.00     0.022 A 
ATOM     13  C   UNL     1     -10.262  51.059  27.708  1.00  0.00     0.051 A 
ATOM     14  C   UNL     1      -9.422  51.219  26.602  1.00  0.00     0.157 A 
ATOM     15  C   UNL     1      -8.026  52.726  27.896  1.00  0.00     0.068 A 
ATOM     16  C   UNL     1      -8.299  52.058  26.694  1.00  0.00     0.158 A 
BRANCH  14  17
ATOM     17  O   UNL     1      -9.720  50.540  25.421  1.00  0.00    -0.504 OA
ATOM     18  H   UNL     1      -9.057  49.917  24.976  1.00  0.00     0.293 HD
ENDBRANCH  14  17
BRANCH  16  19
ATOM     19  O   UNL     1      -7.461  52.227  25.593  1.00  0.00    -0.504 OA
ATOM     20  H   UNL     1      -6.600  52.758  25.657  1.00  0.00     0.293 HD
ENDBRANCH  16  19
ENDBRANCH   1  11
BRANCH  10  21
ATOM     21  O   UNL     1      -6.712  51.801  30.842  1.00  0.00    -0.500 OA
ATOM     22  H   UNL     1      -5.899  51.574  31.402  1.00  0.00     0.294 HD
ENDBRANCH  10  21
BRANCH   5  23
ATOM     23  O   UNL     1     -10.561  58.114  33.219  1.00  0.00    -0.507 OA
ATOM     24  H   UNL     1     -10.512  58.645  34.079  1.00  0.00     0.293 HD
ENDBRANCH   5  23
BRANCH   7  25
ATOM     25  O   UNL     1      -7.000  55.278  34.743  1.00  0.00    -0.507 OA
ATOM     26  H   UNL     1      -6.700  55.941  35.442  1.00  0.00     0.293 HD
ENDBRANCH   7  25
TORSDOF 6
ENDMDL
MODEL 4
REMARK VINA RESULT:    -6.069      3.476      5.139
REMARK INTER + INTRA:          -7.663
REMARK INTER:                  -7.336
REMARK INTRA:                  -0.327
REMARK UNBOUND:                -0.352
REMARK SMILES Oc1cc(O)c2cc(O)c(-c3ccc(O)c(O)c3)[o+]c2c1
REMARK SMILES IDX 10 1 19 2 20 3 21 4 2 5 3 6 4 7 6 8 7 9 8 10 11 11 12 12
REMARK SMILES IDX 13 13 14 14 18 15 16 16 15 17 17 19 9 21 1 23 5 25
REMARK H PARENT 15 18 17 20 9 22 1 24 5 26
REMARK Flexibility Score: inf
ROOT
ATOM      1  C   UNL     1      -6.614  52.565  29.046  1.00  0.00     0.402 A 
ATOM      2  O   UNL     1      -5.511  53.306  29.118  1.00  0.00    -0.202 OA
ATOM      3  C   UNL     1      -5.184  54.027  30.186  1.00  0.00     0.368 A 
ATOM      4  C   UNL     1      -4.005  54.776  30.165  1.00  0.00     0.162 A 
ATOM      5  C   UNL     1      -3.639  55.547  31.274  1.00  0.00     0.128 A 
ATOM      6  C   UNL     1      -4.456  55.567  32.406  1.00  0.00     0.093 A 
ATOM      7  C   UNL     1      -5.643  54.824  32.452  1.00  0.00     0.136 A 
ATOM      8  C   UNL     1      -6.017  54.040  31.330  1.00  0.00     0.125 A 
ATOM      9  C   UNL     1      -7.181  53.254  31.291  1.00  0.00     0.078 A 
ATOM     10  C   UNL     1      -7.482  52.502  30.152  1.00  0.00     0.223 A 
ENDROOT
BRANCH   1  11
ATOM     11  C   UNL     1      -6.872  51.814  27.797  1.00  0.00     0.087 A 
ATOM     12  C   UNL     1      -6.269  50.568  27.554  1.00  0.00     0.022 A 
ATOM     13  C   UNL     1      -6.546  49.865  26.378  1.00  0.00     0.051 A 
ATOM     14  C   UNL     1      -7.438  50.387  25.436  1.00  0.00     0.157 A 
ATOM     15  C   UNL     1      -7.784  52.325  26.858  1.00  0.00     0.068 A 
ATOM     16  C   UNL     1      -8.063  51.622  25.677  1.00  0.00     0.158 A 
BRANCH  14  17
ATOM     17  O   UNL     1      -7.694  49.665  24.271  1.00  0.00    -0.504 OA
ATOM     18  H   UNL     1      -7.662  48.652  24.247  1.00  0.00     0.293 HD
ENDBRANCH  14  17
BRANCH  16  19
ATOM     19  O   UNL     1      -8.958  52.146  24.746  1.00  0.00    -0.504 OA
ATOM     20  H   UNL     1      -9.095  51.714  23.839  1.00  0.00     0.293 HD
ENDBRANCH  16  19
ENDBRANCH   1  11
BRANCH  10  21
ATOM     21  O   UNL     1      -8.611  51.685  30.131  1.00  0.00    -0.500 OA
ATOM     22  H   UNL     1      -9.334  51.791  29.429  1.00  0.00     0.294 HD
ENDBRANCH  10  21
BRANCH   5  23
ATOM     23  O   UNL     1      -2.465  56.295  31.260  1.00  0.00    -0.507 OA
ATOM     24  H   UNL     1      -2.184  56.857  32.055  1.00  0.00     0.293 HD
ENDBRANCH   5  23
BRANCH   7  25
ATOM     25  O   UNL     1      -6.406  54.902  33.620  1.00  0.00    -0.507 OA
ATOM     26  H   UNL     1      -6.689  55.765  34.061  1.00  0.00     0.293 HD
ENDBRANCH   7  25
TORSDOF 6
ENDMDL
MODEL 5
REMARK VINA RESULT:    -5.918      1.989      7.146
REMARK INTER + INTRA:          -7.482
REMARK INTER:                  -7.230
REMARK INTRA:                  -0.252
REMARK UNBOUND:                -0.352
REMARK SMILES Oc1cc(O)c2cc(O)c(-c3ccc(O)c(O)c3)[o+]c2c1
REMARK SMILES IDX 10 1 19 2 20 3 21 4 2 5 3 6 4 7 6 8 7 9 8 10 11 11 12 12
REMARK SMILES IDX 13 13 14 14 18 15 16 16 15 17 17 19 9 21 1 23 5 25
REMARK H PARENT 15 18 17 20 9 22 1 24 5 26
REMARK Flexibility Score: inf
ROOT
ATOM      1  C   UNL     1      -7.728  55.771  33.813  1.00  0.00     0.402 A 
ATOM      2  O   UNL     1      -6.625  55.110  33.468  1.00  0.00    -0.202 OA
ATOM      3  C   UNL     1      -6.522  54.392  32.355  1.00  0.00     0.368 A 
ATOM      4  C   UNL     1      -5.323  53.731  32.081  1.00  0.00     0.162 A 
ATOM      5  C   UNL     1      -5.188  52.966  30.918  1.00  0.00     0.128 A 
ATOM      6  C   UNL     1      -6.258  52.863  30.027  1.00  0.00     0.093 A 
ATOM      7  C   UNL     1      -7.470  53.517  30.278  1.00  0.00     0.136 A 
ATOM      8  C   UNL     1      -7.611  54.296  31.456  1.00  0.00     0.125 A 
ATOM      9  C   UNL     1      -8.784  54.996  31.783  1.00  0.00     0.078 A 
ATOM     10  C   UNL     1      -8.847  55.748  32.960  1.00  0.00     0.223 A 
ENDROOT
BRANCH   1  11
ATOM     11  C   UNL     1      -7.722  56.528  35.086  1.00  0.00     0.087 A 
ATOM     12  C   UNL     1      -7.721  55.871  36.328  1.00  0.00     0.022 A 
ATOM     13  C   UNL     1      -7.691  56.606  37.517  1.00  0.00     0.051 A 
ATOM     14  C   UNL     1      -7.648  58.003  37.483  1.00  0.00     0.157 A 
ATOM     15  C   UNL     1      -7.657  57.931  35.056  1.00  0.00     0.068 A 
ATOM     16  C   UNL     1      -7.628  58.670  36.247  1.00  0.00     0.158 A 
BRANCH  14  17
ATOM     17  O   UNL     1      -7.621  58.710  38.684  1.00  0.00    -0.504 OA
ATOM     18  H   UNL     1      -7.223  59.639  38.754  1.00  0.00     0.293 HD
ENDBRANCH  14  17
BRANCH  16  19
ATOM     19  O   UNL     1      -7.578  60.063  36.205  1.00  0.00    -0.504 OA
ATOM     20  H   UNL     1      -7.316  60.560  35.362  1.00  0.00     0.293 HD
ENDBRANCH  16  19
ENDBRANCH   1  11
BRANCH  10  21
ATOM     21  O   UNL     1      -9.993  56.482  33.261  1.00  0.00    -0.500 OA
ATOM     22  H   UNL     1     -10.432  56.436  34.173  1.00  0.00     0.294 HD
ENDBRANCH  10  21
BRANCH   5  23
ATOM     23  O   UNL     1      -3.994  52.304  30.639  1.00  0.00    -0.507 OA
ATOM     24  H   UNL     1      -3.588  52.312  29.711  1.00  0.00     0.293 HD
ENDBRANCH   5  23
BRANCH   7  25
ATOM     25  O   UNL     1      -8.493  53.360  29.338  1.00  0.00    -0.507 OA
ATOM     26  H   UNL     1      -8.600  53.929  28.510  1.00  0.00     0.293 HD
ENDBRANCH   7  25
TORSDOF 6
ENDMDL
MODEL 6
REMARK VINA RESULT:    -5.912      3.524      4.838
REMARK INTER + INTRA:          -7.474
REMARK INTER:                  -7.123
REMARK INTRA:                  -0.350
REMARK UNBOUND:                -0.352
REMARK SMILES Oc1cc(O)c2cc(O)c(-c3ccc(O)c(O)c3)[o+]c2c1
REMARK SMILES IDX 10 1 19 2 20 3 21 4 2 5 3 6 4 7 6 8 7 9 8 10 11 11 12 12
REMARK SMILES IDX 13 13 14 14 18 15 16 16 15 17 17 19 9 21 1 23 5 25
REMARK H PARENT 15 18 17 20 9 22 1 24 5 26
REMARK Flexibility Score: inf
ROOT
ATOM      1  C   UNL     1      -6.579  52.555  29.002  1.00  0.00     0.402 A 
ATOM      2  O   UNL     1      -5.472  53.287  29.090  1.00  0.00    -0.202 OA
ATOM      3  C   UNL     1      -5.152  54.002  30.163  1.00  0.00     0.368 A 
ATOM      4  C   UNL     1      -3.967  54.743  30.158  1.00  0.00     0.162 A 
ATOM      5  C   UNL     1      -3.608  55.507  31.274  1.00  0.00     0.128 A 
ATOM      6  C   UNL     1      -4.438  55.529  32.396  1.00  0.00     0.093 A 
ATOM      7  C   UNL     1      -5.630  54.795  32.427  1.00  0.00     0.136 A 
ATOM      8  C   UNL     1      -5.998  54.017  31.298  1.00  0.00     0.125 A 
ATOM      9  C   UNL     1      -7.167  53.240  31.243  1.00  0.00     0.078 A 
ATOM     10  C   UNL     1      -7.461  52.494  30.098  1.00  0.00     0.223 A 
ENDROOT
BRANCH   1  11
ATOM     11  C   UNL     1      -6.829  51.809  27.747  1.00  0.00     0.087 A 
ATOM     12  C   UNL     1      -7.651  52.334  26.736  1.00  0.00     0.022 A 
ATOM     13  C   UNL     1      -7.854  51.623  25.549  1.00  0.00     0.051 A 
ATOM     14  C   UNL     1      -7.229  50.389  25.350  1.00  0.00     0.157 A 
ATOM     15  C   UNL     1      -6.186  50.579  27.534  1.00  0.00     0.068 A 
ATOM     16  C   UNL     1      -6.389  49.863  26.346  1.00  0.00     0.158 A 
BRANCH  14  17
ATOM     17  O   UNL     1      -7.451  49.701  24.157  1.00  0.00    -0.504 OA
ATOM     18  H   UNL     1      -8.327  49.766  23.653  1.00  0.00     0.293 HD
ENDBRANCH  14  17
BRANCH  16  19
ATOM     19  O   UNL     1      -5.757  48.636  26.151  1.00  0.00    -0.504 OA
ATOM     20  H   UNL     1      -4.799  48.577  25.826  1.00  0.00     0.293 HD
ENDBRANCH  16  19
ENDBRANCH   1  11
BRANCH  10  21
ATOM     21  O   UNL     1      -8.595  51.685  30.062  1.00  0.00    -0.500 OA
ATOM     22  H   UNL     1      -9.021  51.326  30.908  1.00  0.00     0.294 HD
ENDBRANCH  10  21
BRANCH   5  23
ATOM     23  O   UNL     1      -2.428  56.247  31.276  1.00  0.00    -0.507 OA
ATOM     24  H   UNL     1      -2.378  57.162  31.706  1.00  0.00     0.293 HD
ENDBRANCH   5  23
BRANCH   7  25
ATOM     25  O   UNL     1      -6.406  54.874  33.587  1.00  0.00    -0.507 OA
ATOM     26  H   UNL     1      -7.086  55.597  33.771  1.00  0.00     0.293 HD
ENDBRANCH   7  25
TORSDOF 6
ENDMDL
MODEL 7
REMARK VINA RESULT:    -5.832      3.394      7.021
REMARK INTER + INTRA:          -7.377
REMARK INTER:                  -7.326
REMARK INTRA:                  -0.051
REMARK UNBOUND:                -0.352
REMARK SMILES Oc1cc(O)c2cc(O)c(-c3ccc(O)c(O)c3)[o+]c2c1
REMARK SMILES IDX 10 1 19 2 20 3 21 4 2 5 3 6 4 7 6 8 7 9 8 10 11 11 12 12
REMARK SMILES IDX 13 13 14 14 18 15 16 16 15 17 17 19 9 21 1 23 5 25
REMARK H PARENT 15 18 17 20 9 22 1 24 5 26
REMARK Flexibility Score: inf
ROOT
ATOM      1  C   UNL     1      -8.469  52.968  29.681  1.00  0.00     0.402 A 
ATOM      2  O   UNL     1      -7.525  52.860  28.750  1.00  0.00    -0.202 OA
ATOM      3  C   UNL     1      -7.719  52.260  27.580  1.00  0.00     0.368 A 
ATOM      4  C   UNL     1      -6.663  52.194  26.667  1.00  0.00     0.162 A 
ATOM      5  C   UNL     1      -6.839  51.567  25.429  1.00  0.00     0.128 A 
ATOM      6  C   UNL     1      -8.075  51.004  25.105  1.00  0.00     0.093 A 
ATOM      7  C   UNL     1      -9.149  51.058  26.002  1.00  0.00     0.136 A 
ATOM      8  C   UNL     1      -8.976  51.696  27.259  1.00  0.00     0.125 A 
ATOM      9  C   UNL     1      -9.999  51.809  28.215  1.00  0.00     0.078 A 
ATOM     10  C   UNL     1      -9.755  52.456  29.430  1.00  0.00     0.223 A 
ENDROOT
BRANCH   1  11
ATOM     11  C   UNL     1      -8.126  53.650  30.950  1.00  0.00     0.087 A 
ATOM     12  C   UNL     1      -7.013  53.258  31.714  1.00  0.00     0.022 A 
ATOM     13  C   UNL     1      -6.696  53.932  32.897  1.00  0.00     0.051 A 
ATOM     14  C   UNL     1      -7.472  55.012  33.326  1.00  0.00     0.157 A 
ATOM     15  C   UNL     1      -8.892  54.749  31.373  1.00  0.00     0.068 A 
ATOM     16  C   UNL     1      -8.575  55.426  32.560  1.00  0.00     0.158 A 
BRANCH  14  17
ATOM     17  O   UNL     1      -7.132  55.664  34.511  1.00  0.00    -0.504 OA
ATOM     18  H   UNL     1      -7.038  55.169  35.390  1.00  0.00     0.293 HD
ENDBRANCH  14  17
BRANCH  16  19
ATOM     19  O   UNL     1      -9.350  56.506  32.978  1.00  0.00    -0.504 OA
ATOM     20  H   UNL     1      -9.532  56.682  33.959  1.00  0.00     0.293 HD
ENDBRANCH  16  19
ENDBRANCH   1  11
BRANCH  10  21
ATOM     21  O   UNL     1     -10.783  52.611  30.358  1.00  0.00    -0.500 OA
ATOM     22  H   UNL     1     -11.585  51.991  30.375  1.00  0.00     0.294 HD
ENDBRANCH  10  21
BRANCH   5  23
ATOM     23  O   UNL     1      -5.791  51.497  24.515  1.00  0.00    -0.507 OA
ATOM     24  H   UNL     1      -5.693  50.714  23.879  1.00  0.00     0.293 HD
ENDBRANCH   5  23
BRANCH   7  25
ATOM     25  O   UNL     1     -10.352  50.469  25.603  1.00  0.00    -0.507 OA
ATOM     26  H   UNL     1     -10.647  49.539  25.866  1.00  0.00     0.293 HD
ENDBRANCH   7  25
TORSDOF 6
ENDMDL
MODEL 8
REMARK VINA RESULT:    -5.800      3.077      4.929
REMARK INTER + INTRA:          -7.339
REMARK INTER:                  -6.986
REMARK INTRA:                  -0.353
REMARK UNBOUND:                -0.352
REMARK SMILES Oc1cc(O)c2cc(O)c(-c3ccc(O)c(O)c3)[o+]c2c1
REMARK SMILES IDX 10 1 19 2 20 3 21 4 2 5 3 6 4 7 6 8 7 9 8 10 11 11 12 12
REMARK SMILES IDX 13 13 14 14 18 15 16 16 15 17 17 19 9 21 1 23 5 25
REMARK H PARENT 15 18 17 20 9 22 1 24 5 26
REMARK Flexibility Score: inf
ROOT
ATOM      1  C   UNL     1      -7.175  52.770  29.352  1.00  0.00     0.402 A 
ATOM      2  O   UNL     1      -8.040  53.384  30.156  1.00  0.00    -0.202 OA
ATOM      3  C   UNL     1      -7.671  54.164  31.166  1.00  0.00     0.368 A 
ATOM      4  C   UNL     1      -8.654  54.763  31.957  1.00  0.00     0.162 A 
ATOM      5  C   UNL     1      -8.293  55.587  33.028  1.00  0.00     0.128 A 
ATOM      6  C   UNL     1      -6.944  55.810  33.308  1.00  0.00     0.093 A 
ATOM      7  C   UNL     1      -5.939  55.222  32.530  1.00  0.00     0.136 A 
ATOM      8  C   UNL     1      -6.300  54.387  31.441  1.00  0.00     0.125 A 
ATOM      9  C   UNL     1      -5.362  53.767  30.600  1.00  0.00     0.078 A 
ATOM     10  C   UNL     1      -5.794  52.961  29.542  1.00  0.00     0.223 A 
ENDROOT
BRANCH   1  11
ATOM     11  C   UNL     1      -7.711  51.917  28.266  1.00  0.00     0.087 A 
ATOM     12  C   UNL     1      -7.947  50.545  28.462  1.00  0.00     0.022 A 
ATOM     13  C   UNL     1      -8.476  49.765  27.430  1.00  0.00     0.051 A 
ATOM     14  C   UNL     1      -8.790  50.343  26.197  1.00  0.00     0.157 A 
ATOM     15  C   UNL     1      -8.048  52.498  27.033  1.00  0.00     0.068 A 
ATOM     16  C   UNL     1      -8.577  51.717  25.996  1.00  0.00     0.158 A 
BRANCH  14  17
ATOM     17  O   UNL     1      -9.314  49.539  25.185  1.00  0.00    -0.504 OA
ATOM     18  H   UNL     1     -10.006  48.822  25.370  1.00  0.00     0.293 HD
ENDBRANCH  14  17
BRANCH  16  19
ATOM     19  O   UNL     1      -8.894  52.301  24.771  1.00  0.00    -0.504 OA
ATOM     20  H   UNL     1      -9.469  53.134  24.712  1.00  0.00     0.293 HD
ENDBRANCH  16  19
ENDBRANCH   1  11
BRANCH  10  21
ATOM     21  O   UNL     1      -4.865  52.384  28.677  1.00  0.00    -0.500 OA
ATOM     22  H   UNL     1      -3.919  52.174  28.974  1.00  0.00     0.294 HD
ENDBRANCH  10  21
BRANCH   5  23
ATOM     23  O   UNL     1      -9.269  56.188  33.820  1.00  0.00    -0.507 OA
ATOM     24  H   UNL     1      -9.515  57.164  33.709  1.00  0.00     0.293 HD
ENDBRANCH   5  23
BRANCH   7  25
ATOM     25  O   UNL     1      -4.612  55.494  32.879  1.00  0.00    -0.507 OA
ATOM     26  H   UNL     1      -3.878  55.696  32.216  1.00  0.00     0.293 HD
ENDBRANCH   7  25
TORSDOF 6
ENDMDL
MODEL 9
REMARK VINA RESULT:    -5.755      3.379      7.735
REMARK INTER + INTRA:          -7.285
REMARK INTER:                  -6.936
REMARK INTRA:                  -0.349
REMARK UNBOUND:                -0.352
REMARK SMILES Oc1cc(O)c2cc(O)c(-c3ccc(O)c(O)c3)[o+]c2c1
REMARK SMILES IDX 10 1 19 2 20 3 21 4 2 5 3 6 4 7 6 8 7 9 8 10 11 11 12 12
REMARK SMILES IDX 13 13 14 14 18 15 16 16 15 17 17 19 9 21 1 23 5 25
REMARK H PARENT 15 18 17 20 9 22 1 24 5 26
REMARK Flexibility Score: inf
ROOT
ATOM      1  C   UNL     1      -5.127  52.166  28.654  1.00  0.00     0.402 A 
ATOM      2  O   UNL     1      -4.179  51.236  28.742  1.00  0.00    -0.202 OA
ATOM      3  C   UNL     1      -3.956  50.329  27.797  1.00  0.00     0.368 A 
ATOM      4  C   UNL     1      -2.938  49.390  27.983  1.00  0.00     0.162 A 
ATOM      5  C   UNL     1      -2.683  48.423  27.005  1.00  0.00     0.128 A 
ATOM      6  C   UNL     1      -3.450  48.396  25.838  1.00  0.00     0.093 A 
ATOM      7  C   UNL     1      -4.475  49.326  25.628  1.00  0.00     0.136 A 
ATOM      8  C   UNL     1      -4.736  50.311  26.616  1.00  0.00     0.125 A 
ATOM      9  C   UNL     1      -5.734  51.291  26.486  1.00  0.00     0.078 A 
ATOM     10  C   UNL     1      -5.930  52.232  27.500  1.00  0.00     0.223 A 
ENDROOT
BRANCH   1  11
ATOM     11  C   UNL     1      -5.285  53.115  29.780  1.00  0.00     0.087 A 
ATOM     12  C   UNL     1      -6.250  52.909  30.780  1.00  0.00     0.022 A 
ATOM     13  C   UNL     1      -6.365  53.806  31.847  1.00  0.00     0.051 A 
ATOM     14  C   UNL     1      -5.511  54.909  31.938  1.00  0.00     0.157 A 
ATOM     15  C   UNL     1      -4.415  54.212  29.886  1.00  0.00     0.068 A 
ATOM     16  C   UNL     1      -4.529  55.114  30.954  1.00  0.00     0.158 A 
BRANCH  14  17
ATOM     17  O   UNL     1      -5.650  55.787  33.012  1.00  0.00    -0.504 OA
ATOM     18  H   UNL     1      -5.305  56.739  32.977  1.00  0.00     0.293 HD
ENDBRANCH  14  17
BRANCH  16  19
ATOM     19  O   UNL     1      -3.669  56.207  31.042  1.00  0.00    -0.504 OA
ATOM     20  H   UNL     1      -3.883  57.005  31.629  1.00  0.00     0.293 HD
ENDBRANCH  16  19
ENDBRANCH   1  11
BRANCH  10  21
ATOM     21  O   UNL     1      -6.887  53.235  27.349  1.00  0.00    -0.500 OA
ATOM     22  H   UNL     1      -7.531  53.243  26.567  1.00  0.00     0.294 HD
ENDBRANCH  10  21
BRANCH   5  23
ATOM     23  O   UNL     1      -1.670  47.484  27.184  1.00  0.00    -0.507 OA
ATOM     24  H   UNL     1      -0.693  47.733  27.084  1.00  0.00     0.293 HD
ENDBRANCH   5  23
BRANCH   7  25
ATOM     25  O   UNL     1      -5.198  49.229  24.435  1.00  0.00    -0.507 OA
ATOM     26  H   UNL     1      -4.793  49.308  23.514  1.00  0.00     0.293 HD
ENDBRANCH   7  25
TORSDOF 6
ENDMDL
