MODEL 1
REMARK VINA RESULT:     0.785      0.000      0.000
REMARK INTER + INTRA:           0.808
REMARK INTER:                   0.808
REMARK INTRA:                   0.000
REMARK UNBOUND:                 0.000
REMARK SMILES C=C1[C@H](O)C[C@]23C[C@H]1C(C)(C)[C@H]2CC[C@@H]3C
REMARK SMILES IDX 16 1 15 2 14 3 13 4 12 5 6 6 7 7 8 8 9 9 10 10 11 11 2 12
REMARK SMILES IDX 1 13 3 14 5 15 4 16
REMARK H PARENT 4 17
REMARK Flexibility Score: inf
ROOT
ATOM      1  C   UNL     1     137.304 134.238 139.637  1.00  0.00     0.008 C 
ATOM      2  C   UNL     1     135.796 133.952 139.682  1.00  0.00    -0.008 C 
ATOM      3  C   UNL     1     135.003 135.176 140.133  1.00  0.00     0.004 C 
ATOM      4  C   UNL     1     133.590 134.918 139.644  1.00  0.00     0.005 C 
ATOM      5  C   UNL     1     133.776 134.248 138.275  1.00  0.00     0.002 C 
ATOM      6  C   UNL     1     135.132 133.503 138.343  1.00  0.00    -0.020 C 
ATOM      7  C   UNL     1     134.756 132.018 138.328  1.00  0.00     0.016 C 
ATOM      8  C   UNL     1     133.610 132.004 137.330  1.00  0.00     0.023 C 
ATOM      9  C   UNL     1     132.718 133.198 137.789  1.00  0.00    -0.025 C 
ATOM     10  C   UNL     1     131.844 133.777 136.648  1.00  0.00     0.012 C 
ATOM     11  C   UNL     1     131.744 132.710 138.894  1.00  0.00     0.012 C 
ATOM     12  C   UNL     1     134.214 132.229 135.945  1.00  0.00    -0.045 C 
ATOM     13  C   UNL     1     133.698 131.584 134.886  1.00  0.00     0.011 C 
ATOM     14  C   UNL     1     135.272 133.315 135.738  1.00  0.00     0.140 C 
ATOM     15  C   UNL     1     135.969 133.775 137.056  1.00  0.00     0.044 C 
ENDROOT
BRANCH  14  16
ATOM     16  O   UNL     1     136.247 132.853 134.836  1.00  0.00    -0.389 OA
ATOM     17  H   UNL     1     135.886 132.026 134.423  1.00  0.00     0.211 HD
ENDBRANCH  14  16
TORSDOF 1
ENDMDL
MODEL 2
REMARK VINA RESULT:     2.374      1.688      4.091
REMARK INTER + INTRA:           2.444
REMARK INTER:                   2.444
REMARK INTRA:                   0.000
REMARK UNBOUND:                 0.000
REMARK SMILES C=C1[C@H](O)C[C@]23C[C@H]1C(C)(C)[C@H]2CC[C@@H]3C
REMARK SMILES IDX 16 1 15 2 14 3 13 4 12 5 6 6 7 7 8 8 9 9 10 10 11 11 2 12
REMARK SMILES IDX 1 13 3 14 5 15 4 16
REMARK H PARENT 4 17
REMARK Flexibility Score: inf
ROOT
ATOM      1  C   UNL     1     135.889 133.375 134.118  1.00  0.00     0.008 C 
ATOM      2  C   UNL     1     134.560 132.797 134.627  1.00  0.00    -0.008 C 
ATOM      3  C   UNL     1     134.469 131.293 134.385  1.00  0.00     0.004 C 
ATOM      4  C   UNL     1     133.406 130.812 135.356  1.00  0.00     0.005 C 
ATOM      5  C   UNL     1     133.641 131.648 136.622  1.00  0.00     0.002 C 
ATOM      6  C   UNL     1     134.252 132.988 136.144  1.00  0.00    -0.020 C 
ATOM      7  C   UNL     1     133.157 134.026 136.408  1.00  0.00     0.016 C 
ATOM      8  C   UNL     1     132.602 133.552 137.741  1.00  0.00     0.023 C 
ATOM      9  C   UNL     1     132.417 132.018 137.529  1.00  0.00    -0.025 C 
ATOM     10  C   UNL     1     132.443 131.214 138.854  1.00  0.00     0.012 C 
ATOM     11  C   UNL     1     131.033 131.759 136.877  1.00  0.00     0.012 C 
ATOM     12  C   UNL     1     133.652 133.868 138.805  1.00  0.00    -0.045 C 
ATOM     13  C   UNL     1     133.258 134.266 140.027  1.00  0.00     0.011 C 
ATOM     14  C   UNL     1     135.128 133.558 138.543  1.00  0.00     0.140 C 
ATOM     15  C   UNL     1     135.474 133.378 137.032  1.00  0.00     0.044 C 
ENDROOT
BRANCH  14  16
ATOM     16  O   UNL     1     135.925 134.583 139.081  1.00  0.00    -0.389 OA
ATOM     17  H   UNL     1     136.867 134.359 138.861  1.00  0.00     0.211 HD
ENDBRANCH  14  16
TORSDOF 1
ENDMDL
MODEL 3
REMARK VINA RESULT:     3.523      2.141      3.504
REMARK INTER + INTRA:           3.626
REMARK INTER:                   3.626
REMARK INTRA:                   0.000
REMARK UNBOUND:                 0.000
REMARK SMILES C=C1[C@H](O)C[C@]23C[C@H]1C(C)(C)[C@H]2CC[C@@H]3C
REMARK SMILES IDX 16 1 15 2 14 3 13 4 12 5 6 6 7 7 8 8 9 9 10 10 11 11 2 12
REMARK SMILES IDX 1 13 3 14 5 15 4 16
REMARK H PARENT 4 17
REMARK Flexibility Score: inf
ROOT
ATOM      1  C   UNL     1     134.338 135.044 140.034  1.00  0.00     0.008 C 
ATOM      2  C   UNL     1     134.652 134.730 138.563  1.00  0.00    -0.008 C 
ATOM      3  C   UNL     1     136.114 134.338 138.370  1.00  0.00     0.004 C 
ATOM      4  C   UNL     1     136.139 133.591 137.050  1.00  0.00     0.005 C 
ATOM      5  C   UNL     1     134.837 132.777 137.048  1.00  0.00     0.002 C 
ATOM      6  C   UNL     1     133.829 133.580 137.906  1.00  0.00    -0.020 C 
ATOM      7  C   UNL     1     132.788 134.085 136.902  1.00  0.00     0.016 C 
ATOM      8  C   UNL     1     132.646 132.886 135.979  1.00  0.00     0.023 C 
ATOM      9  C   UNL     1     134.124 132.483 135.683  1.00  0.00    -0.025 C 
ATOM     10  C   UNL     1     134.278 130.993 135.285  1.00  0.00     0.012 C 
ATOM     11  C   UNL     1     134.651 133.322 134.489  1.00  0.00     0.012 C 
ATOM     12  C   UNL     1     131.893 131.806 136.754  1.00  0.00    -0.045 C 
ATOM     13  C   UNL     1     131.012 131.023 136.110  1.00  0.00     0.011 C 
ATOM     14  C   UNL     1     132.274 131.497 138.204  1.00  0.00     0.140 C 
ATOM     15  C   UNL     1     133.084 132.635 138.899  1.00  0.00     0.044 C 
ENDROOT
BRANCH  14  16
ATOM     16  O   UNL     1     131.110 131.237 138.948  1.00  0.00    -0.389 OA
ATOM     17  H   UNL     1     131.094 131.893 139.694  1.00  0.00     0.211 HD
ENDBRANCH  14  16
TORSDOF 1
ENDMDL
