MODEL 1
REMARK VINA RESULT:    -3.982      0.000      0.000
REMARK INTER + INTRA:          -4.684
REMARK INTER:                  -4.680
REMARK INTRA:                  -0.004
REMARK UNBOUND:                -0.004
REMARK SMILES COc1cc2ccc(=O)oc2c(OC)c1OC
REMARK SMILES IDX 3 1 15 2 12 3 11 4 5 5 4 6 6 7 7 8 8 9 9 10 10 11 2 12 1 13
REMARK SMILES IDX 16 14 17 15 13 16 14 17
REMARK H PARENT
REMARK Flexibility Score: inf
ROOT
ATOM      1  C   UNL     1      -3.612   9.461   0.782  1.00  0.00     0.165 A 
ATOM      2  C   UNL     1      -3.568   8.283  -0.009  1.00  0.00     0.207 A 
ATOM      3  C   UNL     1      -2.347   7.613  -0.213  1.00  0.00     0.208 A 
ATOM      4  C   UNL     1      -1.161   8.118   0.370  1.00  0.00     0.184 A 
ATOM      5  C   UNL     1      -1.211   9.290   1.154  1.00  0.00     0.025 A 
ATOM      6  C   UNL     1      -2.425   9.950   1.355  1.00  0.00     0.062 A 
ATOM      7  C   UNL     1      -0.027   9.773   1.723  1.00  0.00     0.020 A 
ATOM      8  C   UNL     1       1.167   9.091   1.504  1.00  0.00     0.094 A 
ATOM      9  C   UNL     1       1.148   7.938   0.719  1.00  0.00     0.336 A 
ATOM     10  O   UNL     1       2.215   7.305   0.506  1.00  0.00    -0.246 OA
ATOM     11  O   UNL     1       0.008   7.503   0.191  1.00  0.00    -0.419 OA
ENDROOT
BRANCH   1  12
ATOM     12  O   UNL     1      -4.833  10.125   0.983  1.00  0.00    -0.493 OA
ATOM     13  C   UNL     1      -5.978   9.561   1.617  1.00  0.00     0.278 C 
ENDBRANCH   1  12
BRANCH   2  14
ATOM     14  O   UNL     1      -4.703   7.717  -0.623  1.00  0.00    -0.490 OA
ATOM     15  C   UNL     1      -5.443   8.260  -1.711  1.00  0.00     0.278 C 
ENDBRANCH   2  14
BRANCH   3  16
ATOM     16  O   UNL     1      -2.386   6.451  -1.009  1.00  0.00    -0.490 OA
ATOM     17  C   UNL     1      -2.226   6.387  -2.422  1.00  0.00     0.278 C 
ENDBRANCH   3  16
TORSDOF 3
ENDMDL
MODEL 2
REMARK VINA RESULT:    -3.822     12.005     13.425
REMARK INTER + INTRA:          -4.496
REMARK INTER:                  -4.505
REMARK INTRA:                   0.008
REMARK UNBOUND:                -0.004
REMARK SMILES COc1cc2ccc(=O)oc2c(OC)c1OC
REMARK SMILES IDX 3 1 15 2 12 3 11 4 5 5 4 6 6 7 7 8 8 9 9 10 10 11 2 12 1 13
REMARK SMILES IDX 16 14 17 15 13 16 14 17
REMARK H PARENT
REMARK Flexibility Score: inf
ROOT
ATOM      1  C   UNL     1      -0.678   1.033  -9.663  1.00  0.00     0.165 A 
ATOM      2  C   UNL     1      -0.653  -0.317  -9.226  1.00  0.00     0.207 A 
ATOM      3  C   UNL     1      -1.832  -0.933  -8.763  1.00  0.00     0.208 A 
ATOM      4  C   UNL     1      -3.043  -0.202  -8.733  1.00  0.00     0.184 A 
ATOM      5  C   UNL     1      -3.060   1.140  -9.169  1.00  0.00     0.025 A 
ATOM      6  C   UNL     1      -1.889   1.746  -9.627  1.00  0.00     0.062 A 
ATOM      7  C   UNL     1      -4.269   1.845  -9.131  1.00  0.00     0.020 A 
ATOM      8  C   UNL     1      -5.419   1.212  -8.668  1.00  0.00     0.094 A 
ATOM      9  C   UNL     1      -5.333  -0.117  -8.252  1.00  0.00     0.336 A 
ATOM     10  O   UNL     1      -6.359  -0.711  -7.829  1.00  0.00    -0.246 OA
ATOM     11  O   UNL     1      -4.171  -0.762  -8.299  1.00  0.00    -0.419 OA
ENDROOT
BRANCH   1  12
ATOM     12  O   UNL     1       0.500   1.643 -10.125  1.00  0.00    -0.493 OA
ATOM     13  C   UNL     1       0.753   3.045 -10.123  1.00  0.00     0.278 C 
ENDBRANCH   1  12
BRANCH   2  14
ATOM     14  O   UNL     1       0.510  -1.112  -9.224  1.00  0.00    -0.490 OA
ATOM     15  C   UNL     1       1.773  -0.774  -8.658  1.00  0.00     0.278 C 
ENDBRANCH   2  14
BRANCH   3  16
ATOM     16  O   UNL     1      -1.725  -2.275  -8.347  1.00  0.00    -0.490 OA
ATOM     17  C   UNL     1      -2.202  -3.419  -9.046  1.00  0.00     0.278 C 
ENDBRANCH   3  16
TORSDOF 3
ENDMDL
MODEL 3
REMARK VINA RESULT:    -3.728     12.276     15.077
REMARK INTER + INTRA:          -4.385
REMARK INTER:                  -4.138
REMARK INTRA:                  -0.248
REMARK UNBOUND:                -0.004
REMARK SMILES COc1cc2ccc(=O)oc2c(OC)c1OC
REMARK SMILES IDX 3 1 15 2 12 3 11 4 5 5 4 6 6 7 7 8 8 9 9 10 10 11 2 12 1 13
REMARK SMILES IDX 16 14 17 15 13 16 14 17
REMARK H PARENT
REMARK Flexibility Score: inf
ROOT
ATOM      1  C   UNL     1       0.445  -0.353  -9.824  1.00  0.00     0.165 A 
ATOM      2  C   UNL     1      -0.677  -1.209  -9.967  1.00  0.00     0.207 A 
ATOM      3  C   UNL     1      -0.505  -2.606  -9.977  1.00  0.00     0.208 A 
ATOM      4  C   UNL     1       0.791  -3.157  -9.845  1.00  0.00     0.184 A 
ATOM      5  C   UNL     1       1.903  -2.300  -9.702  1.00  0.00     0.025 A 
ATOM      6  C   UNL     1       1.728  -0.915  -9.693  1.00  0.00     0.062 A 
ATOM      7  C   UNL     1       3.177  -2.865  -9.573  1.00  0.00     0.020 A 
ATOM      8  C   UNL     1       3.319  -4.249  -9.586  1.00  0.00     0.094 A 
ATOM      9  C   UNL     1       2.179  -5.040  -9.729  1.00  0.00     0.336 A 
ATOM     10  O   UNL     1       2.281  -6.295  -9.745  1.00  0.00    -0.246 OA
ATOM     11  O   UNL     1       0.981  -4.476  -9.851  1.00  0.00    -0.419 OA
ENDROOT
BRANCH   1  12
ATOM     12  O   UNL     1       0.269   1.040  -9.814  1.00  0.00    -0.493 OA
ATOM     13  C   UNL     1      -0.004   1.824  -8.656  1.00  0.00     0.278 C 
ENDBRANCH   1  12
BRANCH   2  14
ATOM     14  O   UNL     1      -1.999  -0.740 -10.104  1.00  0.00    -0.490 OA
ATOM     15  C   UNL     1      -2.904  -0.421  -9.052  1.00  0.00     0.278 C 
ENDBRANCH   2  14
BRANCH   3  16
ATOM     16  O   UNL     1      -1.669  -3.388 -10.122  1.00  0.00    -0.490 OA
ATOM     17  C   UNL     1      -2.308  -4.153  -9.106  1.00  0.00     0.278 C 
ENDBRANCH   3  16
TORSDOF 3
ENDMDL
MODEL 4
REMARK VINA RESULT:    -3.666     12.536     14.697
REMARK INTER + INTRA:          -4.312
REMARK INTER:                  -4.866
REMARK INTRA:                   0.554
REMARK UNBOUND:                -0.004
REMARK SMILES COc1cc2ccc(=O)oc2c(OC)c1OC
REMARK SMILES IDX 3 1 15 2 12 3 11 4 5 5 4 6 6 7 7 8 8 9 9 10 10 11 2 12 1 13
REMARK SMILES IDX 16 14 17 15 13 16 14 17
REMARK H PARENT
REMARK Flexibility Score: inf
ROOT
ATOM      1  C   UNL     1       0.571  -1.061  -9.400  1.00  0.00     0.165 A 
ATOM      2  C   UNL     1      -0.039  -2.303  -9.715  1.00  0.00     0.207 A 
ATOM      3  C   UNL     1      -1.441  -2.399  -9.807  1.00  0.00     0.208 A 
ATOM      4  C   UNL     1      -2.242  -1.255  -9.584  1.00  0.00     0.184 A 
ATOM      5  C   UNL     1      -1.628  -0.023  -9.271  1.00  0.00     0.025 A 
ATOM      6  C   UNL     1      -0.238   0.068  -9.181  1.00  0.00     0.062 A 
ATOM      7  C   UNL     1      -2.438   1.098  -9.054  1.00  0.00     0.020 A 
ATOM      8  C   UNL     1      -3.821   0.974  -9.151  1.00  0.00     0.094 A 
ATOM      9  C   UNL     1      -4.364  -0.272  -9.464  1.00  0.00     0.336 A 
ATOM     10  O   UNL     1      -5.612  -0.409  -9.557  1.00  0.00    -0.246 OA
ATOM     11  O   UNL     1      -3.570  -1.320  -9.665  1.00  0.00    -0.419 OA
ENDROOT
BRANCH   1  12
ATOM     12  O   UNL     1       1.969  -0.970  -9.310  1.00  0.00    -0.493 OA
ATOM     13  C   UNL     1       2.716  -0.991  -8.097  1.00  0.00     0.278 C 
ENDBRANCH   1  12
BRANCH   2  14
ATOM     14  O   UNL     1       0.686  -3.488  -9.951  1.00  0.00    -0.490 OA
ATOM     15  C   UNL     1       2.097  -3.609 -10.096  1.00  0.00     0.278 C 
ENDBRANCH   2  14
BRANCH   3  16
ATOM     16  O   UNL     1      -1.970  -3.666 -10.125  1.00  0.00    -0.490 OA
ATOM     17  C   UNL     1      -2.576  -4.582  -9.219  1.00  0.00     0.278 C 
ENDBRANCH   3  16
TORSDOF 3
ENDMDL
MODEL 5
REMARK VINA RESULT:    -3.527     12.203     13.062
REMARK INTER + INTRA:          -4.149
REMARK INTER:                  -4.327
REMARK INTRA:                   0.177
REMARK UNBOUND:                -0.004
REMARK SMILES COc1cc2ccc(=O)oc2c(OC)c1OC
REMARK SMILES IDX 3 1 15 2 12 3 11 4 5 5 4 6 6 7 7 8 8 9 9 10 10 11 2 12 1 13
REMARK SMILES IDX 16 14 17 15 13 16 14 17
REMARK H PARENT
REMARK Flexibility Score: inf
ROOT
ATOM      1  C   UNL     1      -3.572   0.933  -9.124  1.00  0.00     0.165 A 
ATOM      2  C   UNL     1      -3.767  -0.450  -8.876  1.00  0.00     0.207 A 
ATOM      3  C   UNL     1      -2.670  -1.333  -8.886  1.00  0.00     0.208 A 
ATOM      4  C   UNL     1      -1.371  -0.838  -9.146  1.00  0.00     0.184 A 
ATOM      5  C   UNL     1      -1.183   0.538  -9.392  1.00  0.00     0.025 A 
ATOM      6  C   UNL     1      -2.274   1.410  -9.381  1.00  0.00     0.062 A 
ATOM      7  C   UNL     1       0.110   1.008  -9.647  1.00  0.00     0.020 A 
ATOM      8  C   UNL     1       1.177   0.114  -9.652  1.00  0.00     0.094 A 
ATOM      9  C   UNL     1       0.923  -1.235  -9.401  1.00  0.00     0.336 A 
ATOM     10  O   UNL     1       1.871  -2.064  -9.400  1.00  0.00    -0.246 OA
ATOM     11  O   UNL     1      -0.316  -1.653  -9.162  1.00  0.00    -0.419 OA
ENDROOT
BRANCH   1  12
ATOM     12  O   UNL     1      -4.668   1.810  -9.112  1.00  0.00    -0.493 OA
ATOM     13  C   UNL     1      -5.668   1.887 -10.125  1.00  0.00     0.278 C 
ENDBRANCH   1  12
BRANCH   2  14
ATOM     14  O   UNL     1      -5.027  -1.021  -8.609  1.00  0.00    -0.490 OA
ATOM     15  C   UNL     1      -5.943  -0.629  -7.591  1.00  0.00     0.278 C 
ENDBRANCH   2  14
BRANCH   3  16
ATOM     16  O   UNL     1      -2.946  -2.691  -8.630  1.00  0.00    -0.490 OA
ATOM     17  C   UNL     1      -2.613  -3.794  -9.465  1.00  0.00     0.278 C 
ENDBRANCH   3  16
TORSDOF 3
ENDMDL
MODEL 6
REMARK VINA RESULT:    -3.486     12.234     14.591
REMARK INTER + INTRA:          -4.101
REMARK INTER:                  -4.034
REMARK INTRA:                  -0.067
REMARK UNBOUND:                -0.004
REMARK SMILES COc1cc2ccc(=O)oc2c(OC)c1OC
REMARK SMILES IDX 3 1 15 2 12 3 11 4 5 5 4 6 6 7 7 8 8 9 9 10 10 11 2 12 1 13
REMARK SMILES IDX 16 14 17 15 13 16 14 17
REMARK H PARENT
REMARK Flexibility Score: inf
ROOT
ATOM      1  C   UNL     1       0.165  -2.489  -9.745  1.00  0.00     0.165 A 
ATOM      2  C   UNL     1       0.643  -1.160  -9.610  1.00  0.00     0.207 A 
ATOM      3  C   UNL     1      -0.262  -0.100  -9.404  1.00  0.00     0.208 A 
ATOM      4  C   UNL     1      -1.650  -0.362  -9.334  1.00  0.00     0.184 A 
ATOM      5  C   UNL     1      -2.118  -1.686  -9.469  1.00  0.00     0.025 A 
ATOM      6  C   UNL     1      -1.218  -2.734  -9.672  1.00  0.00     0.062 A 
ATOM      7  C   UNL     1      -3.496  -1.925  -9.396  1.00  0.00     0.020 A 
ATOM      8  C   UNL     1      -4.367  -0.859  -9.192  1.00  0.00     0.094 A 
ATOM      9  C   UNL     1      -3.839   0.426  -9.066  1.00  0.00     0.336 A 
ATOM     10  O   UNL     1      -4.606   1.407  -8.882  1.00  0.00    -0.246 OA
ATOM     11  O   UNL     1      -2.526   0.623  -9.140  1.00  0.00    -0.419 OA
ENDROOT
BRANCH   1  12
ATOM     12  O   UNL     1       1.070  -3.543  -9.949  1.00  0.00    -0.493 OA
ATOM     13  C   UNL     1       0.710  -4.910 -10.125  1.00  0.00     0.278 C 
ENDBRANCH   1  12
BRANCH   2  14
ATOM     14  O   UNL     1       2.008  -0.815  -9.668  1.00  0.00    -0.490 OA
ATOM     15  C   UNL     1       2.919  -0.757  -8.576  1.00  0.00     0.278 C 
ENDBRANCH   2  14
BRANCH   3  16
ATOM     16  O   UNL     1       0.291   1.190  -9.279  1.00  0.00    -0.490 OA
ATOM     17  C   UNL     1       0.035   2.306 -10.125  1.00  0.00     0.278 C 
ENDBRANCH   3  16
TORSDOF 3
ENDMDL
MODEL 7
REMARK VINA RESULT:    -3.457     11.828     14.157
REMARK INTER + INTRA:          -4.067
REMARK INTER:                  -4.322
REMARK INTRA:                   0.255
REMARK UNBOUND:                -0.004
REMARK SMILES COc1cc2ccc(=O)oc2c(OC)c1OC
REMARK SMILES IDX 3 1 15 2 12 3 11 4 5 5 4 6 6 7 7 8 8 9 9 10 10 11 2 12 1 13
REMARK SMILES IDX 16 14 17 15 13 16 14 17
REMARK H PARENT
REMARK Flexibility Score: inf
ROOT
ATOM      1  C   UNL     1      -2.219   0.457  -9.279  1.00  0.00     0.165 A 
ATOM      2  C   UNL     1      -0.810   0.627  -9.258  1.00  0.00     0.207 A 
ATOM      3  C   UNL     1       0.040  -0.482  -9.432  1.00  0.00     0.208 A 
ATOM      4  C   UNL     1      -0.514  -1.770  -9.625  1.00  0.00     0.184 A 
ATOM      5  C   UNL     1      -1.915  -1.932  -9.644  1.00  0.00     0.025 A 
ATOM      6  C   UNL     1      -2.754  -0.829  -9.472  1.00  0.00     0.062 A 
ATOM      7  C   UNL     1      -2.443  -3.214  -9.836  1.00  0.00     0.020 A 
ATOM      8  C   UNL     1      -1.579  -4.293 -10.005  1.00  0.00     0.094 A 
ATOM      9  C   UNL     1      -0.203  -4.064  -9.976  1.00  0.00     0.336 A 
ATOM     10  O   UNL     1       0.597  -5.024 -10.125  1.00  0.00    -0.246 OA
ATOM     11  O   UNL     1       0.269  -2.835  -9.790  1.00  0.00    -0.419 OA
ENDROOT
BRANCH   1  12
ATOM     12  O   UNL     1      -3.062   1.566  -9.106  1.00  0.00    -0.493 OA
ATOM     13  C   UNL     1      -4.480   1.505  -8.973  1.00  0.00     0.278 C 
ENDBRANCH   1  12
BRANCH   2  14
ATOM     14  O   UNL     1      -0.182   1.874  -9.072  1.00  0.00    -0.490 OA
ATOM     15  C   UNL     1       0.161   2.816 -10.083  1.00  0.00     0.278 C 
ENDBRANCH   2  14
BRANCH   3  16
ATOM     16  O   UNL     1       1.426  -0.230  -9.400  1.00  0.00    -0.490 OA
ATOM     17  C   UNL     1       2.438  -0.979 -10.063  1.00  0.00     0.278 C 
ENDBRANCH   3  16
TORSDOF 3
ENDMDL
MODEL 8
REMARK VINA RESULT:    -3.188      1.193      4.822
REMARK INTER + INTRA:          -3.750
REMARK INTER:                  -3.842
REMARK INTRA:                   0.091
REMARK UNBOUND:                -0.004
REMARK SMILES COc1cc2ccc(=O)oc2c(OC)c1OC
REMARK SMILES IDX 3 1 15 2 12 3 11 4 5 5 4 6 6 7 7 8 8 9 9 10 10 11 2 12 1 13
REMARK SMILES IDX 16 14 17 15 13 16 14 17
REMARK H PARENT
REMARK Flexibility Score: inf
ROOT
ATOM      1  C   UNL     1      -0.903   9.033   1.378  1.00  0.00     0.165 A 
ATOM      2  C   UNL     1      -0.826   7.929   0.489  1.00  0.00     0.207 A 
ATOM      3  C   UNL     1      -1.942   7.569  -0.290  1.00  0.00     0.208 A 
ATOM      4  C   UNL     1      -3.143   8.309  -0.185  1.00  0.00     0.184 A 
ATOM      5  C   UNL     1      -3.213   9.405   0.700  1.00  0.00     0.025 A 
ATOM      6  C   UNL     1      -2.104   9.759   1.471  1.00  0.00     0.062 A 
ATOM      7  C   UNL     1      -4.410  10.125   0.789  1.00  0.00     0.020 A 
ATOM      8  C   UNL     1      -5.498   9.746   0.008  1.00  0.00     0.094 A 
ATOM      9  C   UNL     1      -5.363   8.652  -0.848  1.00  0.00     0.336 A 
ATOM     10  O   UNL     1      -6.332   8.291  -1.564  1.00  0.00    -0.246 OA
ATOM     11  O   UNL     1      -4.213   7.987  -0.911  1.00  0.00    -0.419 OA
ENDROOT
BRANCH   1  12
ATOM     12  O   UNL     1       0.213   9.390   2.152  1.00  0.00    -0.493 OA
ATOM     13  C   UNL     1       1.414   9.964   1.644  1.00  0.00     0.278 C 
ENDBRANCH   1  12
BRANCH   2  14
ATOM     14  O   UNL     1       0.332   7.143   0.327  1.00  0.00    -0.490 OA
ATOM     15  C   UNL     1       0.747   6.058   1.150  1.00  0.00     0.278 C 
ENDBRANCH   2  14
BRANCH   3  16
ATOM     16  O   UNL     1      -1.786   6.462  -1.148  1.00  0.00    -0.490 OA
ATOM     17  C   UNL     1      -2.187   6.383  -2.511  1.00  0.00     0.278 C 
ENDBRANCH   3  16
TORSDOF 3
ENDMDL
MODEL 9
REMARK VINA RESULT:    -3.071     12.306     14.690
REMARK INTER + INTRA:          -3.614
REMARK INTER:                  -3.434
REMARK INTRA:                  -0.179
REMARK UNBOUND:                -0.004
REMARK SMILES COc1cc2ccc(=O)oc2c(OC)c1OC
REMARK SMILES IDX 3 1 15 2 12 3 11 4 5 5 4 6 6 7 7 8 8 9 9 10 10 11 2 12 1 13
REMARK SMILES IDX 16 14 17 15 13 16 14 17
REMARK H PARENT
REMARK Flexibility Score: inf
ROOT
ATOM      1  C   UNL     1      -1.171  -2.817 -10.022  1.00  0.00     0.165 A 
ATOM      2  C   UNL     1      -1.326  -1.406 -10.030  1.00  0.00     0.207 A 
ATOM      3  C   UNL     1      -0.193  -0.570 -10.054  1.00  0.00     0.208 A 
ATOM      4  C   UNL     1       1.102  -1.140 -10.068  1.00  0.00     0.184 A 
ATOM      5  C   UNL     1       1.249  -2.543 -10.060  1.00  0.00     0.025 A 
ATOM      6  C   UNL     1       0.122  -3.368 -10.037  1.00  0.00     0.062 A 
ATOM      7  C   UNL     1       2.538  -3.087 -10.075  1.00  0.00     0.020 A 
ATOM      8  C   UNL     1       3.641  -2.237 -10.098  1.00  0.00     0.094 A 
ATOM      9  C   UNL     1       3.427  -0.858 -10.104  1.00  0.00     0.336 A 
ATOM     10  O   UNL     1       4.408  -0.070 -10.124  1.00  0.00    -0.246 OA
ATOM     11  O   UNL     1       2.190  -0.371 -10.090  1.00  0.00    -0.419 OA
ENDROOT
BRANCH   1  12
ATOM     12  O   UNL     1      -2.304  -3.646 -10.000  1.00  0.00    -0.493 OA
ATOM     13  C   UNL     1      -2.660  -4.519  -8.931  1.00  0.00     0.278 C 
ENDBRANCH   1  12
BRANCH   2  14
ATOM     14  O   UNL     1      -2.578  -0.762 -10.017  1.00  0.00    -0.490 OA
ATOM     15  C   UNL     1      -3.297  -0.318  -8.871  1.00  0.00     0.278 C 
ENDBRANCH   2  14
BRANCH   3  16
ATOM     16  O   UNL     1      -0.429   0.819 -10.061  1.00  0.00    -0.490 OA
ATOM     17  C   UNL     1      -0.246   1.714  -8.970  1.00  0.00     0.278 C 
ENDBRANCH   3  16
TORSDOF 3
ENDMDL
