MODEL 1
REMARK VINA RESULT:    -6.403      0.000      0.000
REMARK INTER + INTRA:          -9.316
REMARK INTER:                  -8.649
REMARK INTRA:                  -0.667
REMARK UNBOUND:                -0.667
REMARK SMILES COc1ccc(-c2cc(=O)c3c(OC)c(OC)c(OC)c(OC)c3o2)cc1
REMARK SMILES IDX 7 1 8 2 9 3 10 4 11 5 24 6 25 7 21 8 18 9 15 10 12 11 6 12
REMARK SMILES IDX 3 13 4 14 27 15 5 16 26 17 2 18 1 19 22 20 23 21 13 22 14 23
REMARK SMILES IDX 19 24 20 25 16 26 17 27
REMARK H PARENT
REMARK Flexibility Score: inf
ROOT
ATOM      1  C   UNL     1       8.941  13.030 -18.990  1.00  0.00     0.138 A 
ATOM      2  C   UNL     1       9.572  11.821 -19.300  1.00  0.00     0.100 A 
ATOM      3  C   UNL     1       9.628  10.815 -18.340  1.00  0.00     0.197 A 
ATOM      4  O   UNL     1      10.194   9.727 -18.636  1.00  0.00    -0.289 OA
ATOM      5  C   UNL     1       9.051  11.028 -17.069  1.00  0.00     0.115 A 
ATOM      6  C   UNL     1       8.424  12.273 -16.827  1.00  0.00     0.188 A 
ATOM      7  O   UNL     1       8.396  13.196 -17.788  1.00  0.00    -0.452 OA
ATOM      8  C   UNL     1       7.846  12.543 -15.564  1.00  0.00     0.209 A 
ATOM      9  C   UNL     1       7.865  11.563 -14.560  1.00  0.00     0.211 A 
ATOM     10  C   UNL     1       8.451  10.301 -14.813  1.00  0.00     0.208 A 
ATOM     11  C   UNL     1       9.098  10.059 -16.042  1.00  0.00     0.179 A 
ENDROOT
BRANCH   1  12
ATOM     12  C   UNL     1       8.861  14.137 -19.976  1.00  0.00     0.018 A 
ATOM     13  C   UNL     1       8.667  16.209 -21.883  1.00  0.00     0.118 A 
ATOM     14  C   UNL     1       8.751  16.510 -20.512  1.00  0.00     0.047 A 
ATOM     15  C   UNL     1       8.676  14.870 -22.288  1.00  0.00     0.047 A 
ATOM     16  C   UNL     1       8.845  15.484 -19.568  1.00  0.00     0.016 A 
ATOM     17  C   UNL     1       8.768  13.842 -21.346  1.00  0.00     0.016 A 
BRANCH  13  18
ATOM     18  O   UNL     1       8.571  17.203 -22.869  1.00  0.00    -0.497 OA
ATOM     19  C   UNL     1       9.238  17.156 -24.125  1.00  0.00     0.278 C 
ENDBRANCH  13  18
ENDBRANCH   1  12
BRANCH   8  20
ATOM     20  O   UNL     1       7.233  13.768 -15.232  1.00  0.00    -0.490 OA
ATOM     21  C   UNL     1       5.935  14.202 -15.620  1.00  0.00     0.278 C 
ENDBRANCH   8  20
BRANCH  11  22
ATOM     22  O   UNL     1       9.799   8.864 -16.245  1.00  0.00    -0.492 OA
ATOM     23  C   UNL     1      11.034   8.587 -15.594  1.00  0.00     0.278 C 
ENDBRANCH  11  22
BRANCH   9  24
ATOM     24  O   UNL     1       7.266  11.910 -13.332  1.00  0.00    -0.490 OA
ATOM     25  C   UNL     1       5.936  11.618 -12.920  1.00  0.00     0.279 C 
ENDBRANCH   9  24
BRANCH  10  26
ATOM     26  O   UNL     1       8.384   9.291 -13.848  1.00  0.00    -0.490 OA
ATOM     27  C   UNL     1       7.343   8.318 -13.826  1.00  0.00     0.278 C 
ENDBRANCH  10  26
TORSDOF 6
ENDMDL
MODEL 2
REMARK VINA RESULT:    -6.295      1.729      3.081
REMARK INTER + INTRA:          -9.171
REMARK INTER:                  -8.523
REMARK INTRA:                  -0.647
REMARK UNBOUND:                -0.667
REMARK SMILES COc1ccc(-c2cc(=O)c3c(OC)c(OC)c(OC)c(OC)c3o2)cc1
REMARK SMILES IDX 7 1 8 2 9 3 10 4 11 5 24 6 25 7 21 8 18 9 15 10 12 11 6 12
REMARK SMILES IDX 3 13 4 14 27 15 5 16 26 17 2 18 1 19 22 20 23 21 13 22 14 23
REMARK SMILES IDX 19 24 20 25 16 26 17 27
REMARK H PARENT
REMARK Flexibility Score: inf
ROOT
ATOM      1  C   UNL     1       8.672  13.929 -18.473  1.00  0.00     0.138 A 
ATOM      2  C   UNL     1       9.139  14.393 -17.238  1.00  0.00     0.100 A 
ATOM      3  C   UNL     1       9.107  13.546 -16.134  1.00  0.00     0.197 A 
ATOM      4  O   UNL     1       9.537  13.975 -15.029  1.00  0.00    -0.289 OA
ATOM      5  C   UNL     1       8.605  12.233 -16.274  1.00  0.00     0.115 A 
ATOM      6  C   UNL     1       8.155  11.829 -17.554  1.00  0.00     0.188 A 
ATOM      7  O   UNL     1       8.216  12.683 -18.574  1.00  0.00    -0.452 OA
ATOM      8  C   UNL     1       7.627  10.530 -17.744  1.00  0.00     0.209 A 
ATOM      9  C   UNL     1       7.578   9.630 -16.669  1.00  0.00     0.211 A 
ATOM     10  C   UNL     1       8.067  10.014 -15.399  1.00  0.00     0.208 A 
ATOM     11  C   UNL     1       8.519  11.333 -15.189  1.00  0.00     0.179 A 
ENDROOT
BRANCH   1  12
ATOM     12  C   UNL     1       8.677  14.795 -19.677  1.00  0.00     0.018 A 
ATOM     13  C   UNL     1       8.650  16.401 -21.999  1.00  0.00     0.118 A 
ATOM     14  C   UNL     1       8.500  16.986 -20.728  1.00  0.00     0.047 A 
ATOM     15  C   UNL     1       8.808  15.015 -22.096  1.00  0.00     0.047 A 
ATOM     16  C   UNL     1       8.512  16.190 -19.579  1.00  0.00     0.016 A 
ATOM     17  C   UNL     1       8.817  14.217 -20.949  1.00  0.00     0.016 A 
BRANCH  13  18
ATOM     18  O   UNL     1       8.646  17.157 -23.181  1.00  0.00    -0.497 OA
ATOM     19  C   UNL     1       9.456  16.875 -24.318  1.00  0.00     0.278 C 
ENDBRANCH  13  18
ENDBRANCH   1  12
BRANCH   8  20
ATOM     20  O   UNL     1       7.129  10.063 -18.976  1.00  0.00    -0.490 OA
ATOM     21  C   UNL     1       5.875  10.387 -19.565  1.00  0.00     0.278 C 
ENDBRANCH   8  20
BRANCH  11  22
ATOM     22  O   UNL     1       8.873  11.760 -13.903  1.00  0.00    -0.492 OA
ATOM     23  C   UNL     1       7.905  12.000 -12.888  1.00  0.00     0.278 C 
ENDBRANCH  11  22
BRANCH   9  24
ATOM     24  O   UNL     1       7.040   8.356 -16.941  1.00  0.00    -0.490 OA
ATOM     25  C   UNL     1       7.760   7.191 -17.327  1.00  0.00     0.279 C 
ENDBRANCH   9  24
BRANCH  10  26
ATOM     26  O   UNL     1       8.110   9.087 -14.353  1.00  0.00    -0.490 OA
ATOM     27  C   UNL     1       9.237   8.249 -14.115  1.00  0.00     0.278 C 
ENDBRANCH  10  26
TORSDOF 6
ENDMDL
MODEL 3
REMARK VINA RESULT:    -6.283      2.313      8.283
REMARK INTER + INTRA:          -9.154
REMARK INTER:                  -8.491
REMARK INTRA:                  -0.663
REMARK UNBOUND:                -0.667
REMARK SMILES COc1ccc(-c2cc(=O)c3c(OC)c(OC)c(OC)c(OC)c3o2)cc1
REMARK SMILES IDX 7 1 8 2 9 3 10 4 11 5 24 6 25 7 21 8 18 9 15 10 12 11 6 12
REMARK SMILES IDX 3 13 4 14 27 15 5 16 26 17 2 18 1 19 22 20 23 21 13 22 14 23
REMARK SMILES IDX 19 24 20 25 16 26 17 27
REMARK H PARENT
REMARK Flexibility Score: inf
ROOT
ATOM      1  C   UNL     1       8.204  11.280 -14.642  1.00  0.00     0.138 A 
ATOM      2  C   UNL     1       8.875  12.432 -14.216  1.00  0.00     0.100 A 
ATOM      3  C   UNL     1       9.236  13.397 -15.151  1.00  0.00     0.197 A 
ATOM      4  O   UNL     1       9.834  14.433 -14.752  1.00  0.00    -0.289 OA
ATOM      5  C   UNL     1       8.922  13.202 -16.515  1.00  0.00     0.115 A 
ATOM      6  C   UNL     1       8.237  12.016 -16.873  1.00  0.00     0.188 A 
ATOM      7  O   UNL     1       7.913  11.131 -15.931  1.00  0.00    -0.452 OA
ATOM      8  C   UNL     1       7.914  11.765 -18.227  1.00  0.00     0.209 A 
ATOM      9  C   UNL     1       8.245  12.707 -19.213  1.00  0.00     0.211 A 
ATOM     10  C   UNL     1       8.890  13.913 -18.853  1.00  0.00     0.208 A 
ATOM     11  C   UNL     1       9.283  14.129 -17.517  1.00  0.00     0.179 A 
ENDROOT
BRANCH   1  12
ATOM     12  C   UNL     1       7.807  10.218 -13.686  1.00  0.00     0.018 A 
ATOM     13  C   UNL     1       7.000   8.232 -11.848  1.00  0.00     0.118 A 
ATOM     14  C   UNL     1       7.441   7.873 -13.134  1.00  0.00     0.047 A 
ATOM     15  C   UNL     1       6.962   9.585 -11.494  1.00  0.00     0.047 A 
ATOM     16  C   UNL     1       7.839   8.857 -14.044  1.00  0.00     0.016 A 
ATOM     17  C   UNL     1       7.356  10.570 -12.403  1.00  0.00     0.016 A 
BRANCH  13  18
ATOM     18  O   UNL     1       6.592   7.283 -10.899  1.00  0.00    -0.497 OA
ATOM     19  C   UNL     1       6.726   7.444  -9.491  1.00  0.00     0.278 C 
ENDBRANCH  13  18
ENDBRANCH   1  12
BRANCH   8  20
ATOM     20  O   UNL     1       7.264  10.596 -18.670  1.00  0.00    -0.490 OA
ATOM     21  C   UNL     1       5.875  10.304 -18.570  1.00  0.00     0.278 C 
ENDBRANCH   8  20
BRANCH  11  22
ATOM     22  O   UNL     1      10.043  15.256 -17.180  1.00  0.00    -0.492 OA
ATOM     23  C   UNL     1      11.419  15.375 -17.524  1.00  0.00     0.278 C 
ENDBRANCH  11  22
BRANCH   9  24
ATOM     24  O   UNL     1       7.887  12.382 -20.537  1.00  0.00    -0.490 OA
ATOM     25  C   UNL     1       6.704  12.777 -21.223  1.00  0.00     0.279 C 
ENDBRANCH   9  24
BRANCH  10  26
ATOM     26  O   UNL     1       9.131  14.895 -19.820  1.00  0.00    -0.490 OA
ATOM     27  C   UNL     1       8.222  15.962 -20.073  1.00  0.00     0.278 C 
ENDBRANCH  10  26
TORSDOF 6
ENDMDL
MODEL 4
REMARK VINA RESULT:    -6.096      2.394      8.029
REMARK INTER + INTRA:          -8.902
REMARK INTER:                  -8.402
REMARK INTRA:                  -0.499
REMARK UNBOUND:                -0.667
REMARK SMILES COc1ccc(-c2cc(=O)c3c(OC)c(OC)c(OC)c(OC)c3o2)cc1
REMARK SMILES IDX 7 1 8 2 9 3 10 4 11 5 24 6 25 7 21 8 18 9 15 10 12 11 6 12
REMARK SMILES IDX 3 13 4 14 27 15 5 16 26 17 2 18 1 19 22 20 23 21 13 22 14 23
REMARK SMILES IDX 19 24 20 25 16 26 17 27
REMARK H PARENT
REMARK Flexibility Score: inf
ROOT
ATOM      1  C   UNL     1       7.349  10.129 -15.664  1.00  0.00     0.138 A 
ATOM      2  C   UNL     1       6.606   9.659 -16.753  1.00  0.00     0.100 A 
ATOM      3  C   UNL     1       6.766  10.261 -17.998  1.00  0.00     0.197 A 
ATOM      4  O   UNL     1       6.095   9.823 -18.972  1.00  0.00    -0.289 OA
ATOM      5  C   UNL     1       7.670  11.336 -18.145  1.00  0.00     0.115 A 
ATOM      6  C   UNL     1       8.392  11.754 -17.001  1.00  0.00     0.188 A 
ATOM      7  O   UNL     1       8.201  11.135 -15.837  1.00  0.00    -0.452 OA
ATOM      8  C   UNL     1       9.298  12.838 -17.091  1.00  0.00     0.209 A 
ATOM      9  C   UNL     1       9.506  13.477 -18.323  1.00  0.00     0.211 A 
ATOM     10  C   UNL     1       8.820  13.033 -19.477  1.00  0.00     0.208 A 
ATOM     11  C   UNL     1       7.858  12.007 -19.373  1.00  0.00     0.179 A 
ENDROOT
BRANCH   1  12
ATOM     12  C   UNL     1       7.209   9.527 -14.315  1.00  0.00     0.018 A 
ATOM     13  C   UNL     1       6.984   8.336 -11.765  1.00  0.00     0.118 A 
ATOM     14  C   UNL     1       7.079   9.734 -11.891  1.00  0.00     0.047 A 
ATOM     15  C   UNL     1       7.007   7.545 -12.918  1.00  0.00     0.047 A 
ATOM     16  C   UNL     1       7.193  10.323 -13.154  1.00  0.00     0.016 A 
ATOM     17  C   UNL     1       7.123   8.132 -14.181  1.00  0.00     0.016 A 
BRANCH  13  18
ATOM     18  O   UNL     1       6.868   7.698 -10.521  1.00  0.00    -0.497 OA
ATOM     19  C   UNL     1       7.481   8.159  -9.321  1.00  0.00     0.278 C 
ENDBRANCH  13  18
ENDBRANCH   1  12
BRANCH   8  20
ATOM     20  O   UNL     1      10.029  13.336 -15.995  1.00  0.00    -0.490 OA
ATOM     21  C   UNL     1       9.547  14.205 -14.976  1.00  0.00     0.278 C 
ENDBRANCH   8  20
BRANCH  11  22
ATOM     22  O   UNL     1       7.077  11.659 -20.482  1.00  0.00    -0.492 OA
ATOM     23  C   UNL     1       5.934  12.411 -20.873  1.00  0.00     0.278 C 
ENDBRANCH  11  22
BRANCH   9  24
ATOM     24  O   UNL     1      10.425  14.545 -18.328  1.00  0.00    -0.490 OA
ATOM     25  C   UNL     1      10.119  15.934 -18.282  1.00  0.00     0.279 C 
ENDBRANCH   9  24
BRANCH  10  26
ATOM     26  O   UNL     1       9.099  13.604 -20.722  1.00  0.00    -0.490 OA
ATOM     27  C   UNL     1       8.456  14.789 -21.185  1.00  0.00     0.278 C 
ENDBRANCH  10  26
TORSDOF 6
ENDMDL
MODEL 5
REMARK VINA RESULT:    -5.942      1.970      7.785
REMARK INTER + INTRA:          -8.693
REMARK INTER:                  -8.171
REMARK INTRA:                  -0.522
REMARK UNBOUND:                -0.667
REMARK SMILES COc1ccc(-c2cc(=O)c3c(OC)c(OC)c(OC)c(OC)c3o2)cc1
REMARK SMILES IDX 7 1 8 2 9 3 10 4 11 5 24 6 25 7 21 8 18 9 15 10 12 11 6 12
REMARK SMILES IDX 3 13 4 14 27 15 5 16 26 17 2 18 1 19 22 20 23 21 13 22 14 23
REMARK SMILES IDX 19 24 20 25 16 26 17 27
REMARK H PARENT
REMARK Flexibility Score: inf
ROOT
ATOM      1  C   UNL     1       8.160  10.724 -15.450  1.00  0.00     0.138 A 
ATOM      2  C   UNL     1       8.768  10.102 -16.545  1.00  0.00     0.100 A 
ATOM      3  C   UNL     1       9.107  10.862 -17.661  1.00  0.00     0.197 A 
ATOM      4  O   UNL     1       9.661  10.289 -18.638  1.00  0.00    -0.289 OA
ATOM      5  C   UNL     1       8.832  12.247 -17.673  1.00  0.00     0.115 A 
ATOM      6  C   UNL     1       8.220  12.811 -16.528  1.00  0.00     0.188 A 
ATOM      7  O   UNL     1       7.925  12.033 -15.488  1.00  0.00    -0.452 OA
ATOM      8  C   UNL     1       7.907  14.190 -16.497  1.00  0.00     0.209 A 
ATOM      9  C   UNL     1       8.234  15.008 -17.590  1.00  0.00     0.211 A 
ATOM     10  C   UNL     1       8.885  14.457 -18.718  1.00  0.00     0.208 A 
ATOM     11  C   UNL     1       9.125  13.069 -18.784  1.00  0.00     0.179 A 
ENDROOT
BRANCH   1  12
ATOM     12  C   UNL     1       7.772   9.957 -14.241  1.00  0.00     0.018 A 
ATOM     13  C   UNL     1       6.985   8.537 -11.930  1.00  0.00     0.118 A 
ATOM     14  C   UNL     1       7.391   7.846 -13.087  1.00  0.00     0.047 A 
ATOM     15  C   UNL     1       6.973   9.935 -11.943  1.00  0.00     0.047 A 
ATOM     16  C   UNL     1       7.779   8.550 -14.231  1.00  0.00     0.016 A 
ATOM     17  C   UNL     1       7.357  10.641 -13.086  1.00  0.00     0.016 A 
BRANCH  13  18
ATOM     18  O   UNL     1       6.588   7.877 -10.759  1.00  0.00    -0.497 OA
ATOM     19  C   UNL     1       7.350   7.846  -9.556  1.00  0.00     0.278 C 
ENDBRANCH  13  18
ENDBRANCH   1  12
BRANCH   8  20
ATOM     20  O   UNL     1       7.269  14.821 -15.411  1.00  0.00    -0.490 OA
ATOM     21  C   UNL     1       5.876  14.821 -15.125  1.00  0.00     0.278 C 
ENDBRANCH   8  20
BRANCH  11  22
ATOM     22  O   UNL     1       9.642  12.499 -19.954  1.00  0.00    -0.492 OA
ATOM     23  C   UNL     1       8.821  12.185 -21.073  1.00  0.00     0.278 C 
ENDBRANCH  11  22
BRANCH   9  24
ATOM     24  O   UNL     1       7.891  16.370 -17.479  1.00  0.00    -0.490 OA
ATOM     25  C   UNL     1       6.712  16.996 -17.973  1.00  0.00     0.279 C 
ENDBRANCH   9  24
BRANCH  10  26
ATOM     26  O   UNL     1       9.299  15.288 -19.764  1.00  0.00    -0.490 OA
ATOM     27  C   UNL     1       8.427  15.687 -20.817  1.00  0.00     0.278 C 
ENDBRANCH  10  26
TORSDOF 6
ENDMDL
MODEL 6
REMARK VINA RESULT:    -5.811      1.736      1.923
REMARK INTER + INTRA:          -8.516
REMARK INTER:                  -7.964
REMARK INTRA:                  -0.551
REMARK UNBOUND:                -0.667
REMARK SMILES COc1ccc(-c2cc(=O)c3c(OC)c(OC)c(OC)c(OC)c3o2)cc1
REMARK SMILES IDX 7 1 8 2 9 3 10 4 11 5 24 6 25 7 21 8 18 9 15 10 12 11 6 12
REMARK SMILES IDX 3 13 4 14 27 15 5 16 26 17 2 18 1 19 22 20 23 21 13 22 14 23
REMARK SMILES IDX 19 24 20 25 16 26 17 27
REMARK H PARENT
REMARK Flexibility Score: inf
ROOT
ATOM      1  C   UNL     1       7.885  12.920 -19.404  1.00  0.00     0.138 A 
ATOM      2  C   UNL     1       7.286  11.755 -19.894  1.00  0.00     0.100 A 
ATOM      3  C   UNL     1       7.043  10.694 -19.026  1.00  0.00     0.197 A 
ATOM      4  O   UNL     1       6.496   9.653 -19.481  1.00  0.00    -0.289 OA
ATOM      5  C   UNL     1       7.405  10.807 -17.666  1.00  0.00     0.115 A 
ATOM      6  C   UNL     1       8.002  12.017 -17.238  1.00  0.00     0.188 A 
ATOM      7  O   UNL     1       8.204  12.999 -18.115  1.00  0.00    -0.452 OA
ATOM      8  C   UNL     1       8.399  12.174 -15.889  1.00  0.00     0.209 A 
ATOM      9  C   UNL     1       8.172  11.141 -14.966  1.00  0.00     0.211 A 
ATOM     10  C   UNL     1       7.535   9.948 -15.381  1.00  0.00     0.208 A 
ATOM     11  C   UNL     1       7.212   9.758 -16.740  1.00  0.00     0.179 A 
ENDROOT
BRANCH   1  12
ATOM     12  C   UNL     1       8.173  14.075 -20.290  1.00  0.00     0.018 A 
ATOM     13  C   UNL     1       8.688  16.244 -22.023  1.00  0.00     0.118 A 
ATOM     14  C   UNL     1       8.336  16.474 -20.680  1.00  0.00     0.047 A 
ATOM     15  C   UNL     1       8.773  14.928 -22.488  1.00  0.00     0.047 A 
ATOM     16  C   UNL     1       8.080  15.399 -19.823  1.00  0.00     0.016 A 
ATOM     17  C   UNL     1       8.515  13.852 -21.633  1.00  0.00     0.016 A 
BRANCH  13  18
ATOM     18  O   UNL     1       8.955  17.287 -22.921  1.00  0.00    -0.497 OA
ATOM     19  C   UNL     1       9.461  17.104 -24.239  1.00  0.00     0.278 C 
ENDBRANCH  13  18
ENDBRANCH   1  12
BRANCH   8  20
ATOM     20  O   UNL     1       9.029  13.332 -15.391  1.00  0.00    -0.490 OA
ATOM     21  C   UNL     1      10.392  13.701 -15.566  1.00  0.00     0.278 C 
ENDBRANCH   8  20
BRANCH  11  22
ATOM     22  O   UNL     1       6.710   8.527 -17.179  1.00  0.00    -0.492 OA
ATOM     23  C   UNL     1       7.549   7.399 -17.399  1.00  0.00     0.278 C 
ENDBRANCH  11  22
BRANCH   9  24
ATOM     24  O   UNL     1       8.595  11.377 -13.643  1.00  0.00    -0.490 OA
ATOM     25  C   UNL     1       7.823  11.943 -12.589  1.00  0.00     0.279 C 
ENDBRANCH   9  24
BRANCH  10  26
ATOM     26  O   UNL     1       7.220   8.960 -14.443  1.00  0.00    -0.490 OA
ATOM     27  C   UNL     1       8.201   8.093 -13.882  1.00  0.00     0.278 C 
ENDBRANCH  10  26
TORSDOF 6
ENDMDL
MODEL 7
REMARK VINA RESULT:    -5.790      2.604      7.881
REMARK INTER + INTRA:          -8.488
REMARK INTER:                  -7.925
REMARK INTRA:                  -0.563
REMARK UNBOUND:                -0.667
REMARK SMILES COc1ccc(-c2cc(=O)c3c(OC)c(OC)c(OC)c(OC)c3o2)cc1
REMARK SMILES IDX 7 1 8 2 9 3 10 4 11 5 24 6 25 7 21 8 18 9 15 10 12 11 6 12
REMARK SMILES IDX 3 13 4 14 27 15 5 16 26 17 2 18 1 19 22 20 23 21 13 22 14 23
REMARK SMILES IDX 19 24 20 25 16 26 17 27
REMARK H PARENT
REMARK Flexibility Score: inf
ROOT
ATOM      1  C   UNL     1       8.044   9.715 -15.791  1.00  0.00     0.138 A 
ATOM      2  C   UNL     1       8.352  10.464 -14.650  1.00  0.00     0.100 A 
ATOM      3  C   UNL     1       8.728  11.797 -14.788  1.00  0.00     0.197 A 
ATOM      4  O   UNL     1       8.996  12.462 -13.751  1.00  0.00    -0.289 OA
ATOM      5  C   UNL     1       8.795  12.374 -16.076  1.00  0.00     0.115 A 
ATOM      6  C   UNL     1       8.464  11.560 -17.185  1.00  0.00     0.188 A 
ATOM      7  O   UNL     1       8.105  10.292 -16.988  1.00  0.00    -0.452 OA
ATOM      8  C   UNL     1       8.532  12.085 -18.497  1.00  0.00     0.209 A 
ATOM      9  C   UNL     1       8.897  13.425 -18.697  1.00  0.00     0.211 A 
ATOM     10  C   UNL     1       9.185  14.255 -17.588  1.00  0.00     0.208 A 
ATOM     11  C   UNL     1       9.195  13.712 -16.287  1.00  0.00     0.179 A 
ENDROOT
BRANCH   1  12
ATOM     12  C   UNL     1       7.646   8.289 -15.697  1.00  0.00     0.018 A 
ATOM     13  C   UNL     1       6.942   5.559 -15.550  1.00  0.00     0.118 A 
ATOM     14  C   UNL     1       6.762   6.400 -14.438  1.00  0.00     0.047 A 
ATOM     15  C   UNL     1       7.478   6.091 -16.727  1.00  0.00     0.047 A 
ATOM     16  C   UNL     1       7.113   7.752 -14.511  1.00  0.00     0.016 A 
ATOM     17  C   UNL     1       7.831   7.441 -16.801  1.00  0.00     0.016 A 
BRANCH  13  18
ATOM     18  O   UNL     1       6.606   4.197 -15.527  1.00  0.00    -0.497 OA
ATOM     19  C   UNL     1       7.106   3.230 -16.444  1.00  0.00     0.278 C 
ENDBRANCH  13  18
ENDBRANCH   1  12
BRANCH   8  20
ATOM     20  O   UNL     1       8.252  11.332 -19.654  1.00  0.00    -0.490 OA
ATOM     21  C   UNL     1       6.970  11.094 -20.224  1.00  0.00     0.278 C 
ENDBRANCH   8  20
BRANCH  11  22
ATOM     22  O   UNL     1       9.614  14.492 -15.202  1.00  0.00    -0.492 OA
ATOM     23  C   UNL     1      10.990  14.743 -14.932  1.00  0.00     0.278 C 
ENDBRANCH  11  22
BRANCH   9  24
ATOM     24  O   UNL     1       8.939  13.871 -20.033  1.00  0.00    -0.490 OA
ATOM     25  C   UNL     1       7.968  14.674 -20.695  1.00  0.00     0.279 C 
ENDBRANCH   9  24
BRANCH  10  26
ATOM     26  O   UNL     1       9.452  15.614 -17.780  1.00  0.00    -0.490 OA
ATOM     27  C   UNL     1      10.650  16.082 -18.393  1.00  0.00     0.278 C 
ENDBRANCH  10  26
TORSDOF 6
ENDMDL
MODEL 8
REMARK VINA RESULT:    -5.720      2.084      2.816
REMARK INTER + INTRA:          -8.394
REMARK INTER:                  -7.780
REMARK INTRA:                  -0.613
REMARK UNBOUND:                -0.667
REMARK SMILES COc1ccc(-c2cc(=O)c3c(OC)c(OC)c(OC)c(OC)c3o2)cc1
REMARK SMILES IDX 7 1 8 2 9 3 10 4 11 5 24 6 25 7 21 8 18 9 15 10 12 11 6 12
REMARK SMILES IDX 3 13 4 14 27 15 5 16 26 17 2 18 1 19 22 20 23 21 13 22 14 23
REMARK SMILES IDX 19 24 20 25 16 26 17 27
REMARK H PARENT
REMARK Flexibility Score: inf
ROOT
ATOM      1  C   UNL     1       8.570  14.128 -17.852  1.00  0.00     0.138 A 
ATOM      2  C   UNL     1       9.153  13.325 -18.838  1.00  0.00     0.100 A 
ATOM      3  C   UNL     1       9.415  11.986 -18.562  1.00  0.00     0.197 A 
ATOM      4  O   UNL     1       9.935  11.273 -19.462  1.00  0.00    -0.289 OA
ATOM      5  C   UNL     1       9.091  11.457 -17.293  1.00  0.00     0.115 A 
ATOM      6  C   UNL     1       8.498  12.326 -16.346  1.00  0.00     0.188 A 
ATOM      7  O   UNL     1       8.266  13.597 -16.670  1.00  0.00    -0.452 OA
ATOM      8  C   UNL     1       8.170  11.850 -15.054  1.00  0.00     0.209 A 
ATOM      9  C   UNL     1       8.403  10.507 -14.722  1.00  0.00     0.211 A 
ATOM     10  C   UNL     1       8.955   9.625 -15.680  1.00  0.00     0.208 A 
ATOM     11  C   UNL     1       9.356  10.116 -16.940  1.00  0.00     0.179 A 
ENDROOT
BRANCH   1  12
ATOM     12  C   UNL     1       8.279  15.562 -18.093  1.00  0.00     0.018 A 
ATOM     13  C   UNL     1       7.703  18.297 -18.494  1.00  0.00     0.118 A 
ATOM     14  C   UNL     1       8.897  17.742 -18.989  1.00  0.00     0.047 A 
ATOM     15  C   UNL     1       6.808  17.478 -17.798  1.00  0.00     0.047 A 
ATOM     16  C   UNL     1       9.182  16.388 -18.788  1.00  0.00     0.016 A 
ATOM     17  C   UNL     1       7.093  16.125 -17.595  1.00  0.00     0.016 A 
BRANCH  13  18
ATOM     18  O   UNL     1       7.371  19.649 -18.670  1.00  0.00    -0.497 OA
ATOM     19  C   UNL     1       7.345  20.613 -17.622  1.00  0.00     0.278 C 
ENDBRANCH  13  18
ENDBRANCH   1  12
BRANCH   8  20
ATOM     20  O   UNL     1       7.608  12.657 -14.045  1.00  0.00    -0.490 OA
ATOM     21  C   UNL     1       6.231  12.971 -13.875  1.00  0.00     0.278 C 
ENDBRANCH   8  20
BRANCH  11  22
ATOM     22  O   UNL     1      10.029   9.280 -17.839  1.00  0.00    -0.492 OA
ATOM     23  C   UNL     1      11.418   8.996 -17.719  1.00  0.00     0.278 C 
ENDBRANCH  11  22
BRANCH   9  24
ATOM     24  O   UNL     1       8.047  10.112 -13.417  1.00  0.00    -0.490 OA
ATOM     25  C   UNL     1       6.887   9.383 -13.033  1.00  0.00     0.279 C 
ENDBRANCH   9  24
BRANCH  10  26
ATOM     26  O   UNL     1       9.096   8.266 -15.383  1.00  0.00    -0.490 OA
ATOM     27  C   UNL     1       8.137   7.290 -15.778  1.00  0.00     0.278 C 
ENDBRANCH  10  26
TORSDOF 6
ENDMDL
MODEL 9
REMARK VINA RESULT:    -5.494      2.594      3.541
REMARK INTER + INTRA:          -8.088
REMARK INTER:                  -7.940
REMARK INTRA:                  -0.148
REMARK UNBOUND:                -0.667
REMARK SMILES COc1ccc(-c2cc(=O)c3c(OC)c(OC)c(OC)c(OC)c3o2)cc1
REMARK SMILES IDX 7 1 8 2 9 3 10 4 11 5 24 6 25 7 21 8 18 9 15 10 12 11 6 12
REMARK SMILES IDX 3 13 4 14 27 15 5 16 26 17 2 18 1 19 22 20 23 21 13 22 14 23
REMARK SMILES IDX 19 24 20 25 16 26 17 27
REMARK H PARENT
REMARK Flexibility Score: inf
ROOT
ATOM      1  C   UNL     1       8.987  11.955 -18.615  1.00  0.00     0.138 A 
ATOM      2  C   UNL     1      10.009  11.713 -17.691  1.00  0.00     0.100 A 
ATOM      3  C   UNL     1      10.029  10.509 -16.994  1.00  0.00     0.197 A 
ATOM      4  O   UNL     1      10.960  10.301 -16.169  1.00  0.00    -0.289 OA
ATOM      5  C   UNL     1       9.018   9.550 -17.226  1.00  0.00     0.115 A 
ATOM      6  C   UNL     1       8.018   9.859 -18.180  1.00  0.00     0.188 A 
ATOM      7  O   UNL     1       8.057  11.026 -18.820  1.00  0.00    -0.452 OA
ATOM      8  C   UNL     1       6.974   8.940 -18.437  1.00  0.00     0.209 A 
ATOM      9  C   UNL     1       6.947   7.705 -17.770  1.00  0.00     0.211 A 
ATOM     10  C   UNL     1       7.968   7.374 -16.849  1.00  0.00     0.208 A 
ATOM     11  C   UNL     1       8.965   8.321 -16.533  1.00  0.00     0.179 A 
ENDROOT
BRANCH   1  12
ATOM     12  C   UNL     1       8.917  13.226 -19.378  1.00  0.00     0.018 A 
ATOM     13  C   UNL     1       8.730  15.625 -20.855  1.00  0.00     0.118 A 
ATOM     14  C   UNL     1       9.129  15.649 -19.506  1.00  0.00     0.047 A 
ATOM     15  C   UNL     1       8.423  14.398 -21.452  1.00  0.00     0.047 A 
ATOM     16  C   UNL     1       9.219  14.461 -18.775  1.00  0.00     0.016 A 
ATOM     17  C   UNL     1       8.511  13.209 -20.722  1.00  0.00     0.016 A 
BRANCH  13  18
ATOM     18  O   UNL     1       8.624  16.789 -21.630  1.00  0.00    -0.497 OA
ATOM     19  C   UNL     1       8.540  16.803 -23.052  1.00  0.00     0.278 C 
ENDBRANCH  13  18
ENDBRANCH   1  12
BRANCH   8  20
ATOM     20  O   UNL     1       5.924   9.185 -19.344  1.00  0.00    -0.490 OA
ATOM     21  C   UNL     1       5.993   9.961 -20.535  1.00  0.00     0.278 C 
ENDBRANCH   8  20
BRANCH  11  22
ATOM     22  O   UNL     1       9.896   8.051 -15.522  1.00  0.00    -0.492 OA
ATOM     23  C   UNL     1       9.600   8.249 -14.144  1.00  0.00     0.278 C 
ENDBRANCH  11  22
BRANCH   9  24
ATOM     24  O   UNL     1       5.875   6.846 -18.083  1.00  0.00    -0.490 OA
ATOM     25  C   UNL     1       5.911   5.721 -18.954  1.00  0.00     0.279 C 
ENDBRANCH   9  24
BRANCH  10  26
ATOM     26  O   UNL     1       7.996   6.107 -16.259  1.00  0.00    -0.490 OA
ATOM     27  C   UNL     1       7.062   5.704 -15.262  1.00  0.00     0.278 C 
ENDBRANCH  10  26
TORSDOF 6
ENDMDL
