MODEL 1
REMARK VINA RESULT:    -3.907      0.000      0.000
REMARK INTER + INTRA:          -4.954
REMARK INTER:                  -5.962
REMARK INTRA:                   1.009
REMARK UNBOUND:                 1.009
REMARK SMILES CC1=CCC[C@@H](C)C(=O)C[C@H](C(C)C)C(=O)C1
REMARK SMILES IDX 8 1 9 2 6 3 7 4 5 5 4 6 3 7 2 8 1 9 10 11 11 12 15 13 16 14
REMARK SMILES IDX 17 15 12 17 13 18 14 19
REMARK H PARENT
REMARK Flexibility Score: 70.00
ROOT
ATOM      1  C   UNL     1      70.496  61.058  24.806  1.00  0.00     0.136 C 
ATOM      2  O   UNL     1      70.875  59.909  24.630  1.00  0.00    -0.299 OA
ENDROOT
BRANCH   1   3
ATOM      3  C   UNL     1      71.056  62.152  23.913  1.00  0.00     0.053 C 
ATOM      4  C   UNL     1      71.753  61.559  22.682  1.00  0.00     0.016 C 
BRANCH   3   5
ATOM      5  C   UNL     1      71.999  63.096  24.682  1.00  0.00     0.015 C 
BRANCH   5   6
ATOM      6  C   UNL     1      71.687  63.138  26.195  1.00  0.00     0.028 C 
BRANCH   6   7
ATOM      7  C   UNL     1      72.747  62.412  26.986  1.00  0.00    -0.028 C 
ATOM      8  C   UNL     1      72.513  61.532  27.989  1.00  0.00    -0.070 CG0
ATOM      9  C   UNL     1      73.702  60.848  28.617  1.00  0.00     0.039 C 
ATOM     10  G   UNL     1      71.123  61.227  28.527  1.00  0.00     0.000 G0
ENDBRANCH   6   7
ENDBRANCH   5   6
ENDBRANCH   3   5
ENDBRANCH   1   3
BRANCH   1  11
ATOM     11  C   UNL     1      69.499  61.330  25.915  1.00  0.00     0.087 C 
BRANCH  11  12
ATOM     12  C   UNL     1      69.275  60.134  26.883  1.00  0.00     0.066 C 
BRANCH  12  13
ATOM     13  C   UNL     1      70.413  60.029  27.894  1.00  0.00     0.140 C 
ATOM     14  O   UNL     1      70.808  58.915  28.208  1.00  0.00    -0.299 OA
BRANCH  13  15
ATOM     15  C   UNL     1      71.115  61.221  28.516  1.00  0.00     0.106 CG0
ATOM     16  G   UNL     1      72.503  61.528  27.972  1.00  0.00     0.000 G0
ENDBRANCH  13  15
ENDBRANCH  12  13
BRANCH  12  17
ATOM     17  C   UNL     1      67.904  60.247  27.624  1.00  0.00    -0.006 C 
ATOM     18  C   UNL     1      66.732  60.331  26.629  1.00  0.00     0.008 C 
ATOM     19  C   UNL     1      67.847  61.468  28.560  1.00  0.00     0.008 C 
ENDBRANCH  12  17
ENDBRANCH  11  12
ENDBRANCH   1  11
TORSDOF 1
ENDMDL
MODEL 2
REMARK VINA RESULT:    -3.781      1.566      3.974
REMARK INTER + INTRA:          -4.761
REMARK INTER:                  -6.116
REMARK INTRA:                   1.355
REMARK UNBOUND:                 1.009
REMARK SMILES CC1=CCC[C@@H](C)C(=O)C[C@H](C(C)C)C(=O)C1
REMARK SMILES IDX 8 1 9 2 6 3 7 4 5 5 4 6 3 7 2 8 1 9 10 11 11 12 15 13 16 14
REMARK SMILES IDX 17 15 12 17 13 18 14 19
REMARK H PARENT
REMARK Flexibility Score: 70.00
ROOT
ATOM      1  C   UNL     1      68.801  60.323  26.694  1.00  0.00     0.136 C 
ATOM      2  O   UNL     1      67.924  60.005  25.904  1.00  0.00    -0.299 OA
ENDROOT
BRANCH   1   3
ATOM      3  C   UNL     1      68.410  60.618  28.132  1.00  0.00     0.053 C 
ATOM      4  C   UNL     1      67.979  62.080  28.299  1.00  0.00     0.016 C 
BRANCH   3   5
ATOM      5  C   UNL     1      69.536  60.257  29.120  1.00  0.00     0.015 C 
BRANCH   5   6
ATOM      6  C   UNL     1      70.592  61.378  29.246  1.00  0.00     0.028 C 
BRANCH   6   7
ATOM      7  C   UNL     1      71.983  60.840  29.017  1.00  0.00    -0.028 C 
ATOM      8  C   UNL     1      72.902  61.374  28.178  1.00  0.00    -0.070 CG0
ATOM      9  C   UNL     1      74.269  60.738  28.136  1.00  0.00     0.039 C 
ATOM     10  G   UNL     1      72.614  62.554  27.262  1.00  0.00     0.000 G0
ENDBRANCH   6   7
ENDBRANCH   5   6
ENDBRANCH   3   5
ENDBRANCH   1   3
BRANCH   1  11
ATOM     11  C   UNL     1      70.229  60.419  26.193  1.00  0.00     0.087 C 
BRANCH  11  12
ATOM     12  C   UNL     1      70.619  61.817  25.634  1.00  0.00     0.066 C 
BRANCH  12  13
ATOM     13  C   UNL     1      71.216  62.696  26.729  1.00  0.00     0.140 C 
ATOM     14  O   UNL     1      70.503  63.547  27.242  1.00  0.00    -0.299 OA
BRANCH  13  15
ATOM     15  C   UNL     1      72.633  62.562  27.253  1.00  0.00     0.106 CG0
ATOM     16  G   UNL     1      72.893  61.371  28.163  1.00  0.00     0.000 G0
ENDBRANCH  13  15
ENDBRANCH  12  13
BRANCH  12  17
ATOM     17  C   UNL     1      71.615  61.697  24.436  1.00  0.00    -0.006 C 
ATOM     18  C   UNL     1      71.510  62.910  23.493  1.00  0.00     0.008 C 
ATOM     19  C   UNL     1      71.388  60.413  23.618  1.00  0.00     0.008 C 
ENDBRANCH  12  17
ENDBRANCH  11  12
ENDBRANCH   1  11
TORSDOF 1
ENDMDL
MODEL 3
REMARK VINA RESULT:    -3.527     11.178     13.704
REMARK INTER + INTRA:          -4.374
REMARK INTER:                  -4.428
REMARK INTRA:                   0.054
REMARK UNBOUND:                 1.009
REMARK SMILES CC1=CCC[C@@H](C)C(=O)C[C@H](C(C)C)C(=O)C1
REMARK SMILES IDX 8 1 9 2 6 3 7 4 5 5 4 6 3 7 2 8 1 9 10 11 11 12 15 13 16 14
REMARK SMILES IDX 17 15 12 17 13 18 14 19
REMARK H PARENT
REMARK Flexibility Score: 70.00
ROOT
ATOM      1  C   UNL     1      74.712  71.972  24.457  1.00  0.00     0.136 C 
ATOM      2  O   UNL     1      75.480  71.234  25.055  1.00  0.00    -0.299 OA
ENDROOT
BRANCH   1   3
ATOM      3  C   UNL     1      73.236  71.927  24.814  1.00  0.00     0.053 C 
ATOM      4  C   UNL     1      72.985  71.003  26.012  1.00  0.00     0.016 C 
BRANCH   3   5
ATOM      5  C   UNL     1      72.365  71.521  23.610  1.00  0.00     0.015 C 
BRANCH   5   6
ATOM      6  C   UNL     1      71.201  72.507  23.363  1.00  0.00     0.028 C 
BRANCH   6   7
ATOM      7  C   UNL     1      71.714  73.915  23.186  1.00  0.00    -0.028 C 
ATOM      8  C   UNL     1      72.444  74.358  22.135  1.00  0.00    -0.070 CG0
ATOM      9  C   UNL     1      72.805  75.823  22.097  1.00  0.00     0.039 C 
ATOM     10  G   UNL     1      72.937  73.452  21.018  1.00  0.00     0.000 G0
ENDBRANCH   6   7
ENDBRANCH   5   6
ENDBRANCH   3   5
ENDBRANCH   1   3
BRANCH   1  11
ATOM     11  C   UNL     1      75.271  72.884  23.382  1.00  0.00     0.087 C 
BRANCH  11  12
ATOM     12  C   UNL     1      75.211  72.292  21.945  1.00  0.00     0.066 C 
BRANCH  12  13
ATOM     13  C   UNL     1      74.468  73.230  20.998  1.00  0.00     0.140 C 
ATOM     14  O   UNL     1      75.113  73.824  20.147  1.00  0.00    -0.299 OA
BRANCH  13  15
ATOM     15  C   UNL     1      72.967  73.450  21.019  1.00  0.00     0.106 CG0
ATOM     16  G   UNL     1      72.445  74.344  22.134  1.00  0.00     0.000 G0
ENDBRANCH  13  15
ENDBRANCH  12  13
BRANCH  12  17
ATOM     17  C   UNL     1      76.640  71.988  21.391  1.00  0.00    -0.006 C 
ATOM     18  C   UNL     1      76.976  70.489  21.492  1.00  0.00     0.008 C 
ATOM     19  C   UNL     1      77.730  72.790  22.125  1.00  0.00     0.008 C 
ENDBRANCH  12  17
ENDBRANCH  11  12
ENDBRANCH   1  11
TORSDOF 1
ENDMDL
MODEL 4
REMARK VINA RESULT:    -3.511     11.259     13.201
REMARK INTER + INTRA:          -4.350
REMARK INTER:                  -4.004
REMARK INTRA:                  -0.346
REMARK UNBOUND:                 1.009
REMARK SMILES CC1=CCC[C@@H](C)C(=O)C[C@H](C(C)C)C(=O)C1
REMARK SMILES IDX 8 1 9 2 6 3 7 4 5 5 4 6 3 7 2 8 1 9 10 11 11 12 15 13 16 14
REMARK SMILES IDX 17 15 12 17 13 18 14 19
REMARK H PARENT
REMARK Flexibility Score: 70.00
ROOT
ATOM      1  C   UNL     1      73.570  72.319  23.607  1.00  0.00     0.136 C 
ATOM      2  O   UNL     1      72.538  72.975  23.613  1.00  0.00    -0.299 OA
ENDROOT
BRANCH   1   3
ATOM      3  C   UNL     1      74.200  71.945  24.938  1.00  0.00     0.053 C 
ATOM      4  C   UNL     1      73.145  71.424  25.922  1.00  0.00     0.016 C 
BRANCH   3   5
ATOM      5  C   UNL     1      74.994  73.117  25.547  1.00  0.00     0.015 C 
BRANCH   5   6
ATOM      6  C   UNL     1      76.514  72.841  25.589  1.00  0.00     0.028 C 
BRANCH   6   7
ATOM      7  C   UNL     1      76.819  71.426  25.160  1.00  0.00    -0.028 C 
ATOM      8  C   UNL     1      77.363  71.066  23.974  1.00  0.00    -0.070 CG0
ATOM      9  C   UNL     1      77.664  69.605  23.752  1.00  0.00     0.039 C 
ATOM     10  G   UNL     1      77.654  72.053  22.853  1.00  0.00     0.000 G0
ENDBRANCH   6   7
ENDBRANCH   5   6
ENDBRANCH   3   5
ENDBRANCH   1   3
BRANCH   1  11
ATOM     11  C   UNL     1      74.172  71.925  22.272  1.00  0.00     0.087 C 
BRANCH  11  12
ATOM     12  C   UNL     1      75.322  72.854  21.789  1.00  0.00     0.066 C 
BRANCH  12  13
ATOM     13  C   UNL     1      76.642  72.094  21.712  1.00  0.00     0.140 C 
ATOM     14  O   UNL     1      76.910  71.500  20.678  1.00  0.00    -0.299 OA
BRANCH  13  15
ATOM     15  C   UNL     1      77.670  72.053  22.828  1.00  0.00     0.106 CG0
ATOM     16  G   UNL     1      77.366  71.096  23.972  1.00  0.00     0.000 G0
ENDBRANCH  13  15
ENDBRANCH  12  13
BRANCH  12  17
ATOM     17  C   UNL     1      74.992  73.502  20.406  1.00  0.00    -0.006 C 
ATOM     18  C   UNL     1      75.031  75.039  20.481  1.00  0.00     0.008 C 
ATOM     19  C   UNL     1      73.614  73.068  19.875  1.00  0.00     0.008 C 
ENDBRANCH  12  17
ENDBRANCH  11  12
ENDBRANCH   1  11
TORSDOF 1
ENDMDL
MODEL 5
REMARK VINA RESULT:    -3.440     11.336     13.691
REMARK INTER + INTRA:          -4.242
REMARK INTER:                  -4.147
REMARK INTRA:                  -0.095
REMARK UNBOUND:                 1.009
REMARK SMILES CC1=CCC[C@@H](C)C(=O)C[C@H](C(C)C)C(=O)C1
REMARK SMILES IDX 8 1 9 2 6 3 7 4 5 5 4 6 3 7 2 8 1 9 10 11 11 12 15 13 16 14
REMARK SMILES IDX 17 15 12 17 13 18 14 19
REMARK H PARENT
REMARK Flexibility Score: 70.00
ROOT
ATOM      1  C   UNL     1      74.789  72.343  24.517  1.00  0.00     0.136 C 
ATOM      2  O   UNL     1      75.729  71.575  24.375  1.00  0.00    -0.299 OA
ENDROOT
BRANCH   1   3
ATOM      3  C   UNL     1      73.758  72.039  25.590  1.00  0.00     0.053 C 
ATOM      4  C   UNL     1      74.370  71.210  26.726  1.00  0.00     0.016 C 
BRANCH   3   5
ATOM      5  C   UNL     1      72.511  71.345  25.008  1.00  0.00     0.015 C 
BRANCH   5   6
ATOM      6  C   UNL     1      71.204  72.092  25.357  1.00  0.00     0.028 C 
BRANCH   6   7
ATOM      7  C   UNL     1      71.421  73.585  25.372  1.00  0.00    -0.028 C 
ATOM      8  C   UNL     1      71.497  74.378  24.277  1.00  0.00    -0.070 CG0
ATOM      9  C   UNL     1      71.645  75.863  24.493  1.00  0.00     0.039 C 
ATOM     10  G   UNL     1      71.471  73.842  22.853  1.00  0.00     0.000 G0
ENDBRANCH   6   7
ENDBRANCH   5   6
ENDBRANCH   3   5
ENDBRANCH   1   3
BRANCH   1  11
ATOM     11  C   UNL     1      74.697  73.552  23.606  1.00  0.00     0.087 C 
BRANCH  11  12
ATOM     12  C   UNL     1      74.036  73.265  22.227  1.00  0.00     0.066 C 
BRANCH  12  13
ATOM     13  C   UNL     1      72.760  74.082  22.053  1.00  0.00     0.140 C 
ATOM     14  O   UNL     1      72.744  74.957  21.199  1.00  0.00    -0.299 OA
BRANCH  13  15
ATOM     15  C   UNL     1      71.488  73.859  22.849  1.00  0.00     0.106 CG0
ATOM     16  G   UNL     1      71.507  74.366  24.283  1.00  0.00     0.000 G0
ENDBRANCH  13  15
ENDBRANCH  12  13
BRANCH  12  17
ATOM     17  C   UNL     1      75.023  73.549  21.050  1.00  0.00    -0.006 C 
ATOM     18  C   UNL     1      75.603  72.244  20.474  1.00  0.00     0.008 C 
ATOM     19  C   UNL     1      76.187  74.462  21.474  1.00  0.00     0.008 C 
ENDBRANCH  12  17
ENDBRANCH  11  12
ENDBRANCH   1  11
TORSDOF 1
ENDMDL
MODEL 6
REMARK VINA RESULT:    -3.427     11.409     12.988
REMARK INTER + INTRA:          -4.221
REMARK INTER:                  -3.976
REMARK INTRA:                  -0.246
REMARK UNBOUND:                 1.009
REMARK SMILES CC1=CCC[C@@H](C)C(=O)C[C@H](C(C)C)C(=O)C1
REMARK SMILES IDX 8 1 9 2 6 3 7 4 5 5 4 6 3 7 2 8 1 9 10 11 11 12 15 13 16 14
REMARK SMILES IDX 17 15 12 17 13 18 14 19
REMARK H PARENT
REMARK Flexibility Score: 70.00
ROOT
ATOM      1  C   UNL     1      72.332  72.468  23.395  1.00  0.00     0.136 C 
ATOM      2  O   UNL     1      71.278  72.716  22.826  1.00  0.00    -0.299 OA
ENDROOT
BRANCH   1   3
ATOM      3  C   UNL     1      72.434  72.740  24.886  1.00  0.00     0.053 C 
ATOM      4  C   UNL     1      71.120  72.402  25.601  1.00  0.00     0.016 C 
BRANCH   3   5
ATOM      5  C   UNL     1      72.866  74.189  25.178  1.00  0.00     0.015 C 
BRANCH   5   6
ATOM      6  C   UNL     1      74.183  74.261  25.984  1.00  0.00     0.028 C 
BRANCH   6   7
ATOM      7  C   UNL     1      74.646  72.882  26.388  1.00  0.00    -0.028 C 
ATOM      8  C   UNL     1      75.662  72.197  25.812  1.00  0.00    -0.070 CG0
ATOM      9  C   UNL     1      76.029  70.857  26.401  1.00  0.00     0.039 C 
ATOM     10  G   UNL     1      76.424  72.695  24.593  1.00  0.00     0.000 G0
ENDBRANCH   6   7
ENDBRANCH   5   6
ENDBRANCH   3   5
ENDBRANCH   1   3
BRANCH   1  11
ATOM     11  C   UNL     1      73.484  71.917  22.577  1.00  0.00     0.087 C 
BRANCH  11  12
ATOM     12  C   UNL     1      74.730  72.846  22.518  1.00  0.00     0.066 C 
BRANCH  12  13
ATOM     13  C   UNL     1      75.915  72.218  23.246  1.00  0.00     0.140 C 
ATOM     14  O   UNL     1      76.503  71.293  22.704  1.00  0.00    -0.299 OA
BRANCH  13  15
ATOM     15  C   UNL     1      76.439  72.689  24.589  1.00  0.00     0.106 CG0
ATOM     16  G   UNL     1      75.680  72.186  25.809  1.00  0.00     0.000 G0
ENDBRANCH  13  15
ENDBRANCH  12  13
BRANCH  12  17
ATOM     17  C   UNL     1      75.121  73.186  21.044  1.00  0.00    -0.006 C 
ATOM     18  C   UNL     1      75.142  74.706  20.804  1.00  0.00     0.008 C 
ATOM     19  C   UNL     1      74.166  72.538  20.025  1.00  0.00     0.008 C 
ENDBRANCH  12  17
ENDBRANCH  11  12
ENDBRANCH   1  11
TORSDOF 1
ENDMDL
MODEL 7
REMARK VINA RESULT:    -3.420     11.747     14.058
REMARK INTER + INTRA:          -4.211
REMARK INTER:                  -4.126
REMARK INTRA:                  -0.085
REMARK UNBOUND:                 1.009
REMARK SMILES CC1=CCC[C@@H](C)C(=O)C[C@H](C(C)C)C(=O)C1
REMARK SMILES IDX 8 1 9 2 6 3 7 4 5 5 4 6 3 7 2 8 1 9 10 11 11 12 15 13 16 14
REMARK SMILES IDX 17 15 12 17 13 18 14 19
REMARK H PARENT
REMARK Flexibility Score: 70.00
ROOT
ATOM      1  C   UNL     1      71.984  73.591  22.901  1.00  0.00     0.136 C 
ATOM      2  O   UNL     1      71.305  74.338  23.591  1.00  0.00    -0.299 OA
ENDROOT
BRANCH   1   3
ATOM      3  C   UNL     1      72.346  72.223  23.452  1.00  0.00     0.053 C 
ATOM      4  C   UNL     1      71.099  71.344  23.612  1.00  0.00     0.016 C 
BRANCH   3   5
ATOM      5  C   UNL     1      73.124  72.324  24.778  1.00  0.00     0.015 C 
BRANCH   5   6
ATOM      6  C   UNL     1      74.571  72.827  24.574  1.00  0.00     0.028 C 
BRANCH   6   7
ATOM      7  C   UNL     1      75.416  71.783  23.886  1.00  0.00    -0.028 C 
ATOM      8  C   UNL     1      76.142  71.980  22.760  1.00  0.00    -0.070 CG0
ATOM      9  C   UNL     1      76.984  70.834  22.257  1.00  0.00     0.039 C 
ATOM     10  G   UNL     1      76.125  73.279  21.968  1.00  0.00     0.000 G0
ENDBRANCH   6   7
ENDBRANCH   5   6
ENDBRANCH   3   5
ENDBRANCH   1   3
BRANCH   1  11
ATOM     11  C   UNL     1      72.440  74.077  21.539  1.00  0.00     0.087 C 
BRANCH  11  12
ATOM     12  C   UNL     1      73.883  74.658  21.516  1.00  0.00     0.066 C 
BRANCH  12  13
ATOM     13  C   UNL     1      74.900  73.581  21.155  1.00  0.00     0.140 C 
ATOM     14  O   UNL     1      74.722  72.935  20.133  1.00  0.00    -0.299 OA
BRANCH  13  15
ATOM     15  C   UNL     1      76.147  73.278  21.965  1.00  0.00     0.106 CG0
ATOM     16  G   UNL     1      76.126  71.974  22.748  1.00  0.00     0.000 G0
ENDBRANCH  13  15
ENDBRANCH  12  13
BRANCH  12  17
ATOM     17  C   UNL     1      73.998  75.863  20.528  1.00  0.00    -0.006 C 
ATOM     18  C   UNL     1      75.468  76.260  20.294  1.00  0.00     0.008 C 
ATOM     19  C   UNL     1      73.225  77.098  21.023  1.00  0.00     0.008 C 
ENDBRANCH  12  17
ENDBRANCH  11  12
ENDBRANCH   1  11
TORSDOF 1
ENDMDL
MODEL 8
REMARK VINA RESULT:    -3.383     12.079     14.009
REMARK INTER + INTRA:          -4.155
REMARK INTER:                  -3.933
REMARK INTRA:                  -0.222
REMARK UNBOUND:                 1.009
REMARK SMILES CC1=CCC[C@@H](C)C(=O)C[C@H](C(C)C)C(=O)C1
REMARK SMILES IDX 8 1 9 2 6 3 7 4 5 5 4 6 3 7 2 8 1 9 10 11 11 12 15 13 16 14
REMARK SMILES IDX 17 15 12 17 13 18 14 19
REMARK H PARENT
REMARK Flexibility Score: 70.00
ROOT
ATOM      1  C   UNL     1      74.801  75.843  22.477  1.00  0.00     0.136 C 
ATOM      2  O   UNL     1      74.337  76.966  22.339  1.00  0.00    -0.299 OA
ENDROOT
BRANCH   1   3
ATOM      3  C   UNL     1      75.770  75.324  21.429  1.00  0.00     0.053 C 
ATOM      4  C   UNL     1      76.996  76.238  21.307  1.00  0.00     0.016 C 
BRANCH   3   5
ATOM      5  C   UNL     1      75.087  75.129  20.062  1.00  0.00     0.015 C 
BRANCH   5   6
ATOM      6  C   UNL     1      74.415  73.743  19.930  1.00  0.00     0.028 C 
BRANCH   6   7
ATOM      7  C   UNL     1      75.316  72.653  20.457  1.00  0.00    -0.028 C 
ATOM      8  C   UNL     1      74.980  71.748  21.407  1.00  0.00    -0.070 CG0
ATOM      9  C   UNL     1      75.991  70.684  21.754  1.00  0.00     0.039 C 
ATOM     10  G   UNL     1      73.655  71.774  22.156  1.00  0.00     0.000 G0
ENDBRANCH   6   7
ENDBRANCH   5   6
ENDBRANCH   3   5
ENDBRANCH   1   3
BRANCH   1  11
ATOM     11  C   UNL     1      74.374  75.026  23.681  1.00  0.00     0.087 C 
BRANCH  11  12
ATOM     12  C   UNL     1      73.163  74.085  23.419  1.00  0.00     0.066 C 
BRANCH  12  13
ATOM     13  C   UNL     1      73.599  72.624  23.405  1.00  0.00     0.140 C 
ATOM     14  O   UNL     1      73.907  72.100  24.466  1.00  0.00    -0.299 OA
BRANCH  13  15
ATOM     15  C   UNL     1      73.645  71.759  22.159  1.00  0.00     0.106 CG0
ATOM     16  G   UNL     1      74.971  71.743  21.413  1.00  0.00     0.000 G0
ENDBRANCH  13  15
ENDBRANCH  12  13
BRANCH  12  17
ATOM     17  C   UNL     1      72.033  74.300  24.477  1.00  0.00    -0.006 C 
ATOM     18  C   UNL     1      70.950  73.211  24.373  1.00  0.00     0.008 C 
ATOM     19  C   UNL     1      71.362  75.679  24.339  1.00  0.00     0.008 C 
ENDBRANCH  12  17
ENDBRANCH  11  12
ENDBRANCH   1  11
TORSDOF 1
ENDMDL
MODEL 9
REMARK VINA RESULT:    -3.299     11.513     13.555
REMARK INTER + INTRA:          -4.025
REMARK INTER:                  -4.464
REMARK INTRA:                   0.438
REMARK UNBOUND:                 1.009
REMARK SMILES CC1=CCC[C@@H](C)C(=O)C[C@H](C(C)C)C(=O)C1
REMARK SMILES IDX 8 1 9 2 6 3 7 4 5 5 4 6 3 7 2 8 1 9 10 11 11 12 15 13 16 14
REMARK SMILES IDX 17 15 12 17 13 18 14 19
REMARK H PARENT
REMARK Flexibility Score: 70.00
ROOT
ATOM      1  C   UNL     1      75.851  71.896  23.236  1.00  0.00     0.136 C 
ATOM      2  O   UNL     1      76.364  71.240  24.131  1.00  0.00    -0.299 OA
ENDROOT
BRANCH   1   3
ATOM      3  C   UNL     1      75.753  71.282  21.850  1.00  0.00     0.053 C 
ATOM      4  C   UNL     1      76.599  70.006  21.750  1.00  0.00     0.016 C 
BRANCH   3   5
ATOM      5  C   UNL     1      76.135  72.287  20.747  1.00  0.00     0.015 C 
BRANCH   5   6
ATOM      6  C   UNL     1      74.925  72.693  19.875  1.00  0.00     0.028 C 
BRANCH   6   7
ATOM      7  C   UNL     1      74.619  74.163  20.025  1.00  0.00    -0.028 C 
ATOM      8  C   UNL     1      73.725  74.694  20.893  1.00  0.00    -0.070 CG0
ATOM      9  C   UNL     1      73.608  76.197  20.951  1.00  0.00     0.039 C 
ATOM     10  G   UNL     1      72.821  73.853  21.782  1.00  0.00     0.000 G0
ENDBRANCH   6   7
ENDBRANCH   5   6
ENDBRANCH   3   5
ENDBRANCH   1   3
BRANCH   1  11
ATOM     11  C   UNL     1      75.354  73.292  23.555  1.00  0.00     0.087 C 
BRANCH  11  12
ATOM     12  C   UNL     1      73.935  73.338  24.190  1.00  0.00     0.066 C 
BRANCH  12  13
ATOM     13  C   UNL     1      72.955  74.080  23.288  1.00  0.00     0.140 C 
ATOM     14  O   UNL     1      72.242  74.937  23.788  1.00  0.00    -0.299 OA
BRANCH  13  15
ATOM     15  C   UNL     1      72.829  73.850  21.793  1.00  0.00     0.106 CG0
ATOM     16  G   UNL     1      73.738  74.697  20.914  1.00  0.00     0.000 G0
ENDBRANCH  13  15
ENDBRANCH  12  13
BRANCH  12  17
ATOM     17  C   UNL     1      73.401  71.902  24.500  1.00  0.00    -0.006 C 
ATOM     18  C   UNL     1      71.916  71.760  24.122  1.00  0.00     0.008 C 
ATOM     19  C   UNL     1      73.572  71.526  25.983  1.00  0.00     0.008 C 
ENDBRANCH  12  17
ENDBRANCH  11  12
ENDBRANCH   1  11
TORSDOF 1
ENDMDL
