MODEL 1
REMARK VINA RESULT:    -4.602      0.000      0.000
REMARK INTER + INTRA:          -9.777
REMARK INTER:                  -7.964
REMARK INTRA:                  -1.813
REMARK UNBOUND:                -1.813
REMARK SMILES OC[C@@H]1O[C@H](O[C@H]2[C@H](O)[C@H](O)[C@@H](O[C@@H]3[C@H](O)[C@@H](O)[C@H](O)O[C@H]3CO)O[C@H]2CO)[C@H](O)[C@H](O)[C@H]1O
REMARK SMILES IDX 7 1 26 2 25 3 12 4 10 5 8 6 6 7 5 8 3 9 33 10 4 11 31 12
REMARK SMILES IDX 29 13 2 14 1 15 34 17 32 19 30 21 27 23 28 24 9 26 11 28
REMARK SMILES IDX 13 30 14 31 22 32 15 33 21 34 17 35 19 36 23 37 24 38 16 40
REMARK SMILES IDX 18 42 20 44
REMARK H PARENT 1 16 34 18 32 20 30 22 28 25 9 27 11 29 24 39 16 41 18 43
REMARK H PARENT 20 45
REMARK Flexibility Score: inf
ROOT
ATOM      1  C   UNL     1     108.177  52.641  -3.344  1.00  0.00     0.184 C 
ATOM      2  C   UNL     1     108.936  52.196  -2.085  1.00  0.00     0.178 C 
ATOM      3  O   UNL     1     109.197  53.291  -1.208  1.00  0.00    -0.341 OA
ATOM      4  C   UNL     1     108.048  54.032  -0.807  1.00  0.00     0.282 C 
ATOM      5  C   UNL     1     106.983  54.324  -1.913  1.00  0.00     0.202 C 
ATOM      6  C   UNL     1     106.804  53.180  -2.937  1.00  0.00     0.180 C 
ENDROOT
BRANCH   1   7
ATOM      7  O   UNL     1     108.034  51.542  -4.230  1.00  0.00    -0.341 OA
BRANCH   7   8
ATOM      8  C   UNL     1     108.367  51.812  -5.589  1.00  0.00     0.282 C 
ATOM      9  C   UNL     1     110.605  51.661  -6.549  1.00  0.00     0.178 C 
ATOM     10  C   UNL     1     110.653  50.153  -6.208  1.00  0.00     0.177 C 
ATOM     11  O   UNL     1     109.670  52.384  -5.736  1.00  0.00    -0.341 OA
ATOM     12  C   UNL     1     109.246  49.497  -6.157  1.00  0.00     0.179 C 
ATOM     13  C   UNL     1     108.137  50.537  -6.430  1.00  0.00     0.202 C 
BRANCH   9  14
ATOM     14  C   UNL     1     111.997  52.322  -6.353  1.00  0.00     0.191 C 
BRANCH  14  15
ATOM     15  O   UNL     1     112.944  51.373  -5.932  1.00  0.00    -0.394 OA
ATOM     16  H   UNL     1     113.155  51.560  -4.993  1.00  0.00     0.210 HD
ENDBRANCH  14  15
ENDBRANCH   9  14
BRANCH  10  17
ATOM     17  O   UNL     1     111.480  49.477  -7.125  1.00  0.00    -0.387 OA
ATOM     18  H   UNL     1     111.887  50.139  -7.735  1.00  0.00     0.211 HD
ENDBRANCH  10  17
BRANCH  12  19
ATOM     19  O   UNL     1     109.046  48.902  -4.900  1.00  0.00    -0.387 OA
ATOM     20  H   UNL     1     108.581  48.038  -5.055  1.00  0.00     0.211 HD
ENDBRANCH  12  19
BRANCH  13  21
ATOM     21  O   UNL     1     106.876  50.002  -6.131  1.00  0.00    -0.385 OA
ATOM     22  H   UNL     1     106.310  50.133  -6.937  1.00  0.00     0.211 HD
ENDBRANCH  13  21
ENDBRANCH   7   8
ENDBRANCH   1   7
BRANCH   2  23
ATOM     23  C   UNL     1     108.318  50.958  -1.368  1.00  0.00     0.191 C 
BRANCH  23  24
ATOM     24  O   UNL     1     108.776  49.775  -1.972  1.00  0.00    -0.394 OA
ATOM     25  H   UNL     1     107.969  49.259  -2.230  1.00  0.00     0.210 HD
ENDBRANCH  23  24
ENDBRANCH   2  23
BRANCH   6  26
ATOM     26  O   UNL     1     106.140  53.658  -4.080  1.00  0.00    -0.387 OA
ATOM     27  H   UNL     1     105.639  52.890  -4.460  1.00  0.00     0.211 HD
ENDBRANCH   6  26
BRANCH   5  28
ATOM     28  O   UNL     1     107.247  55.548  -2.556  1.00  0.00    -0.385 OA
ATOM     29  H   UNL     1     106.805  56.270  -2.042  1.00  0.00     0.211 HD
ENDBRANCH   5  28
BRANCH   4  30
ATOM     30  O   UNL     1     107.445  53.450   0.339  1.00  0.00    -0.341 OA
BRANCH  30  31
ATOM     31  C   UNL     1     107.466  54.319   1.461  1.00  0.00     0.184 C 
ATOM     32  C   UNL     1     106.041  54.404   2.079  1.00  0.00     0.178 C 
ATOM     33  C   UNL     1     108.464  53.798   2.513  1.00  0.00     0.180 C 
ATOM     34  O   UNL     1     106.014  54.541   3.497  1.00  0.00    -0.342 OA
ATOM     35  C   UNL     1     108.419  54.637   3.823  1.00  0.00     0.201 C 
ATOM     36  C   UNL     1     107.065  55.361   3.978  1.00  0.00     0.279 C 
BRANCH  32  37
ATOM     37  C   UNL     1     105.200  55.496   1.406  1.00  0.00     0.191 C 
BRANCH  37  38
ATOM     38  O   UNL     1     104.713  55.032   0.174  1.00  0.00    -0.394 OA
ATOM     39  H   UNL     1     105.231  54.218  -0.037  1.00  0.00     0.210 HD
ENDBRANCH  37  38
ENDBRANCH  32  37
BRANCH  33  40
ATOM     40  O   UNL     1     108.251  52.433   2.774  1.00  0.00    -0.387 OA
ATOM     41  H   UNL     1     109.139  52.001   2.901  1.00  0.00     0.211 HD
ENDBRANCH  33  40
BRANCH  35  42
ATOM     42  O   UNL     1     109.462  55.574   3.803  1.00  0.00    -0.385 OA
ATOM     43  H   UNL     1     110.259  55.133   4.203  1.00  0.00     0.211 HD
ENDBRANCH  35  42
BRANCH  36  44
ATOM     44  O   UNL     1     106.846  55.639   5.334  1.00  0.00    -0.366 OA
ATOM     45  H   UNL     1     107.745  55.779   5.741  1.00  0.00     0.213 HD
ENDBRANCH  36  44
ENDBRANCH  30  31
ENDBRANCH   4  30
TORSDOF 18
ENDMDL
MODEL 2
REMARK VINA RESULT:    -4.106      3.388      6.255
REMARK INTER + INTRA:          -8.919
REMARK INTER:                  -7.314
REMARK INTRA:                  -1.606
REMARK UNBOUND:                -1.813
REMARK SMILES OC[C@@H]1O[C@H](O[C@H]2[C@H](O)[C@H](O)[C@@H](O[C@@H]3[C@H](O)[C@@H](O)[C@H](O)O[C@H]3CO)O[C@H]2CO)[C@H](O)[C@H](O)[C@H]1O
REMARK SMILES IDX 7 1 26 2 25 3 12 4 10 5 8 6 6 7 5 8 3 9 33 10 4 11 31 12
REMARK SMILES IDX 29 13 2 14 1 15 34 17 32 19 30 21 27 23 28 24 9 26 11 28
REMARK SMILES IDX 13 30 14 31 22 32 15 33 21 34 17 35 19 36 23 37 24 38 16 40
REMARK SMILES IDX 18 42 20 44
REMARK H PARENT 1 16 34 18 32 20 30 22 28 25 9 27 11 29 24 39 16 41 18 43
REMARK H PARENT 20 45
REMARK Flexibility Score: inf
ROOT
ATOM      1  C   UNL     1     105.410  54.493  -3.136  1.00  0.00     0.184 C 
ATOM      2  C   UNL     1     104.967  55.224  -1.860  1.00  0.00     0.178 C 
ATOM      3  O   UNL     1     104.875  54.338  -0.745  1.00  0.00    -0.341 OA
ATOM      4  C   UNL     1     106.061  53.602  -0.458  1.00  0.00     0.282 C 
ATOM      5  C   UNL     1     106.840  53.026  -1.685  1.00  0.00     0.202 C 
ATOM      6  C   UNL     1     106.821  53.938  -2.932  1.00  0.00     0.180 C 
ENDROOT
BRANCH   1   7
ATOM      7  O   UNL     1     105.386  55.391  -4.234  1.00  0.00    -0.341 OA
BRANCH   7   8
ATOM      8  C   UNL     1     104.687  54.922  -5.385  1.00  0.00     0.282 C 
ATOM      9  C   UNL     1     102.267  54.989  -5.690  1.00  0.00     0.178 C 
ATOM     10  C   UNL     1     102.295  56.533  -5.593  1.00  0.00     0.177 C 
ATOM     11  O   UNL     1     103.404  54.375  -5.067  1.00  0.00    -0.341 OA
ATOM     12  C   UNL     1     103.649  57.145  -6.044  1.00  0.00     0.179 C 
ATOM     13  C   UNL     1     104.652  56.042  -6.448  1.00  0.00     0.202 C 
BRANCH   9  14
ATOM     14  C   UNL     1     100.997  54.410  -5.009  1.00  0.00     0.191 C 
BRANCH  14  15
ATOM     15  O   UNL     1     100.799  53.070  -5.382  1.00  0.00    -0.394 OA
ATOM     16  H   UNL     1     100.204  53.064  -6.161  1.00  0.00     0.210 HD
ENDBRANCH  14  15
ENDBRANCH   9  14
BRANCH  10  17
ATOM     17  O   UNL     1     101.234  57.082  -6.337  1.00  0.00    -0.387 OA
ATOM     18  H   UNL     1     101.402  58.048  -6.466  1.00  0.00     0.211 HD
ENDBRANCH  10  17
BRANCH  12  19
ATOM     19  O   UNL     1     104.187  57.923  -5.004  1.00  0.00    -0.387 OA
ATOM     20  H   UNL     1     105.118  57.611  -4.857  1.00  0.00     0.211 HD
ENDBRANCH  12  19
BRANCH  13  21
ATOM     21  O   UNL     1     105.938  56.578  -6.604  1.00  0.00    -0.385 OA
ATOM     22  H   UNL     1     106.138  56.569  -7.577  1.00  0.00     0.211 HD
ENDBRANCH  13  21
ENDBRANCH   7   8
ENDBRANCH   1   7
BRANCH   2  23
ATOM     23  C   UNL     1     105.770  56.525  -1.555  1.00  0.00     0.191 C 
BRANCH  23  24
ATOM     24  O   UNL     1     105.401  57.539  -2.455  1.00  0.00    -0.394 OA
ATOM     25  H   UNL     1     105.576  58.401  -1.997  1.00  0.00     0.210 HD
ENDBRANCH  23  24
ENDBRANCH   2  23
BRANCH   6  26
ATOM     26  O   UNL     1     107.196  53.204  -4.071  1.00  0.00    -0.387 OA
ATOM     27  H   UNL     1     106.398  52.682  -4.348  1.00  0.00     0.211 HD
ENDBRANCH   6  26
BRANCH   5  28
ATOM     28  O   UNL     1     106.399  51.725  -1.996  1.00  0.00    -0.385 OA
ATOM     29  H   UNL     1     105.719  51.793  -2.713  1.00  0.00     0.211 HD
ENDBRANCH   5  28
BRANCH   4  30
ATOM     30  O   UNL     1     106.924  54.342   0.391  1.00  0.00    -0.341 OA
BRANCH  30  31
ATOM     31  C   UNL     1     107.264  53.629   1.570  1.00  0.00     0.184 C 
ATOM     32  C   UNL     1     108.808  53.651   1.763  1.00  0.00     0.178 C 
ATOM     33  C   UNL     1     106.574  54.267   2.791  1.00  0.00     0.180 C 
ATOM     34  O   UNL     1     109.238  53.703   3.121  1.00  0.00    -0.342 OA
ATOM     35  C   UNL     1     107.029  53.610   4.126  1.00  0.00     0.201 C 
ATOM     36  C   UNL     1     108.409  52.936   3.977  1.00  0.00     0.279 C 
BRANCH  32  37
ATOM     37  C   UNL     1     109.485  52.494   1.018  1.00  0.00     0.191 C 
BRANCH  37  38
ATOM     38  O   UNL     1     109.501  52.759  -0.360  1.00  0.00    -0.394 OA
ATOM     39  H   UNL     1     110.123  53.517  -0.488  1.00  0.00     0.210 HD
ENDBRANCH  37  38
ENDBRANCH  32  37
BRANCH  33  40
ATOM     40  O   UNL     1     106.777  55.658   2.811  1.00  0.00    -0.387 OA
ATOM     41  H   UNL     1     107.661  55.847   2.394  1.00  0.00     0.211 HD
ENDBRANCH  33  40
BRANCH  35  42
ATOM     42  O   UNL     1     106.074  52.661   4.518  1.00  0.00    -0.385 OA
ATOM     43  H   UNL     1     105.308  52.740   3.888  1.00  0.00     0.211 HD
ENDBRANCH  35  42
BRANCH  36  44
ATOM     44  O   UNL     1     109.013  52.844   5.238  1.00  0.00    -0.366 OA
ATOM     45  H   UNL     1     109.070  53.774   5.591  1.00  0.00     0.213 HD
ENDBRANCH  36  44
ENDBRANCH  30  31
ENDBRANCH   4  30
TORSDOF 18
ENDMDL
MODEL 3
REMARK VINA RESULT:    -4.059      1.565      8.680
REMARK INTER + INTRA:          -8.838
REMARK INTER:                  -8.247
REMARK INTRA:                  -0.591
REMARK UNBOUND:                -1.813
REMARK SMILES OC[C@@H]1O[C@H](O[C@H]2[C@H](O)[C@H](O)[C@@H](O[C@@H]3[C@H](O)[C@@H](O)[C@H](O)O[C@H]3CO)O[C@H]2CO)[C@H](O)[C@H](O)[C@H]1O
REMARK SMILES IDX 7 1 26 2 25 3 12 4 10 5 8 6 6 7 5 8 3 9 33 10 4 11 31 12
REMARK SMILES IDX 29 13 2 14 1 15 34 17 32 19 30 21 27 23 28 24 9 26 11 28
REMARK SMILES IDX 13 30 14 31 22 32 15 33 21 34 17 35 19 36 23 37 24 38 16 40
REMARK SMILES IDX 18 42 20 44
REMARK H PARENT 1 16 34 18 32 20 30 22 28 25 9 27 11 29 24 39 16 41 18 43
REMARK H PARENT 20 45
REMARK Flexibility Score: inf
ROOT
ATOM      1  C   UNL     1     106.084  54.509  -0.641  1.00  0.00     0.184 C 
ATOM      2  C   UNL     1     106.940  53.279  -0.305  1.00  0.00     0.178 C 
ATOM      3  O   UNL     1     106.948  52.331  -1.372  1.00  0.00    -0.341 OA
ATOM      4  C   UNL     1     107.365  52.844  -2.634  1.00  0.00     0.282 C 
ATOM      5  C   UNL     1     106.830  54.259  -3.026  1.00  0.00     0.202 C 
ATOM      6  C   UNL     1     106.701  55.238  -1.836  1.00  0.00     0.180 C 
ENDROOT
BRANCH   1   7
ATOM      7  O   UNL     1     106.023  55.370   0.485  1.00  0.00    -0.341 OA
BRANCH   7   8
ATOM      8  C   UNL     1     105.706  54.732   1.719  1.00  0.00     0.282 C 
ATOM      9  C   UNL     1     106.660  55.308   3.890  1.00  0.00     0.178 C 
ATOM     10  C   UNL     1     106.062  56.730   3.780  1.00  0.00     0.177 C 
ATOM     11  O   UNL     1     106.821  54.673   2.613  1.00  0.00    -0.341 OA
ATOM     12  C   UNL     1     104.783  56.784   2.900  1.00  0.00     0.179 C 
ATOM     13  C   UNL     1     104.446  55.392   2.322  1.00  0.00     0.202 C 
BRANCH   9  14
ATOM     14  C   UNL     1     108.057  55.341   4.570  1.00  0.00     0.191 C 
BRANCH  14  15
ATOM     15  O   UNL     1     108.956  54.493   3.901  1.00  0.00    -0.394 OA
ATOM     16  H   UNL     1     109.011  54.796   2.969  1.00  0.00     0.210 HD
ENDBRANCH  14  15
ENDBRANCH   9  14
BRANCH  10  17
ATOM     17  O   UNL     1     105.800  57.245   5.063  1.00  0.00    -0.387 OA
ATOM     18  H   UNL     1     106.047  56.564   5.736  1.00  0.00     0.211 HD
ENDBRANCH  10  17
BRANCH  12  19
ATOM     19  O   UNL     1     104.966  57.705   1.854  1.00  0.00    -0.387 OA
ATOM     20  H   UNL     1     105.000  57.185   1.009  1.00  0.00     0.211 HD
ENDBRANCH  12  19
BRANCH  13  21
ATOM     21  O   UNL     1     103.456  55.495   1.335  1.00  0.00    -0.385 OA
ATOM     22  H   UNL     1     103.896  55.308   0.465  1.00  0.00     0.211 HD
ENDBRANCH  13  21
ENDBRANCH   7   8
ENDBRANCH   1   7
BRANCH   2  23
ATOM     23  C   UNL     1     108.362  53.615   0.237  1.00  0.00     0.191 C 
BRANCH  23  24
ATOM     24  O   UNL     1     108.702  52.730   1.274  1.00  0.00    -0.394 OA
ATOM     25  H   UNL     1     109.315  52.056   0.881  1.00  0.00     0.210 HD
ENDBRANCH  23  24
ENDBRANCH   2  23
BRANCH   6  26
ATOM     26  O   UNL     1     105.876  56.320  -2.191  1.00  0.00    -0.387 OA
ATOM     27  H   UNL     1     106.284  57.131  -1.791  1.00  0.00     0.211 HD
ENDBRANCH   6  26
BRANCH   5  28
ATOM     28  O   UNL     1     105.620  54.161  -3.739  1.00  0.00    -0.385 OA
ATOM     29  H   UNL     1     105.404  55.054  -4.107  1.00  0.00     0.211 HD
ENDBRANCH   5  28
BRANCH   4  30
ATOM     30  O   UNL     1     108.777  52.781  -2.765  1.00  0.00    -0.341 OA
BRANCH  30  31
ATOM     31  C   UNL     1     109.196  51.696  -3.580  1.00  0.00     0.184 C 
ATOM     32  C   UNL     1     108.435  50.406  -3.159  1.00  0.00     0.178 C 
ATOM     33  C   UNL     1     108.916  52.010  -5.062  1.00  0.00     0.180 C 
ATOM     34  O   UNL     1     108.131  49.517  -4.230  1.00  0.00    -0.342 OA
ATOM     35  C   UNL     1     109.225  50.794  -5.983  1.00  0.00     0.201 C 
ATOM     36  C   UNL     1     109.166  49.467  -5.196  1.00  0.00     0.279 C 
BRANCH  32  37
ATOM     37  C   UNL     1     109.158  49.670  -2.024  1.00  0.00     0.191 C 
BRANCH  37  38
ATOM     38  O   UNL     1     109.252  50.504  -0.898  1.00  0.00    -0.394 OA
ATOM     39  H   UNL     1     110.145  50.923  -0.940  1.00  0.00     0.210 HD
ENDBRANCH  37  38
ENDBRANCH  32  37
BRANCH  33  40
ATOM     40  O   UNL     1     107.596  52.461  -5.238  1.00  0.00    -0.387 OA
ATOM     41  H   UNL     1     107.353  52.335  -6.195  1.00  0.00     0.211 HD
ENDBRANCH  33  40
BRANCH  35  42
ATOM     42  O   UNL     1     110.498  50.958  -6.547  1.00  0.00    -0.385 OA
ATOM     43  H   UNL     1     110.372  51.407  -7.426  1.00  0.00     0.211 HD
ENDBRANCH  35  42
BRANCH  36  44
ATOM     44  O   UNL     1     108.910  48.417  -6.089  1.00  0.00    -0.366 OA
ATOM     45  H   UNL     1     109.553  48.524  -6.841  1.00  0.00     0.213 HD
ENDBRANCH  36  44
ENDBRANCH  30  31
ENDBRANCH   4  30
TORSDOF 18
ENDMDL
MODEL 4
REMARK VINA RESULT:    -3.772      3.502      6.154
REMARK INTER + INTRA:          -8.342
REMARK INTER:                  -7.422
REMARK INTRA:                  -0.920
REMARK UNBOUND:                -1.813
REMARK SMILES OC[C@@H]1O[C@H](O[C@H]2[C@H](O)[C@H](O)[C@@H](O[C@@H]3[C@H](O)[C@@H](O)[C@H](O)O[C@H]3CO)O[C@H]2CO)[C@H](O)[C@H](O)[C@H]1O
REMARK SMILES IDX 7 1 26 2 25 3 12 4 10 5 8 6 6 7 5 8 3 9 33 10 4 11 31 12
REMARK SMILES IDX 29 13 2 14 1 15 34 17 32 19 30 21 27 23 28 24 9 26 11 28
REMARK SMILES IDX 13 30 14 31 22 32 15 33 21 34 17 35 19 36 23 37 24 38 16 40
REMARK SMILES IDX 18 42 20 44
REMARK H PARENT 1 16 34 18 32 20 30 22 28 25 9 27 11 29 24 39 16 41 18 43
REMARK H PARENT 20 45
REMARK Flexibility Score: inf
ROOT
ATOM      1  C   UNL     1     105.222  54.527  -2.947  1.00  0.00     0.184 C 
ATOM      2  C   UNL     1     105.064  55.360  -1.666  1.00  0.00     0.178 C 
ATOM      3  O   UNL     1     105.283  54.578  -0.493  1.00  0.00    -0.341 OA
ATOM      4  C   UNL     1     106.537  53.902  -0.443  1.00  0.00     0.282 C 
ATOM      5  C   UNL     1     107.026  53.236  -1.770  1.00  0.00     0.202 C 
ATOM      6  C   UNL     1     106.665  54.030  -3.046  1.00  0.00     0.180 C 
ENDROOT
BRANCH   1   7
ATOM      7  O   UNL     1     104.892  55.319  -4.077  1.00  0.00    -0.341 OA
BRANCH   7   8
ATOM      8  C   UNL     1     104.182  54.638  -5.107  1.00  0.00     0.282 C 
ATOM      9  C   UNL     1     101.843  55.014  -5.693  1.00  0.00     0.178 C 
ATOM     10  C   UNL     1     102.167  56.483  -6.057  1.00  0.00     0.177 C 
ATOM     11  O   UNL     1     102.800  54.443  -4.790  1.00  0.00    -0.341 OA
ATOM     12  C   UNL     1     103.638  56.684  -6.512  1.00  0.00     0.179 C 
ATOM     13  C   UNL     1     104.427  55.357  -6.452  1.00  0.00     0.202 C 
BRANCH   9  14
ATOM     14  C   UNL     1     100.447  54.902  -5.020  1.00  0.00     0.191 C 
BRANCH  14  15
ATOM     15  O   UNL     1      99.966  56.171  -4.656  1.00  0.00    -0.394 OA
ATOM     16  H   UNL     1      99.154  56.038  -4.122  1.00  0.00     0.210 HD
ENDBRANCH  14  15
ENDBRANCH   9  14
BRANCH  10  17
ATOM     17  O   UNL     1     101.278  56.942  -7.047  1.00  0.00    -0.387 OA
ATOM     18  H   UNL     1     100.854  56.162  -7.481  1.00  0.00     0.211 HD
ENDBRANCH  10  17
BRANCH  12  19
ATOM     19  O   UNL     1     104.259  57.646  -5.696  1.00  0.00    -0.387 OA
ATOM     20  H   UNL     1     104.987  57.186  -5.203  1.00  0.00     0.211 HD
ENDBRANCH  12  19
BRANCH  13  21
ATOM     21  O   UNL     1     105.800  55.592  -6.613  1.00  0.00    -0.385 OA
ATOM     22  H   UNL     1     106.236  54.703  -6.690  1.00  0.00     0.211 HD
ENDBRANCH  13  21
ENDBRANCH   7   8
ENDBRANCH   1   7
BRANCH   2  23
ATOM     23  C   UNL     1     105.853  56.704  -1.674  1.00  0.00     0.191 C 
BRANCH  23  24
ATOM     24  O   UNL     1     105.375  57.536  -2.700  1.00  0.00    -0.394 OA
ATOM     25  H   UNL     1     105.969  57.391  -3.482  1.00  0.00     0.210 HD
ENDBRANCH  23  24
ENDBRANCH   2  23
BRANCH   6  26
ATOM     26  O   UNL     1     106.790  53.204  -4.177  1.00  0.00    -0.387 OA
ATOM     27  H   UNL     1     107.519  53.589  -4.731  1.00  0.00     0.211 HD
ENDBRANCH   6  26
BRANCH   5  28
ATOM     28  O   UNL     1     106.585  51.902  -1.856  1.00  0.00    -0.385 OA
ATOM     29  H   UNL     1     105.793  51.876  -2.450  1.00  0.00     0.211 HD
ENDBRANCH   5  28
BRANCH   4  30
ATOM     30  O   UNL     1     107.542  54.740   0.106  1.00  0.00    -0.341 OA
BRANCH  30  31
ATOM     31  C   UNL     1     107.880  54.377   1.437  1.00  0.00     0.184 C 
ATOM     32  C   UNL     1     106.580  54.109   2.248  1.00  0.00     0.178 C 
ATOM     33  C   UNL     1     108.765  53.116   1.432  1.00  0.00     0.180 C 
ATOM     34  O   UNL     1     106.688  53.076   3.224  1.00  0.00    -0.342 OA
ATOM     35  C   UNL     1     109.043  52.595   2.871  1.00  0.00     0.201 C 
ATOM     36  C   UNL     1     107.955  53.068   3.858  1.00  0.00     0.279 C 
BRANCH  32  37
ATOM     37  C   UNL     1     106.029  55.397   2.871  1.00  0.00     0.191 C 
BRANCH  37  38
ATOM     38  O   UNL     1     105.358  56.150   1.896  1.00  0.00    -0.394 OA
ATOM     39  H   UNL     1     104.451  56.317   2.252  1.00  0.00     0.210 HD
ENDBRANCH  37  38
ENDBRANCH  32  37
BRANCH  33  40
ATOM     40  O   UNL     1     108.202  52.111   0.625  1.00  0.00    -0.387 OA
ATOM     41  H   UNL     1     108.930  51.710   0.079  1.00  0.00     0.211 HD
ENDBRANCH  33  40
BRANCH  35  42
ATOM     42  O   UNL     1     110.300  53.053   3.290  1.00  0.00    -0.385 OA
ATOM     43  H   UNL     1     110.792  53.343   2.475  1.00  0.00     0.211 HD
ENDBRANCH  35  42
BRANCH  36  44
ATOM     44  O   UNL     1     107.915  52.192   4.952  1.00  0.00    -0.366 OA
ATOM     45  H   UNL     1     108.462  51.400   4.697  1.00  0.00     0.213 HD
ENDBRANCH  36  44
ENDBRANCH  30  31
ENDBRANCH   4  30
TORSDOF 18
ENDMDL
MODEL 5
REMARK VINA RESULT:    -3.627      3.075      5.921
REMARK INTER + INTRA:          -8.090
REMARK INTER:                  -6.287
REMARK INTRA:                  -1.803
REMARK UNBOUND:                -1.813
REMARK SMILES OC[C@@H]1O[C@H](O[C@H]2[C@H](O)[C@H](O)[C@@H](O[C@@H]3[C@H](O)[C@@H](O)[C@H](O)O[C@H]3CO)O[C@H]2CO)[C@H](O)[C@H](O)[C@H]1O
REMARK SMILES IDX 7 1 26 2 25 3 12 4 10 5 8 6 6 7 5 8 3 9 33 10 4 11 31 12
REMARK SMILES IDX 29 13 2 14 1 15 34 17 32 19 30 21 27 23 28 24 9 26 11 28
REMARK SMILES IDX 13 30 14 31 22 32 15 33 21 34 17 35 19 36 23 37 24 38 16 40
REMARK SMILES IDX 18 42 20 44
REMARK H PARENT 1 16 34 18 32 20 30 22 28 25 9 27 11 29 24 39 16 41 18 43
REMARK H PARENT 20 45
REMARK Flexibility Score: inf
ROOT
ATOM      1  C   UNL     1     106.158  53.648  -3.065  1.00  0.00     0.184 C 
ATOM      2  C   UNL     1     105.913  54.218  -1.660  1.00  0.00     0.178 C 
ATOM      3  O   UNL     1     106.053  53.220  -0.650  1.00  0.00    -0.341 OA
ATOM      4  C   UNL     1     107.300  52.531  -0.649  1.00  0.00     0.282 C 
ATOM      5  C   UNL     1     107.879  52.130  -2.044  1.00  0.00     0.202 C 
ATOM      6  C   UNL     1     107.605  53.161  -3.163  1.00  0.00     0.180 C 
ENDROOT
BRANCH   1   7
ATOM      7  O   UNL     1     105.906  54.649  -4.038  1.00  0.00    -0.341 OA
BRANCH   7   8
ATOM      8  C   UNL     1     104.543  55.045  -4.161  1.00  0.00     0.282 C 
ATOM      9  C   UNL     1     103.774  57.275  -4.786  1.00  0.00     0.178 C 
ATOM     10  C   UNL     1     104.485  57.140  -6.154  1.00  0.00     0.177 C 
ATOM     11  O   UNL     1     104.329  56.409  -3.786  1.00  0.00    -0.341 OA
ATOM     12  C   UNL     1     104.622  55.666  -6.624  1.00  0.00     0.179 C 
ATOM     13  C   UNL     1     104.038  54.691  -5.577  1.00  0.00     0.202 C 
BRANCH   9  14
ATOM     14  C   UNL     1     103.873  58.729  -4.247  1.00  0.00     0.191 C 
BRANCH  14  15
ATOM     15  O   UNL     1     103.061  59.595  -4.999  1.00  0.00    -0.394 OA
ATOM     16  H   UNL     1     103.653  60.170  -5.530  1.00  0.00     0.210 HD
ENDBRANCH  14  15
ENDBRANCH   9  14
BRANCH  10  17
ATOM     17  O   UNL     1     103.813  57.906  -7.125  1.00  0.00    -0.387 OA
ATOM     18  H   UNL     1     104.132  57.636  -8.021  1.00  0.00     0.211 HD
ENDBRANCH  10  17
BRANCH  12  19
ATOM     19  O   UNL     1     105.976  55.366  -6.853  1.00  0.00    -0.387 OA
ATOM     20  H   UNL     1     106.432  56.220  -7.076  1.00  0.00     0.211 HD
ENDBRANCH  12  19
BRANCH  13  21
ATOM     21  O   UNL     1     104.392  53.370  -5.882  1.00  0.00    -0.385 OA
ATOM     22  H   UNL     1     104.995  53.409  -6.671  1.00  0.00     0.211 HD
ENDBRANCH  13  21
ENDBRANCH   7   8
ENDBRANCH   1   7
BRANCH   2  23
ATOM     23  C   UNL     1     106.701  55.527  -1.353  1.00  0.00     0.191 C 
BRANCH  23  24
ATOM     24  O   UNL     1     105.856  56.640  -1.495  1.00  0.00    -0.394 OA
ATOM     25  H   UNL     1     106.098  57.273  -0.769  1.00  0.00     0.210 HD
ENDBRANCH  23  24
ENDBRANCH   2  23
BRANCH   6  26
ATOM     26  O   UNL     1     107.808  52.570  -4.422  1.00  0.00    -0.387 OA
ATOM     27  H   UNL     1     108.106  53.294  -5.032  1.00  0.00     0.211 HD
ENDBRANCH   6  26
BRANCH   5  28
ATOM     28  O   UNL     1     107.445  50.844  -2.419  1.00  0.00    -0.385 OA
ATOM     29  H   UNL     1     107.349  50.298  -1.598  1.00  0.00     0.211 HD
ENDBRANCH   5  28
BRANCH   4  30
ATOM     30  O   UNL     1     108.266  53.232   0.119  1.00  0.00    -0.341 OA
BRANCH  30  31
ATOM     31  C   UNL     1     108.483  52.635   1.389  1.00  0.00     0.184 C 
ATOM     32  C   UNL     1     109.978  52.221   1.518  1.00  0.00     0.178 C 
ATOM     33  C   UNL     1     108.115  53.626   2.509  1.00  0.00     0.180 C 
ATOM     34  O   UNL     1     110.519  52.345   2.831  1.00  0.00    -0.342 OA
ATOM     35  C   UNL     1     108.471  53.070   3.918  1.00  0.00     0.201 C 
ATOM     36  C   UNL     1     109.579  51.999   3.833  1.00  0.00     0.279 C 
BRANCH  32  37
ATOM     37  C   UNL     1     110.224  50.816   0.954  1.00  0.00     0.191 C 
BRANCH  37  38
ATOM     38  O   UNL     1     110.531  50.899  -0.413  1.00  0.00    -0.394 OA
ATOM     39  H   UNL     1     110.646  49.968  -0.726  1.00  0.00     0.210 HD
ENDBRANCH  37  38
ENDBRANCH  32  37
BRANCH  33  40
ATOM     40  O   UNL     1     108.714  54.879   2.288  1.00  0.00    -0.387 OA
ATOM     41  H   UNL     1     108.224  55.328   1.547  1.00  0.00     0.211 HD
ENDBRANCH  33  40
BRANCH  35  42
ATOM     42  O   UNL     1     107.320  52.522   4.499  1.00  0.00    -0.385 OA
ATOM     43  H   UNL     1     106.868  51.980   3.798  1.00  0.00     0.211 HD
ENDBRANCH  35  42
BRANCH  36  44
ATOM     44  O   UNL     1     110.236  51.920   5.069  1.00  0.00    -0.366 OA
ATOM     45  H   UNL     1     110.948  51.231   4.966  1.00  0.00     0.213 HD
ENDBRANCH  36  44
ENDBRANCH  30  31
ENDBRANCH   4  30
TORSDOF 18
ENDMDL
MODEL 6
REMARK VINA RESULT:    -3.486      3.004      7.771
REMARK INTER + INTRA:          -7.846
REMARK INTER:                  -7.055
REMARK INTRA:                  -0.791
REMARK UNBOUND:                -1.813
REMARK SMILES OC[C@@H]1O[C@H](O[C@H]2[C@H](O)[C@H](O)[C@@H](O[C@@H]3[C@H](O)[C@@H](O)[C@H](O)O[C@H]3CO)O[C@H]2CO)[C@H](O)[C@H](O)[C@H]1O
REMARK SMILES IDX 7 1 26 2 25 3 12 4 10 5 8 6 6 7 5 8 3 9 33 10 4 11 31 12
REMARK SMILES IDX 29 13 2 14 1 15 34 17 32 19 30 21 27 23 28 24 9 26 11 28
REMARK SMILES IDX 13 30 14 31 22 32 15 33 21 34 17 35 19 36 23 37 24 38 16 40
REMARK SMILES IDX 18 42 20 44
REMARK H PARENT 1 16 34 18 32 20 30 22 28 25 9 27 11 29 24 39 16 41 18 43
REMARK H PARENT 20 45
REMARK Flexibility Score: inf
ROOT
ATOM      1  C   UNL     1     108.282  52.996  -0.747  1.00  0.00     0.184 C 
ATOM      2  C   UNL     1     107.483  54.276  -0.458  1.00  0.00     0.178 C 
ATOM      3  O   UNL     1     107.198  55.005  -1.652  1.00  0.00    -0.341 OA
ATOM      4  C   UNL     1     106.521  54.266  -2.665  1.00  0.00     0.282 C 
ATOM      5  C   UNL     1     107.001  52.797  -2.898  1.00  0.00     0.202 C 
ATOM      6  C   UNL     1     107.433  52.060  -1.610  1.00  0.00     0.180 C 
ENDROOT
BRANCH   1   7
ATOM      7  O   UNL     1     108.629  52.363   0.474  1.00  0.00    -0.341 OA
BRANCH   7   8
ATOM      8  C   UNL     1     109.292  53.197   1.421  1.00  0.00     0.282 C 
ATOM      9  C   UNL     1     108.928  53.155   3.834  1.00  0.00     0.178 C 
ATOM     10  C   UNL     1     109.413  51.687   3.885  1.00  0.00     0.177 C 
ATOM     11  O   UNL     1     108.460  53.540   2.533  1.00  0.00    -0.341 OA
ATOM     12  C   UNL     1     110.407  51.336   2.745  1.00  0.00     0.179 C 
ATOM     13  C   UNL     1     110.637  52.548   1.814  1.00  0.00     0.202 C 
BRANCH   9  14
ATOM     14  C   UNL     1     107.764  53.394   4.835  1.00  0.00     0.191 C 
BRANCH  14  15
ATOM     15  O   UNL     1     106.581  53.726   4.152  1.00  0.00    -0.394 OA
ATOM     16  H   UNL     1     105.880  53.111   4.458  1.00  0.00     0.210 HD
ENDBRANCH  14  15
ENDBRANCH   9  14
BRANCH  10  17
ATOM     17  O   UNL     1     109.986  51.412   5.141  1.00  0.00    -0.387 OA
ATOM     18  H   UNL     1     110.736  52.037   5.293  1.00  0.00     0.211 HD
ENDBRANCH  10  17
BRANCH  12  19
ATOM     19  O   UNL     1     109.911  50.251   2.002  1.00  0.00    -0.387 OA
ATOM     20  H   UNL     1     108.921  50.283   2.060  1.00  0.00     0.211 HD
ENDBRANCH  12  19
BRANCH  13  21
ATOM     21  O   UNL     1     111.322  52.156   0.656  1.00  0.00    -0.385 OA
ATOM     22  H   UNL     1     111.375  51.165   0.674  1.00  0.00     0.211 HD
ENDBRANCH  13  21
ENDBRANCH   7   8
ENDBRANCH   1   7
BRANCH   2  23
ATOM     23  C   UNL     1     106.236  54.062   0.452  1.00  0.00     0.191 C 
BRANCH  23  24
ATOM     24  O   UNL     1     106.121  55.122   1.366  1.00  0.00    -0.394 OA
ATOM     25  H   UNL     1     106.579  55.900   0.956  1.00  0.00     0.210 HD
ENDBRANCH  23  24
ENDBRANCH   2  23
BRANCH   6  26
ATOM     26  O   UNL     1     108.192  50.923  -1.938  1.00  0.00    -0.387 OA
ATOM     27  H   UNL     1     107.846  50.179  -1.379  1.00  0.00     0.211 HD
ENDBRANCH   6  26
BRANCH   5  28
ATOM     28  O   UNL     1     108.011  52.747  -3.878  1.00  0.00    -0.385 OA
ATOM     29  H   UNL     1     108.151  53.664  -4.225  1.00  0.00     0.211 HD
ENDBRANCH   5  28
BRANCH   4  30
ATOM     30  O   UNL     1     105.115  54.316  -2.474  1.00  0.00    -0.341 OA
BRANCH  30  31
ATOM     31  C   UNL     1     104.488  55.262  -3.328  1.00  0.00     0.184 C 
ATOM     32  C   UNL     1     105.363  56.546  -3.411  1.00  0.00     0.178 C 
ATOM     33  C   UNL     1     104.302  54.662  -4.734  1.00  0.00     0.180 C 
ATOM     34  O   UNL     1     105.345  57.198  -4.678  1.00  0.00    -0.342 OA
ATOM     35  C   UNL     1     103.750  55.708  -5.745  1.00  0.00     0.201 C 
ATOM     36  C   UNL     1     104.067  57.148  -5.289  1.00  0.00     0.279 C 
BRANCH  32  37
ATOM     37  C   UNL     1     105.029  57.529  -2.283  1.00  0.00     0.191 C 
BRANCH  37  38
ATOM     38  O   UNL     1     105.008  56.854  -1.053  1.00  0.00    -0.394 OA
ATOM     39  H   UNL     1     104.241  57.222  -0.550  1.00  0.00     0.210 HD
ENDBRANCH  37  38
ENDBRANCH  32  37
BRANCH  33  40
ATOM     40  O   UNL     1     105.499  54.087  -5.197  1.00  0.00    -0.387 OA
ATOM     41  H   UNL     1     105.354  53.107  -5.292  1.00  0.00     0.211 HD
ENDBRANCH  33  40
BRANCH  35  42
ATOM     42  O   UNL     1     102.364  55.540  -5.868  1.00  0.00    -0.385 OA
ATOM     43  H   UNL     1     102.113  55.845  -6.781  1.00  0.00     0.211 HD
ENDBRANCH  35  42
BRANCH  36  44
ATOM     44  O   UNL     1     104.060  57.995  -6.406  1.00  0.00    -0.366 OA
ATOM     45  H   UNL     1     103.103  58.186  -6.608  1.00  0.00     0.213 HD
ENDBRANCH  36  44
ENDBRANCH  30  31
ENDBRANCH   4  30
TORSDOF 18
ENDMDL
MODEL 7
REMARK VINA RESULT:    -3.342      1.914      9.202
REMARK INTER + INTRA:          -7.597
REMARK INTER:                  -5.955
REMARK INTRA:                  -1.642
REMARK UNBOUND:                -1.813
REMARK SMILES OC[C@@H]1O[C@H](O[C@H]2[C@H](O)[C@H](O)[C@@H](O[C@@H]3[C@H](O)[C@@H](O)[C@H](O)O[C@H]3CO)O[C@H]2CO)[C@H](O)[C@H](O)[C@H]1O
REMARK SMILES IDX 7 1 26 2 25 3 12 4 10 5 8 6 6 7 5 8 3 9 33 10 4 11 31 12
REMARK SMILES IDX 29 13 2 14 1 15 34 17 32 19 30 21 27 23 28 24 9 26 11 28
REMARK SMILES IDX 13 30 14 31 22 32 15 33 21 34 17 35 19 36 23 37 24 38 16 40
REMARK SMILES IDX 18 42 20 44
REMARK H PARENT 1 16 34 18 32 20 30 22 28 25 9 27 11 29 24 39 16 41 18 43
REMARK H PARENT 20 45
REMARK Flexibility Score: inf
ROOT
ATOM      1  C   UNL     1     107.474  54.561   1.560  1.00  0.00     0.184 C 
ATOM      2  C   UNL     1     107.059  54.732   0.091  1.00  0.00     0.178 C 
ATOM      3  O   UNL     1     108.118  54.391  -0.803  1.00  0.00    -0.341 OA
ATOM      4  C   UNL     1     108.655  53.082  -0.633  1.00  0.00     0.282 C 
ATOM      5  C   UNL     1     108.865  52.598   0.839  1.00  0.00     0.202 C 
ATOM      6  C   UNL     1     107.779  53.085   1.825  1.00  0.00     0.180 C 
ENDROOT
BRANCH   1   7
ATOM      7  O   UNL     1     106.429  55.010   2.408  1.00  0.00    -0.341 OA
BRANCH   7   8
ATOM      8  C   UNL     1     106.788  55.176   3.777  1.00  0.00     0.282 C 
ATOM      9  C   UNL     1     108.019  57.075   4.690  1.00  0.00     0.178 C 
ATOM     10  C   UNL     1     106.884  58.028   4.248  1.00  0.00     0.177 C 
ATOM     11  O   UNL     1     108.039  55.851   3.941  1.00  0.00    -0.341 OA
ATOM     12  C   UNL     1     105.499  57.329   4.175  1.00  0.00     0.179 C 
ATOM     13  C   UNL     1     105.612  55.830   4.534  1.00  0.00     0.202 C 
BRANCH   9  14
ATOM     14  C   UNL     1     109.410  57.746   4.517  1.00  0.00     0.191 C 
BRANCH  14  15
ATOM     15  O   UNL     1     109.270  59.081   4.101  1.00  0.00    -0.394 OA
ATOM     16  H   UNL     1     109.979  59.602   4.534  1.00  0.00     0.210 HD
ENDBRANCH  14  15
ENDBRANCH   9  14
BRANCH  10  17
ATOM     17  O   UNL     1     106.829  59.143   5.105  1.00  0.00    -0.387 OA
ATOM     18  H   UNL     1     107.685  59.634   5.045  1.00  0.00     0.211 HD
ENDBRANCH  10  17
BRANCH  12  19
ATOM     19  O   UNL     1     104.963  57.472   2.883  1.00  0.00    -0.387 OA
ATOM     20  H   UNL     1     104.461  58.329   2.868  1.00  0.00     0.211 HD
ENDBRANCH  12  19
BRANCH  13  21
ATOM     21  O   UNL     1     104.423  55.158   4.219  1.00  0.00    -0.385 OA
ATOM     22  H   UNL     1     104.038  54.836   5.077  1.00  0.00     0.211 HD
ENDBRANCH  13  21
ENDBRANCH   7   8
ENDBRANCH   1   7
BRANCH   2  23
ATOM     23  C   UNL     1     105.699  54.064  -0.273  1.00  0.00     0.191 C 
BRANCH  23  24
ATOM     24  O   UNL     1     105.552  54.005  -1.669  1.00  0.00    -0.394 OA
ATOM     25  H   UNL     1     105.214  53.097  -1.880  1.00  0.00     0.210 HD
ENDBRANCH  23  24
ENDBRANCH   2  23
BRANCH   6  26
ATOM     26  O   UNL     1     108.232  52.940   3.148  1.00  0.00    -0.387 OA
ATOM     27  H   UNL     1     107.471  52.577   3.671  1.00  0.00     0.211 HD
ENDBRANCH   6  26
BRANCH   5  28
ATOM     28  O   UNL     1     110.155  52.924   1.297  1.00  0.00    -0.385 OA
ATOM     29  H   UNL     1     110.271  52.533   2.200  1.00  0.00     0.211 HD
ENDBRANCH   5  28
BRANCH   4  30
ATOM     30  O   UNL     1     107.915  52.130  -1.381  1.00  0.00    -0.341 OA
BRANCH  30  31
ATOM     31  C   UNL     1     108.644  51.633  -2.494  1.00  0.00     0.184 C 
ATOM     32  C   UNL     1     108.206  50.170  -2.791  1.00  0.00     0.178 C 
ATOM     33  C   UNL     1     108.389  52.518  -3.729  1.00  0.00     0.180 C 
ATOM     34  O   UNL     1     108.203  49.817  -4.171  1.00  0.00    -0.342 OA
ATOM     35  C   UNL     1     109.051  51.933  -5.010  1.00  0.00     0.201 C 
ATOM     36  C   UNL     1     109.277  50.412  -4.879  1.00  0.00     0.279 C 
BRANCH  32  37
ATOM     37  C   UNL     1     109.017  49.162  -1.967  1.00  0.00     0.191 C 
BRANCH  37  38
ATOM     38  O   UNL     1     109.767  49.835  -0.992  1.00  0.00    -0.394 OA
ATOM     39  H   UNL     1     110.295  49.143  -0.523  1.00  0.00     0.210 HD
ENDBRANCH  37  38
ENDBRANCH  32  37
BRANCH  33  40
ATOM     40  O   UNL     1     107.012  52.731  -3.918  1.00  0.00    -0.387 OA
ATOM     41  H   UNL     1     106.869  53.703  -4.072  1.00  0.00     0.211 HD
ENDBRANCH  33  40
BRANCH  35  42
ATOM     42  O   UNL     1     110.275  52.580  -5.230  1.00  0.00    -0.385 OA
ATOM     43  H   UNL     1     110.078  53.550  -5.337  1.00  0.00     0.211 HD
ENDBRANCH  35  42
BRANCH  36  44
ATOM     44  O   UNL     1     109.350  49.847  -6.160  1.00  0.00    -0.366 OA
ATOM     45  H   UNL     1     109.350  48.859  -6.032  1.00  0.00     0.213 HD
ENDBRANCH  36  44
ENDBRANCH  30  31
ENDBRANCH   4  30
TORSDOF 18
ENDMDL
MODEL 8
REMARK VINA RESULT:    -3.316      3.785      8.608
REMARK INTER + INTRA:          -7.552
REMARK INTER:                  -6.606
REMARK INTRA:                  -0.947
REMARK UNBOUND:                -1.813
REMARK SMILES OC[C@@H]1O[C@H](O[C@H]2[C@H](O)[C@H](O)[C@@H](O[C@@H]3[C@H](O)[C@@H](O)[C@H](O)O[C@H]3CO)O[C@H]2CO)[C@H](O)[C@H](O)[C@H]1O
REMARK SMILES IDX 7 1 26 2 25 3 12 4 10 5 8 6 6 7 5 8 3 9 33 10 4 11 31 12
REMARK SMILES IDX 29 13 2 14 1 15 34 17 32 19 30 21 27 23 28 24 9 26 11 28
REMARK SMILES IDX 13 30 14 31 22 32 15 33 21 34 17 35 19 36 23 37 24 38 16 40
REMARK SMILES IDX 18 42 20 44
REMARK H PARENT 1 16 34 18 32 20 30 22 28 25 9 27 11 29 24 39 16 41 18 43
REMARK H PARENT 20 45
REMARK Flexibility Score: inf
ROOT
ATOM      1  C   UNL     1     106.779  55.148  -1.286  1.00  0.00     0.184 C 
ATOM      2  C   UNL     1     106.033  56.417  -1.724  1.00  0.00     0.178 C 
ATOM      3  O   UNL     1     105.921  56.504  -3.144  1.00  0.00    -0.341 OA
ATOM      4  C   UNL     1     105.312  55.379  -3.772  1.00  0.00     0.282 C 
ATOM      5  C   UNL     1     105.725  53.970  -3.238  1.00  0.00     0.202 C 
ATOM      6  C   UNL     1     105.973  53.920  -1.713  1.00  0.00     0.180 C 
ENDROOT
BRANCH   1   7
ATOM      7  O   UNL     1     106.957  55.158   0.121  1.00  0.00    -0.341 OA
BRANCH   7   8
ATOM      8  C   UNL     1     106.847  53.887   0.756  1.00  0.00     0.282 C 
ATOM      9  C   UNL     1     108.391  53.009   2.430  1.00  0.00     0.178 C 
ATOM     10  C   UNL     1     108.039  54.182   3.374  1.00  0.00     0.177 C 
ATOM     11  O   UNL     1     108.121  53.306   1.052  1.00  0.00    -0.341 OA
ATOM     12  C   UNL     1     106.612  54.747   3.135  1.00  0.00     0.179 C 
ATOM     13  C   UNL     1     105.907  54.008   1.975  1.00  0.00     0.202 C 
BRANCH   9  14
ATOM     14  C   UNL     1     109.895  52.638   2.537  1.00  0.00     0.191 C 
BRANCH  14  15
ATOM     15  O   UNL     1     110.205  52.182   3.830  1.00  0.00    -0.394 OA
ATOM     16  H   UNL     1     110.882  52.786   4.203  1.00  0.00     0.210 HD
ENDBRANCH  14  15
ENDBRANCH   9  14
BRANCH  10  17
ATOM     17  O   UNL     1     108.193  53.785   4.716  1.00  0.00    -0.387 OA
ATOM     18  H   UNL     1     108.497  54.562   5.245  1.00  0.00     0.211 HD
ENDBRANCH  10  17
BRANCH  12  19
ATOM     19  O   UNL     1     106.688  56.122   2.849  1.00  0.00    -0.387 OA
ATOM     20  H   UNL     1     107.432  56.246   2.203  1.00  0.00     0.211 HD
ENDBRANCH  12  19
BRANCH  13  21
ATOM     21  O   UNL     1     104.738  54.684   1.599  1.00  0.00    -0.385 OA
ATOM     22  H   UNL     1     104.279  54.112   0.929  1.00  0.00     0.211 HD
ENDBRANCH  13  21
ENDBRANCH   7   8
ENDBRANCH   1   7
BRANCH   2  23
ATOM     23  C   UNL     1     104.685  56.657  -0.978  1.00  0.00     0.191 C 
BRANCH  23  24
ATOM     24  O   UNL     1     104.934  57.080   0.338  1.00  0.00    -0.394 OA
ATOM     25  H   UNL     1     105.355  56.313   0.807  1.00  0.00     0.210 HD
ENDBRANCH  23  24
ENDBRANCH   2  23
BRANCH   6  26
ATOM     26  O   UNL     1     106.693  52.759  -1.380  1.00  0.00    -0.387 OA
ATOM     27  H   UNL     1     107.395  52.651  -2.074  1.00  0.00     0.211 HD
ENDBRANCH   6  26
BRANCH   5  28
ATOM     28  O   UNL     1     106.829  53.464  -3.951  1.00  0.00    -0.385 OA
ATOM     29  H   UNL     1     106.859  53.913  -4.833  1.00  0.00     0.211 HD
ENDBRANCH   5  28
BRANCH   4  30
ATOM     30  O   UNL     1     103.900  55.518  -3.800  1.00  0.00    -0.341 OA
BRANCH  30  31
ATOM     31  C   UNL     1     103.451  56.250  -4.931  1.00  0.00     0.184 C 
ATOM     32  C   UNL     1     101.896  56.281  -4.946  1.00  0.00     0.178 C 
ATOM     33  C   UNL     1     104.004  57.688  -4.882  1.00  0.00     0.180 C 
ATOM     34  O   UNL     1     101.328  57.486  -5.453  1.00  0.00    -0.342 OA
ATOM     35  C   UNL     1     103.424  58.573  -6.023  1.00  0.00     0.201 C 
ATOM     36  C   UNL     1     102.076  58.019  -6.532  1.00  0.00     0.279 C 
BRANCH  32  37
ATOM     37  C   UNL     1     101.316  55.056  -5.665  1.00  0.00     0.191 C 
BRANCH  37  38
ATOM     38  O   UNL     1     102.207  53.977  -5.566  1.00  0.00    -0.394 OA
ATOM     39  H   UNL     1     101.744  53.200  -5.963  1.00  0.00     0.210 HD
ENDBRANCH  37  38
ENDBRANCH  32  37
BRANCH  33  40
ATOM     40  O   UNL     1     103.779  58.269  -3.621  1.00  0.00    -0.387 OA
ATOM     41  H   UNL     1     103.988  57.588  -2.926  1.00  0.00     0.211 HD
ENDBRANCH  33  40
BRANCH  35  42
ATOM     42  O   UNL     1     104.348  58.624  -7.077  1.00  0.00    -0.385 OA
ATOM     43  H   UNL     1     104.042  57.974  -7.765  1.00  0.00     0.211 HD
ENDBRANCH  35  42
BRANCH  36  44
ATOM     44  O   UNL     1     101.348  59.060  -7.124  1.00  0.00    -0.366 OA
ATOM     45  H   UNL     1     101.284  58.841  -8.094  1.00  0.00     0.213 HD
ENDBRANCH  36  44
ENDBRANCH  30  31
ENDBRANCH   4  30
TORSDOF 18
ENDMDL
MODEL 9
REMARK VINA RESULT:    -3.145      3.820      6.140
REMARK INTER + INTRA:          -7.257
REMARK INTER:                  -6.321
REMARK INTRA:                  -0.936
REMARK UNBOUND:                -1.813
REMARK SMILES OC[C@@H]1O[C@H](O[C@H]2[C@H](O)[C@H](O)[C@@H](O[C@@H]3[C@H](O)[C@@H](O)[C@H](O)O[C@H]3CO)O[C@H]2CO)[C@H](O)[C@H](O)[C@H]1O
REMARK SMILES IDX 7 1 26 2 25 3 12 4 10 5 8 6 6 7 5 8 3 9 33 10 4 11 31 12
REMARK SMILES IDX 29 13 2 14 1 15 34 17 32 19 30 21 27 23 28 24 9 26 11 28
REMARK SMILES IDX 13 30 14 31 22 32 15 33 21 34 17 35 19 36 23 37 24 38 16 40
REMARK SMILES IDX 18 42 20 44
REMARK H PARENT 1 16 34 18 32 20 30 22 28 25 9 27 11 29 24 39 16 41 18 43
REMARK H PARENT 20 45
REMARK Flexibility Score: inf
ROOT
ATOM      1  C   UNL     1     104.985  56.052  -2.686  1.00  0.00     0.184 C 
ATOM      2  C   UNL     1     104.256  55.780  -1.362  1.00  0.00     0.178 C 
ATOM      3  O   UNL     1     104.701  54.570  -0.750  1.00  0.00    -0.341 OA
ATOM      4  C   UNL     1     106.105  54.490  -0.519  1.00  0.00     0.282 C 
ATOM      5  C   UNL     1     107.032  55.021  -1.660  1.00  0.00     0.202 C 
ATOM      6  C   UNL     1     106.475  56.256  -2.405  1.00  0.00     0.180 C 
ENDROOT
BRANCH   1   7
ATOM      7  O   UNL     1     104.436  57.204  -3.306  1.00  0.00    -0.341 OA
BRANCH   7   8
ATOM      8  C   UNL     1     104.618  57.277  -4.717  1.00  0.00     0.282 C 
ATOM      9  C   UNL     1     104.207  55.455  -6.287  1.00  0.00     0.178 C 
ATOM     10  C   UNL     1     102.716  55.432  -5.875  1.00  0.00     0.177 C 
ATOM     11  O   UNL     1     105.051  56.037  -5.284  1.00  0.00    -0.341 OA
ATOM     12  C   UNL     1     102.206  56.807  -5.364  1.00  0.00     0.179 C 
ATOM     13  C   UNL     1     103.340  57.856  -5.363  1.00  0.00     0.202 C 
BRANCH   9  14
ATOM     14  C   UNL     1     104.733  54.019  -6.560  1.00  0.00     0.191 C 
BRANCH  14  15
ATOM     15  O   UNL     1     105.662  53.634  -5.578  1.00  0.00    -0.394 OA
ATOM     16  H   UNL     1     105.157  53.291  -4.810  1.00  0.00     0.210 HD
ENDBRANCH  14  15
ENDBRANCH   9  14
BRANCH  10  17
ATOM     17  O   UNL     1     101.925  54.981  -6.949  1.00  0.00    -0.387 OA
ATOM     18  H   UNL     1     101.097  54.579  -6.588  1.00  0.00     0.211 HD
ENDBRANCH  10  17
BRANCH  12  19
ATOM     19  O   UNL     1     101.685  56.666  -4.066  1.00  0.00    -0.387 OA
ATOM     20  H   UNL     1     102.405  56.282  -3.501  1.00  0.00     0.211 HD
ENDBRANCH  12  19
BRANCH  13  21
ATOM     21  O   UNL     1     102.946  59.007  -4.667  1.00  0.00    -0.385 OA
ATOM     22  H   UNL     1     102.290  59.481  -5.244  1.00  0.00     0.211 HD
ENDBRANCH  13  21
ENDBRANCH   7   8
ENDBRANCH   1   7
BRANCH   2  23
ATOM     23  C   UNL     1     104.223  56.994  -0.386  1.00  0.00     0.191 C 
BRANCH  23  24
ATOM     24  O   UNL     1     104.129  56.542   0.941  1.00  0.00    -0.394 OA
ATOM     25  H   UNL     1     104.626  57.195   1.498  1.00  0.00     0.210 HD
ENDBRANCH  23  24
ENDBRANCH   2  23
BRANCH   6  26
ATOM     26  O   UNL     1     107.153  56.429  -3.624  1.00  0.00    -0.387 OA
ATOM     27  H   UNL     1     106.491  56.789  -4.269  1.00  0.00     0.211 HD
ENDBRANCH   6  26
BRANCH   5  28
ATOM     28  O   UNL     1     107.366  53.990  -2.559  1.00  0.00    -0.385 OA
ATOM     29  H   UNL     1     108.042  53.410  -2.127  1.00  0.00     0.211 HD
ENDBRANCH   5  28
BRANCH   4  30
ATOM     30  O   UNL     1     106.448  55.073   0.728  1.00  0.00    -0.341 OA
BRANCH  30  31
ATOM     31  C   UNL     1     106.905  54.111   1.667  1.00  0.00     0.184 C 
ATOM     32  C   UNL     1     108.450  53.966   1.550  1.00  0.00     0.178 C 
ATOM     33  C   UNL     1     106.526  54.546   3.095  1.00  0.00     0.180 C 
ATOM     34  O   UNL     1     109.119  53.709   2.782  1.00  0.00    -0.342 OA
ATOM     35  C   UNL     1     107.130  53.597   4.171  1.00  0.00     0.201 C 
ATOM     36  C   UNL     1     108.371  52.856   3.631  1.00  0.00     0.279 C 
BRANCH  32  37
ATOM     37  C   UNL     1     108.840  52.931   0.487  1.00  0.00     0.191 C 
BRANCH  37  38
ATOM     38  O   UNL     1     110.158  52.500   0.702  1.00  0.00    -0.394 OA
ATOM     39  H   UNL     1     110.459  52.939   1.534  1.00  0.00     0.210 HD
ENDBRANCH  37  38
ENDBRANCH  32  37
BRANCH  33  40
ATOM     40  O   UNL     1     106.894  55.882   3.328  1.00  0.00    -0.387 OA
ATOM     41  H   UNL     1     107.861  55.978   3.111  1.00  0.00     0.211 HD
ENDBRANCH  33  40
BRANCH  35  42
ATOM     42  O   UNL     1     106.154  52.671   4.566  1.00  0.00    -0.385 OA
ATOM     43  H   UNL     1     106.626  51.930   5.032  1.00  0.00     0.211 HD
ENDBRANCH  35  42
BRANCH  36  44
ATOM     44  O   UNL     1     109.175  52.462   4.709  1.00  0.00    -0.366 OA
ATOM     45  H   UNL     1     108.571  52.388   5.498  1.00  0.00     0.213 HD
ENDBRANCH  36  44
ENDBRANCH  30  31
ENDBRANCH   4  30
TORSDOF 18
ENDMDL
