MODEL 1
REMARK VINA RESULT:    -4.106      0.000      0.000
REMARK INTER + INTRA:          -6.104
REMARK INTER:                  -5.786
REMARK INTRA:                  -0.318
REMARK UNBOUND:                -0.318
REMARK SMILES CCCCCCCCC(=O)[O-]
REMARK SMILES IDX 6 1 7 2 8 3 9 4 10 5 11 6 5 7 4 8 3 9 2 10 1 11
REMARK H PARENT
REMARK Flexibility Score: inf
ROOT
ATOM      1  C   UNL     1      20.426   2.536   8.753  1.00  0.00     0.000 C 
ENDROOT
BRANCH   1   2
ATOM      2  C   UNL     1      19.351   1.445   8.826  1.00  0.00     0.006 C 
BRANCH   2   3
ATOM      3  C   UNL     1      18.059   1.988   9.445  1.00  0.00     0.053 C 
BRANCH   3   4
ATOM      4  C   UNL     1      17.696   1.206  10.667  1.00  0.00     0.041 C 
ATOM      5  O   UNL     1      16.669   1.508  11.330  1.00  0.00    -0.550 OA
ATOM      6  O   UNL     1      18.463   0.112  11.046  1.00  0.00    -0.550 OA
ENDBRANCH   3   4
ENDBRANCH   2   3
ENDBRANCH   1   2
BRANCH   1   7
ATOM      7  C   UNL     1      19.945   3.729   7.918  1.00  0.00     0.000 C 
BRANCH   7   8
ATOM      8  C   UNL     1      20.853   4.947   8.124  1.00  0.00    -0.000 C 
BRANCH   8   9
ATOM      9  C   UNL     1      22.325   4.528   8.211  1.00  0.00    -0.000 C 
BRANCH   9  10
ATOM     10  C   UNL     1      23.086   4.929   6.942  1.00  0.00    -0.003 C 
ATOM     11  C   UNL     1      23.305   6.438   6.885  1.00  0.00     0.004 C 
ENDBRANCH   9  10
ENDBRANCH   8   9
ENDBRANCH   7   8
ENDBRANCH   1   7
TORSDOF 7
ENDMDL
MODEL 2
REMARK VINA RESULT:    -4.051      1.390      2.182
REMARK INTER + INTRA:          -6.026
REMARK INTER:                  -5.703
REMARK INTRA:                  -0.323
REMARK UNBOUND:                -0.318
REMARK SMILES CCCCCCCCC(=O)[O-]
REMARK SMILES IDX 6 1 7 2 8 3 9 4 10 5 11 6 5 7 4 8 3 9 2 10 1 11
REMARK H PARENT
REMARK Flexibility Score: inf
ROOT
ATOM      1  C   UNL     1      20.988   3.795   8.271  1.00  0.00     0.000 C 
ENDROOT
BRANCH   1   2
ATOM      2  C   UNL     1      19.511   3.381   8.237  1.00  0.00     0.006 C 
BRANCH   2   3
ATOM      3  C   UNL     1      19.313   2.001   8.871  1.00  0.00     0.053 C 
BRANCH   3   4
ATOM      4  C   UNL     1      17.983   1.924   9.550  1.00  0.00     0.041 C 
ATOM      5  O   UNL     1      17.787   1.083  10.466  1.00  0.00    -0.550 OA
ATOM      6  O   UNL     1      16.974   2.815   9.206  1.00  0.00    -0.550 OA
ENDBRANCH   3   4
ENDBRANCH   2   3
ENDBRANCH   1   2
BRANCH   1   7
ATOM      7  C   UNL     1      21.186   5.179   7.640  1.00  0.00     0.000 C 
BRANCH   7   8
ATOM      8  C   UNL     1      22.458   5.216   6.784  1.00  0.00    -0.000 C 
BRANCH   8   9
ATOM      9  C   UNL     1      23.599   5.924   7.524  1.00  0.00    -0.000 C 
BRANCH   9  10
ATOM     10  C   UNL     1      24.679   4.925   7.954  1.00  0.00    -0.003 C 
ATOM     11  C   UNL     1      24.473   4.480   9.399  1.00  0.00     0.004 C 
ENDBRANCH   9  10
ENDBRANCH   8   9
ENDBRANCH   7   8
ENDBRANCH   1   7
TORSDOF 7
ENDMDL
MODEL 3
REMARK VINA RESULT:    -3.980      3.959      6.627
REMARK INTER + INTRA:          -5.927
REMARK INTER:                  -5.773
REMARK INTRA:                  -0.154
REMARK UNBOUND:                -0.318
REMARK SMILES CCCCCCCCC(=O)[O-]
REMARK SMILES IDX 6 1 7 2 8 3 9 4 10 5 11 6 5 7 4 8 3 9 2 10 1 11
REMARK H PARENT
REMARK Flexibility Score: inf
ROOT
ATOM      1  C   UNL     1      21.092   3.614   8.428  1.00  0.00     0.000 C 
ENDROOT
BRANCH   1   2
ATOM      2  C   UNL     1      21.421   4.924   7.702  1.00  0.00     0.006 C 
BRANCH   2   3
ATOM      3  C   UNL     1      22.912   5.254   7.813  1.00  0.00     0.053 C 
BRANCH   3   4
ATOM      4  C   UNL     1      23.575   5.136   6.478  1.00  0.00     0.041 C 
ATOM      5  O   UNL     1      23.441   6.049   5.621  1.00  0.00    -0.550 OA
ATOM      6  O   UNL     1      24.383   4.041   6.196  1.00  0.00    -0.550 OA
ENDBRANCH   3   4
ENDBRANCH   2   3
ENDBRANCH   1   2
BRANCH   1   7
ATOM      7  C   UNL     1      19.615   3.242   8.251  1.00  0.00     0.000 C 
BRANCH   7   8
ATOM      8  C   UNL     1      19.296   1.910   8.942  1.00  0.00    -0.000 C 
BRANCH   8   9
ATOM      9  C   UNL     1      17.890   1.930   9.552  1.00  0.00    -0.000 C 
BRANCH   9  10
ATOM     10  C   UNL     1      17.802   0.993  10.762  1.00  0.00    -0.003 C 
ATOM     11  C   UNL     1      17.069   1.658  11.923  1.00  0.00     0.004 C 
ENDBRANCH   9  10
ENDBRANCH   8   9
ENDBRANCH   7   8
ENDBRANCH   1   7
TORSDOF 7
ENDMDL
MODEL 4
REMARK VINA RESULT:    -3.762     10.385     12.109
REMARK INTER + INTRA:          -5.619
REMARK INTER:                  -5.201
REMARK INTRA:                  -0.418
REMARK UNBOUND:                -0.318
REMARK SMILES CCCCCCCCC(=O)[O-]
REMARK SMILES IDX 6 1 7 2 8 3 9 4 10 5 11 6 5 7 4 8 3 9 2 10 1 11
REMARK H PARENT
REMARK Flexibility Score: inf
ROOT
ATOM      1  C   UNL     1      22.195  -3.452  18.013  1.00  0.00     0.000 C 
ENDROOT
BRANCH   1   2
ATOM      2  C   UNL     1      23.467  -4.277  18.248  1.00  0.00     0.006 C 
BRANCH   2   3
ATOM      3  C   UNL     1      23.845  -4.289  19.732  1.00  0.00     0.053 C 
BRANCH   3   4
ATOM      4  C   UNL     1      22.730  -4.856  20.552  1.00  0.00     0.041 C 
ATOM      5  O   UNL     1      22.303  -6.018  20.323  1.00  0.00    -0.550 OA
ATOM      6  O   UNL     1      22.195  -4.120  21.601  1.00  0.00    -0.550 OA
ENDBRANCH   3   4
ENDBRANCH   2   3
ENDBRANCH   1   2
BRANCH   1   7
ATOM      7  C   UNL     1      22.386  -2.464  16.855  1.00  0.00     0.000 C 
BRANCH   7   8
ATOM      8  C   UNL     1      23.303  -3.052  15.776  1.00  0.00    -0.000 C 
BRANCH   8   9
ATOM      9  C   UNL     1      22.501  -3.455  14.532  1.00  0.00    -0.000 C 
BRANCH   9  10
ATOM     10  C   UNL     1      21.980  -4.891  14.655  1.00  0.00    -0.003 C 
ATOM     11  C   UNL     1      21.084  -5.255  13.475  1.00  0.00     0.004 C 
ENDBRANCH   9  10
ENDBRANCH   8   9
ENDBRANCH   7   8
ENDBRANCH   1   7
TORSDOF 7
ENDMDL
MODEL 5
REMARK VINA RESULT:    -3.752     13.801     15.111
REMARK INTER + INTRA:          -5.605
REMARK INTER:                  -5.247
REMARK INTRA:                  -0.358
REMARK UNBOUND:                -0.318
REMARK SMILES CCCCCCCCC(=O)[O-]
REMARK SMILES IDX 6 1 7 2 8 3 9 4 10 5 11 6 5 7 4 8 3 9 2 10 1 11
REMARK H PARENT
REMARK Flexibility Score: inf
ROOT
ATOM      1  C   UNL     1      25.420  -3.744  19.610  1.00  0.00     0.000 C 
ENDROOT
BRANCH   1   2
ATOM      2  C   UNL     1      26.696  -3.069  19.093  1.00  0.00     0.006 C 
BRANCH   2   3
ATOM      3  C   UNL     1      27.773  -3.024  20.181  1.00  0.00     0.053 C 
BRANCH   3   4
ATOM      4  C   UNL     1      28.822  -4.058  19.923  1.00  0.00     0.041 C 
ATOM      5  O   UNL     1      28.650  -5.245  20.308  1.00  0.00    -0.550 OA
ATOM      6  O   UNL     1      29.968  -3.724  19.213  1.00  0.00    -0.550 OA
ENDBRANCH   3   4
ENDBRANCH   2   3
ENDBRANCH   1   2
BRANCH   1   7
ATOM      7  C   UNL     1      24.478  -4.099  18.454  1.00  0.00     0.000 C 
BRANCH   7   8
ATOM      8  C   UNL     1      23.060  -4.383  18.966  1.00  0.00    -0.000 C 
BRANCH   8   9
ATOM      9  C   UNL     1      23.059  -4.612  20.482  1.00  0.00    -0.000 C 
BRANCH   9  10
ATOM     10  C   UNL     1      21.857  -3.925  21.141  1.00  0.00    -0.003 C 
ATOM     11  C   UNL     1      20.908  -3.351  20.093  1.00  0.00     0.004 C 
ENDBRANCH   9  10
ENDBRANCH   8   9
ENDBRANCH   7   8
ENDBRANCH   1   7
TORSDOF 7
ENDMDL
MODEL 6
REMARK VINA RESULT:    -3.735     12.409     13.999
REMARK INTER + INTRA:          -5.581
REMARK INTER:                  -4.839
REMARK INTRA:                  -0.742
REMARK UNBOUND:                -0.318
REMARK SMILES CCCCCCCCC(=O)[O-]
REMARK SMILES IDX 6 1 7 2 8 3 9 4 10 5 11 6 5 7 4 8 3 9 2 10 1 11
REMARK H PARENT
REMARK Flexibility Score: inf
ROOT
ATOM      1  C   UNL     1      24.353  -3.740  18.081  1.00  0.00     0.000 C 
ENDROOT
BRANCH   1   2
ATOM      2  C   UNL     1      22.894  -4.112  18.371  1.00  0.00     0.006 C 
BRANCH   2   3
ATOM      3  C   UNL     1      22.721  -4.566  19.823  1.00  0.00     0.053 C 
BRANCH   3   4
ATOM      4  C   UNL     1      21.531  -3.904  20.441  1.00  0.00     0.041 C 
ATOM      5  O   UNL     1      21.331  -3.988  21.681  1.00  0.00    -0.550 OA
ATOM      6  O   UNL     1      20.667  -3.152  19.653  1.00  0.00    -0.550 OA
ENDBRANCH   3   4
ENDBRANCH   2   3
ENDBRANCH   1   2
BRANCH   1   7
ATOM      7  C   UNL     1      25.188  -3.743  19.367  1.00  0.00     0.000 C 
BRANCH   7   8
ATOM      8  C   UNL     1      26.566  -4.372  19.127  1.00  0.00    -0.000 C 
BRANCH   8   9
ATOM      9  C   UNL     1      26.435  -5.746  18.458  1.00  0.00    -0.000 C 
BRANCH   9  10
ATOM     10  C   UNL     1      25.797  -6.763  19.410  1.00  0.00    -0.003 C 
ATOM     11  C   UNL     1      24.813  -7.667  18.673  1.00  0.00     0.004 C 
ENDBRANCH   9  10
ENDBRANCH   8   9
ENDBRANCH   7   8
ENDBRANCH   1   7
TORSDOF 7
ENDMDL
MODEL 7
REMARK VINA RESULT:    -3.727     12.579     13.539
REMARK INTER + INTRA:          -5.570
REMARK INTER:                  -5.284
REMARK INTRA:                  -0.285
REMARK UNBOUND:                -0.318
REMARK SMILES CCCCCCCCC(=O)[O-]
REMARK SMILES IDX 6 1 7 2 8 3 9 4 10 5 11 6 5 7 4 8 3 9 2 10 1 11
REMARK H PARENT
REMARK Flexibility Score: inf
ROOT
ATOM      1  C   UNL     1      24.127  -4.005  18.142  1.00  0.00     0.000 C 
ENDROOT
BRANCH   1   2
ATOM      2  C   UNL     1      22.761  -4.492  18.643  1.00  0.00     0.006 C 
BRANCH   2   3
ATOM      3  C   UNL     1      22.677  -4.412  20.171  1.00  0.00     0.053 C 
BRANCH   3   4
ATOM      4  C   UNL     1      21.373  -3.811  20.592  1.00  0.00     0.041 C 
ATOM      5  O   UNL     1      20.945  -3.984  21.763  1.00  0.00    -0.550 OA
ATOM      6  O   UNL     1      20.655  -3.018  19.706  1.00  0.00    -0.550 OA
ENDBRANCH   3   4
ENDBRANCH   2   3
ENDBRANCH   1   2
BRANCH   1   7
ATOM      7  C   UNL     1      25.254  -4.482  19.066  1.00  0.00     0.000 C 
BRANCH   7   8
ATOM      8  C   UNL     1      26.079  -3.298  19.585  1.00  0.00    -0.000 C 
BRANCH   8   9
ATOM      9  C   UNL     1      27.203  -2.940  18.605  1.00  0.00    -0.000 C 
BRANCH   9  10
ATOM     10  C   UNL     1      28.328  -2.177  19.315  1.00  0.00    -0.003 C 
ATOM     11  C   UNL     1      28.490  -2.650  20.757  1.00  0.00     0.004 C 
ENDBRANCH   9  10
ENDBRANCH   8   9
ENDBRANCH   7   8
ENDBRANCH   1   7
TORSDOF 7
ENDMDL
MODEL 8
REMARK VINA RESULT:    -3.686     11.967     13.696
REMARK INTER + INTRA:          -5.512
REMARK INTER:                  -5.010
REMARK INTRA:                  -0.501
REMARK UNBOUND:                -0.318
REMARK SMILES CCCCCCCCC(=O)[O-]
REMARK SMILES IDX 6 1 7 2 8 3 9 4 10 5 11 6 5 7 4 8 3 9 2 10 1 11
REMARK H PARENT
REMARK Flexibility Score: inf
ROOT
ATOM      1  C   UNL     1      23.176  -4.878  16.370  1.00  0.00     0.000 C 
ENDROOT
BRANCH   1   2
ATOM      2  C   UNL     1      24.063  -5.490  17.460  1.00  0.00     0.006 C 
BRANCH   2   3
ATOM      3  C   UNL     1      23.730  -6.970  17.672  1.00  0.00     0.053 C 
BRANCH   3   4
ATOM      4  C   UNL     1      23.584  -7.270  19.131  1.00  0.00     0.041 C 
ATOM      5  O   UNL     1      24.354  -6.730  19.968  1.00  0.00    -0.550 OA
ATOM      6  O   UNL     1      22.567  -8.108  19.570  1.00  0.00    -0.550 OA
ENDBRANCH   3   4
ENDBRANCH   2   3
ENDBRANCH   1   2
BRANCH   1   7
ATOM      7  C   UNL     1      22.345  -3.714  16.924  1.00  0.00     0.000 C 
BRANCH   7   8
ATOM      8  C   UNL     1      22.398  -3.682  18.457  1.00  0.00    -0.000 C 
BRANCH   8   9
ATOM      9  C   UNL     1      21.029  -3.323  19.047  1.00  0.00    -0.000 C 
BRANCH   9  10
ATOM     10  C   UNL     1      21.003  -3.561  20.561  1.00  0.00    -0.003 C 
ATOM     11  C   UNL     1      22.345  -4.091  21.058  1.00  0.00     0.004 C 
ENDBRANCH   9  10
ENDBRANCH   8   9
ENDBRANCH   7   8
ENDBRANCH   1   7
TORSDOF 7
ENDMDL
MODEL 9
REMARK VINA RESULT:    -3.683     13.148     14.570
REMARK INTER + INTRA:          -5.508
REMARK INTER:                  -4.844
REMARK INTRA:                  -0.664
REMARK UNBOUND:                -0.318
REMARK SMILES CCCCCCCCC(=O)[O-]
REMARK SMILES IDX 6 1 7 2 8 3 9 4 10 5 11 6 5 7 4 8 3 9 2 10 1 11
REMARK H PARENT
REMARK Flexibility Score: inf
ROOT
ATOM      1  C   UNL     1      24.870  -6.717  19.810  1.00  0.00     0.000 C 
ENDROOT
BRANCH   1   2
ATOM      2  C   UNL     1      25.298  -7.485  18.554  1.00  0.00     0.006 C 
BRANCH   2   3
ATOM      3  C   UNL     1      24.087  -7.816  17.675  1.00  0.00     0.053 C 
BRANCH   3   4
ATOM      4  C   UNL     1      24.013  -9.288  17.419  1.00  0.00     0.041 C 
ATOM      5  O   UNL     1      23.885 -10.092  18.379  1.00  0.00    -0.550 OA
ATOM      6  O   UNL     1      24.037  -9.769  16.116  1.00  0.00    -0.550 OA
ENDBRANCH   3   4
ENDBRANCH   2   3
ENDBRANCH   1   2
BRANCH   1   7
ATOM      7  C   UNL     1      23.601  -5.897  19.550  1.00  0.00     0.000 C 
BRANCH   7   8
ATOM      8  C   UNL     1      23.901  -4.393  19.584  1.00  0.00    -0.000 C 
BRANCH   8   9
ATOM      9  C   UNL     1      24.292  -3.877  18.194  1.00  0.00    -0.000 C 
BRANCH   9  10
ATOM     10  C   UNL     1      25.759  -3.435  18.164  1.00  0.00    -0.003 C 
ATOM     11  C   UNL     1      26.322  -3.297  19.576  1.00  0.00     0.004 C 
ENDBRANCH   9  10
ENDBRANCH   8   9
ENDBRANCH   7   8
ENDBRANCH   1   7
TORSDOF 7
ENDMDL
