MODEL 1
REMARK VINA RESULT:    -4.037      0.000      0.000
REMARK INTER + INTRA:          -8.922
REMARK INTER:                  -6.987
REMARK INTRA:                  -1.935
REMARK UNBOUND:                -1.935
REMARK SMILES CCCCCCCCCCCCCCO
REMARK SMILES IDX 8 1 7 2 6 3 5 4 4 5 3 6 2 7 1 8 9 9 10 10 11 11 12 12 13 13
REMARK SMILES IDX 14 14 15 15
REMARK H PARENT 15 16
REMARK Flexibility Score: inf
ROOT
ATOM      1  C   UNL     1      18.102 -41.449  25.527  1.00  0.00     0.000 C 
ENDROOT
BRANCH   1   2
ATOM      2  C   UNL     1      18.901 -42.733  25.240  1.00  0.00    -0.000 C 
BRANCH   2   3
ATOM      3  C   UNL     1      18.060 -44.010  25.414  1.00  0.00    -0.000 C 
BRANCH   3   4
ATOM      4  C   UNL     1      16.637 -43.788  25.964  1.00  0.00    -0.000 C 
BRANCH   4   5
ATOM      5  C   UNL     1      16.387 -44.338  27.383  1.00  0.00    -0.000 C 
BRANCH   5   6
ATOM      6  C   UNL     1      17.454 -45.324  27.892  1.00  0.00    -0.000 C 
BRANCH   6   7
ATOM      7  C   UNL     1      17.407 -45.518  29.414  1.00  0.00    -0.003 C 
ATOM      8  C   UNL     1      16.330 -44.640  30.047  1.00  0.00     0.004 C 
ENDBRANCH   6   7
ENDBRANCH   5   6
ENDBRANCH   4   5
ENDBRANCH   3   4
ENDBRANCH   2   3
ENDBRANCH   1   2
BRANCH   1   9
ATOM      9  C   UNL     1      18.500 -40.790  26.857  1.00  0.00     0.000 C 
BRANCH   9  10
ATOM     10  C   UNL     1      17.319 -40.654  27.830  1.00  0.00     0.000 C 
BRANCH  10  11
ATOM     11  C   UNL     1      17.622 -41.347  29.163  1.00  0.00     0.000 C 
BRANCH  11  12
ATOM     12  C   UNL     1      18.973 -42.076  29.110  1.00  0.00     0.002 C 
BRANCH  12  13
ATOM     13  C   UNL     1      19.734 -42.012  30.444  1.00  0.00     0.028 C 
BRANCH  13  14
ATOM     14  C   UNL     1      20.015 -43.397  31.034  1.00  0.00     0.156 C 
BRANCH  14  15
ATOM     15  O   UNL     1      20.812 -44.127  30.142  1.00  0.00    -0.396 OA
ATOM     16  H   UNL     1      21.099 -43.485  29.441  1.00  0.00     0.210 HD
ENDBRANCH  14  15
ENDBRANCH  13  14
ENDBRANCH  12  13
ENDBRANCH  11  12
ENDBRANCH  10  11
ENDBRANCH   9  10
ENDBRANCH   1   9
TORSDOF 13
ENDMDL
MODEL 2
REMARK VINA RESULT:    -3.882      1.796      2.137
REMARK INTER + INTRA:          -8.654
REMARK INTER:                  -7.112
REMARK INTRA:                  -1.541
REMARK UNBOUND:                -1.935
REMARK SMILES CCCCCCCCCCCCCCO
REMARK SMILES IDX 8 1 7 2 6 3 5 4 4 5 3 6 2 7 1 8 9 9 10 10 11 11 12 12 13 13
REMARK SMILES IDX 14 14 15 15
REMARK H PARENT 15 16
REMARK Flexibility Score: inf
ROOT
ATOM      1  C   UNL     1      18.584 -39.986  25.068  1.00  0.00     0.000 C 
ENDROOT
BRANCH   1   2
ATOM      2  C   UNL     1      18.185 -41.392  24.586  1.00  0.00    -0.000 C 
BRANCH   2   3
ATOM      3  C   UNL     1      18.868 -42.513  25.389  1.00  0.00    -0.000 C 
BRANCH   3   4
ATOM      4  C   UNL     1      18.099 -43.849  25.433  1.00  0.00    -0.000 C 
BRANCH   4   5
ATOM      5  C   UNL     1      17.057 -43.970  26.564  1.00  0.00    -0.000 C 
BRANCH   5   6
ATOM      6  C   UNL     1      17.138 -45.272  27.381  1.00  0.00    -0.000 C 
BRANCH   6   7
ATOM      7  C   UNL     1      16.654 -45.098  28.827  1.00  0.00    -0.003 C 
ATOM      8  C   UNL     1      17.829 -45.080  29.802  1.00  0.00     0.004 C 
ENDBRANCH   6   7
ENDBRANCH   5   6
ENDBRANCH   4   5
ENDBRANCH   3   4
ENDBRANCH   2   3
ENDBRANCH   1   2
BRANCH   1   9
ATOM      9  C   UNL     1      18.536 -39.850  26.598  1.00  0.00     0.000 C 
BRANCH   9  10
ATOM     10  C   UNL     1      17.101 -39.772  27.142  1.00  0.00     0.000 C 
BRANCH  10  11
ATOM     11  C   UNL     1      16.909 -40.730  28.324  1.00  0.00     0.000 C 
BRANCH  11  12
ATOM     12  C   UNL     1      18.262 -41.231  28.851  1.00  0.00     0.002 C 
BRANCH  12  13
ATOM     13  C   UNL     1      18.279 -41.390  30.380  1.00  0.00     0.028 C 
BRANCH  13  14
ATOM     14  C   UNL     1      16.970 -40.944  31.038  1.00  0.00     0.156 C 
BRANCH  14  15
ATOM     15  O   UNL     1      17.185 -40.743  32.407  1.00  0.00    -0.396 OA
ATOM     16  H   UNL     1      17.131 -41.641  32.829  1.00  0.00     0.210 HD
ENDBRANCH  14  15
ENDBRANCH  13  14
ENDBRANCH  12  13
ENDBRANCH  11  12
ENDBRANCH  10  11
ENDBRANCH   9  10
ENDBRANCH   1   9
TORSDOF 13
ENDMDL
MODEL 3
REMARK VINA RESULT:    -3.835      2.226      4.035
REMARK INTER + INTRA:          -8.572
REMARK INTER:                  -6.877
REMARK INTRA:                  -1.696
REMARK UNBOUND:                -1.935
REMARK SMILES CCCCCCCCCCCCCCO
REMARK SMILES IDX 8 1 7 2 6 3 5 4 4 5 3 6 2 7 1 8 9 9 10 10 11 11 12 12 13 13
REMARK SMILES IDX 14 14 15 15
REMARK H PARENT 15 16
REMARK Flexibility Score: inf
ROOT
ATOM      1  C   UNL     1      16.137 -44.575  28.008  1.00  0.00     0.000 C 
ENDROOT
BRANCH   1   2
ATOM      2  C   UNL     1      17.100 -45.437  27.172  1.00  0.00    -0.000 C 
BRANCH   2   3
ATOM      3  C   UNL     1      17.552 -44.740  25.876  1.00  0.00    -0.000 C 
BRANCH   3   4
ATOM      4  C   UNL     1      17.308 -43.219  25.831  1.00  0.00    -0.000 C 
BRANCH   4   5
ATOM      5  C   UNL     1      18.557 -42.345  26.060  1.00  0.00    -0.000 C 
BRANCH   5   6
ATOM      6  C   UNL     1      18.378 -41.215  27.091  1.00  0.00    -0.000 C 
BRANCH   6   7
ATOM      7  C   UNL     1      18.724 -41.654  28.520  1.00  0.00    -0.003 C 
ATOM      8  C   UNL     1      17.635 -41.232  29.504  1.00  0.00     0.004 C 
ENDBRANCH   6   7
ENDBRANCH   5   6
ENDBRANCH   4   5
ENDBRANCH   3   4
ENDBRANCH   2   3
ENDBRANCH   1   2
BRANCH   1   9
ATOM      9  C   UNL     1      16.451 -44.627  29.511  1.00  0.00     0.000 C 
BRANCH   9  10
ATOM     10  C   UNL     1      17.854 -45.182  29.805  1.00  0.00     0.000 C 
BRANCH  10  11
ATOM     11  C   UNL     1      18.388 -44.645  31.138  1.00  0.00     0.000 C 
BRANCH  11  12
ATOM     12  C   UNL     1      17.239 -44.358  32.117  1.00  0.00     0.002 C 
BRANCH  12  13
ATOM     13  C   UNL     1      17.525 -43.155  33.030  1.00  0.00     0.028 C 
BRANCH  13  14
ATOM     14  C   UNL     1      16.416 -42.101  32.988  1.00  0.00     0.156 C 
BRANCH  14  15
ATOM     15  O   UNL     1      16.988 -40.824  33.037  1.00  0.00    -0.396 OA
ATOM     16  H   UNL     1      17.732 -40.831  32.379  1.00  0.00     0.210 HD
ENDBRANCH  14  15
ENDBRANCH  13  14
ENDBRANCH  12  13
ENDBRANCH  11  12
ENDBRANCH  10  11
ENDBRANCH   9  10
ENDBRANCH   1   9
TORSDOF 13
ENDMDL
MODEL 4
REMARK VINA RESULT:    -3.829      1.279      3.797
REMARK INTER + INTRA:          -8.562
REMARK INTER:                  -6.468
REMARK INTRA:                  -2.094
REMARK UNBOUND:                -1.935
REMARK SMILES CCCCCCCCCCCCCCO
REMARK SMILES IDX 8 1 7 2 6 3 5 4 4 5 3 6 2 7 1 8 9 9 10 10 11 11 12 12 13 13
REMARK SMILES IDX 14 14 15 15
REMARK H PARENT 15 16
REMARK Flexibility Score: inf
ROOT
ATOM      1  C   UNL     1      18.252 -43.613  25.524  1.00  0.00     0.000 C 
ENDROOT
BRANCH   1   2
ATOM      2  C   UNL     1      18.910 -42.327  24.994  1.00  0.00    -0.000 C 
BRANCH   2   3
ATOM      3  C   UNL     1      17.887 -41.218  24.687  1.00  0.00    -0.000 C 
BRANCH   3   4
ATOM      4  C   UNL     1      18.086 -39.908  25.475  1.00  0.00    -0.000 C 
BRANCH   4   5
ATOM      5  C   UNL     1      18.488 -40.085  26.953  1.00  0.00    -0.000 C 
BRANCH   5   6
ATOM      6  C   UNL     1      17.309 -40.229  27.931  1.00  0.00    -0.000 C 
BRANCH   6   7
ATOM      7  C   UNL     1      17.577 -41.256  29.040  1.00  0.00    -0.003 C 
ATOM      8  C   UNL     1      18.934 -41.929  28.849  1.00  0.00     0.004 C 
ENDBRANCH   6   7
ENDBRANCH   5   6
ENDBRANCH   4   5
ENDBRANCH   3   4
ENDBRANCH   2   3
ENDBRANCH   1   2
BRANCH   1   9
ATOM      9  C   UNL     1      16.750 -43.438  25.800  1.00  0.00     0.000 C 
BRANCH   9  10
ATOM     10  C   UNL     1      16.313 -44.075  27.129  1.00  0.00     0.000 C 
BRANCH  10  11
ATOM     11  C   UNL     1      17.228 -45.246  27.504  1.00  0.00     0.000 C 
BRANCH  11  12
ATOM     12  C   UNL     1      17.225 -45.484  29.021  1.00  0.00     0.002 C 
BRANCH  12  13
ATOM     13  C   UNL     1      16.041 -44.802  29.726  1.00  0.00     0.028 C 
BRANCH  13  14
ATOM     14  C   UNL     1      16.422 -44.209  31.085  1.00  0.00     0.156 C 
BRANCH  14  15
ATOM     15  O   UNL     1      17.809 -44.297  31.257  1.00  0.00    -0.396 OA
ATOM     16  H   UNL     1      18.137 -44.899  30.539  1.00  0.00     0.210 HD
ENDBRANCH  14  15
ENDBRANCH  13  14
ENDBRANCH  12  13
ENDBRANCH  11  12
ENDBRANCH  10  11
ENDBRANCH   9  10
ENDBRANCH   1   9
TORSDOF 13
ENDMDL
MODEL 5
REMARK VINA RESULT:    -3.795      2.614      4.735
REMARK INTER + INTRA:          -8.503
REMARK INTER:                  -7.479
REMARK INTRA:                  -1.024
REMARK UNBOUND:                -1.935
REMARK SMILES CCCCCCCCCCCCCCO
REMARK SMILES IDX 8 1 7 2 6 3 5 4 4 5 3 6 2 7 1 8 9 9 10 10 11 11 12 12 13 13
REMARK SMILES IDX 14 14 15 15
REMARK H PARENT 15 16
REMARK Flexibility Score: inf
ROOT
ATOM      1  C   UNL     1      14.274 -44.118  29.322  1.00  0.00     0.000 C 
ENDROOT
BRANCH   1   2
ATOM      2  C   UNL     1      14.975 -45.476  29.148  1.00  0.00    -0.000 C 
BRANCH   2   3
ATOM      3  C   UNL     1      16.510 -45.356  29.117  1.00  0.00    -0.000 C 
BRANCH   3   4
ATOM      4  C   UNL     1      17.149 -45.494  27.721  1.00  0.00    -0.000 C 
BRANCH   4   5
ATOM      5  C   UNL     1      16.989 -44.267  26.801  1.00  0.00    -0.000 C 
BRANCH   5   6
ATOM      6  C   UNL     1      17.866 -44.287  25.536  1.00  0.00    -0.000 C 
BRANCH   6   7
ATOM      7  C   UNL     1      18.621 -42.969  25.315  1.00  0.00    -0.003 C 
ATOM      8  C   UNL     1      18.469 -42.040  26.516  1.00  0.00     0.004 C 
ENDBRANCH   6   7
ENDBRANCH   5   6
ENDBRANCH   4   5
ENDBRANCH   3   4
ENDBRANCH   2   3
ENDBRANCH   1   2
BRANCH   1   9
ATOM      9  C   UNL     1      14.798 -43.335  30.537  1.00  0.00     0.000 C 
BRANCH   9  10
ATOM     10  C   UNL     1      14.003 -43.626  31.819  1.00  0.00     0.000 C 
BRANCH  10  11
ATOM     11  C   UNL     1      14.927 -43.666  33.041  1.00  0.00     0.000 C 
BRANCH  11  12
ATOM     12  C   UNL     1      16.377 -43.961  32.626  1.00  0.00     0.002 C 
BRANCH  12  13
ATOM     13  C   UNL     1      17.362 -42.884  33.109  1.00  0.00     0.028 C 
BRANCH  13  14
ATOM     14  C   UNL     1      16.721 -41.498  33.213  1.00  0.00     0.156 C 
BRANCH  14  15
ATOM     15  O   UNL     1      17.142 -40.710  32.134  1.00  0.00    -0.396 OA
ATOM     16  H   UNL     1      16.320 -40.476  31.628  1.00  0.00     0.210 HD
ENDBRANCH  14  15
ENDBRANCH  13  14
ENDBRANCH  12  13
ENDBRANCH  11  12
ENDBRANCH  10  11
ENDBRANCH   9  10
ENDBRANCH   1   9
TORSDOF 13
ENDMDL
MODEL 6
REMARK VINA RESULT:    -3.788      2.458      4.900
REMARK INTER + INTRA:          -8.492
REMARK INTER:                  -6.727
REMARK INTRA:                  -1.764
REMARK UNBOUND:                -1.935
REMARK SMILES CCCCCCCCCCCCCCO
REMARK SMILES IDX 8 1 7 2 6 3 5 4 4 5 3 6 2 7 1 8 9 9 10 10 11 11 12 12 13 13
REMARK SMILES IDX 14 14 15 15
REMARK H PARENT 15 16
REMARK Flexibility Score: inf
ROOT
ATOM      1  C   UNL     1      16.174 -44.271  27.508  1.00  0.00     0.000 C 
ENDROOT
BRANCH   1   2
ATOM      2  C   UNL     1      17.148 -45.419  27.826  1.00  0.00    -0.000 C 
BRANCH   2   3
ATOM      3  C   UNL     1      17.543 -45.472  29.313  1.00  0.00    -0.000 C 
BRANCH   3   4
ATOM      4  C   UNL     1      16.752 -44.523  30.234  1.00  0.00    -0.000 C 
BRANCH   4   5
ATOM      5  C   UNL     1      17.529 -43.287  30.728  1.00  0.00    -0.000 C 
BRANCH   5   6
ATOM      6  C   UNL     1      17.003 -41.939  30.204  1.00  0.00    -0.000 C 
BRANCH   6   7
ATOM      7  C   UNL     1      18.040 -41.182  29.362  1.00  0.00    -0.003 C 
ATOM      8  C   UNL     1      19.182 -42.102  28.938  1.00  0.00     0.004 C 
ENDBRANCH   6   7
ENDBRANCH   5   6
ENDBRANCH   4   5
ENDBRANCH   3   4
ENDBRANCH   2   3
ENDBRANCH   1   2
BRANCH   1   9
ATOM      9  C   UNL     1      16.589 -43.472  26.262  1.00  0.00     0.000 C 
BRANCH   9  10
ATOM     10  C   UNL     1      17.987 -43.855  25.751  1.00  0.00     0.000 C 
BRANCH  10  11
ATOM     11  C   UNL     1      18.745 -42.620  25.250  1.00  0.00     0.000 C 
BRANCH  11  12
ATOM     12  C   UNL     1      17.814 -41.401  25.160  1.00  0.00     0.002 C 
BRANCH  12  13
ATOM     13  C   UNL     1      18.449 -40.127  25.740  1.00  0.00     0.028 C 
BRANCH  13  14
ATOM     14  C   UNL     1      18.613 -39.018  24.696  1.00  0.00     0.156 C 
BRANCH  14  15
ATOM     15  O   UNL     1      17.558 -38.105  24.821  1.00  0.00    -0.396 OA
ATOM     16  H   UNL     1      17.836 -37.460  25.524  1.00  0.00     0.210 HD
ENDBRANCH  14  15
ENDBRANCH  13  14
ENDBRANCH  12  13
ENDBRANCH  11  12
ENDBRANCH  10  11
ENDBRANCH   9  10
ENDBRANCH   1   9
TORSDOF 13
ENDMDL
MODEL 7
REMARK VINA RESULT:    -3.769      1.897      4.027
REMARK INTER + INTRA:          -8.457
REMARK INTER:                  -6.550
REMARK INTRA:                  -1.908
REMARK UNBOUND:                -1.935
REMARK SMILES CCCCCCCCCCCCCCO
REMARK SMILES IDX 8 1 7 2 6 3 5 4 4 5 3 6 2 7 1 8 9 9 10 10 11 11 12 12 13 13
REMARK SMILES IDX 14 14 15 15
REMARK H PARENT 15 16
REMARK Flexibility Score: inf
ROOT
ATOM      1  C   UNL     1      16.422 -43.831  26.170  1.00  0.00     0.000 C 
ENDROOT
BRANCH   1   2
ATOM      2  C   UNL     1      17.828 -44.162  25.640  1.00  0.00    -0.000 C 
BRANCH   2   3
ATOM      3  C   UNL     1      18.679 -42.906  25.381  1.00  0.00    -0.000 C 
BRANCH   3   4
ATOM      4  C   UNL     1      17.950 -41.565  25.596  1.00  0.00    -0.000 C 
BRANCH   4   5
ATOM      5  C   UNL     1      18.386 -40.771  26.843  1.00  0.00    -0.000 C 
BRANCH   5   6
ATOM      6  C   UNL     1      17.347 -40.725  27.977  1.00  0.00    -0.000 C 
BRANCH   6   7
ATOM      7  C   UNL     1      17.869 -41.329  29.288  1.00  0.00    -0.003 C 
ATOM      8  C   UNL     1      19.167 -42.099  29.060  1.00  0.00     0.004 C 
ENDBRANCH   6   7
ENDBRANCH   5   6
ENDBRANCH   4   5
ENDBRANCH   3   4
ENDBRANCH   2   3
ENDBRANCH   1   2
BRANCH   1   9
ATOM      9  C   UNL     1      16.208 -44.307  27.616  1.00  0.00     0.000 C 
BRANCH   9  10
ATOM     10  C   UNL     1      17.363 -45.181  28.129  1.00  0.00     0.000 C 
BRANCH  10  11
ATOM     11  C   UNL     1      17.198 -45.487  29.622  1.00  0.00     0.000 C 
BRANCH  11  12
ATOM     12  C   UNL     1      16.194 -44.524  30.274  1.00  0.00     0.002 C 
BRANCH  12  13
ATOM     13  C   UNL     1      16.666 -44.017  31.647  1.00  0.00     0.028 C 
BRANCH  13  14
ATOM     14  C   UNL     1      15.653 -44.295  32.761  1.00  0.00     0.156 C 
BRANCH  14  15
ATOM     15  O   UNL     1      15.269 -43.083  33.350  1.00  0.00    -0.396 OA
ATOM     16  H   UNL     1      16.000 -42.439  33.156  1.00  0.00     0.210 HD
ENDBRANCH  14  15
ENDBRANCH  13  14
ENDBRANCH  12  13
ENDBRANCH  11  12
ENDBRANCH  10  11
ENDBRANCH   9  10
ENDBRANCH   1   9
TORSDOF 13
ENDMDL
MODEL 8
REMARK VINA RESULT:    -3.767      2.709      4.773
REMARK INTER + INTRA:          -8.454
REMARK INTER:                  -7.338
REMARK INTRA:                  -1.116
REMARK UNBOUND:                -1.935
REMARK SMILES CCCCCCCCCCCCCCO
REMARK SMILES IDX 8 1 7 2 6 3 5 4 4 5 3 6 2 7 1 8 9 9 10 10 11 11 12 12 13 13
REMARK SMILES IDX 14 14 15 15
REMARK H PARENT 15 16
REMARK Flexibility Score: inf
ROOT
ATOM      1  C   UNL     1      16.249 -44.076  27.394  1.00  0.00     0.000 C 
ENDROOT
BRANCH   1   2
ATOM      2  C   UNL     1      17.146 -45.301  27.642  1.00  0.00    -0.000 C 
BRANCH   2   3
ATOM      3  C   UNL     1      17.495 -45.493  29.130  1.00  0.00    -0.000 C 
BRANCH   3   4
ATOM      4  C   UNL     1      16.894 -44.442  30.084  1.00  0.00    -0.000 C 
BRANCH   4   5
ATOM      5  C   UNL     1      16.380 -44.993  31.429  1.00  0.00    -0.000 C 
BRANCH   5   6
ATOM      6  C   UNL     1      14.848 -45.088  31.548  1.00  0.00    -0.000 C 
BRANCH   6   7
ATOM      7  C   UNL     1      14.117 -44.260  30.483  1.00  0.00    -0.003 C 
ATOM      8  C   UNL     1      13.366 -45.161  29.505  1.00  0.00     0.004 C 
ENDBRANCH   6   7
ENDBRANCH   5   6
ENDBRANCH   4   5
ENDBRANCH   3   4
ENDBRANCH   2   3
ENDBRANCH   1   2
BRANCH   1   9
ATOM      9  C   UNL     1      16.651 -43.297  26.131  1.00  0.00     0.000 C 
BRANCH   9  10
ATOM     10  C   UNL     1      17.937 -43.836  25.485  1.00  0.00     0.000 C 
BRANCH  10  11
ATOM     11  C   UNL     1      18.997 -42.735  25.371  1.00  0.00     0.000 C 
BRANCH  11  12
ATOM     12  C   UNL     1      18.365 -41.343  25.530  1.00  0.00     0.002 C 
BRANCH  12  13
ATOM     13  C   UNL     1      18.324 -40.556  24.210  1.00  0.00     0.028 C 
BRANCH  13  14
ATOM     14  C   UNL     1      18.409 -39.042  24.420  1.00  0.00     0.156 C 
BRANCH  14  15
ATOM     15  O   UNL     1      18.670 -38.775  25.770  1.00  0.00    -0.396 OA
ATOM     16  H   UNL     1      19.655 -38.671  25.843  1.00  0.00     0.210 HD
ENDBRANCH  14  15
ENDBRANCH  13  14
ENDBRANCH  12  13
ENDBRANCH  11  12
ENDBRANCH  10  11
ENDBRANCH   9  10
ENDBRANCH   1   9
TORSDOF 13
ENDMDL
MODEL 9
REMARK VINA RESULT:    -3.750      2.299      4.722
REMARK INTER + INTRA:          -8.425
REMARK INTER:                  -6.222
REMARK INTRA:                  -2.203
REMARK UNBOUND:                -1.935
REMARK SMILES CCCCCCCCCCCCCCO
REMARK SMILES IDX 8 1 7 2 6 3 5 4 4 5 3 6 2 7 1 8 9 9 10 10 11 11 12 12 13 13
REMARK SMILES IDX 14 14 15 15
REMARK H PARENT 15 16
REMARK Flexibility Score: inf
ROOT
ATOM      1  C   UNL     1      14.019 -42.619  31.099  1.00  0.00     0.000 C 
ENDROOT
BRANCH   1   2
ATOM      2  C   UNL     1      13.309 -43.866  30.543  1.00  0.00    -0.000 C 
BRANCH   2   3
ATOM      3  C   UNL     1      13.841 -44.289  29.162  1.00  0.00    -0.000 C 
BRANCH   3   4
ATOM      4  C   UNL     1      14.770 -45.519  29.166  1.00  0.00    -0.000 C 
BRANCH   4   5
ATOM      5  C   UNL     1      16.256 -45.222  28.883  1.00  0.00    -0.000 C 
BRANCH   5   6
ATOM      6  C   UNL     1      16.523 -43.895  28.150  1.00  0.00    -0.000 C 
BRANCH   6   7
ATOM      7  C   UNL     1      17.779 -43.175  28.660  1.00  0.00    -0.003 C 
ATOM      8  C   UNL     1      17.410 -41.980  29.534  1.00  0.00     0.004 C 
ENDBRANCH   6   7
ENDBRANCH   5   6
ENDBRANCH   4   5
ENDBRANCH   3   4
ENDBRANCH   2   3
ENDBRANCH   1   2
BRANCH   1   9
ATOM      9  C   UNL     1      15.015 -42.957  32.220  1.00  0.00     0.000 C 
BRANCH   9  10
ATOM     10  C   UNL     1      14.787 -44.355  32.815  1.00  0.00     0.000 C 
BRANCH  10  11
ATOM     11  C   UNL     1      16.060 -45.204  32.726  1.00  0.00     0.000 C 
BRANCH  11  12
ATOM     12  C   UNL     1      17.265 -44.348  32.308  1.00  0.00     0.002 C 
BRANCH  12  13
ATOM     13  C   UNL     1      18.534 -45.184  32.076  1.00  0.00     0.028 C 
BRANCH  13  14
ATOM     14  C   UNL     1      19.771 -44.323  31.807  1.00  0.00     0.156 C 
BRANCH  14  15
ATOM     15  O   UNL     1      20.354 -44.716  30.595  1.00  0.00    -0.396 OA
ATOM     16  H   UNL     1      20.328 -43.917  30.007  1.00  0.00     0.210 HD
ENDBRANCH  14  15
ENDBRANCH  13  14
ENDBRANCH  12  13
ENDBRANCH  11  12
ENDBRANCH  10  11
ENDBRANCH   9  10
ENDBRANCH   1   9
TORSDOF 13
ENDMDL
