MODEL 1
REMARK VINA RESULT:    -5.099      0.000      0.000
REMARK INTER + INTRA:          -8.533
REMARK INTER:                  -8.079
REMARK INTRA:                  -0.454
REMARK UNBOUND:                -0.454
REMARK SMILES CCCCCCCCCCCC(=O)[O-]
REMARK SMILES IDX 7 1 8 2 9 3 10 4 11 5 12 6 13 7 14 8 6 9 5 10 4 11 3 12 2 13
REMARK SMILES IDX 1 14
REMARK H PARENT
REMARK Flexibility Score: inf
ROOT
ATOM      1  C   UNL     1      -0.305   5.708  18.130  1.00  0.00     0.000 C 
ENDROOT
BRANCH   1   2
ATOM      2  C   UNL     1      -1.231   5.266  16.986  1.00  0.00     0.000 C 
BRANCH   2   3
ATOM      3  C   UNL     1      -0.950   3.812  16.585  1.00  0.00     0.000 C 
BRANCH   3   4
ATOM      4  C   UNL     1      -2.226   2.961  16.672  1.00  0.00     0.006 C 
BRANCH   4   5
ATOM      5  C   UNL     1      -3.411   3.615  15.950  1.00  0.00     0.053 C 
BRANCH   5   6
ATOM      6  C   UNL     1      -4.701   3.391  16.679  1.00  0.00     0.041 C 
ATOM      7  O   UNL     1      -5.197   2.236  16.747  1.00  0.00    -0.550 OA
ATOM      8  O   UNL     1      -5.371   4.464  17.251  1.00  0.00    -0.550 OA
ENDBRANCH   5   6
ENDBRANCH   4   5
ENDBRANCH   3   4
ENDBRANCH   2   3
ENDBRANCH   1   2
BRANCH   1   9
ATOM      9  C   UNL     1       0.365   7.065  17.862  1.00  0.00     0.000 C 
BRANCH   9  10
ATOM     10  C   UNL     1       0.661   7.841  19.157  1.00  0.00    -0.000 C 
BRANCH  10  11
ATOM     11  C   UNL     1       0.321   7.040  20.426  1.00  0.00    -0.000 C 
BRANCH  11  12
ATOM     12  C   UNL     1       1.442   6.977  21.484  1.00  0.00    -0.000 C 
BRANCH  12  13
ATOM     13  C   UNL     1       0.984   6.556  22.892  1.00  0.00    -0.003 C 
ATOM     14  C   UNL     1      -0.536   6.525  23.038  1.00  0.00     0.004 C 
ENDBRANCH  12  13
ENDBRANCH  11  12
ENDBRANCH  10  11
ENDBRANCH   9  10
ENDBRANCH   1   9
TORSDOF 10
ENDMDL
MODEL 2
REMARK VINA RESULT:    -4.829      3.449      7.021
REMARK INTER + INTRA:          -8.106
REMARK INTER:                  -7.576
REMARK INTRA:                  -0.530
REMARK UNBOUND:                -0.454
REMARK SMILES CCCCCCCCCCCC(=O)[O-]
REMARK SMILES IDX 7 1 8 2 9 3 10 4 11 5 12 6 13 7 14 8 6 9 5 10 4 11 3 12 2 13
REMARK SMILES IDX 1 14
REMARK H PARENT
REMARK Flexibility Score: inf
ROOT
ATOM      1  C   UNL     1      -0.341   5.457  16.981  1.00  0.00     0.000 C 
ENDROOT
BRANCH   1   2
ATOM      2  C   UNL     1      -0.202   5.933  18.435  1.00  0.00     0.000 C 
BRANCH   2   3
ATOM      3  C   UNL     1       0.434   7.328  18.497  1.00  0.00     0.000 C 
BRANCH   3   4
ATOM      4  C   UNL     1       0.654   7.769  19.952  1.00  0.00     0.006 C 
BRANCH   4   5
ATOM      5  C   UNL     1      -0.135   6.906  20.946  1.00  0.00     0.053 C 
BRANCH   5   6
ATOM      6  C   UNL     1       0.631   6.674  22.212  1.00  0.00     0.041 C 
ATOM      7  O   UNL     1       1.885   6.790  22.225  1.00  0.00    -0.550 OA
ATOM      8  O   UNL     1      -0.037   6.296  23.370  1.00  0.00    -0.550 OA
ENDBRANCH   5   6
ENDBRANCH   4   5
ENDBRANCH   3   4
ENDBRANCH   2   3
ENDBRANCH   1   2
BRANCH   1   9
ATOM      9  C   UNL     1      -1.785   5.077  16.615  1.00  0.00     0.000 C 
BRANCH   9  10
ATOM     10  C   UNL     1      -1.855   3.854  15.684  1.00  0.00    -0.000 C 
BRANCH  10  11
ATOM     11  C   UNL     1      -2.583   2.658  16.322  1.00  0.00    -0.000 C 
BRANCH  11  12
ATOM     12  C   UNL     1      -4.035   2.934  16.767  1.00  0.00    -0.000 C 
BRANCH  12  13
ATOM     13  C   UNL     1      -5.001   3.319  15.632  1.00  0.00    -0.003 C 
ATOM     14  C   UNL     1      -5.812   4.575  15.942  1.00  0.00     0.004 C 
ENDBRANCH  12  13
ENDBRANCH  11  12
ENDBRANCH  10  11
ENDBRANCH   9  10
ENDBRANCH   1   9
TORSDOF 10
ENDMDL
MODEL 3
REMARK VINA RESULT:    -4.602      1.489      2.468
REMARK INTER + INTRA:          -7.746
REMARK INTER:                  -7.299
REMARK INTRA:                  -0.447
REMARK UNBOUND:                -0.454
REMARK SMILES CCCCCCCCCCCC(=O)[O-]
REMARK SMILES IDX 7 1 8 2 9 3 10 4 11 5 12 6 13 7 14 8 6 9 5 10 4 11 3 12 2 13
REMARK SMILES IDX 1 14
REMARK H PARENT
REMARK Flexibility Score: inf
ROOT
ATOM      1  C   UNL     1      -1.220   3.725  16.635  1.00  0.00     0.000 C 
ENDROOT
BRANCH   1   2
ATOM      2  C   UNL     1      -2.521   3.351  15.910  1.00  0.00     0.000 C 
BRANCH   2   3
ATOM      3  C   UNL     1      -3.447   2.542  16.827  1.00  0.00     0.000 C 
BRANCH   3   4
ATOM      4  C   UNL     1      -4.922   2.766  16.457  1.00  0.00     0.006 C 
BRANCH   4   5
ATOM      5  C   UNL     1      -5.369   4.212  16.707  1.00  0.00     0.053 C 
BRANCH   5   6
ATOM      6  C   UNL     1      -5.985   4.824  15.485  1.00  0.00     0.041 C 
ATOM      7  O   UNL     1      -5.277   5.063  14.472  1.00  0.00    -0.550 OA
ATOM      8  O   UNL     1      -7.332   5.162  15.480  1.00  0.00    -0.550 OA
ENDBRANCH   5   6
ENDBRANCH   4   5
ENDBRANCH   3   4
ENDBRANCH   2   3
ENDBRANCH   1   2
BRANCH   1   9
ATOM      9  C   UNL     1      -1.001   5.244  16.720  1.00  0.00     0.000 C 
BRANCH   9  10
ATOM     10  C   UNL     1       0.112   5.625  17.711  1.00  0.00    -0.000 C 
BRANCH  10  11
ATOM     11  C   UNL     1      -0.427   6.292  18.989  1.00  0.00    -0.000 C 
BRANCH  11  12
ATOM     12  C   UNL     1       0.516   7.326  19.638  1.00  0.00    -0.000 C 
BRANCH  12  13
ATOM     13  C   UNL     1       0.891   7.034  21.102  1.00  0.00    -0.003 C 
ATOM     14  C   UNL     1      -0.318   6.688  21.969  1.00  0.00     0.004 C 
ENDBRANCH  12  13
ENDBRANCH  11  12
ENDBRANCH  10  11
ENDBRANCH   9  10
ENDBRANCH   1   9
TORSDOF 10
ENDMDL
MODEL 4
REMARK VINA RESULT:    -4.528      4.748      7.549
REMARK INTER + INTRA:          -7.629
REMARK INTER:                  -6.231
REMARK INTRA:                  -1.398
REMARK UNBOUND:                -0.454
REMARK SMILES CCCCCCCCCCCC(=O)[O-]
REMARK SMILES IDX 7 1 8 2 9 3 10 4 11 5 12 6 13 7 14 8 6 9 5 10 4 11 3 12 2 13
REMARK SMILES IDX 1 14
REMARK H PARENT
REMARK Flexibility Score: inf
ROOT
ATOM      1  C   UNL     1      -5.968   6.367  17.390  1.00  0.00     0.000 C 
ENDROOT
BRANCH   1   2
ATOM      2  C   UNL     1      -4.961   5.402  16.746  1.00  0.00     0.000 C 
BRANCH   2   3
ATOM      3  C   UNL     1      -5.320   3.944  17.060  1.00  0.00     0.000 C 
BRANCH   3   4
ATOM      4  C   UNL     1      -4.339   2.977  16.379  1.00  0.00     0.006 C 
BRANCH   4   5
ATOM      5  C   UNL     1      -3.234   3.714  15.612  1.00  0.00     0.053 C 
BRANCH   5   6
ATOM      6  C   UNL     1      -1.875   3.410  16.164  1.00  0.00     0.041 C 
ATOM      7  O   UNL     1      -0.888   4.124  15.844  1.00  0.00    -0.550 OA
ATOM      8  O   UNL     1      -1.692   2.319  17.002  1.00  0.00    -0.550 OA
ENDBRANCH   5   6
ENDBRANCH   4   5
ENDBRANCH   3   4
ENDBRANCH   2   3
ENDBRANCH   1   2
BRANCH   1   9
ATOM      9  C   UNL     1      -6.794   7.143  16.352  1.00  0.00     0.000 C 
BRANCH   9  10
ATOM     10  C   UNL     1      -7.966   6.318  15.793  1.00  0.00    -0.000 C 
BRANCH  10  11
ATOM     11  C   UNL     1      -7.905   6.152  14.264  1.00  0.00    -0.000 C 
BRANCH  11  12
ATOM     12  C   UNL     1      -7.882   4.694  13.761  1.00  0.00    -0.000 C 
BRANCH  12  13
ATOM     13  C   UNL     1      -6.480   4.123  13.485  1.00  0.00    -0.003 C 
ATOM     14  C   UNL     1      -5.496   5.179  12.984  1.00  0.00     0.004 C 
ENDBRANCH  12  13
ENDBRANCH  11  12
ENDBRANCH  10  11
ENDBRANCH   9  10
ENDBRANCH   1   9
TORSDOF 10
ENDMDL
MODEL 5
REMARK VINA RESULT:    -4.403      2.123      3.609
REMARK INTER + INTRA:          -7.430
REMARK INTER:                  -6.825
REMARK INTRA:                  -0.605
REMARK UNBOUND:                -0.454
REMARK SMILES CCCCCCCCCCCC(=O)[O-]
REMARK SMILES IDX 7 1 8 2 9 3 10 4 11 5 12 6 13 7 14 8 6 9 5 10 4 11 3 12 2 13
REMARK SMILES IDX 1 14
REMARK H PARENT
REMARK Flexibility Score: inf
ROOT
ATOM      1  C   UNL     1      -2.194   3.966  15.543  1.00  0.00     0.000 C 
ENDROOT
BRANCH   1   2
ATOM      2  C   UNL     1      -2.972   2.975  16.422  1.00  0.00     0.000 C 
BRANCH   2   3
ATOM      3  C   UNL     1      -4.456   3.354  16.495  1.00  0.00     0.000 C 
BRANCH   3   4
ATOM      4  C   UNL     1      -4.648   4.867  16.306  1.00  0.00     0.006 C 
BRANCH   4   5
ATOM      5  C   UNL     1      -6.123   5.245  16.115  1.00  0.00     0.053 C 
BRANCH   5   6
ATOM      6  C   UNL     1      -6.548   6.325  17.062  1.00  0.00     0.041 C 
ATOM      7  O   UNL     1      -7.267   7.276  16.655  1.00  0.00    -0.550 OA
ATOM      8  O   UNL     1      -6.123   6.300  18.383  1.00  0.00    -0.550 OA
ENDBRANCH   5   6
ENDBRANCH   4   5
ENDBRANCH   3   4
ENDBRANCH   2   3
ENDBRANCH   1   2
BRANCH   1   9
ATOM      9  C   UNL     1      -0.886   4.440  16.196  1.00  0.00     0.000 C 
BRANCH   9  10
ATOM     10  C   UNL     1      -1.125   5.468  17.315  1.00  0.00    -0.000 C 
BRANCH  10  11
ATOM     11  C   UNL     1       0.134   5.735  18.160  1.00  0.00    -0.000 C 
BRANCH  11  12
ATOM     12  C   UNL     1      -0.103   6.532  19.460  1.00  0.00    -0.000 C 
BRANCH  12  13
ATOM     13  C   UNL     1       0.471   7.960  19.461  1.00  0.00    -0.003 C 
ATOM     14  C   UNL     1       1.099   8.350  18.124  1.00  0.00     0.004 C 
ENDBRANCH  12  13
ENDBRANCH  11  12
ENDBRANCH  10  11
ENDBRANCH   9  10
ENDBRANCH   1   9
TORSDOF 10
ENDMDL
MODEL 6
REMARK VINA RESULT:    -4.381      2.827      5.301
REMARK INTER + INTRA:          -7.396
REMARK INTER:                  -6.472
REMARK INTRA:                  -0.924
REMARK UNBOUND:                -0.454
REMARK SMILES CCCCCCCCCCCC(=O)[O-]
REMARK SMILES IDX 7 1 8 2 9 3 10 4 11 5 12 6 13 7 14 8 6 9 5 10 4 11 3 12 2 13
REMARK SMILES IDX 1 14
REMARK H PARENT
REMARK Flexibility Score: inf
ROOT
ATOM      1  C   UNL     1      -4.934   2.677  16.710  1.00  0.00     0.000 C 
ENDROOT
BRANCH   1   2
ATOM      2  C   UNL     1      -5.716   3.887  16.177  1.00  0.00     0.000 C 
BRANCH   2   3
ATOM      3  C   UNL     1      -5.573   5.090  17.117  1.00  0.00     0.000 C 
BRANCH   3   4
ATOM      4  C   UNL     1      -5.077   6.329  16.354  1.00  0.00     0.006 C 
BRANCH   4   5
ATOM      5  C   UNL     1      -6.102   7.471  16.375  1.00  0.00     0.053 C 
BRANCH   5   6
ATOM      6  C   UNL     1      -7.349   7.114  15.625  1.00  0.00     0.041 C 
ATOM      7  O   UNL     1      -8.446   7.013  16.234  1.00  0.00    -0.550 OA
ATOM      8  O   UNL     1      -7.292   6.860  14.261  1.00  0.00    -0.550 OA
ENDBRANCH   5   6
ENDBRANCH   4   5
ENDBRANCH   3   4
ENDBRANCH   2   3
ENDBRANCH   1   2
BRANCH   1   9
ATOM      9  C   UNL     1      -3.420   2.932  16.781  1.00  0.00     0.000 C 
BRANCH   9  10
ATOM     10  C   UNL     1      -2.834   3.381  15.431  1.00  0.00    -0.000 C 
BRANCH  10  11
ATOM     11  C   UNL     1      -1.530   4.184  15.583  1.00  0.00    -0.000 C 
BRANCH  11  12
ATOM     12  C   UNL     1      -1.508   5.188  16.755  1.00  0.00    -0.000 C 
BRANCH  12  13
ATOM     13  C   UNL     1      -0.133   5.385  17.417  1.00  0.00    -0.003 C 
ATOM     14  C   UNL     1      -0.221   6.085  18.772  1.00  0.00     0.004 C 
ENDBRANCH  12  13
ENDBRANCH  11  12
ENDBRANCH  10  11
ENDBRANCH   9  10
ENDBRANCH   1   9
TORSDOF 10
ENDMDL
MODEL 7
REMARK VINA RESULT:    -4.372      4.908      7.507
REMARK INTER + INTRA:          -7.383
REMARK INTER:                  -6.084
REMARK INTRA:                  -1.299
REMARK UNBOUND:                -0.454
REMARK SMILES CCCCCCCCCCCC(=O)[O-]
REMARK SMILES IDX 7 1 8 2 9 3 10 4 11 5 12 6 13 7 14 8 6 9 5 10 4 11 3 12 2 13
REMARK SMILES IDX 1 14
REMARK H PARENT
REMARK Flexibility Score: inf
ROOT
ATOM      1  C   UNL     1      -6.164   4.987  13.245  1.00  0.00     0.000 C 
ENDROOT
BRANCH   1   2
ATOM      2  C   UNL     1      -5.088   4.196  14.004  1.00  0.00     0.000 C 
BRANCH   2   3
ATOM      3  C   UNL     1      -5.588   3.785  15.395  1.00  0.00     0.000 C 
BRANCH   3   4
ATOM      4  C   UNL     1      -4.499   4.001  16.458  1.00  0.00     0.006 C 
BRANCH   4   5
ATOM      5  C   UNL     1      -3.642   2.747  16.673  1.00  0.00     0.053 C 
BRANCH   5   6
ATOM      6  C   UNL     1      -2.192   3.009  16.401  1.00  0.00     0.041 C 
ATOM      7  O   UNL     1      -1.305   2.384  17.040  1.00  0.00    -0.550 OA
ATOM      8  O   UNL     1      -1.821   3.968  15.468  1.00  0.00    -0.550 OA
ENDBRANCH   5   6
ENDBRANCH   4   5
ENDBRANCH   3   4
ENDBRANCH   2   3
ENDBRANCH   1   2
BRANCH   1   9
ATOM      9  C   UNL     1      -7.527   4.277  13.234  1.00  0.00     0.000 C 
BRANCH   9  10
ATOM     10  C   UNL     1      -8.658   5.164  13.784  1.00  0.00    -0.000 C 
BRANCH  10  11
ATOM     11  C   UNL     1      -8.153   6.521  14.306  1.00  0.00    -0.000 C 
BRANCH  11  12
ATOM     12  C   UNL     1      -8.408   6.784  15.805  1.00  0.00    -0.000 C 
BRANCH  12  13
ATOM     13  C   UNL     1      -7.149   6.777  16.690  1.00  0.00    -0.003 C 
ATOM     14  C   UNL     1      -6.015   7.627  16.119  1.00  0.00     0.004 C 
ENDBRANCH  12  13
ENDBRANCH  11  12
ENDBRANCH  10  11
ENDBRANCH   9  10
ENDBRANCH   1   9
TORSDOF 10
ENDMDL
MODEL 8
REMARK VINA RESULT:    -4.308      5.599      8.195
REMARK INTER + INTRA:          -7.281
REMARK INTER:                  -5.673
REMARK INTRA:                  -1.608
REMARK UNBOUND:                -0.454
REMARK SMILES CCCCCCCCCCCC(=O)[O-]
REMARK SMILES IDX 7 1 8 2 9 3 10 4 11 5 12 6 13 7 14 8 6 9 5 10 4 11 3 12 2 13
REMARK SMILES IDX 1 14
REMARK H PARENT
REMARK Flexibility Score: inf
ROOT
ATOM      1  C   UNL     1      -7.337   7.415  15.107  1.00  0.00     0.000 C 
ENDROOT
BRANCH   1   2
ATOM      2  C   UNL     1      -6.051   7.246  15.930  1.00  0.00     0.000 C 
BRANCH   2   3
ATOM      3  C   UNL     1      -6.003   5.864  16.595  1.00  0.00     0.000 C 
BRANCH   3   4
ATOM      4  C   UNL     1      -4.903   4.991  15.972  1.00  0.00     0.006 C 
BRANCH   4   5
ATOM      5  C   UNL     1      -5.345   3.530  15.809  1.00  0.00     0.053 C 
BRANCH   5   6
ATOM      6  C   UNL     1      -4.544   2.606  16.675  1.00  0.00     0.041 C 
ATOM      7  O   UNL     1      -5.122   1.857  17.505  1.00  0.00    -0.550 OA
ATOM      8  O   UNL     1      -3.158   2.598  16.589  1.00  0.00    -0.550 OA
ENDBRANCH   5   6
ENDBRANCH   4   5
ENDBRANCH   3   4
ENDBRANCH   2   3
ENDBRANCH   1   2
BRANCH   1   9
ATOM      9  C   UNL     1      -8.393   6.345  15.427  1.00  0.00     0.000 C 
BRANCH   9  10
ATOM     10  C   UNL     1      -8.983   5.702  14.160  1.00  0.00    -0.000 C 
BRANCH  10  11
ATOM     11  C   UNL     1      -8.118   4.551  13.616  1.00  0.00    -0.000 C 
BRANCH  11  12
ATOM     12  C   UNL     1      -7.408   4.839  12.276  1.00  0.00    -0.000 C 
BRANCH  12  13
ATOM     13  C   UNL     1      -5.873   4.739  12.319  1.00  0.00    -0.003 C 
ATOM     14  C   UNL     1      -5.189   6.105  12.369  1.00  0.00     0.004 C 
ENDBRANCH  12  13
ENDBRANCH  11  12
ENDBRANCH  10  11
ENDBRANCH   9  10
ENDBRANCH   1   9
TORSDOF 10
ENDMDL
MODEL 9
REMARK VINA RESULT:    -4.277      5.418      7.314
REMARK INTER + INTRA:          -7.231
REMARK INTER:                  -5.834
REMARK INTRA:                  -1.397
REMARK UNBOUND:                -0.454
REMARK SMILES CCCCCCCCCCCC(=O)[O-]
REMARK SMILES IDX 7 1 8 2 9 3 10 4 11 5 12 6 13 7 14 8 6 9 5 10 4 11 3 12 2 13
REMARK SMILES IDX 1 14
REMARK H PARENT
REMARK Flexibility Score: inf
ROOT
ATOM      1  C   UNL     1      -7.217   4.827  12.417  1.00  0.00     0.000 C 
ENDROOT
BRANCH   1   2
ATOM      2  C   UNL     1      -5.727   4.528  12.637  1.00  0.00     0.000 C 
BRANCH   2   3
ATOM      3  C   UNL     1      -5.499   3.834  13.986  1.00  0.00     0.000 C 
BRANCH   3   4
ATOM      4  C   UNL     1      -4.526   4.639  14.862  1.00  0.00     0.006 C 
BRANCH   4   5
ATOM      5  C   UNL     1      -4.669   4.299  16.351  1.00  0.00     0.053 C 
BRANCH   5   6
ATOM      6  C   UNL     1      -4.239   2.895  16.646  1.00  0.00     0.041 C 
ATOM      7  O   UNL     1      -5.085   2.037  17.013  1.00  0.00    -0.550 OA
ATOM      8  O   UNL     1      -2.900   2.542  16.550  1.00  0.00    -0.550 OA
ENDBRANCH   5   6
ENDBRANCH   4   5
ENDBRANCH   3   4
ENDBRANCH   2   3
ENDBRANCH   1   2
BRANCH   1   9
ATOM      9  C   UNL     1      -8.075   4.510  13.652  1.00  0.00     0.000 C 
BRANCH   9  10
ATOM     10  C   UNL     1      -8.745   5.763  14.241  1.00  0.00    -0.000 C 
BRANCH  10  11
ATOM     11  C   UNL     1      -8.042   6.276  15.510  1.00  0.00    -0.000 C 
BRANCH  11  12
ATOM     12  C   UNL     1      -6.980   7.372  15.276  1.00  0.00    -0.000 C 
BRANCH  12  13
ATOM     13  C   UNL     1      -6.179   7.779  16.525  1.00  0.00    -0.003 C 
ATOM     14  C   UNL     1      -6.719   7.150  17.809  1.00  0.00     0.004 C 
ENDBRANCH  12  13
ENDBRANCH  11  12
ENDBRANCH  10  11
ENDBRANCH   9  10
ENDBRANCH   1   9
TORSDOF 10
ENDMDL
