MODEL 1
REMARK VINA RESULT:    -4.560      0.000      0.000
REMARK INTER + INTRA:          -7.297
REMARK INTER:                  -6.959
REMARK INTRA:                  -0.337
REMARK UNBOUND:                -0.337
REMARK SMILES CC1=CCC[C@@H](C)C(=O)C[C@@H](C(C)C)C(=O)C1
REMARK SMILES IDX 8 1 9 2 6 3 7 4 5 5 4 6 3 7 2 8 1 9 10 11 11 12 15 13 16 14
REMARK SMILES IDX 17 15 12 17 13 18 14 19
REMARK H PARENT
REMARK Flexibility Score: 70.00
ROOT
ATOM      1  C   UNL     1      24.580  54.941   8.771  1.00  0.00     0.136 C 
ATOM      2  O   UNL     1      24.650  56.008   8.174  1.00  0.00    -0.299 OA
ENDROOT
BRANCH   1   3
ATOM      3  C   UNL     1      24.355  53.661   7.980  1.00  0.00     0.053 C 
ATOM      4  C   UNL     1      23.573  52.637   8.816  1.00  0.00     0.016 C 
BRANCH   3   5
ATOM      5  C   UNL     1      25.661  53.033   7.418  1.00  0.00     0.015 C 
BRANCH   5   6
ATOM      6  C   UNL     1      26.085  51.677   8.039  1.00  0.00     0.028 C 
BRANCH   6   7
ATOM      7  C   UNL     1      27.454  51.730   8.677  1.00  0.00    -0.028 C 
ATOM      8  C   UNL     1      27.695  51.905  10.000  1.00  0.00    -0.070 CG0
ATOM      9  C   UNL     1      29.131  51.886  10.463  1.00  0.00     0.039 C 
ATOM     10  G   UNL     1      26.601  52.164  11.028  1.00  0.00     0.000 G0
ENDBRANCH   6   7
ENDBRANCH   5   6
ENDBRANCH   3   5
ENDBRANCH   1   3
BRANCH   1  11
ATOM     11  C   UNL     1      24.862  54.955  10.255  1.00  0.00     0.087 C 
BRANCH  11  12
ATOM     12  C   UNL     1      26.347  54.803  10.694  1.00  0.00     0.066 C 
BRANCH  12  13
ATOM     13  C   UNL     1      26.633  53.571  11.549  1.00  0.00     0.140 C 
ATOM     14  O   UNL     1      26.828  53.743  12.745  1.00  0.00    -0.299 OA
BRANCH  13  15
ATOM     15  C   UNL     1      26.594  52.151  11.025  1.00  0.00     0.106 CG0
ATOM     16  G   UNL     1      27.687  51.910   9.992  1.00  0.00     0.000 G0
ENDBRANCH  13  15
ENDBRANCH  12  13
BRANCH  12  17
ATOM     17  C   UNL     1      26.853  56.098  11.417  1.00  0.00    -0.006 C 
ATOM     18  C   UNL     1      27.957  56.819  10.620  1.00  0.00     0.008 C 
ATOM     19  C   UNL     1      25.711  57.095  11.690  1.00  0.00     0.008 C 
ENDBRANCH  12  17
ENDBRANCH  11  12
ENDBRANCH   1  11
TORSDOF 1
ENDMDL
MODEL 2
REMARK VINA RESULT:    -4.474      2.140      3.901
REMARK INTER + INTRA:          -7.166
REMARK INTER:                  -6.911
REMARK INTRA:                  -0.255
REMARK UNBOUND:                -0.337
REMARK SMILES CC1=CCC[C@@H](C)C(=O)C[C@@H](C(C)C)C(=O)C1
REMARK SMILES IDX 8 1 9 2 6 3 7 4 5 5 4 6 3 7 2 8 1 9 10 11 11 12 15 13 16 14
REMARK SMILES IDX 17 15 12 17 13 18 14 19
REMARK H PARENT
REMARK Flexibility Score: 70.00
ROOT
ATOM      1  C   UNL     1      25.709  52.530  10.129  1.00  0.00     0.136 C 
ATOM      2  O   UNL     1      25.024  51.515  10.137  1.00  0.00    -0.299 OA
ENDROOT
BRANCH   1   3
ATOM      3  C   UNL     1      27.142  52.454   9.622  1.00  0.00     0.053 C 
ATOM      4  C   UNL     1      27.245  51.492   8.429  1.00  0.00     0.016 C 
BRANCH   3   5
ATOM      5  C   UNL     1      28.176  52.082  10.721  1.00  0.00     0.015 C 
BRANCH   5   6
ATOM      6  C   UNL     1      29.131  53.219  11.169  1.00  0.00     0.028 C 
BRANCH   6   7
ATOM      7  C   UNL     1      28.587  54.013  12.334  1.00  0.00    -0.028 C 
ATOM      8  C   UNL     1      27.925  55.192  12.238  1.00  0.00    -0.070 CG0
ATOM      9  C   UNL     1      27.414  55.819  13.511  1.00  0.00     0.039 C 
ATOM     10  G   UNL     1      27.716  55.934  10.924  1.00  0.00     0.000 G0
ENDBRANCH   6   7
ENDBRANCH   5   6
ENDBRANCH   3   5
ENDBRANCH   1   3
BRANCH   1  11
ATOM     11  C   UNL     1      25.033  53.830  10.498  1.00  0.00     0.087 C 
BRANCH  11  12
ATOM     12  C   UNL     1      25.478  55.103   9.723  1.00  0.00     0.066 C 
BRANCH  12  13
ATOM     13  C   UNL     1      26.261  56.112  10.560  1.00  0.00     0.140 C 
ATOM     14  O   UNL     1      25.644  57.057  11.034  1.00  0.00    -0.299 OA
BRANCH  13  15
ATOM     15  C   UNL     1      27.726  55.963  10.914  1.00  0.00     0.106 CG0
ATOM     16  G   UNL     1      27.905  55.203  12.222  1.00  0.00     0.000 G0
ENDBRANCH  13  15
ENDBRANCH  12  13
BRANCH  12  17
ATOM     17  C   UNL     1      24.255  55.798   9.035  1.00  0.00    -0.006 C 
ATOM     18  C   UNL     1      24.511  56.092   7.544  1.00  0.00     0.008 C 
ATOM     19  C   UNL     1      22.967  54.962   9.157  1.00  0.00     0.008 C 
ENDBRANCH  12  17
ENDBRANCH  11  12
ENDBRANCH   1  11
TORSDOF 1
ENDMDL
MODEL 3
REMARK VINA RESULT:    -4.413      6.318      8.332
REMARK INTER + INTRA:          -7.072
REMARK INTER:                  -6.780
REMARK INTRA:                  -0.292
REMARK UNBOUND:                -0.337
REMARK SMILES CC1=CCC[C@@H](C)C(=O)C[C@@H](C(C)C)C(=O)C1
REMARK SMILES IDX 8 1 9 2 6 3 7 4 5 5 4 6 3 7 2 8 1 9 10 11 11 12 15 13 16 14
REMARK SMILES IDX 17 15 12 17 13 18 14 19
REMARK H PARENT
REMARK Flexibility Score: 70.00
ROOT
ATOM      1  C   UNL     1      25.614  53.586  17.826  1.00  0.00     0.136 C 
ATOM      2  O   UNL     1      24.836  54.518  17.974  1.00  0.00    -0.299 OA
ENDROOT
BRANCH   1   3
ATOM      3  C   UNL     1      27.005  53.675  18.436  1.00  0.00     0.053 C 
ATOM      4  C   UNL     1      27.044  54.737  19.545  1.00  0.00     0.016 C 
BRANCH   3   5
ATOM      5  C   UNL     1      28.132  53.924  17.395  1.00  0.00     0.015 C 
BRANCH   5   6
ATOM      6  C   UNL     1      28.833  52.659  16.836  1.00  0.00     0.028 C 
BRANCH   6   7
ATOM      7  C   UNL     1      28.346  52.284  15.455  1.00  0.00    -0.028 C 
ATOM      8  C   UNL     1      27.714  51.129  15.134  1.00  0.00    -0.070 CG0
ATOM      9  C   UNL     1      27.258  50.947  13.707  1.00  0.00     0.039 C 
ATOM     10  G   UNL     1      27.484  49.993  16.123  1.00  0.00     0.000 G0
ENDBRANCH   6   7
ENDBRANCH   5   6
ENDBRANCH   3   5
ENDBRANCH   1   3
BRANCH   1  11
ATOM     11  C   UNL     1      25.087  52.338  17.156  1.00  0.00     0.087 C 
BRANCH  11  12
ATOM     12  C   UNL     1      25.568  50.973  17.725  1.00  0.00     0.066 C 
BRANCH  12  13
ATOM     13  C   UNL     1      26.066  49.987  16.671  1.00  0.00     0.140 C 
ATOM     14  O   UNL     1      25.254  49.205  16.195  1.00  0.00    -0.299 OA
BRANCH  13  15
ATOM     15  C   UNL     1      27.475  49.984  16.115  1.00  0.00     0.106 CG0
ATOM     16  G   UNL     1      27.687  51.131  15.135  1.00  0.00     0.000 G0
ENDBRANCH  13  15
ENDBRANCH  12  13
BRANCH  12  17
ATOM     17  C   UNL     1      24.457  50.310  18.609  1.00  0.00    -0.006 C 
ATOM     18  C   UNL     1      24.853  50.246  20.096  1.00  0.00     0.008 C 
ATOM     19  C   UNL     1      23.107  51.042  18.490  1.00  0.00     0.008 C 
ENDBRANCH  12  17
ENDBRANCH  11  12
ENDBRANCH   1  11
TORSDOF 1
ENDMDL
MODEL 4
REMARK VINA RESULT:    -4.401      2.122      3.099
REMARK INTER + INTRA:          -7.053
REMARK INTER:                  -7.048
REMARK INTRA:                  -0.005
REMARK UNBOUND:                -0.337
REMARK SMILES CC1=CCC[C@@H](C)C(=O)C[C@@H](C(C)C)C(=O)C1
REMARK SMILES IDX 8 1 9 2 6 3 7 4 5 5 4 6 3 7 2 8 1 9 10 11 11 12 15 13 16 14
REMARK SMILES IDX 17 15 12 17 13 18 14 19
REMARK H PARENT
REMARK Flexibility Score: 70.00
ROOT
ATOM      1  C   UNL     1      26.126  55.556  10.880  1.00  0.00     0.136 C 
ATOM      2  O   UNL     1      25.412  55.437  11.868  1.00  0.00    -0.299 OA
ENDROOT
BRANCH   1   3
ATOM      3  C   UNL     1      25.789  54.769   9.623  1.00  0.00     0.053 C 
ATOM      4  C   UNL     1      24.350  55.061   9.169  1.00  0.00     0.016 C 
BRANCH   3   5
ATOM      5  C   UNL     1      26.024  53.239   9.758  1.00  0.00     0.015 C 
BRANCH   5   6
ATOM      6  C   UNL     1      27.492  52.794   9.986  1.00  0.00     0.028 C 
BRANCH   6   7
ATOM      7  C   UNL     1      27.727  52.246  11.374  1.00  0.00    -0.028 C 
ATOM      8  C   UNL     1      28.657  52.701  12.249  1.00  0.00    -0.070 CG0
ATOM      9  C   UNL     1      28.716  52.059  13.613  1.00  0.00     0.039 C 
ATOM     10  G   UNL     1      29.669  53.787  11.911  1.00  0.00     0.000 G0
ENDBRANCH   6   7
ENDBRANCH   5   6
ENDBRANCH   3   5
ENDBRANCH   1   3
BRANCH   1  11
ATOM     11  C   UNL     1      27.224  56.592  10.936  1.00  0.00     0.087 C 
BRANCH  11  12
ATOM     12  C   UNL     1      28.690  56.071  10.883  1.00  0.00     0.066 C 
BRANCH  12  13
ATOM     13  C   UNL     1      29.092  55.190  12.063  1.00  0.00     0.140 C 
ATOM     14  O   UNL     1      28.850  55.604  13.190  1.00  0.00    -0.299 OA
BRANCH  13  15
ATOM     15  C   UNL     1      29.682  53.803  11.921  1.00  0.00     0.106 CG0
ATOM     16  G   UNL     1      28.660  52.727  12.265  1.00  0.00     0.000 G0
ENDBRANCH  13  15
ENDBRANCH  12  13
BRANCH  12  17
ATOM     17  C   UNL     1      29.701  57.256  10.718  1.00  0.00    -0.006 C 
ATOM     18  C   UNL     1      29.379  58.435  11.656  1.00  0.00     0.008 C 
ATOM     19  C   UNL     1      31.157  56.816  10.963  1.00  0.00     0.008 C 
ENDBRANCH  12  17
ENDBRANCH  11  12
ENDBRANCH   1  11
TORSDOF 1
ENDMDL
MODEL 5
REMARK VINA RESULT:    -4.389      6.693      8.502
REMARK INTER + INTRA:          -7.036
REMARK INTER:                  -6.630
REMARK INTRA:                  -0.405
REMARK UNBOUND:                -0.337
REMARK SMILES CC1=CCC[C@@H](C)C(=O)C[C@@H](C(C)C)C(=O)C1
REMARK SMILES IDX 8 1 9 2 6 3 7 4 5 5 4 6 3 7 2 8 1 9 10 11 11 12 15 13 16 14
REMARK SMILES IDX 17 15 12 17 13 18 14 19
REMARK H PARENT
REMARK Flexibility Score: 70.00
ROOT
ATOM      1  C   UNL     1      26.246  51.166  15.664  1.00  0.00     0.136 C 
ATOM      2  O   UNL     1      25.822  50.839  14.563  1.00  0.00    -0.299 OA
ENDROOT
BRANCH   1   3
ATOM      3  C   UNL     1      26.588  50.085  16.678  1.00  0.00     0.053 C 
ATOM      4  C   UNL     1      27.369  48.942  16.012  1.00  0.00     0.016 C 
BRANCH   3   5
ATOM      5  C   UNL     1      25.355  49.534  17.448  1.00  0.00     0.015 C 
BRANCH   5   6
ATOM      6  C   UNL     1      24.358  50.595  17.983  1.00  0.00     0.028 C 
BRANCH   6   7
ATOM      7  C   UNL     1      24.732  51.107  19.355  1.00  0.00    -0.028 C 
ATOM      8  C   UNL     1      25.102  52.379  19.642  1.00  0.00    -0.070 CG0
ATOM      9  C   UNL     1      25.397  52.720  21.082  1.00  0.00     0.039 C 
ATOM     10  G   UNL     1      25.279  53.463  18.586  1.00  0.00     0.000 G0
ENDBRANCH   6   7
ENDBRANCH   5   6
ENDBRANCH   3   5
ENDBRANCH   1   3
BRANCH   1  11
ATOM     11  C   UNL     1      26.533  52.632  15.892  1.00  0.00     0.087 C 
BRANCH  11  12
ATOM     12  C   UNL     1      27.442  52.993  17.102  1.00  0.00     0.066 C 
BRANCH  12  13
ATOM     13  C   UNL     1      26.722  53.700  18.247  1.00  0.00     0.140 C 
ATOM     14  O   UNL     1      27.344  54.549  18.872  1.00  0.00    -0.299 OA
BRANCH  13  15
ATOM     15  C   UNL     1      25.263  53.481  18.592  1.00  0.00     0.106 CG0
ATOM     16  G   UNL     1      25.099  52.395  19.647  1.00  0.00     0.000 G0
ENDBRANCH  13  15
ENDBRANCH  12  13
BRANCH  12  17
ATOM     17  C   UNL     1      28.683  53.831  16.640  1.00  0.00    -0.006 C 
ATOM     18  C   UNL     1      29.824  52.942  16.109  1.00  0.00     0.008 C 
ATOM     19  C   UNL     1      28.317  54.862  15.555  1.00  0.00     0.008 C 
ENDBRANCH  12  17
ENDBRANCH  11  12
ENDBRANCH   1  11
TORSDOF 1
ENDMDL
MODEL 6
REMARK VINA RESULT:    -4.283      5.071      7.196
REMARK INTER + INTRA:          -6.874
REMARK INTER:                  -6.450
REMARK INTRA:                  -0.424
REMARK UNBOUND:                -0.337
REMARK SMILES CC1=CCC[C@@H](C)C(=O)C[C@@H](C(C)C)C(=O)C1
REMARK SMILES IDX 8 1 9 2 6 3 7 4 5 5 4 6 3 7 2 8 1 9 10 11 11 12 15 13 16 14
REMARK SMILES IDX 17 15 12 17 13 18 14 19
REMARK H PARENT
REMARK Flexibility Score: 70.00
ROOT
ATOM      1  C   UNL     1      28.837  51.816  16.579  1.00  0.00     0.136 C 
ATOM      2  O   UNL     1      30.061  51.839  16.602  1.00  0.00    -0.299 OA
ENDROOT
BRANCH   1   3
ATOM      3  C   UNL     1      28.124  50.509  16.268  1.00  0.00     0.053 C 
ATOM      4  C   UNL     1      28.797  49.337  16.998  1.00  0.00     0.016 C 
BRANCH   3   5
ATOM      5  C   UNL     1      27.995  50.211  14.747  1.00  0.00     0.015 C 
BRANCH   5   6
ATOM      6  C   UNL     1      28.078  51.439  13.804  1.00  0.00     0.028 C 
BRANCH   6   7
ATOM      7  C   UNL     1      26.736  51.817  13.221  1.00  0.00    -0.028 C 
ATOM      8  C   UNL     1      26.046  52.947  13.511  1.00  0.00    -0.070 CG0
ATOM      9  C   UNL     1      24.738  53.178  12.795  1.00  0.00     0.039 C 
ATOM     10  G   UNL     1      26.497  53.965  14.551  1.00  0.00     0.000 G0
ENDBRANCH   6   7
ENDBRANCH   5   6
ENDBRANCH   3   5
ENDBRANCH   1   3
BRANCH   1  11
ATOM     11  C   UNL     1      28.110  53.072  17.000  1.00  0.00     0.087 C 
BRANCH  11  12
ATOM     12  C   UNL     1      26.556  53.008  17.043  1.00  0.00     0.066 C 
BRANCH  12  13
ATOM     13  C   UNL     1      25.859  53.752  15.907  1.00  0.00     0.140 C 
ATOM     14  O   UNL     1      24.762  54.244  16.138  1.00  0.00    -0.299 OA
BRANCH  13  15
ATOM     15  C   UNL     1      26.483  53.997  14.549  1.00  0.00     0.106 CG0
ATOM     16  G   UNL     1      26.040  52.948  13.537  1.00  0.00     0.000 G0
ENDBRANCH  13  15
ENDBRANCH  12  13
BRANCH  12  17
ATOM     17  C   UNL     1      26.012  53.498  18.429  1.00  0.00    -0.006 C 
ATOM     18  C   UNL     1      25.516  52.333  19.307  1.00  0.00     0.008 C 
ATOM     19  C   UNL     1      27.068  54.295  19.218  1.00  0.00     0.008 C 
ENDBRANCH  12  17
ENDBRANCH  11  12
ENDBRANCH   1  11
TORSDOF 1
ENDMDL
MODEL 7
REMARK VINA RESULT:    -4.280      1.882      4.301
REMARK INTER + INTRA:          -6.870
REMARK INTER:                  -6.593
REMARK INTRA:                  -0.277
REMARK UNBOUND:                -0.337
REMARK SMILES CC1=CCC[C@@H](C)C(=O)C[C@@H](C(C)C)C(=O)C1
REMARK SMILES IDX 8 1 9 2 6 3 7 4 5 5 4 6 3 7 2 8 1 9 10 11 11 12 15 13 16 14
REMARK SMILES IDX 17 15 12 17 13 18 14 19
REMARK H PARENT
REMARK Flexibility Score: 70.00
ROOT
ATOM      1  C   UNL     1      26.263  56.537  11.272  1.00  0.00     0.136 C 
ATOM      2  O   UNL     1      25.316  56.547  12.047  1.00  0.00    -0.299 OA
ENDROOT
BRANCH   1   3
ATOM      3  C   UNL     1      27.622  57.023  11.753  1.00  0.00     0.053 C 
ATOM      4  C   UNL     1      28.686  56.824  10.663  1.00  0.00     0.016 C 
BRANCH   3   5
ATOM      5  C   UNL     1      28.078  56.383  13.093  1.00  0.00     0.015 C 
BRANCH   5   6
ATOM      6  C   UNL     1      28.698  54.965  12.994  1.00  0.00     0.028 C 
BRANCH   6   7
ATOM      7  C   UNL     1      27.685  53.868  13.226  1.00  0.00    -0.028 C 
ATOM      8  C   UNL     1      27.151  53.077  12.263  1.00  0.00    -0.070 CG0
ATOM      9  C   UNL     1      26.184  52.001  12.691  1.00  0.00     0.039 C 
ATOM     10  G   UNL     1      27.440  53.250  10.778  1.00  0.00     0.000 G0
ENDBRANCH   6   7
ENDBRANCH   5   6
ENDBRANCH   3   5
ENDBRANCH   1   3
BRANCH   1  11
ATOM     11  C   UNL     1      26.045  55.907   9.916  1.00  0.00     0.087 C 
BRANCH  11  12
ATOM     12  C   UNL     1      25.280  54.552   9.881  1.00  0.00     0.066 C 
BRANCH  12  13
ATOM     13  C   UNL     1      26.176  53.318   9.953  1.00  0.00     0.140 C 
ATOM     14  O   UNL     1      25.877  52.357   9.255  1.00  0.00    -0.299 OA
BRANCH  13  15
ATOM     15  C   UNL     1      27.455  53.247  10.760  1.00  0.00     0.106 CG0
ATOM     16  G   UNL     1      27.166  53.078  12.246  1.00  0.00     0.000 G0
ENDBRANCH  13  15
ENDBRANCH  12  13
BRANCH  12  17
ATOM     17  C   UNL     1      24.340  54.470   8.631  1.00  0.00    -0.006 C 
ATOM     18  C   UNL     1      22.861  54.284   9.022  1.00  0.00     0.008 C 
ATOM     19  C   UNL     1      24.458  55.716   7.732  1.00  0.00     0.008 C 
ENDBRANCH  12  17
ENDBRANCH  11  12
ENDBRANCH   1  11
TORSDOF 1
ENDMDL
MODEL 8
REMARK VINA RESULT:    -4.263      5.878      8.263
REMARK INTER + INTRA:          -6.843
REMARK INTER:                  -6.930
REMARK INTRA:                   0.088
REMARK UNBOUND:                -0.337
REMARK SMILES CC1=CCC[C@@H](C)C(=O)C[C@@H](C(C)C)C(=O)C1
REMARK SMILES IDX 8 1 9 2 6 3 7 4 5 5 4 6 3 7 2 8 1 9 10 11 11 12 15 13 16 14
REMARK SMILES IDX 17 15 12 17 13 18 14 19
REMARK H PARENT
REMARK Flexibility Score: 70.00
ROOT
ATOM      1  C   UNL     1      25.767  49.843  16.723  1.00  0.00     0.136 C 
ATOM      2  O   UNL     1      24.925  48.966  16.578  1.00  0.00    -0.299 OA
ENDROOT
BRANCH   1   3
ATOM      3  C   UNL     1      25.563  50.898  17.800  1.00  0.00     0.053 C 
ATOM      4  C   UNL     1      24.470  50.461  18.787  1.00  0.00     0.016 C 
BRANCH   3   5
ATOM      5  C   UNL     1      25.266  52.317  17.239  1.00  0.00     0.015 C 
BRANCH   5   6
ATOM      6  C   UNL     1      26.357  53.389  17.488  1.00  0.00     0.028 C 
BRANCH   6   7
ATOM      7  C   UNL     1      26.861  54.016  16.209  1.00  0.00    -0.028 C 
ATOM      8  C   UNL     1      28.055  53.753  15.624  1.00  0.00    -0.070 CG0
ATOM      9  C   UNL     1      28.370  54.443  14.320  1.00  0.00     0.039 C 
ATOM     10  G   UNL     1      29.108  52.837  16.236  1.00  0.00     0.000 G0
ENDBRANCH   6   7
ENDBRANCH   5   6
ENDBRANCH   3   5
ENDBRANCH   1   3
BRANCH   1  11
ATOM     11  C   UNL     1      27.032  49.735  15.902  1.00  0.00     0.087 C 
BRANCH  11  12
ATOM     12  C   UNL     1      28.335  50.300  16.536  1.00  0.00     0.066 C 
BRANCH  12  13
ATOM     13  C   UNL     1      28.997  51.418  15.735  1.00  0.00     0.140 C 
ATOM     14  O   UNL     1      29.369  51.158  14.597  1.00  0.00    -0.299 OA
BRANCH  13  15
ATOM     15  C   UNL     1      29.135  52.844  16.225  1.00  0.00     0.106 CG0
ATOM     16  G   UNL     1      28.055  53.741  15.633  1.00  0.00     0.000 G0
ENDBRANCH  13  15
ENDBRANCH  12  13
BRANCH  12  17
ATOM     17  C   UNL     1      29.363  49.152  16.822  1.00  0.00    -0.006 C 
ATOM     18  C   UNL     1      29.339  48.061  15.735  1.00  0.00     0.008 C 
ATOM     19  C   UNL     1      30.803  49.682  16.956  1.00  0.00     0.008 C 
ENDBRANCH  12  17
ENDBRANCH  11  12
ENDBRANCH   1  11
TORSDOF 1
ENDMDL
MODEL 9
REMARK VINA RESULT:    -4.171      6.610      8.994
REMARK INTER + INTRA:          -6.703
REMARK INTER:                  -6.508
REMARK INTRA:                  -0.195
REMARK UNBOUND:                -0.337
REMARK SMILES CC1=CCC[C@@H](C)C(=O)C[C@@H](C(C)C)C(=O)C1
REMARK SMILES IDX 8 1 9 2 6 3 7 4 5 5 4 6 3 7 2 8 1 9 10 11 11 12 15 13 16 14
REMARK SMILES IDX 17 15 12 17 13 18 14 19
REMARK H PARENT
REMARK Flexibility Score: 70.00
ROOT
ATOM      1  C   UNL     1      25.041  51.097  18.914  1.00  0.00     0.136 C 
ATOM      2  O   UNL     1      24.769  50.111  19.587  1.00  0.00    -0.299 OA
ENDROOT
BRANCH   1   3
ATOM      3  C   UNL     1      25.042  52.468  19.573  1.00  0.00     0.053 C 
ATOM      4  C   UNL     1      25.687  52.401  20.965  1.00  0.00     0.016 C 
BRANCH   3   5
ATOM      5  C   UNL     1      23.637  53.130  19.647  1.00  0.00     0.015 C 
BRANCH   5   6
ATOM      6  C   UNL     1      23.414  54.358  18.726  1.00  0.00     0.028 C 
BRANCH   6   7
ATOM      7  C   UNL     1      22.880  53.976  17.365  1.00  0.00    -0.028 C 
ATOM      8  C   UNL     1      23.628  53.817  16.246  1.00  0.00    -0.070 CG0
ATOM      9  C   UNL     1      22.924  53.388  14.982  1.00  0.00     0.039 C 
ATOM     10  G   UNL     1      25.125  54.093  16.189  1.00  0.00     0.000 G0
ENDBRANCH   6   7
ENDBRANCH   5   6
ENDBRANCH   3   5
ENDBRANCH   1   3
BRANCH   1  11
ATOM     11  C   UNL     1      25.495  50.865  17.492  1.00  0.00     0.087 C 
BRANCH  11  12
ATOM     12  C   UNL     1      26.502  51.889  16.896  1.00  0.00     0.066 C 
BRANCH  12  13
ATOM     13  C   UNL     1      25.909  52.823  15.844  1.00  0.00     0.140 C 
ATOM     14  O   UNL     1      26.001  52.489  14.670  1.00  0.00    -0.299 OA
BRANCH  13  15
ATOM     15  C   UNL     1      25.134  54.083  16.171  1.00  0.00     0.106 CG0
ATOM     16  G   UNL     1      23.640  53.806  16.270  1.00  0.00     0.000 G0
ENDBRANCH  13  15
ENDBRANCH  12  13
BRANCH  12  17
ATOM     17  C   UNL     1      27.770  51.165  16.327  1.00  0.00    -0.006 C 
ATOM     18  C   UNL     1      29.059  51.978  16.551  1.00  0.00     0.008 C 
ATOM     19  C   UNL     1      27.960  49.763  16.937  1.00  0.00     0.008 C 
ENDBRANCH  12  17
ENDBRANCH  11  12
ENDBRANCH   1  11
TORSDOF 1
ENDMDL
