MODEL 1
REMARK VINA RESULT:    -6.777      0.000      0.000
REMARK INTER + INTRA:         -12.027
REMARK INTER:                 -10.145
REMARK INTRA:                  -1.882
REMARK UNBOUND:                -1.882
REMARK SMILES O=c1c(O[C@@H]2O[C@@H](CO)[C@@H](O)[C@@H](O)[C@@H]2O)c(-c2cc(O)c(O)c(O)c2)oc2cc(O)cc(O)c12
REMARK SMILES IDX 4 1 3 2 16 3 26 4 2 5 27 6 1 7 34 8 28 9 32 10 29 11 31 12
REMARK SMILES IDX 17 13 18 14 19 15 25 16 21 17 23 18 20 19 22 21 24 23 33 25
REMARK SMILES IDX 30 27 5 29 14 30 6 31 12 32 7 33 10 34 15 35 13 37 8 39 9 40
REMARK SMILES IDX 11 42
REMARK H PARENT 20 20 22 22 24 24 33 26 30 28 15 36 13 38 9 41 11 43
REMARK Flexibility Score: inf
ROOT
ATOM      1  O   UNL     1      13.917 -36.100  -0.579  1.00  0.00    -0.454 OA
ENDROOT
BRANCH   1   2
ATOM      2  C   UNL     1      13.453 -36.709  -1.756  1.00  0.00     0.214 A 
ATOM      3  C   UNL     1      14.278 -37.424  -2.659  1.00  0.00     0.181 A 
ATOM      4  O   UNL     1      13.758 -37.950  -3.759  1.00  0.00    -0.452 OA
ATOM      5  C   UNL     1      12.085 -36.628  -2.031  1.00  0.00     0.239 A 
ATOM      6  C   UNL     1      12.473 -37.851  -4.080  1.00  0.00     0.146 A 
ATOM      7  O   UNL     1      11.340 -36.075  -1.176  1.00  0.00    -0.285 OA
ATOM      8  C   UNL     1      11.560 -37.165  -3.232  1.00  0.00     0.111 A 
ATOM      9  C   UNL     1      12.030 -38.463  -5.256  1.00  0.00     0.094 A 
ATOM     10  C   UNL     1      10.191 -37.088  -3.634  1.00  0.00     0.134 A 
ATOM     11  C   UNL     1      10.684 -38.432  -5.603  1.00  0.00     0.123 A 
ATOM     12  C   UNL     1       9.774 -37.747  -4.795  1.00  0.00     0.093 A 
BRANCH   3  13
ATOM     13  C   UNL     1      15.693 -37.699  -2.379  1.00  0.00     0.029 A 
ATOM     14  C   UNL     1      16.677 -37.155  -3.211  1.00  0.00     0.062 A 
ATOM     15  C   UNL     1      18.030 -37.436  -2.986  1.00  0.00     0.162 A 
ATOM     16  C   UNL     1      16.067 -38.476  -1.276  1.00  0.00     0.062 A 
ATOM     17  C   UNL     1      18.399 -38.270  -1.915  1.00  0.00     0.200 A 
ATOM     18  C   UNL     1      17.409 -38.811  -1.081  1.00  0.00     0.162 A 
BRANCH  15  19
ATOM     19  O   UNL     1      19.004 -36.908  -3.830  1.00  0.00    -0.504 OA
ATOM     20  H   UNL     1      19.931 -36.671  -3.490  1.00  0.00     0.293 HD
ENDBRANCH  15  19
BRANCH  17  21
ATOM     21  O   UNL     1      19.737 -38.589  -1.696  1.00  0.00    -0.502 OA
ATOM     22  H   UNL     1      20.277 -39.135  -2.358  1.00  0.00     0.293 HD
ENDBRANCH  17  21
BRANCH  18  23
ATOM     23  O   UNL     1      17.736 -39.695  -0.056  1.00  0.00    -0.504 OA
ATOM     24  H   UNL     1      17.579 -40.691  -0.131  1.00  0.00     0.293 HD
ENDBRANCH  18  23
ENDBRANCH   3  13
BRANCH  10  25
ATOM     25  O   UNL     1       9.209 -36.373  -2.945  1.00  0.00    -0.507 OA
ATOM     26  H   UNL     1       8.331 -36.071  -3.326  1.00  0.00     0.293 HD
ENDBRANCH  10  25
BRANCH  11  27
ATOM     27  O   UNL     1      10.253 -39.090  -6.748  1.00  0.00    -0.508 OA
ATOM     28  H   UNL     1      10.573 -38.807  -7.664  1.00  0.00     0.293 HD
ENDBRANCH  11  27
ENDBRANCH   1   2
BRANCH   1  29
ATOM     29  C   UNL     1      14.645 -34.871  -0.515  1.00  0.00     0.339 C 
ATOM     30  C   UNL     1      13.872 -33.812   0.307  1.00  0.00     0.214 C 
ATOM     31  O   UNL     1      15.936 -35.094   0.031  1.00  0.00    -0.332 OA
ATOM     32  C   UNL     1      13.787 -34.219   1.786  1.00  0.00     0.180 C 
ATOM     33  C   UNL     1      15.863 -35.592   1.358  1.00  0.00     0.179 C 
ATOM     34  C   UNL     1      15.192 -34.572   2.310  1.00  0.00     0.177 C 
BRANCH  30  35
ATOM     35  O   UNL     1      12.587 -33.578  -0.227  1.00  0.00    -0.384 OA
ATOM     36  H   UNL     1      12.669 -33.535  -1.212  1.00  0.00     0.211 HD
ENDBRANCH  30  35
BRANCH  32  37
ATOM     37  O   UNL     1      13.245 -33.166   2.533  1.00  0.00    -0.387 OA
ATOM     38  H   UNL     1      12.921 -33.564   3.385  1.00  0.00     0.211 HD
ENDBRANCH  32  37
BRANCH  33  39
ATOM     39  C   UNL     1      17.271 -35.969   1.827  1.00  0.00     0.191 C 
BRANCH  39  40
ATOM     40  O   UNL     1      18.230 -35.067   1.324  1.00  0.00    -0.394 OA
ATOM     41  H   UNL     1      19.058 -35.202   1.855  1.00  0.00     0.210 HD
ENDBRANCH  39  40
ENDBRANCH  33  39
BRANCH  34  42
ATOM     42  O   UNL     1      15.976 -33.403   2.408  1.00  0.00    -0.387 OA
ATOM     43  H   UNL     1      15.673 -32.786   1.693  1.00  0.00     0.211 HD
ENDBRANCH  34  42
ENDBRANCH   1  29
TORSDOF 13
ENDMDL
MODEL 2
REMARK VINA RESULT:    -6.397      2.248      3.614
REMARK INTER + INTRA:         -11.458
REMARK INTER:                  -9.476
REMARK INTRA:                  -1.982
REMARK UNBOUND:                -1.882
REMARK SMILES O=c1c(O[C@@H]2O[C@@H](CO)[C@@H](O)[C@@H](O)[C@@H]2O)c(-c2cc(O)c(O)c(O)c2)oc2cc(O)cc(O)c12
REMARK SMILES IDX 4 1 3 2 16 3 26 4 2 5 27 6 1 7 34 8 28 9 32 10 29 11 31 12
REMARK SMILES IDX 17 13 18 14 19 15 25 16 21 17 23 18 20 19 22 21 24 23 33 25
REMARK SMILES IDX 30 27 5 29 14 30 6 31 12 32 7 33 10 34 15 35 13 37 8 39 9 40
REMARK SMILES IDX 11 42
REMARK H PARENT 20 20 22 22 24 24 33 26 30 28 15 36 13 38 9 41 11 43
REMARK Flexibility Score: inf
ROOT
ATOM      1  O   UNL     1      12.075 -36.345  -3.251  1.00  0.00    -0.454 OA
ENDROOT
BRANCH   1   2
ATOM      2  C   UNL     1      12.188 -37.624  -3.820  1.00  0.00     0.214 A 
ATOM      3  C   UNL     1      13.346 -38.435  -3.727  1.00  0.00     0.181 A 
ATOM      4  O   UNL     1      13.372 -39.623  -4.313  1.00  0.00    -0.452 OA
ATOM      5  C   UNL     1      11.074 -38.135  -4.492  1.00  0.00     0.239 A 
ATOM      6  C   UNL     1      12.353 -40.122  -5.003  1.00  0.00     0.146 A 
ATOM      7  O   UNL     1      10.015 -37.450  -4.489  1.00  0.00    -0.285 OA
ATOM      8  C   UNL     1      11.140 -39.390  -5.144  1.00  0.00     0.111 A 
ATOM      9  C   UNL     1      12.485 -41.395  -5.562  1.00  0.00     0.094 A 
ATOM     10  C   UNL     1      10.081 -39.977  -5.901  1.00  0.00     0.134 A 
ATOM     11  C   UNL     1      11.423 -41.979  -6.244  1.00  0.00     0.123 A 
ATOM     12  C   UNL     1      10.231 -41.271  -6.412  1.00  0.00     0.093 A 
BRANCH   3  13
ATOM     13  C   UNL     1      14.506 -38.055  -2.911  1.00  0.00     0.029 A 
ATOM     14  C   UNL     1      15.725 -37.773  -3.538  1.00  0.00     0.062 A 
ATOM     15  C   UNL     1      16.854 -37.446  -2.777  1.00  0.00     0.162 A 
ATOM     16  C   UNL     1      14.398 -37.946  -1.519  1.00  0.00     0.062 A 
ATOM     17  C   UNL     1      16.759 -37.401  -1.374  1.00  0.00     0.200 A 
ATOM     18  C   UNL     1      15.535 -37.682  -0.750  1.00  0.00     0.162 A 
BRANCH  15  19
ATOM     19  O   UNL     1      18.069 -37.187  -3.406  1.00  0.00    -0.504 OA
ATOM     20  H   UNL     1      18.385 -37.735  -4.199  1.00  0.00     0.293 HD
ENDBRANCH  15  19
BRANCH  17  21
ATOM     21  O   UNL     1      17.880 -37.113  -0.600  1.00  0.00    -0.502 OA
ATOM     22  H   UNL     1      17.948 -37.386   0.374  1.00  0.00     0.293 HD
ENDBRANCH  17  21
BRANCH  18  23
ATOM     23  O   UNL     1      15.425 -37.714   0.638  1.00  0.00    -0.504 OA
ATOM     24  H   UNL     1      14.602 -38.068   1.106  1.00  0.00     0.293 HD
ENDBRANCH  18  23
ENDBRANCH   3  13
BRANCH  10  25
ATOM     25  O   UNL     1       8.875 -39.337  -6.193  1.00  0.00    -0.507 OA
ATOM     26  H   UNL     1       8.500 -39.187  -7.111  1.00  0.00     0.293 HD
ENDBRANCH  10  25
BRANCH  11  27
ATOM     27  O   UNL     1      11.554 -43.267  -6.749  1.00  0.00    -0.508 OA
ATOM     28  H   UNL     1      10.836 -43.674  -7.332  1.00  0.00     0.293 HD
ENDBRANCH  11  27
ENDBRANCH   1   2
BRANCH   1  29
ATOM     29  C   UNL     1      12.623 -35.144  -3.800  1.00  0.00     0.339 C 
ATOM     30  C   UNL     1      11.537 -34.050  -3.936  1.00  0.00     0.214 C 
ATOM     31  O   UNL     1      13.704 -34.689  -3.001  1.00  0.00    -0.332 OA
ATOM     32  C   UNL     1      11.049 -33.586  -2.555  1.00  0.00     0.180 C 
ATOM     33  C   UNL     1      13.283 -34.377  -1.682  1.00  0.00     0.179 C 
ATOM     34  C   UNL     1      12.258 -33.217  -1.674  1.00  0.00     0.177 C 
BRANCH  30  35
ATOM     35  O   UNL     1      10.456 -34.488  -4.731  1.00  0.00    -0.384 OA
ATOM     36  H   UNL     1      10.232 -33.764  -5.366  1.00  0.00     0.211 HD
ENDBRANCH  30  35
BRANCH  32  37
ATOM     37  O   UNL     1      10.204 -32.478  -2.702  1.00  0.00    -0.387 OA
ATOM     38  H   UNL     1      10.550 -31.963  -3.480  1.00  0.00     0.211 HD
ENDBRANCH  32  37
BRANCH  33  39
ATOM     39  C   UNL     1      14.513 -34.056  -0.829  1.00  0.00     0.191 C 
BRANCH  39  40
ATOM     40  O   UNL     1      14.190 -33.157   0.207  1.00  0.00    -0.394 OA
ATOM     41  H   UNL     1      14.965 -32.543   0.307  1.00  0.00     0.210 HD
ENDBRANCH  39  40
ENDBRANCH  33  39
BRANCH  34  42
ATOM     42  O   UNL     1      12.855 -32.031  -2.149  1.00  0.00    -0.387 OA
ATOM     43  H   UNL     1      12.730 -31.339  -1.449  1.00  0.00     0.211 HD
ENDBRANCH  34  42
ENDBRANCH   1  29
TORSDOF 13
ENDMDL
MODEL 3
REMARK VINA RESULT:    -6.359      2.265      3.964
REMARK INTER + INTRA:         -11.401
REMARK INTER:                  -9.313
REMARK INTRA:                  -2.088
REMARK UNBOUND:                -1.882
REMARK SMILES O=c1c(O[C@@H]2O[C@@H](CO)[C@@H](O)[C@@H](O)[C@@H]2O)c(-c2cc(O)c(O)c(O)c2)oc2cc(O)cc(O)c12
REMARK SMILES IDX 4 1 3 2 16 3 26 4 2 5 27 6 1 7 34 8 28 9 32 10 29 11 31 12
REMARK SMILES IDX 17 13 18 14 19 15 25 16 21 17 23 18 20 19 22 21 24 23 33 25
REMARK SMILES IDX 30 27 5 29 14 30 6 31 12 32 7 33 10 34 15 35 13 37 8 39 9 40
REMARK SMILES IDX 11 42
REMARK H PARENT 20 20 22 22 24 24 33 26 30 28 15 36 13 38 9 41 11 43
REMARK Flexibility Score: inf
ROOT
ATOM      1  O   UNL     1      11.895 -36.316  -3.281  1.00  0.00    -0.454 OA
ENDROOT
BRANCH   1   2
ATOM      2  C   UNL     1      12.065 -37.599  -3.829  1.00  0.00     0.214 A 
ATOM      3  C   UNL     1      13.246 -38.370  -3.694  1.00  0.00     0.181 A 
ATOM      4  O   UNL     1      13.327 -39.564  -4.263  1.00  0.00    -0.452 OA
ATOM      5  C   UNL     1      10.987 -38.155  -4.523  1.00  0.00     0.239 A 
ATOM      6  C   UNL     1      12.344 -40.105  -4.972  1.00  0.00     0.146 A 
ATOM      7  O   UNL     1       9.906 -37.506  -4.557  1.00  0.00    -0.285 OA
ATOM      8  C   UNL     1      11.112 -39.416  -5.155  1.00  0.00     0.111 A 
ATOM      9  C   UNL     1      12.532 -41.381  -5.510  1.00  0.00     0.094 A 
ATOM     10  C   UNL     1      10.093 -40.048  -5.931  1.00  0.00     0.134 A 
ATOM     11  C   UNL     1      11.509 -42.008  -6.211  1.00  0.00     0.123 A 
ATOM     12  C   UNL     1      10.299 -41.342  -6.420  1.00  0.00     0.093 A 
BRANCH   3  13
ATOM     13  C   UNL     1      14.372 -37.940  -2.854  1.00  0.00     0.029 A 
ATOM     14  C   UNL     1      14.277 -38.059  -1.463  1.00  0.00     0.062 A 
ATOM     15  C   UNL     1      15.321 -37.619  -0.641  1.00  0.00     0.162 A 
ATOM     16  C   UNL     1      15.545 -37.438  -3.430  1.00  0.00     0.062 A 
ATOM     17  C   UNL     1      16.473 -37.056  -1.220  1.00  0.00     0.200 A 
ATOM     18  C   UNL     1      16.565 -36.940  -2.616  1.00  0.00     0.162 A 
BRANCH  15  19
ATOM     19  O   UNL     1      15.212 -37.723   0.743  1.00  0.00    -0.504 OA
ATOM     20  H   UNL     1      15.572 -37.001   1.360  1.00  0.00     0.293 HD
ENDBRANCH  15  19
BRANCH  17  21
ATOM     21  O   UNL     1      17.507 -36.581  -0.418  1.00  0.00    -0.502 OA
ATOM     22  H   UNL     1      18.413 -37.035  -0.379  1.00  0.00     0.293 HD
ENDBRANCH  17  21
BRANCH  18  23
ATOM     23  O   UNL     1      17.660 -36.325  -3.216  1.00  0.00    -0.504 OA
ATOM     24  H   UNL     1      18.202 -36.775  -3.941  1.00  0.00     0.293 HD
ENDBRANCH  18  23
ENDBRANCH   3  13
BRANCH  10  25
ATOM     25  O   UNL     1       8.875 -39.452  -6.264  1.00  0.00    -0.507 OA
ATOM     26  H   UNL     1       8.473 -38.652  -5.811  1.00  0.00     0.293 HD
ENDBRANCH  10  25
BRANCH  11  27
ATOM     27  O   UNL     1      11.696 -43.298  -6.694  1.00  0.00    -0.508 OA
ATOM     28  H   UNL     1      11.592 -44.101  -6.090  1.00  0.00     0.293 HD
ENDBRANCH  11  27
ENDBRANCH   1   2
BRANCH   1  29
ATOM     29  C   UNL     1      12.363 -35.099  -3.866  1.00  0.00     0.339 C 
ATOM     30  C   UNL     1      11.247 -34.026  -3.879  1.00  0.00     0.214 C 
ATOM     31  O   UNL     1      13.509 -34.631  -3.172  1.00  0.00    -0.332 OA
ATOM     32  C   UNL     1      10.891 -33.588  -2.450  1.00  0.00     0.180 C 
ATOM     33  C   UNL     1      13.216 -34.343  -1.814  1.00  0.00     0.179 C 
ATOM     34  C   UNL     1      12.174 -33.204  -1.688  1.00  0.00     0.177 C 
BRANCH  30  35
ATOM     35  O   UNL     1      10.102 -34.477  -4.568  1.00  0.00    -0.384 OA
ATOM     36  H   UNL     1       9.397 -34.664  -3.899  1.00  0.00     0.211 HD
ENDBRANCH  30  35
BRANCH  32  37
ATOM     37  O   UNL     1      10.015 -32.496  -2.497  1.00  0.00    -0.387 OA
ATOM     38  H   UNL     1      10.013 -32.178  -3.440  1.00  0.00     0.211 HD
ENDBRANCH  32  37
BRANCH  33  39
ATOM     39  C   UNL     1      14.518 -34.006  -1.083  1.00  0.00     0.191 C 
BRANCH  39  40
ATOM     40  O   UNL     1      14.265 -33.263   0.088  1.00  0.00    -0.394 OA
ATOM     41  H   UNL     1      13.393 -33.577   0.444  1.00  0.00     0.210 HD
ENDBRANCH  39  40
ENDBRANCH  33  39
BRANCH  34  42
ATOM     42  O   UNL     1      12.698 -32.000  -2.205  1.00  0.00    -0.387 OA
ATOM     43  H   UNL     1      13.224 -31.575  -1.479  1.00  0.00     0.211 HD
ENDBRANCH  34  42
ENDBRANCH   1  29
TORSDOF 13
ENDMDL
MODEL 4
REMARK VINA RESULT:    -6.243      1.738      6.258
REMARK INTER + INTRA:         -11.227
REMARK INTER:                  -9.603
REMARK INTRA:                  -1.624
REMARK UNBOUND:                -1.882
REMARK SMILES O=c1c(O[C@@H]2O[C@@H](CO)[C@@H](O)[C@@H](O)[C@@H]2O)c(-c2cc(O)c(O)c(O)c2)oc2cc(O)cc(O)c12
REMARK SMILES IDX 4 1 3 2 16 3 26 4 2 5 27 6 1 7 34 8 28 9 32 10 29 11 31 12
REMARK SMILES IDX 17 13 18 14 19 15 25 16 21 17 23 18 20 19 22 21 24 23 33 25
REMARK SMILES IDX 30 27 5 29 14 30 6 31 12 32 7 33 10 34 15 35 13 37 8 39 9 40
REMARK SMILES IDX 11 42
REMARK H PARENT 20 20 22 22 24 24 33 26 30 28 15 36 13 38 9 41 11 43
REMARK Flexibility Score: inf
ROOT
ATOM      1  O   UNL     1      13.496 -38.112  -1.842  1.00  0.00    -0.454 OA
ENDROOT
BRANCH   1   2
ATOM      2  C   UNL     1      13.753 -36.924  -1.138  1.00  0.00     0.214 A 
ATOM      3  C   UNL     1      15.037 -36.530  -0.687  1.00  0.00     0.181 A 
ATOM      4  O   UNL     1      15.185 -35.400  -0.011  1.00  0.00    -0.452 OA
ATOM      5  C   UNL     1      12.676 -36.066  -0.899  1.00  0.00     0.239 A 
ATOM      6  C   UNL     1      14.179 -34.584   0.279  1.00  0.00     0.146 A 
ATOM      7  O   UNL     1      11.554 -36.374  -1.387  1.00  0.00    -0.285 OA
ATOM      8  C   UNL     1      12.853 -34.883  -0.141  1.00  0.00     0.111 A 
ATOM      9  C   UNL     1      14.455 -33.407   0.980  1.00  0.00     0.094 A 
ATOM     10  C   UNL     1      11.811 -33.969   0.205  1.00  0.00     0.134 A 
ATOM     11  C   UNL     1      13.441 -32.497   1.256  1.00  0.00     0.123 A 
ATOM     12  C   UNL     1      12.128 -32.780   0.871  1.00  0.00     0.093 A 
BRANCH   3  13
ATOM     13  C   UNL     1      16.252 -37.283  -1.025  1.00  0.00     0.029 A 
ATOM     14  C   UNL     1      16.987 -36.929  -2.162  1.00  0.00     0.062 A 
ATOM     15  C   UNL     1      18.126 -37.658  -2.525  1.00  0.00     0.162 A 
ATOM     16  C   UNL     1      16.695 -38.331  -0.209  1.00  0.00     0.062 A 
ATOM     17  C   UNL     1      18.532 -38.751  -1.739  1.00  0.00     0.200 A 
ATOM     18  C   UNL     1      17.794 -39.101  -0.598  1.00  0.00     0.162 A 
BRANCH  15  19
ATOM     19  O   UNL     1      18.841 -37.313  -3.669  1.00  0.00    -0.504 OA
ATOM     20  H   UNL     1      19.695 -36.766  -3.618  1.00  0.00     0.293 HD
ENDBRANCH  15  19
BRANCH  17  21
ATOM     21  O   UNL     1      19.642 -39.509  -2.104  1.00  0.00    -0.502 OA
ATOM     22  H   UNL     1      20.287 -39.210  -2.826  1.00  0.00     0.293 HD
ENDBRANCH  17  21
BRANCH  18  23
ATOM     23  O   UNL     1      18.130 -40.219   0.161  1.00  0.00    -0.504 OA
ATOM     24  H   UNL     1      18.634 -40.146   1.034  1.00  0.00     0.293 HD
ENDBRANCH  18  23
ENDBRANCH   3  13
BRANCH  10  25
ATOM     25  O   UNL     1      10.458 -34.181  -0.064  1.00  0.00    -0.507 OA
ATOM     26  H   UNL     1       9.959 -35.038   0.087  1.00  0.00     0.293 HD
ENDBRANCH  10  25
BRANCH  11  27
ATOM     27  O   UNL     1      13.742 -31.308   1.909  1.00  0.00    -0.508 OA
ATOM     28  H   UNL     1      14.027 -31.303   2.879  1.00  0.00     0.293 HD
ENDBRANCH  11  27
ENDBRANCH   1   2
BRANCH   1  29
ATOM     29  C   UNL     1      13.711 -38.308  -3.241  1.00  0.00     0.339 C 
ATOM     30  C   UNL     1      14.198 -39.748  -3.531  1.00  0.00     0.214 C 
ATOM     31  O   UNL     1      12.525 -38.018  -3.965  1.00  0.00    -0.332 OA
ATOM     32  C   UNL     1      13.095 -40.772  -3.223  1.00  0.00     0.180 C 
ATOM     33  C   UNL     1      11.462 -38.882  -3.592  1.00  0.00     0.179 C 
ATOM     34  C   UNL     1      11.789 -40.358  -3.927  1.00  0.00     0.177 C 
BRANCH  30  35
ATOM     35  O   UNL     1      15.379 -40.049  -2.820  1.00  0.00    -0.384 OA
ATOM     36  H   UNL     1      15.324 -39.607  -1.936  1.00  0.00     0.211 HD
ENDBRANCH  30  35
BRANCH  32  37
ATOM     37  O   UNL     1      13.496 -42.042  -3.660  1.00  0.00    -0.387 OA
ATOM     38  H   UNL     1      14.099 -41.893  -4.437  1.00  0.00     0.211 HD
ENDBRANCH  32  37
BRANCH  33  39
ATOM     39  C   UNL     1      10.176 -38.414  -4.279  1.00  0.00     0.191 C 
BRANCH  39  40
ATOM     40  O   UNL     1      10.413 -38.087  -5.629  1.00  0.00    -0.394 OA
ATOM     41  H   UNL     1      10.283 -37.106  -5.714  1.00  0.00     0.210 HD
ENDBRANCH  39  40
ENDBRANCH  33  39
BRANCH  34  42
ATOM     42  O   UNL     1      11.918 -40.530  -5.320  1.00  0.00    -0.387 OA
ATOM     43  H   UNL     1      11.244 -39.943  -5.752  1.00  0.00     0.211 HD
ENDBRANCH  34  42
ENDBRANCH   1  29
TORSDOF 13
ENDMDL
MODEL 5
REMARK VINA RESULT:    -6.115      2.145      6.693
REMARK INTER + INTRA:         -11.035
REMARK INTER:                  -9.455
REMARK INTRA:                  -1.580
REMARK UNBOUND:                -1.882
REMARK SMILES O=c1c(O[C@@H]2O[C@@H](CO)[C@@H](O)[C@@H](O)[C@@H]2O)c(-c2cc(O)c(O)c(O)c2)oc2cc(O)cc(O)c12
REMARK SMILES IDX 4 1 3 2 16 3 26 4 2 5 27 6 1 7 34 8 28 9 32 10 29 11 31 12
REMARK SMILES IDX 17 13 18 14 19 15 25 16 21 17 23 18 20 19 22 21 24 23 33 25
REMARK SMILES IDX 30 27 5 29 14 30 6 31 12 32 7 33 10 34 15 35 13 37 8 39 9 40
REMARK SMILES IDX 11 42
REMARK H PARENT 20 20 22 22 24 24 33 26 30 28 15 36 13 38 9 41 11 43
REMARK Flexibility Score: inf
ROOT
ATOM      1  O   UNL     1      13.010 -35.937  -2.155  1.00  0.00    -0.454 OA
ENDROOT
BRANCH   1   2
ATOM      2  C   UNL     1      14.071 -36.552  -1.471  1.00  0.00     0.214 A 
ATOM      3  C   UNL     1      14.491 -37.887  -1.691  1.00  0.00     0.181 A 
ATOM      4  O   UNL     1      15.491 -38.394  -0.984  1.00  0.00    -0.452 OA
ATOM      5  C   UNL     1      14.772 -35.783  -0.537  1.00  0.00     0.239 A 
ATOM      6  C   UNL     1      16.148 -37.712  -0.054  1.00  0.00     0.146 A 
ATOM      7  O   UNL     1      14.458 -34.568  -0.414  1.00  0.00    -0.285 OA
ATOM      8  C   UNL     1      15.811 -36.360   0.234  1.00  0.00     0.111 A 
ATOM      9  C   UNL     1      17.200 -38.342   0.617  1.00  0.00     0.094 A 
ATOM     10  C   UNL     1      16.552 -35.679   1.249  1.00  0.00     0.134 A 
ATOM     11  C   UNL     1      17.951 -37.648   1.558  1.00  0.00     0.123 A 
ATOM     12  C   UNL     1      17.625 -36.326   1.871  1.00  0.00     0.093 A 
BRANCH   3  13
ATOM     13  C   UNL     1      13.923 -38.722  -2.758  1.00  0.00     0.029 A 
ATOM     14  C   UNL     1      13.744 -38.178  -4.035  1.00  0.00     0.062 A 
ATOM     15  C   UNL     1      13.167 -38.943  -5.056  1.00  0.00     0.162 A 
ATOM     16  C   UNL     1      13.584 -40.059  -2.518  1.00  0.00     0.062 A 
ATOM     17  C   UNL     1      12.768 -40.267  -4.794  1.00  0.00     0.200 A 
ATOM     18  C   UNL     1      12.952 -40.809  -3.513  1.00  0.00     0.162 A 
BRANCH  15  19
ATOM     19  O   UNL     1      12.973 -38.390  -6.319  1.00  0.00    -0.504 OA
ATOM     20  H   UNL     1      13.631 -38.549  -7.076  1.00  0.00     0.293 HD
ENDBRANCH  15  19
BRANCH  17  21
ATOM     21  O   UNL     1      12.162 -41.031  -5.787  1.00  0.00    -0.502 OA
ATOM     22  H   UNL     1      11.300 -41.540  -5.627  1.00  0.00     0.293 HD
ENDBRANCH  17  21
BRANCH  18  23
ATOM     23  O   UNL     1      12.505 -42.090  -3.203  1.00  0.00    -0.504 OA
ATOM     24  H   UNL     1      13.009 -42.699  -2.573  1.00  0.00     0.293 HD
ENDBRANCH  18  23
ENDBRANCH   3  13
BRANCH  10  25
ATOM     25  O   UNL     1      16.271 -34.386   1.692  1.00  0.00    -0.507 OA
ATOM     26  H   UNL     1      15.471 -34.114   2.233  1.00  0.00     0.293 HD
ENDBRANCH  10  25
BRANCH  11  27
ATOM     27  O   UNL     1      19.026 -38.273   2.178  1.00  0.00    -0.508 OA
ATOM     28  H   UNL     1      19.908 -37.795   2.300  1.00  0.00     0.293 HD
ENDBRANCH  11  27
ENDBRANCH   1   2
BRANCH   1  29
ATOM     29  C   UNL     1      11.664 -35.845  -1.683  1.00  0.00     0.339 C 
ATOM     30  C   UNL     1      11.174 -34.377  -1.688  1.00  0.00     0.214 C 
ATOM     31  O   UNL     1      10.813 -36.667  -2.467  1.00  0.00    -0.332 OA
ATOM     32  C   UNL     1      11.054 -33.843  -3.123  1.00  0.00     0.180 C 
ATOM     33  C   UNL     1      10.796 -36.256  -3.825  1.00  0.00     0.179 C 
ATOM     34  C   UNL     1      10.226 -34.824  -3.976  1.00  0.00     0.177 C 
BRANCH  30  35
ATOM     35  O   UNL     1      12.009 -33.549  -0.909  1.00  0.00    -0.384 OA
ATOM     36  H   UNL     1      12.304 -32.793  -1.477  1.00  0.00     0.211 HD
ENDBRANCH  30  35
BRANCH  32  37
ATOM     37  O   UNL     1      10.442 -32.584  -3.107  1.00  0.00    -0.387 OA
ATOM     38  H   UNL     1      10.018 -32.466  -4.000  1.00  0.00     0.211 HD
ENDBRANCH  32  37
BRANCH  33  39
ATOM     39  C   UNL     1       9.999 -37.274  -4.645  1.00  0.00     0.191 C 
BRANCH  39  40
ATOM     40  O   UNL     1       8.882 -37.741  -3.925  1.00  0.00    -0.394 OA
ATOM     41  H   UNL     1       8.774 -38.701  -4.152  1.00  0.00     0.210 HD
ENDBRANCH  39  40
ENDBRANCH  33  39
BRANCH  34  42
ATOM     42  O   UNL     1       8.875 -34.788  -3.574  1.00  0.00    -0.387 OA
ATOM     43  H   UNL     1       8.678 -35.653  -3.130  1.00  0.00     0.211 HD
ENDBRANCH  34  42
ENDBRANCH   1  29
TORSDOF 13
ENDMDL
MODEL 6
REMARK VINA RESULT:    -5.990      2.358      4.633
REMARK INTER + INTRA:         -10.849
REMARK INTER:                  -9.505
REMARK INTRA:                  -1.344
REMARK UNBOUND:                -1.882
REMARK SMILES O=c1c(O[C@@H]2O[C@@H](CO)[C@@H](O)[C@@H](O)[C@@H]2O)c(-c2cc(O)c(O)c(O)c2)oc2cc(O)cc(O)c12
REMARK SMILES IDX 4 1 3 2 16 3 26 4 2 5 27 6 1 7 34 8 28 9 32 10 29 11 31 12
REMARK SMILES IDX 17 13 18 14 19 15 25 16 21 17 23 18 20 19 22 21 24 23 33 25
REMARK SMILES IDX 30 27 5 29 14 30 6 31 12 32 7 33 10 34 15 35 13 37 8 39 9 40
REMARK SMILES IDX 11 42
REMARK H PARENT 20 20 22 22 24 24 33 26 30 28 15 36 13 38 9 41 11 43
REMARK Flexibility Score: inf
ROOT
ATOM      1  O   UNL     1      13.259 -36.760  -3.448  1.00  0.00    -0.454 OA
ENDROOT
BRANCH   1   2
ATOM      2  C   UNL     1      13.246 -38.131  -3.754  1.00  0.00     0.214 A 
ATOM      3  C   UNL     1      14.212 -39.058  -3.291  1.00  0.00     0.181 A 
ATOM      4  O   UNL     1      14.133 -40.332  -3.646  1.00  0.00    -0.452 OA
ATOM      5  C   UNL     1      12.193 -38.609  -4.539  1.00  0.00     0.239 A 
ATOM      6  C   UNL     1      13.178 -40.815  -4.431  1.00  0.00     0.146 A 
ATOM      7  O   UNL     1      11.284 -37.799  -4.868  1.00  0.00    -0.285 OA
ATOM      8  C   UNL     1      12.153 -39.968  -4.938  1.00  0.00     0.111 A 
ATOM      9  C   UNL     1      13.182 -42.181  -4.725  1.00  0.00     0.094 A 
ATOM     10  C   UNL     1      11.154 -40.544  -5.781  1.00  0.00     0.134 A 
ATOM     11  C   UNL     1      12.169 -42.739  -5.496  1.00  0.00     0.123 A 
ATOM     12  C   UNL     1      11.164 -41.923  -6.020  1.00  0.00     0.093 A 
BRANCH   3  13
ATOM     13  C   UNL     1      15.263 -38.683  -2.335  1.00  0.00     0.029 A 
ATOM     14  C   UNL     1      14.931 -38.484  -0.991  1.00  0.00     0.062 A 
ATOM     15  C   UNL     1      15.909 -38.088  -0.071  1.00  0.00     0.162 A 
ATOM     16  C   UNL     1      16.594 -38.550  -2.750  1.00  0.00     0.062 A 
ATOM     17  C   UNL     1      17.233 -37.892  -0.503  1.00  0.00     0.200 A 
ATOM     18  C   UNL     1      17.563 -38.096  -1.852  1.00  0.00     0.162 A 
BRANCH  15  19
ATOM     19  O   UNL     1      15.569 -37.871   1.262  1.00  0.00    -0.504 OA
ATOM     20  H   UNL     1      14.719 -38.257   1.663  1.00  0.00     0.293 HD
ENDBRANCH  15  19
BRANCH  17  21
ATOM     21  O   UNL     1      18.212 -37.465   0.390  1.00  0.00    -0.502 OA
ATOM     22  H   UNL     1      19.201 -37.598   0.212  1.00  0.00     0.293 HD
ENDBRANCH  17  21
BRANCH  18  23
ATOM     23  O   UNL     1      18.848 -37.843  -2.325  1.00  0.00    -0.504 OA
ATOM     24  H   UNL     1      19.563 -38.557  -2.349  1.00  0.00     0.293 HD
ENDBRANCH  18  23
ENDBRANCH   3  13
BRANCH  10  25
ATOM     25  O   UNL     1      10.146 -39.817  -6.416  1.00  0.00    -0.507 OA
ATOM     26  H   UNL     1       9.261 -39.570  -6.013  1.00  0.00     0.293 HD
ENDBRANCH  10  25
BRANCH  11  27
ATOM     27  O   UNL     1      12.160 -44.108  -5.735  1.00  0.00    -0.508 OA
ATOM     28  H   UNL     1      12.908 -44.700  -5.401  1.00  0.00     0.293 HD
ENDBRANCH  11  27
ENDBRANCH   1   2
BRANCH   1  29
ATOM     29  C   UNL     1      12.742 -36.175  -2.251  1.00  0.00     0.339 C 
ATOM     30  C   UNL     1      13.512 -34.882  -1.888  1.00  0.00     0.214 C 
ATOM     31  O   UNL     1      11.354 -35.915  -2.393  1.00  0.00    -0.332 OA
ATOM     32  C   UNL     1      13.256 -33.781  -2.929  1.00  0.00     0.180 C 
ATOM     33  C   UNL     1      11.099 -34.991  -3.439  1.00  0.00     0.179 C 
ATOM     34  C   UNL     1      11.740 -33.613  -3.146  1.00  0.00     0.177 C 
BRANCH  30  35
ATOM     35  O   UNL     1      14.894 -35.126  -1.742  1.00  0.00    -0.384 OA
ATOM     36  H   UNL     1      15.143 -35.855  -2.364  1.00  0.00     0.211 HD
ENDBRANCH  30  35
BRANCH  32  37
ATOM     37  O   UNL     1      13.816 -32.576  -2.485  1.00  0.00    -0.387 OA
ATOM     38  H   UNL     1      13.368 -32.359  -1.624  1.00  0.00     0.211 HD
ENDBRANCH  32  37
BRANCH  33  39
ATOM     39  C   UNL     1       9.587 -34.882  -3.651  1.00  0.00     0.191 C 
BRANCH  39  40
ATOM     40  O   UNL     1       9.170 -35.672  -4.741  1.00  0.00    -0.394 OA
ATOM     41  H   UNL     1       9.200 -36.618  -4.438  1.00  0.00     0.210 HD
ENDBRANCH  39  40
ENDBRANCH  33  39
BRANCH  34  42
ATOM     42  O   UNL     1      11.153 -33.031  -2.004  1.00  0.00    -0.387 OA
ATOM     43  H   UNL     1      10.203 -32.846  -2.225  1.00  0.00     0.211 HD
ENDBRANCH  34  42
ENDBRANCH   1  29
TORSDOF 13
ENDMDL
MODEL 7
REMARK VINA RESULT:    -5.958      1.869      4.950
REMARK INTER + INTRA:         -10.801
REMARK INTER:                  -9.172
REMARK INTRA:                  -1.628
REMARK UNBOUND:                -1.882
REMARK SMILES O=c1c(O[C@@H]2O[C@@H](CO)[C@@H](O)[C@@H](O)[C@@H]2O)c(-c2cc(O)c(O)c(O)c2)oc2cc(O)cc(O)c12
REMARK SMILES IDX 4 1 3 2 16 3 26 4 2 5 27 6 1 7 34 8 28 9 32 10 29 11 31 12
REMARK SMILES IDX 17 13 18 14 19 15 25 16 21 17 23 18 20 19 22 21 24 23 33 25
REMARK SMILES IDX 30 27 5 29 14 30 6 31 12 32 7 33 10 34 15 35 13 37 8 39 9 40
REMARK SMILES IDX 11 42
REMARK H PARENT 20 20 22 22 24 24 33 26 30 28 15 36 13 38 9 41 11 43
REMARK Flexibility Score: inf
ROOT
ATOM      1  O   UNL     1      14.938 -37.713  -2.001  1.00  0.00    -0.454 OA
ENDROOT
BRANCH   1   2
ATOM      2  C   UNL     1      13.751 -37.817  -2.745  1.00  0.00     0.214 A 
ATOM      3  C   UNL     1      12.685 -36.887  -2.674  1.00  0.00     0.181 A 
ATOM      4  O   UNL     1      11.591 -37.075  -3.398  1.00  0.00    -0.452 OA
ATOM      5  C   UNL     1      13.635 -38.891  -3.632  1.00  0.00     0.239 A 
ATOM      6  C   UNL     1      11.423 -38.109  -4.214  1.00  0.00     0.146 A 
ATOM      7  O   UNL     1      14.625 -39.661  -3.763  1.00  0.00    -0.285 OA
ATOM      8  C   UNL     1      12.440 -39.092  -4.365  1.00  0.00     0.111 A 
ATOM      9  C   UNL     1      10.235 -38.196  -4.945  1.00  0.00     0.094 A 
ATOM     10  C   UNL     1      12.199 -40.184  -5.254  1.00  0.00     0.134 A 
ATOM     11  C   UNL     1      10.040 -39.231  -5.852  1.00  0.00     0.123 A 
ATOM     12  C   UNL     1      11.017 -40.218  -6.002  1.00  0.00     0.093 A 
BRANCH   3  13
ATOM     13  C   UNL     1      12.778 -35.646  -1.894  1.00  0.00     0.029 A 
ATOM     14  C   UNL     1      13.017 -34.435  -2.553  1.00  0.00     0.062 A 
ATOM     15  C   UNL     1      13.148 -33.246  -1.825  1.00  0.00     0.162 A 
ATOM     16  C   UNL     1      12.603 -35.659  -0.505  1.00  0.00     0.062 A 
ATOM     17  C   UNL     1      13.037 -33.272  -0.423  1.00  0.00     0.200 A 
ATOM     18  C   UNL     1      12.794 -34.488   0.234  1.00  0.00     0.162 A 
BRANCH  15  19
ATOM     19  O   UNL     1      13.407 -32.048  -2.485  1.00  0.00    -0.504 OA
ATOM     20  H   UNL     1      12.706 -31.600  -3.069  1.00  0.00     0.293 HD
ENDBRANCH  15  19
BRANCH  17  21
ATOM     21  O   UNL     1      13.199 -32.106   0.320  1.00  0.00    -0.502 OA
ATOM     22  H   UNL     1      13.568 -31.254  -0.086  1.00  0.00     0.293 HD
ENDBRANCH  17  21
BRANCH  18  23
ATOM     23  O   UNL     1      12.747 -34.558   1.623  1.00  0.00    -0.504 OA
ATOM     24  H   UNL     1      13.557 -34.376   2.200  1.00  0.00     0.293 HD
ENDBRANCH  18  23
ENDBRANCH   3  13
BRANCH  10  25
ATOM     25  O   UNL     1      13.070 -41.261  -5.431  1.00  0.00    -0.507 OA
ATOM     26  H   UNL     1      12.886 -42.076  -5.985  1.00  0.00     0.293 HD
ENDBRANCH  10  25
BRANCH  11  27
ATOM     27  O   UNL     1       8.875 -39.273  -6.608  1.00  0.00    -0.508 OA
ATOM     28  H   UNL     1       8.141 -39.936  -6.399  1.00  0.00     0.293 HD
ENDBRANCH  11  27
ENDBRANCH   1   2
BRANCH   1  29
ATOM     29  C   UNL     1      15.368 -38.635  -0.997  1.00  0.00     0.339 C 
ATOM     30  C   UNL     1      16.841 -39.053  -1.223  1.00  0.00     0.214 C 
ATOM     31  O   UNL     1      15.192 -38.071   0.294  1.00  0.00    -0.332 OA
ATOM     32  C   UNL     1      17.789 -37.863  -1.002  1.00  0.00     0.180 C 
ATOM     33  C   UNL     1      15.971 -36.897   0.461  1.00  0.00     0.179 C 
ATOM     34  C   UNL     1      17.485 -37.201   0.356  1.00  0.00     0.177 C 
BRANCH  30  35
ATOM     35  O   UNL     1      17.030 -39.617  -2.502  1.00  0.00    -0.384 OA
ATOM     36  H   UNL     1      16.283 -39.321  -3.079  1.00  0.00     0.211 HD
ENDBRANCH  30  35
BRANCH  32  37
ATOM     37  O   UNL     1      19.117 -38.307  -1.036  1.00  0.00    -0.387 OA
ATOM     38  H   UNL     1      19.461 -38.093  -1.944  1.00  0.00     0.211 HD
ENDBRANCH  32  37
BRANCH  33  39
ATOM     39  C   UNL     1      15.613 -36.248   1.800  1.00  0.00     0.191 C 
BRANCH  39  40
ATOM     40  O   UNL     1      15.401 -37.223   2.795  1.00  0.00    -0.394 OA
ATOM     41  H   UNL     1      14.477 -37.093   3.133  1.00  0.00     0.210 HD
ENDBRANCH  39  40
ENDBRANCH  33  39
BRANCH  34  42
ATOM     42  O   UNL     1      17.890 -38.051   1.406  1.00  0.00    -0.387 OA
ATOM     43  H   UNL     1      17.909 -38.975   1.044  1.00  0.00     0.211 HD
ENDBRANCH  34  42
ENDBRANCH   1  29
TORSDOF 13
ENDMDL
MODEL 8
REMARK VINA RESULT:    -5.919      1.411      2.070
REMARK INTER + INTRA:         -10.741
REMARK INTER:                  -9.619
REMARK INTRA:                  -1.122
REMARK UNBOUND:                -1.882
REMARK SMILES O=c1c(O[C@@H]2O[C@@H](CO)[C@@H](O)[C@@H](O)[C@@H]2O)c(-c2cc(O)c(O)c(O)c2)oc2cc(O)cc(O)c12
REMARK SMILES IDX 4 1 3 2 16 3 26 4 2 5 27 6 1 7 34 8 28 9 32 10 29 11 31 12
REMARK SMILES IDX 17 13 18 14 19 15 25 16 21 17 23 18 20 19 22 21 24 23 33 25
REMARK SMILES IDX 30 27 5 29 14 30 6 31 12 32 7 33 10 34 15 35 13 37 8 39 9 40
REMARK SMILES IDX 11 42
REMARK H PARENT 20 20 22 22 24 24 33 26 30 28 15 36 13 38 9 41 11 43
REMARK Flexibility Score: inf
ROOT
ATOM      1  O   UNL     1      13.474 -36.386  -1.372  1.00  0.00    -0.454 OA
ENDROOT
BRANCH   1   2
ATOM      2  C   UNL     1      13.163 -37.265  -2.422  1.00  0.00     0.214 A 
ATOM      3  C   UNL     1      14.125 -38.021  -3.137  1.00  0.00     0.181 A 
ATOM      4  O   UNL     1      13.744 -38.811  -4.130  1.00  0.00    -0.452 OA
ATOM      5  C   UNL     1      11.815 -37.422  -2.758  1.00  0.00     0.239 A 
ATOM      6  C   UNL     1      12.479 -38.949  -4.511  1.00  0.00     0.146 A 
ATOM      7  O   UNL     1      10.956 -36.822  -2.056  1.00  0.00    -0.285 OA
ATOM      8  C   UNL     1      11.437 -38.243  -3.848  1.00  0.00     0.111 A 
ATOM      9  C   UNL     1      12.190 -39.827  -5.559  1.00  0.00     0.094 A 
ATOM     10  C   UNL     1      10.097 -38.428  -4.307  1.00  0.00     0.134 A 
ATOM     11  C   UNL     1      10.875 -40.044  -5.954  1.00  0.00     0.123 A 
ATOM     12  C   UNL     1       9.838 -39.346  -5.330  1.00  0.00     0.093 A 
BRANCH   3  13
ATOM     13  C   UNL     1      15.544 -38.044  -2.757  1.00  0.00     0.029 A 
ATOM     14  C   UNL     1      16.457 -37.250  -3.458  1.00  0.00     0.062 A 
ATOM     15  C   UNL     1      17.820 -37.287  -3.138  1.00  0.00     0.162 A 
ATOM     16  C   UNL     1      15.985 -38.832  -1.686  1.00  0.00     0.062 A 
ATOM     17  C   UNL     1      18.270 -38.128  -2.104  1.00  0.00     0.200 A 
ATOM     18  C   UNL     1      17.350 -38.921  -1.401  1.00  0.00     0.162 A 
BRANCH  15  19
ATOM     19  O   UNL     1      18.727 -36.510  -3.853  1.00  0.00    -0.504 OA
ATOM     20  H   UNL     1      18.676 -35.495  -3.850  1.00  0.00     0.293 HD
ENDBRANCH  15  19
BRANCH  17  21
ATOM     21  O   UNL     1      19.625 -38.204  -1.795  1.00  0.00    -0.502 OA
ATOM     22  H   UNL     1      20.035 -39.023  -1.361  1.00  0.00     0.293 HD
ENDBRANCH  17  21
BRANCH  18  23
ATOM     23  O   UNL     1      17.772 -39.814  -0.420  1.00  0.00    -0.504 OA
ATOM     24  H   UNL     1      18.338 -40.623  -0.635  1.00  0.00     0.293 HD
ENDBRANCH  18  23
ENDBRANCH   3  13
BRANCH  10  25
ATOM     25  O   UNL     1       8.992 -37.735  -3.809  1.00  0.00    -0.507 OA
ATOM     26  H   UNL     1       8.821 -37.525  -2.843  1.00  0.00     0.293 HD
ENDBRANCH  10  25
BRANCH  11  27
ATOM     27  O   UNL     1      10.601 -40.959  -6.962  1.00  0.00    -0.508 OA
ATOM     28  H   UNL     1      11.133 -40.963  -7.822  1.00  0.00     0.293 HD
ENDBRANCH  11  27
ENDBRANCH   1   2
BRANCH   1  29
ATOM     29  C   UNL     1      14.302 -35.226  -1.482  1.00  0.00     0.339 C 
ATOM     30  C   UNL     1      13.576 -34.098  -2.254  1.00  0.00     0.214 C 
ATOM     31  O   UNL     1      14.699 -34.784  -0.192  1.00  0.00    -0.332 OA
ATOM     32  C   UNL     1      12.376 -33.570  -1.453  1.00  0.00     0.180 C 
ATOM     33  C   UNL     1      13.582 -34.412   0.600  1.00  0.00     0.179 C 
ATOM     34  C   UNL     1      12.821 -33.215  -0.021  1.00  0.00     0.177 C 
BRANCH  30  35
ATOM     35  O   UNL     1      13.177 -34.523  -3.539  1.00  0.00    -0.384 OA
ATOM     36  H   UNL     1      12.370 -35.087  -3.437  1.00  0.00     0.211 HD
ENDBRANCH  30  35
BRANCH  32  37
ATOM     37  O   UNL     1      11.849 -32.437  -2.088  1.00  0.00    -0.387 OA
ATOM     38  H   UNL     1      11.291 -31.970  -1.409  1.00  0.00     0.211 HD
ENDBRANCH  32  37
BRANCH  33  39
ATOM     39  C   UNL     1      14.058 -34.107   2.022  1.00  0.00     0.191 C 
BRANCH  39  40
ATOM     40  O   UNL     1      15.137 -33.201   2.011  1.00  0.00    -0.394 OA
ATOM     41  H   UNL     1      15.363 -33.034   1.059  1.00  0.00     0.210 HD
ENDBRANCH  39  40
ENDBRANCH  33  39
BRANCH  34  42
ATOM     42  O   UNL     1      13.642 -32.069  -0.043  1.00  0.00    -0.387 OA
ATOM     43  H   UNL     1      13.068 -31.293   0.190  1.00  0.00     0.211 HD
ENDBRANCH  34  42
ENDBRANCH   1  29
TORSDOF 13
ENDMDL
MODEL 9
REMARK VINA RESULT:    -5.748      2.914      6.052
REMARK INTER + INTRA:         -10.486
REMARK INTER:                  -8.419
REMARK INTRA:                  -2.067
REMARK UNBOUND:                -1.882
REMARK SMILES O=c1c(O[C@@H]2O[C@@H](CO)[C@@H](O)[C@@H](O)[C@@H]2O)c(-c2cc(O)c(O)c(O)c2)oc2cc(O)cc(O)c12
REMARK SMILES IDX 4 1 3 2 16 3 26 4 2 5 27 6 1 7 34 8 28 9 32 10 29 11 31 12
REMARK SMILES IDX 17 13 18 14 19 15 25 16 21 17 23 18 20 19 22 21 24 23 33 25
REMARK SMILES IDX 30 27 5 29 14 30 6 31 12 32 7 33 10 34 15 35 13 37 8 39 9 40
REMARK SMILES IDX 11 42
REMARK H PARENT 20 20 22 22 24 24 33 26 30 28 15 36 13 38 9 41 11 43
REMARK Flexibility Score: inf
ROOT
ATOM      1  O   UNL     1      14.065 -38.075  -3.025  1.00  0.00    -0.454 OA
ENDROOT
BRANCH   1   2
ATOM      2  C   UNL     1      12.986 -38.974  -2.998  1.00  0.00     0.214 A 
ATOM      3  C   UNL     1      11.642 -38.594  -2.762  1.00  0.00     0.181 A 
ATOM      4  O   UNL     1      10.687 -39.513  -2.733  1.00  0.00    -0.452 OA
ATOM      5  C   UNL     1      13.259 -40.321  -3.250  1.00  0.00     0.239 A 
ATOM      6  C   UNL     1      10.914 -40.809  -2.918  1.00  0.00     0.146 A 
ATOM      7  O   UNL     1      14.441 -40.640  -3.554  1.00  0.00    -0.285 OA
ATOM      8  C   UNL     1      12.228 -41.290  -3.175  1.00  0.00     0.111 A 
ATOM      9  C   UNL     1       9.828 -41.687  -2.886  1.00  0.00     0.094 A 
ATOM     10  C   UNL     1      12.410 -42.695  -3.361  1.00  0.00     0.134 A 
ATOM     11  C   UNL     1      10.011 -43.043  -3.131  1.00  0.00     0.123 A 
ATOM     12  C   UNL     1      11.295 -43.541  -3.365  1.00  0.00     0.093 A 
BRANCH   3  13
ATOM     13  C   UNL     1      11.233 -37.188  -2.643  1.00  0.00     0.029 A 
ATOM     14  C   UNL     1      10.626 -36.554  -3.732  1.00  0.00     0.062 A 
ATOM     15  C   UNL     1      10.265 -35.203  -3.655  1.00  0.00     0.162 A 
ATOM     16  C   UNL     1      11.421 -36.487  -1.446  1.00  0.00     0.062 A 
ATOM     17  C   UNL     1      10.514 -34.483  -2.472  1.00  0.00     0.200 A 
ATOM     18  C   UNL     1      11.120 -35.124  -1.381  1.00  0.00     0.162 A 
BRANCH  15  19
ATOM     19  O   UNL     1       9.679 -34.573  -4.749  1.00  0.00    -0.504 OA
ATOM     20  H   UNL     1       9.547 -33.566  -4.775  1.00  0.00     0.293 HD
ENDBRANCH  15  19
BRANCH  17  21
ATOM     21  O   UNL     1      10.193 -33.131  -2.389  1.00  0.00    -0.502 OA
ATOM     22  H   UNL     1       9.264 -32.782  -2.597  1.00  0.00     0.293 HD
ENDBRANCH  17  21
BRANCH  18  23
ATOM     23  O   UNL     1      11.443 -34.422  -0.223  1.00  0.00    -0.504 OA
ATOM     24  H   UNL     1      12.276 -34.621   0.314  1.00  0.00     0.293 HD
ENDBRANCH  18  23
ENDBRANCH   3  13
BRANCH  10  25
ATOM     25  O   UNL     1      13.651 -43.311  -3.532  1.00  0.00    -0.507 OA
ATOM     26  H   UNL     1      14.500 -43.053  -3.065  1.00  0.00     0.293 HD
ENDBRANCH  10  25
BRANCH  11  27
ATOM     27  O   UNL     1       8.913 -43.894  -3.147  1.00  0.00    -0.508 OA
ATOM     28  H   UNL     1       8.525 -44.229  -4.018  1.00  0.00     0.293 HD
ENDBRANCH  11  27
ENDBRANCH   1   2
BRANCH   1  29
ATOM     29  C   UNL     1      14.890 -37.740  -1.906  1.00  0.00     0.339 C 
ATOM     30  C   UNL     1      16.385 -37.969  -2.232  1.00  0.00     0.214 C 
ATOM     31  O   UNL     1      14.657 -36.396  -1.512  1.00  0.00    -0.332 OA
ATOM     32  C   UNL     1      16.871 -36.983  -3.306  1.00  0.00     0.180 C 
ATOM     33  C   UNL     1      14.986 -35.483  -2.548  1.00  0.00     0.179 C 
ATOM     34  C   UNL     1      16.492 -35.545  -2.901  1.00  0.00     0.177 C 
BRANCH  30  35
ATOM     35  O   UNL     1      16.632 -39.302  -2.624  1.00  0.00    -0.384 OA
ATOM     36  H   UNL     1      17.145 -39.282  -3.470  1.00  0.00     0.211 HD
ENDBRANCH  30  35
BRANCH  32  37
ATOM     37  O   UNL     1      18.260 -37.092  -3.451  1.00  0.00    -0.387 OA
ATOM     38  H   UNL     1      18.538 -36.351  -4.054  1.00  0.00     0.211 HD
ENDBRANCH  32  37
BRANCH  33  39
ATOM     39  C   UNL     1      14.558 -34.075  -2.125  1.00  0.00     0.191 C 
BRANCH  39  40
ATOM     40  O   UNL     1      14.489 -33.966  -0.722  1.00  0.00    -0.394 OA
ATOM     41  H   UNL     1      13.844 -33.238  -0.522  1.00  0.00     0.210 HD
ENDBRANCH  39  40
ENDBRANCH  33  39
BRANCH  34  42
ATOM     42  O   UNL     1      17.272 -35.134  -1.800  1.00  0.00    -0.387 OA
ATOM     43  H   UNL     1      16.821 -34.346  -1.400  1.00  0.00     0.211 HD
ENDBRANCH  34  42
ENDBRANCH   1  29
TORSDOF 13
ENDMDL
