MODEL 1
REMARK VINA RESULT:    -1.808      0.000      0.000
REMARK INTER + INTRA:          -1.808
REMARK INTER:                  -1.808
REMARK INTRA:                   0.000
REMARK UNBOUND:                 0.000
REMARK SMILES CC(=O)[O-]
REMARK SMILES IDX 1 1 2 2 3 3 4 4
REMARK H PARENT
REMARK Flexibility Score: inf
ROOT
ATOM      1  C   UNL     1      54.191  27.648  49.936  1.00  0.00     0.063 C 
ATOM      2  C   UNL     1      54.744  26.312  49.571  1.00  0.00     0.038 C 
ATOM      3  O   UNL     1      54.051  25.505  48.897  1.00  0.00    -0.550 OA
ATOM      4  O   UNL     1      56.043  25.975  49.928  1.00  0.00    -0.550 OA
ENDROOT
TORSDOF 0
ENDMDL
MODEL 2
REMARK VINA RESULT:    -1.797     17.043     17.626
REMARK INTER + INTRA:          -1.797
REMARK INTER:                  -1.797
REMARK INTRA:                   0.000
REMARK UNBOUND:                 0.000
REMARK SMILES CC(=O)[O-]
REMARK SMILES IDX 1 1 2 2 3 3 4 4
REMARK H PARENT
REMARK Flexibility Score: inf
ROOT
ATOM      1  C   UNL     1      62.901  35.928  61.336  1.00  0.00     0.063 C 
ATOM      2  C   UNL     1      64.172  35.179  61.552  1.00  0.00     0.038 C 
ATOM      3  O   UNL     1      64.216  33.938  61.348  1.00  0.00    -0.550 OA
ATOM      4  O   UNL     1      65.324  35.857  61.930  1.00  0.00    -0.550 OA
ENDROOT
TORSDOF 0
ENDMDL
MODEL 3
REMARK VINA RESULT:    -1.793      4.788      5.219
REMARK INTER + INTRA:          -1.793
REMARK INTER:                  -1.793
REMARK INTRA:                   0.000
REMARK UNBOUND:                 0.000
REMARK SMILES CC(=O)[O-]
REMARK SMILES IDX 1 1 2 2 3 3 4 4
REMARK H PARENT
REMARK Flexibility Score: inf
ROOT
ATOM      1  C   UNL     1      59.022  28.817  49.271  1.00  0.00     0.063 C 
ATOM      2  C   UNL     1      59.788  27.539  49.236  1.00  0.00     0.038 C 
ATOM      3  O   UNL     1      59.180  26.437  49.250  1.00  0.00    -0.550 OA
ATOM      4  O   UNL     1      61.173  27.560  49.135  1.00  0.00    -0.550 OA
ENDROOT
TORSDOF 0
ENDMDL
MODEL 4
REMARK VINA RESULT:    -1.787      0.097      1.622
REMARK INTER + INTRA:          -1.787
REMARK INTER:                  -1.787
REMARK INTRA:                   0.000
REMARK UNBOUND:                 0.000
REMARK SMILES CC(=O)[O-]
REMARK SMILES IDX 1 1 2 2 3 3 4 4
REMARK H PARENT
REMARK Flexibility Score: inf
ROOT
ATOM      1  C   UNL     1      54.274  27.649  50.004  1.00  0.00     0.063 C 
ATOM      2  C   UNL     1      54.791  26.313  49.590  1.00  0.00     0.038 C 
ATOM      3  O   UNL     1      55.966  25.971  49.887  1.00  0.00    -0.550 OA
ATOM      4  O   UNL     1      53.962  25.422  48.922  1.00  0.00    -0.550 OA
ENDROOT
TORSDOF 0
ENDMDL
MODEL 5
REMARK VINA RESULT:    -1.737     14.593     14.931
REMARK INTER + INTRA:          -1.737
REMARK INTER:                  -1.737
REMARK INTRA:                   0.000
REMARK UNBOUND:                 0.000
REMARK SMILES CC(=O)[O-]
REMARK SMILES IDX 1 1 2 2 3 3 4 4
REMARK H PARENT
REMARK Flexibility Score: inf
ROOT
ATOM      1  C   UNL     1      61.195  30.829  61.826  1.00  0.00     0.063 C 
ATOM      2  C   UNL     1      62.401  29.955  61.878  1.00  0.00     0.038 C 
ATOM      3  O   UNL     1      62.273  28.705  61.949  1.00  0.00    -0.550 OA
ATOM      4  O   UNL     1      63.670  30.514  61.795  1.00  0.00    -0.550 OA
ENDROOT
TORSDOF 0
ENDMDL
MODEL 6
REMARK VINA RESULT:    -1.732     21.386     21.948
REMARK INTER + INTRA:          -1.732
REMARK INTER:                  -1.732
REMARK INTRA:                   0.000
REMARK UNBOUND:                 0.000
REMARK SMILES CC(=O)[O-]
REMARK SMILES IDX 1 1 2 2 3 3 4 4
REMARK H PARENT
REMARK Flexibility Score: inf
ROOT
ATOM      1  C   UNL     1      71.976  31.885  60.886  1.00  0.00     0.063 C 
ATOM      2  C   UNL     1      72.576  30.711  61.582  1.00  0.00     0.038 C 
ATOM      3  O   UNL     1      72.629  29.594  61.004  1.00  0.00    -0.550 OA
ATOM      4  O   UNL     1      73.125  30.858  62.849  1.00  0.00    -0.550 OA
ENDROOT
TORSDOF 0
ENDMDL
MODEL 7
REMARK VINA RESULT:    -1.729     21.012     21.557
REMARK INTER + INTRA:          -1.729
REMARK INTER:                  -1.729
REMARK INTRA:                   0.000
REMARK UNBOUND:                 0.000
REMARK SMILES CC(=O)[O-]
REMARK SMILES IDX 1 1 2 2 3 3 4 4
REMARK H PARENT
REMARK Flexibility Score: inf
ROOT
ATOM      1  C   UNL     1      73.096  30.718  62.410  1.00  0.00     0.063 C 
ATOM      2  C   UNL     1      71.900  31.034  61.578  1.00  0.00     0.038 C 
ATOM      3  O   UNL     1      70.875  30.307  61.645  1.00  0.00    -0.550 OA
ATOM      4  O   UNL     1      71.894  32.161  60.767  1.00  0.00    -0.550 OA
ENDROOT
TORSDOF 0
ENDMDL
MODEL 8
REMARK VINA RESULT:    -1.663     20.451     21.050
REMARK INTER + INTRA:          -1.663
REMARK INTER:                  -1.663
REMARK INTRA:                   0.000
REMARK UNBOUND:                 0.000
REMARK SMILES CC(=O)[O-]
REMARK SMILES IDX 1 1 2 2 3 3 4 4
REMARK H PARENT
REMARK Flexibility Score: inf
ROOT
ATOM      1  C   UNL     1      72.704  31.196  61.208  1.00  0.00     0.063 C 
ATOM      2  C   UNL     1      71.634  32.027  60.586  1.00  0.00     0.038 C 
ATOM      3  O   UNL     1      71.608  33.270  60.778  1.00  0.00    -0.550 OA
ATOM      4  O   UNL     1      70.693  31.438  59.751  1.00  0.00    -0.550 OA
ENDROOT
TORSDOF 0
ENDMDL
MODEL 9
REMARK VINA RESULT:    -1.662     20.887     21.474
REMARK INTER + INTRA:          -1.662
REMARK INTER:                  -1.662
REMARK INTRA:                   0.000
REMARK UNBOUND:                 0.000
REMARK SMILES CC(=O)[O-]
REMARK SMILES IDX 1 1 2 2 3 3 4 4
REMARK H PARENT
REMARK Flexibility Score: inf
ROOT
ATOM      1  C   UNL     1      70.748  30.099  61.298  1.00  0.00     0.063 C 
ATOM      2  C   UNL     1      71.939  30.961  61.544  1.00  0.00     0.038 C 
ATOM      3  O   UNL     1      72.845  30.578  62.330  1.00  0.00    -0.550 OA
ATOM      4  O   UNL     1      72.079  32.166  60.867  1.00  0.00    -0.550 OA
ENDROOT
TORSDOF 0
ENDMDL
