MODEL 1
REMARK VINA RESULT:    -5.050      0.000      0.000
REMARK INTER + INTRA:         -16.814
REMARK INTER:                 -12.726
REMARK INTRA:                  -4.088
REMARK UNBOUND:                -4.088
REMARK SMILES CCCCCCCCCCCCCCCCCCCCCCCCCCCC(=O)[O-]
REMARK SMILES IDX 15 1 16 2 17 3 18 4 19 5 20 6 21 7 22 8 23 9 24 10 25 11
REMARK SMILES IDX 26 12 27 13 28 14 29 15 30 16 14 17 13 18 12 19 11 20 10 21
REMARK SMILES IDX 9 22 8 23 7 24 6 25 5 26 4 27 3 28 2 29 1 30
REMARK H PARENT
REMARK Flexibility Score: inf
ROOT
ATOM      1  C   UNL     1      22.260  20.622   7.770  1.00  0.00     0.000 C 
ENDROOT
BRANCH   1   2
ATOM      2  C   UNL     1      23.031  19.636   6.874  1.00  0.00     0.000 C 
BRANCH   2   3
ATOM      3  C   UNL     1      22.785  19.844   5.366  1.00  0.00     0.000 C 
BRANCH   3   4
ATOM      4  C   UNL     1      23.769  19.044   4.494  1.00  0.00     0.000 C 
BRANCH   4   5
ATOM      5  C   UNL     1      24.643  18.072   5.316  1.00  0.00     0.000 C 
BRANCH   5   6
ATOM      6  C   UNL     1      25.403  17.037   4.466  1.00  0.00     0.000 C 
BRANCH   6   7
ATOM      7  C   UNL     1      24.675  15.696   4.248  1.00  0.00     0.000 C 
BRANCH   7   8
ATOM      8  C   UNL     1      23.137  15.767   4.318  1.00  0.00     0.000 C 
BRANCH   8   9
ATOM      9  C   UNL     1      22.502  14.927   5.441  1.00  0.00     0.000 C 
BRANCH   9  10
ATOM     10  C   UNL     1      21.750  15.768   6.495  1.00  0.00     0.000 C 
BRANCH  10  11
ATOM     11  C   UNL     1      20.832  16.821   5.853  1.00  0.00     0.000 C 
BRANCH  11  12
ATOM     12  C   UNL     1      19.482  16.237   5.407  1.00  0.00     0.006 C 
BRANCH  12  13
ATOM     13  C   UNL     1      18.428  16.270   6.521  1.00  0.00     0.053 C 
BRANCH  13  14
ATOM     14  C   UNL     1      18.023  14.879   6.898  1.00  0.00     0.041 C 
ATOM     15  O   UNL     1      18.388  14.388   7.999  1.00  0.00    -0.550 OA
ATOM     16  O   UNL     1      17.209  14.137   6.050  1.00  0.00    -0.550 OA
ENDBRANCH  13  14
ENDBRANCH  12  13
ENDBRANCH  11  12
ENDBRANCH  10  11
ENDBRANCH   9  10
ENDBRANCH   8   9
ENDBRANCH   7   8
ENDBRANCH   6   7
ENDBRANCH   5   6
ENDBRANCH   4   5
ENDBRANCH   3   4
ENDBRANCH   2   3
ENDBRANCH   1   2
BRANCH   1  17
ATOM     17  C   UNL     1      21.835  21.900   7.028  1.00  0.00     0.000 C 
BRANCH  17  18
ATOM     18  C   UNL     1      21.586  23.080   7.983  1.00  0.00     0.000 C 
BRANCH  18  19
ATOM     19  C   UNL     1      22.017  22.775   9.428  1.00  0.00     0.000 C 
BRANCH  19  20
ATOM     20  C   UNL     1      21.111  23.444  10.479  1.00  0.00     0.000 C 
BRANCH  20  21
ATOM     21  C   UNL     1      19.756  22.753  10.718  1.00  0.00     0.000 C 
BRANCH  21  22
ATOM     22  C   UNL     1      18.556  23.660  10.401  1.00  0.00    -0.000 C 
BRANCH  22  23
ATOM     23  C   UNL     1      18.970  25.041   9.861  1.00  0.00    -0.000 C 
BRANCH  23  24
ATOM     24  C   UNL     1      18.465  25.381   8.447  1.00  0.00    -0.000 C 
BRANCH  24  25
ATOM     25  C   UNL     1      17.008  24.948   8.209  1.00  0.00    -0.000 C 
BRANCH  25  26
ATOM     26  C   UNL     1      16.876  23.853   7.135  1.00  0.00    -0.000 C 
BRANCH  26  27
ATOM     27  C   UNL     1      18.202  23.385   6.508  1.00  0.00    -0.000 C 
BRANCH  27  28
ATOM     28  C   UNL     1      18.287  21.859   6.351  1.00  0.00    -0.000 C 
BRANCH  28  29
ATOM     29  C   UNL     1      18.446  21.174   7.713  1.00  0.00    -0.003 C 
ATOM     30  C   UNL     1      18.360  19.655   7.578  1.00  0.00     0.004 C 
ENDBRANCH  28  29
ENDBRANCH  27  28
ENDBRANCH  26  27
ENDBRANCH  25  26
ENDBRANCH  24  25
ENDBRANCH  23  24
ENDBRANCH  22  23
ENDBRANCH  21  22
ENDBRANCH  20  21
ENDBRANCH  19  20
ENDBRANCH  18  19
ENDBRANCH  17  18
ENDBRANCH   1  17
TORSDOF 26
ENDMDL
MODEL 2
REMARK VINA RESULT:    -4.803      2.788      4.836
REMARK INTER + INTRA:         -16.192
REMARK INTER:                 -11.839
REMARK INTRA:                  -4.352
REMARK UNBOUND:                -4.088
REMARK SMILES CCCCCCCCCCCCCCCCCCCCCCCCCCCC(=O)[O-]
REMARK SMILES IDX 15 1 16 2 17 3 18 4 19 5 20 6 21 7 22 8 23 9 24 10 25 11
REMARK SMILES IDX 26 12 27 13 28 14 29 15 30 16 14 17 13 18 12 19 11 20 10 21
REMARK SMILES IDX 9 22 8 23 7 24 6 25 5 26 4 27 3 28 2 29 1 30
REMARK H PARENT
REMARK Flexibility Score: inf
ROOT
ATOM      1  C   UNL     1      21.649  21.300   5.584  1.00  0.00     0.000 C 
ENDROOT
BRANCH   1   2
ATOM      2  C   UNL     1      20.994  21.163   4.197  1.00  0.00     0.000 C 
BRANCH   2   3
ATOM      3  C   UNL     1      20.434  19.755   3.912  1.00  0.00     0.000 C 
BRANCH   3   4
ATOM      4  C   UNL     1      18.896  19.720   3.925  1.00  0.00     0.000 C 
BRANCH   4   5
ATOM      5  C   UNL     1      18.324  19.050   5.193  1.00  0.00     0.000 C 
BRANCH   5   6
ATOM      6  C   UNL     1      19.396  18.500   6.152  1.00  0.00     0.000 C 
BRANCH   6   7
ATOM      7  C   UNL     1      19.041  17.175   6.854  1.00  0.00     0.000 C 
BRANCH   7   8
ATOM      8  C   UNL     1      19.493  15.901   6.114  1.00  0.00     0.000 C 
BRANCH   8   9
ATOM      9  C   UNL     1      20.376  16.151   4.878  1.00  0.00     0.000 C 
BRANCH   9  10
ATOM     10  C   UNL     1      21.884  15.953   5.144  1.00  0.00     0.000 C 
BRANCH  10  11
ATOM     11  C   UNL     1      22.739  17.064   4.513  1.00  0.00     0.000 C 
BRANCH  11  12
ATOM     12  C   UNL     1      23.742  17.676   5.503  1.00  0.00     0.006 C 
BRANCH  12  13
ATOM     13  C   UNL     1      25.080  18.032   4.843  1.00  0.00     0.053 C 
BRANCH  13  14
ATOM     14  C   UNL     1      25.986  16.841   4.824  1.00  0.00     0.041 C 
ATOM     15  O   UNL     1      25.571  15.734   4.390  1.00  0.00    -0.550 OA
ATOM     16  O   UNL     1      27.303  16.961   5.251  1.00  0.00    -0.550 OA
ENDBRANCH  13  14
ENDBRANCH  12  13
ENDBRANCH  11  12
ENDBRANCH  10  11
ENDBRANCH   9  10
ENDBRANCH   8   9
ENDBRANCH   7   8
ENDBRANCH   6   7
ENDBRANCH   5   6
ENDBRANCH   4   5
ENDBRANCH   3   4
ENDBRANCH   2   3
ENDBRANCH   1   2
BRANCH   1  17
ATOM     17  C   UNL     1      20.796  22.111   6.573  1.00  0.00     0.000 C 
BRANCH  17  18
ATOM     18  C   UNL     1      19.502  22.644   5.935  1.00  0.00     0.000 C 
BRANCH  18  19
ATOM     19  C   UNL     1      18.249  22.302   6.759  1.00  0.00     0.000 C 
BRANCH  19  20
ATOM     20  C   UNL     1      17.149  23.375   6.653  1.00  0.00     0.000 C 
BRANCH  20  21
ATOM     21  C   UNL     1      17.019  24.309   7.870  1.00  0.00     0.000 C 
BRANCH  21  22
ATOM     22  C   UNL     1      18.132  25.367   7.935  1.00  0.00    -0.000 C 
BRANCH  22  23
ATOM     23  C   UNL     1      18.300  25.978   9.338  1.00  0.00    -0.000 C 
BRANCH  23  24
ATOM     24  C   UNL     1      19.345  25.296  10.241  1.00  0.00    -0.000 C 
BRANCH  24  25
ATOM     25  C   UNL     1      20.108  24.167   9.528  1.00  0.00    -0.000 C 
BRANCH  25  26
ATOM     26  C   UNL     1      19.805  22.775  10.114  1.00  0.00    -0.000 C 
BRANCH  26  27
ATOM     27  C   UNL     1      18.501  22.676  10.928  1.00  0.00    -0.000 C 
BRANCH  27  28
ATOM     28  C   UNL     1      17.957  21.242  11.018  1.00  0.00    -0.000 C 
BRANCH  28  29
ATOM     29  C   UNL     1      16.924  20.977   9.917  1.00  0.00    -0.003 C 
ATOM     30  C   UNL     1      17.291  19.736   9.107  1.00  0.00     0.004 C 
ENDBRANCH  28  29
ENDBRANCH  27  28
ENDBRANCH  26  27
ENDBRANCH  25  26
ENDBRANCH  24  25
ENDBRANCH  23  24
ENDBRANCH  22  23
ENDBRANCH  21  22
ENDBRANCH  20  21
ENDBRANCH  19  20
ENDBRANCH  18  19
ENDBRANCH  17  18
ENDBRANCH   1  17
TORSDOF 26
ENDMDL
MODEL 3
REMARK VINA RESULT:    -4.611      5.164      7.473
REMARK INTER + INTRA:         -15.708
REMARK INTER:                 -12.906
REMARK INTRA:                  -2.802
REMARK UNBOUND:                -4.088
REMARK SMILES CCCCCCCCCCCCCCCCCCCCCCCCCCCC(=O)[O-]
REMARK SMILES IDX 15 1 16 2 17 3 18 4 19 5 20 6 21 7 22 8 23 9 24 10 25 11
REMARK SMILES IDX 26 12 27 13 28 14 29 15 30 16 14 17 13 18 12 19 11 20 10 21
REMARK SMILES IDX 9 22 8 23 7 24 6 25 5 26 4 27 3 28 2 29 1 30
REMARK H PARENT
REMARK Flexibility Score: inf
ROOT
ATOM      1  C   UNL     1      21.574  19.934   5.836  1.00  0.00     0.000 C 
ENDROOT
BRANCH   1   2
ATOM      2  C   UNL     1      22.640  19.631   6.905  1.00  0.00     0.000 C 
BRANCH   2   3
ATOM      3  C   UNL     1      23.932  19.012   6.335  1.00  0.00     0.000 C 
BRANCH   3   4
ATOM      4  C   UNL     1      23.651  17.972   5.236  1.00  0.00     0.000 C 
BRANCH   4   5
ATOM      5  C   UNL     1      24.615  18.096   4.036  1.00  0.00     0.000 C 
BRANCH   5   6
ATOM      6  C   UNL     1      25.604  16.923   3.899  1.00  0.00     0.000 C 
BRANCH   6   7
ATOM      7  C   UNL     1      26.708  16.859   4.972  1.00  0.00     0.000 C 
BRANCH   7   8
ATOM      8  C   UNL     1      28.141  16.694   4.427  1.00  0.00     0.000 C 
BRANCH   8   9
ATOM      9  C   UNL     1      28.677  15.251   4.449  1.00  0.00     0.000 C 
BRANCH   9  10
ATOM     10  C   UNL     1      29.941  15.073   5.317  1.00  0.00     0.000 C 
BRANCH  10  11
ATOM     11  C   UNL     1      31.071  16.031   4.906  1.00  0.00     0.000 C 
BRANCH  11  12
ATOM     12  C   UNL     1      32.363  15.293   4.521  1.00  0.00     0.006 C 
BRANCH  12  13
ATOM     13  C   UNL     1      33.388  15.264   5.663  1.00  0.00     0.053 C 
BRANCH  13  14
ATOM     14  C   UNL     1      33.655  13.855   6.090  1.00  0.00     0.041 C 
ATOM     15  O   UNL     1      34.668  13.584   6.788  1.00  0.00    -0.550 OA
ATOM     16  O   UNL     1      32.765  12.844   5.749  1.00  0.00    -0.550 OA
ENDBRANCH  13  14
ENDBRANCH  12  13
ENDBRANCH  11  12
ENDBRANCH  10  11
ENDBRANCH   9  10
ENDBRANCH   8   9
ENDBRANCH   7   8
ENDBRANCH   6   7
ENDBRANCH   5   6
ENDBRANCH   4   5
ENDBRANCH   3   4
ENDBRANCH   2   3
ENDBRANCH   1   2
BRANCH   1  17
ATOM     17  C   UNL     1      21.380  21.439   5.591  1.00  0.00     0.000 C 
BRANCH  17  18
ATOM     18  C   UNL     1      21.261  22.238   6.900  1.00  0.00     0.000 C 
BRANCH  18  19
ATOM     19  C   UNL     1      19.993  23.108   6.952  1.00  0.00     0.000 C 
BRANCH  19  20
ATOM     20  C   UNL     1      18.821  22.512   6.150  1.00  0.00     0.000 C 
BRANCH  20  21
ATOM     21  C   UNL     1      17.692  21.892   6.994  1.00  0.00     0.000 C 
BRANCH  21  22
ATOM     22  C   UNL     1      18.027  20.479   7.500  1.00  0.00    -0.000 C 
BRANCH  22  23
ATOM     23  C   UNL     1      18.343  20.439   9.006  1.00  0.00    -0.000 C 
BRANCH  23  24
ATOM     24  C   UNL     1      17.131  20.584   9.944  1.00  0.00    -0.000 C 
BRANCH  24  25
ATOM     25  C   UNL     1      17.066  21.957  10.634  1.00  0.00    -0.000 C 
BRANCH  25  26
ATOM     26  C   UNL     1      18.458  22.527  10.966  1.00  0.00    -0.000 C 
BRANCH  26  27
ATOM     27  C   UNL     1      18.837  23.815  10.213  1.00  0.00    -0.000 C 
BRANCH  27  28
ATOM     28  C   UNL     1      17.615  24.634   9.769  1.00  0.00    -0.000 C 
BRANCH  28  29
ATOM     29  C   UNL     1      17.992  25.629   8.666  1.00  0.00    -0.003 C 
ATOM     30  C   UNL     1      19.025  26.637   9.164  1.00  0.00     0.004 C 
ENDBRANCH  28  29
ENDBRANCH  27  28
ENDBRANCH  26  27
ENDBRANCH  25  26
ENDBRANCH  24  25
ENDBRANCH  23  24
ENDBRANCH  22  23
ENDBRANCH  21  22
ENDBRANCH  20  21
ENDBRANCH  19  20
ENDBRANCH  18  19
ENDBRANCH  17  18
ENDBRANCH   1  17
TORSDOF 26
ENDMDL
MODEL 4
REMARK VINA RESULT:    -4.601      4.805     11.498
REMARK INTER + INTRA:         -15.682
REMARK INTER:                 -13.773
REMARK INTRA:                  -1.909
REMARK UNBOUND:                -4.088
REMARK SMILES CCCCCCCCCCCCCCCCCCCCCCCCCCCC(=O)[O-]
REMARK SMILES IDX 15 1 16 2 17 3 18 4 19 5 20 6 21 7 22 8 23 9 24 10 25 11
REMARK SMILES IDX 26 12 27 13 28 14 29 15 30 16 14 17 13 18 12 19 11 20 10 21
REMARK SMILES IDX 9 22 8 23 7 24 6 25 5 26 4 27 3 28 2 29 1 30
REMARK H PARENT
REMARK Flexibility Score: inf
ROOT
ATOM      1  C   UNL     1      23.339  19.748   7.379  1.00  0.00     0.000 C 
ENDROOT
BRANCH   1   2
ATOM      2  C   UNL     1      22.333  20.891   7.610  1.00  0.00     0.000 C 
BRANCH   2   3
ATOM      3  C   UNL     1      21.748  21.475   6.308  1.00  0.00     0.000 C 
BRANCH   3   4
ATOM      4  C   UNL     1      20.215  21.360   6.248  1.00  0.00     0.000 C 
BRANCH   4   5
ATOM      5  C   UNL     1      19.512  22.735   6.250  1.00  0.00     0.000 C 
BRANCH   5   6
ATOM      6  C   UNL     1      18.015  22.676   6.605  1.00  0.00     0.000 C 
BRANCH   6   7
ATOM      7  C   UNL     1      17.305  24.039   6.715  1.00  0.00     0.000 C 
BRANCH   7   8
ATOM      8  C   UNL     1      17.264  24.644   8.131  1.00  0.00     0.000 C 
BRANCH   8   9
ATOM      9  C   UNL     1      18.070  25.945   8.301  1.00  0.00     0.000 C 
BRANCH   9  10
ATOM     10  C   UNL     1      19.100  25.890   9.450  1.00  0.00     0.000 C 
BRANCH  10  11
ATOM     11  C   UNL     1      19.062  24.551  10.204  1.00  0.00     0.000 C 
BRANCH  11  12
ATOM     12  C   UNL     1      20.230  23.626   9.828  1.00  0.00     0.006 C 
BRANCH  12  13
ATOM     13  C   UNL     1      19.848  22.141   9.883  1.00  0.00     0.053 C 
BRANCH  13  14
ATOM     14  C   UNL     1      18.650  21.942  10.759  1.00  0.00     0.041 C 
ATOM     15  O   UNL     1      18.774  21.936  12.012  1.00  0.00    -0.550 OA
ATOM     16  O   UNL     1      17.389  21.802  10.192  1.00  0.00    -0.550 OA
ENDBRANCH  13  14
ENDBRANCH  12  13
ENDBRANCH  11  12
ENDBRANCH  10  11
ENDBRANCH   9  10
ENDBRANCH   8   9
ENDBRANCH   7   8
ENDBRANCH   6   7
ENDBRANCH   5   6
ENDBRANCH   4   5
ENDBRANCH   3   4
ENDBRANCH   2   3
ENDBRANCH   1   2
BRANCH   1  17
ATOM     17  C   UNL     1      23.120  19.015   6.046  1.00  0.00     0.000 C 
BRANCH  17  18
ATOM     18  C   UNL     1      24.393  18.966   5.184  1.00  0.00     0.000 C 
BRANCH  18  19
ATOM     19  C   UNL     1      24.935  17.538   5.006  1.00  0.00     0.000 C 
BRANCH  19  20
ATOM     20  C   UNL     1      26.311  17.499   4.315  1.00  0.00     0.000 C 
BRANCH  20  21
ATOM     21  C   UNL     1      27.037  16.142   4.366  1.00  0.00     0.000 C 
BRANCH  21  22
ATOM     22  C   UNL     1      27.840  15.939   5.662  1.00  0.00    -0.000 C 
BRANCH  22  23
ATOM     23  C   UNL     1      29.284  16.463   5.563  1.00  0.00    -0.000 C 
BRANCH  23  24
ATOM     24  C   UNL     1      30.090  15.966   4.348  1.00  0.00    -0.000 C 
BRANCH  24  25
ATOM     25  C   UNL     1      31.609  16.127   4.528  1.00  0.00    -0.000 C 
BRANCH  25  26
ATOM     26  C   UNL     1      32.330  14.786   4.759  1.00  0.00    -0.000 C 
BRANCH  26  27
ATOM     27  C   UNL     1      33.412  14.803   5.854  1.00  0.00    -0.000 C 
BRANCH  27  28
ATOM     28  C   UNL     1      33.946  13.403   6.194  1.00  0.00    -0.000 C 
BRANCH  28  29
ATOM     29  C   UNL     1      34.939  13.461   7.360  1.00  0.00    -0.003 C 
ATOM     30  C   UNL     1      34.736  12.287   8.314  1.00  0.00     0.004 C 
ENDBRANCH  28  29
ENDBRANCH  27  28
ENDBRANCH  26  27
ENDBRANCH  25  26
ENDBRANCH  24  25
ENDBRANCH  23  24
ENDBRANCH  22  23
ENDBRANCH  21  22
ENDBRANCH  20  21
ENDBRANCH  19  20
ENDBRANCH  18  19
ENDBRANCH  17  18
ENDBRANCH   1  17
TORSDOF 26
ENDMDL
MODEL 5
REMARK VINA RESULT:    -4.562      6.024      8.433
REMARK INTER + INTRA:         -15.585
REMARK INTER:                 -13.422
REMARK INTRA:                  -2.164
REMARK UNBOUND:                -4.088
REMARK SMILES CCCCCCCCCCCCCCCCCCCCCCCCCCCC(=O)[O-]
REMARK SMILES IDX 15 1 16 2 17 3 18 4 19 5 20 6 21 7 22 8 23 9 24 10 25 11
REMARK SMILES IDX 26 12 27 13 28 14 29 15 30 16 14 17 13 18 12 19 11 20 10 21
REMARK SMILES IDX 9 22 8 23 7 24 6 25 5 26 4 27 3 28 2 29 1 30
REMARK H PARENT
REMARK Flexibility Score: inf
ROOT
ATOM      1  C   UNL     1      22.817  19.207   5.877  1.00  0.00     0.000 C 
ENDROOT
BRANCH   1   2
ATOM      2  C   UNL     1      24.296  18.779   5.885  1.00  0.00     0.000 C 
BRANCH   2   3
ATOM      3  C   UNL     1      24.622  17.651   4.885  1.00  0.00     0.000 C 
BRANCH   3   4
ATOM      4  C   UNL     1      25.908  17.926   4.086  1.00  0.00     0.000 C 
BRANCH   4   5
ATOM      5  C   UNL     1      26.851  16.705   4.035  1.00  0.00     0.000 C 
BRANCH   5   6
ATOM      6  C   UNL     1      27.347  16.234   5.415  1.00  0.00     0.000 C 
BRANCH   6   7
ATOM      7  C   UNL     1      28.860  16.385   5.663  1.00  0.00     0.000 C 
BRANCH   7   8
ATOM      8  C   UNL     1      29.761  15.981   4.480  1.00  0.00     0.000 C 
BRANCH   8   9
ATOM      9  C   UNL     1      31.247  16.350   4.646  1.00  0.00     0.000 C 
BRANCH   9  10
ATOM     10  C   UNL     1      32.215  15.266   4.126  1.00  0.00     0.000 C 
BRANCH  10  11
ATOM     11  C   UNL     1      32.961  14.556   5.266  1.00  0.00     0.000 C 
BRANCH  11  12
ATOM     12  C   UNL     1      34.081  13.634   4.758  1.00  0.00     0.006 C 
BRANCH  12  13
ATOM     13  C   UNL     1      35.296  13.611   5.695  1.00  0.00     0.053 C 
BRANCH  13  14
ATOM     14  C   UNL     1      35.020  12.751   6.888  1.00  0.00     0.041 C 
ATOM     15  O   UNL     1      34.919  11.502   6.762  1.00  0.00    -0.550 OA
ATOM     16  O   UNL     1      34.910  13.325   8.149  1.00  0.00    -0.550 OA
ENDBRANCH  13  14
ENDBRANCH  12  13
ENDBRANCH  11  12
ENDBRANCH  10  11
ENDBRANCH   9  10
ENDBRANCH   8   9
ENDBRANCH   7   8
ENDBRANCH   6   7
ENDBRANCH   5   6
ENDBRANCH   4   5
ENDBRANCH   3   4
ENDBRANCH   2   3
ENDBRANCH   1   2
BRANCH   1  17
ATOM     17  C   UNL     1      22.487  20.247   6.960  1.00  0.00     0.000 C 
BRANCH  17  18
ATOM     18  C   UNL     1      21.881  21.533   6.375  1.00  0.00     0.000 C 
BRANCH  18  19
ATOM     19  C   UNL     1      21.109  21.285   5.067  1.00  0.00     0.000 C 
BRANCH  19  20
ATOM     20  C   UNL     1      19.697  21.900   5.076  1.00  0.00     0.000 C 
BRANCH  20  21
ATOM     21  C   UNL     1      19.321  22.670   6.356  1.00  0.00     0.000 C 
BRANCH  21  22
ATOM     22  C   UNL     1      18.227  21.968   7.178  1.00  0.00    -0.000 C 
BRANCH  22  23
ATOM     23  C   UNL     1      18.792  21.103   8.319  1.00  0.00    -0.000 C 
BRANCH  23  24
ATOM     24  C   UNL     1      19.596  21.861   9.392  1.00  0.00    -0.000 C 
BRANCH  24  25
ATOM     25  C   UNL     1      18.832  22.013  10.718  1.00  0.00    -0.000 C 
BRANCH  25  26
ATOM     26  C   UNL     1      17.951  23.276  10.761  1.00  0.00    -0.000 C 
BRANCH  26  27
ATOM     27  C   UNL     1      18.495  24.482   9.974  1.00  0.00    -0.000 C 
BRANCH  27  28
ATOM     28  C   UNL     1      17.476  25.062   8.982  1.00  0.00    -0.000 C 
BRANCH  28  29
ATOM     29  C   UNL     1      17.925  26.436   8.472  1.00  0.00    -0.003 C 
ATOM     30  C   UNL     1      19.156  26.928   9.230  1.00  0.00     0.004 C 
ENDBRANCH  28  29
ENDBRANCH  27  28
ENDBRANCH  26  27
ENDBRANCH  25  26
ENDBRANCH  24  25
ENDBRANCH  23  24
ENDBRANCH  22  23
ENDBRANCH  21  22
ENDBRANCH  20  21
ENDBRANCH  19  20
ENDBRANCH  18  19
ENDBRANCH  17  18
ENDBRANCH   1  17
TORSDOF 26
ENDMDL
MODEL 6
REMARK VINA RESULT:    -4.559      1.661      4.141
REMARK INTER + INTRA:         -15.577
REMARK INTER:                 -11.979
REMARK INTRA:                  -3.598
REMARK UNBOUND:                -4.088
REMARK SMILES CCCCCCCCCCCCCCCCCCCCCCCCCCCC(=O)[O-]
REMARK SMILES IDX 15 1 16 2 17 3 18 4 19 5 20 6 21 7 22 8 23 9 24 10 25 11
REMARK SMILES IDX 26 12 27 13 28 14 29 15 30 16 14 17 13 18 12 19 11 20 10 21
REMARK SMILES IDX 9 22 8 23 7 24 6 25 5 26 4 27 3 28 2 29 1 30
REMARK H PARENT
REMARK Flexibility Score: inf
ROOT
ATOM      1  C   UNL     1      19.134  22.442   5.689  1.00  0.00     0.000 C 
ENDROOT
BRANCH   1   2
ATOM      2  C   UNL     1      17.726  21.913   6.017  1.00  0.00     0.000 C 
BRANCH   2   3
ATOM      3  C   UNL     1      17.440  20.511   5.441  1.00  0.00     0.000 C 
BRANCH   3   4
ATOM      4  C   UNL     1      17.504  19.410   6.513  1.00  0.00     0.000 C 
BRANCH   4   5
ATOM      5  C   UNL     1      17.848  18.024   5.926  1.00  0.00     0.000 C 
BRANCH   5   6
ATOM      6  C   UNL     1      18.188  18.044   4.424  1.00  0.00     0.000 C 
BRANCH   6   7
ATOM      7  C   UNL     1      19.317  17.090   3.988  1.00  0.00     0.000 C 
BRANCH   7   8
ATOM      8  C   UNL     1      20.736  17.689   4.036  1.00  0.00     0.000 C 
BRANCH   8   9
ATOM      9  C   UNL     1      21.469  17.505   5.377  1.00  0.00     0.000 C 
BRANCH   9  10
ATOM     10  C   UNL     1      22.307  16.210   5.453  1.00  0.00     0.000 C 
BRANCH  10  11
ATOM     11  C   UNL     1      21.736  15.205   6.465  1.00  0.00     0.000 C 
BRANCH  11  12
ATOM     12  C   UNL     1      20.470  15.723   7.166  1.00  0.00     0.006 C 
BRANCH  12  13
ATOM     13  C   UNL     1      19.709  14.614   7.904  1.00  0.00     0.053 C 
BRANCH  13  14
ATOM     14  C   UNL     1      18.234  14.774   7.710  1.00  0.00     0.041 C 
ATOM     15  O   UNL     1      17.515  15.218   8.644  1.00  0.00    -0.550 OA
ATOM     16  O   UNL     1      17.656  14.470   6.483  1.00  0.00    -0.550 OA
ENDBRANCH  13  14
ENDBRANCH  12  13
ENDBRANCH  11  12
ENDBRANCH  10  11
ENDBRANCH   9  10
ENDBRANCH   8   9
ENDBRANCH   7   8
ENDBRANCH   6   7
ENDBRANCH   5   6
ENDBRANCH   4   5
ENDBRANCH   3   4
ENDBRANCH   2   3
ENDBRANCH   1   2
BRANCH   1  17
ATOM     17  C   UNL     1      19.840  21.631   4.590  1.00  0.00     0.000 C 
BRANCH  17  18
ATOM     18  C   UNL     1      21.273  21.235   4.981  1.00  0.00     0.000 C 
BRANCH  18  19
ATOM     19  C   UNL     1      21.410  20.897   6.475  1.00  0.00     0.000 C 
BRANCH  19  20
ATOM     20  C   UNL     1      21.615  22.143   7.357  1.00  0.00     0.000 C 
BRANCH  20  21
ATOM     21  C   UNL     1      22.481  21.929   8.611  1.00  0.00     0.000 C 
BRANCH  21  22
ATOM     22  C   UNL     1      22.151  22.914   9.745  1.00  0.00    -0.000 C 
BRANCH  22  23
ATOM     23  C   UNL     1      20.682  23.373   9.734  1.00  0.00    -0.000 C 
BRANCH  23  24
ATOM     24  C   UNL     1      19.846  22.954  10.958  1.00  0.00    -0.000 C 
BRANCH  24  25
ATOM     25  C   UNL     1      18.682  22.015  10.598  1.00  0.00    -0.000 C 
BRANCH  25  26
ATOM     26  C   UNL     1      17.807  22.558   9.452  1.00  0.00    -0.000 C 
BRANCH  26  27
ATOM     27  C   UNL     1      17.252  23.978   9.666  1.00  0.00    -0.000 C 
BRANCH  27  28
ATOM     28  C   UNL     1      17.433  24.885   8.439  1.00  0.00    -0.000 C 
BRANCH  28  29
ATOM     29  C   UNL     1      17.647  26.343   8.860  1.00  0.00    -0.003 C 
ATOM     30  C   UNL     1      19.102  26.595   9.249  1.00  0.00     0.004 C 
ENDBRANCH  28  29
ENDBRANCH  27  28
ENDBRANCH  26  27
ENDBRANCH  25  26
ENDBRANCH  24  25
ENDBRANCH  23  24
ENDBRANCH  22  23
ENDBRANCH  21  22
ENDBRANCH  20  21
ENDBRANCH  19  20
ENDBRANCH  18  19
ENDBRANCH  17  18
ENDBRANCH   1  17
TORSDOF 26
ENDMDL
MODEL 7
REMARK VINA RESULT:    -4.556      3.096      4.510
REMARK INTER + INTRA:         -15.570
REMARK INTER:                 -11.975
REMARK INTRA:                  -3.595
REMARK UNBOUND:                -4.088
REMARK SMILES CCCCCCCCCCCCCCCCCCCCCCCCCCCC(=O)[O-]
REMARK SMILES IDX 15 1 16 2 17 3 18 4 19 5 20 6 21 7 22 8 23 9 24 10 25 11
REMARK SMILES IDX 26 12 27 13 28 14 29 15 30 16 14 17 13 18 12 19 11 20 10 21
REMARK SMILES IDX 9 22 8 23 7 24 6 25 5 26 4 27 3 28 2 29 1 30
REMARK H PARENT
REMARK Flexibility Score: inf
ROOT
ATOM      1  C   UNL     1      21.844  20.768   7.498  1.00  0.00     0.000 C 
ENDROOT
BRANCH   1   2
ATOM      2  C   UNL     1      22.259  19.802   6.373  1.00  0.00     0.000 C 
BRANCH   2   3
ATOM      3  C   UNL     1      22.127  20.402   4.959  1.00  0.00     0.000 C 
BRANCH   3   4
ATOM      4  C   UNL     1      22.993  19.664   3.924  1.00  0.00     0.000 C 
BRANCH   4   5
ATOM      5  C   UNL     1      24.244  19.010   4.549  1.00  0.00     0.000 C 
BRANCH   5   6
ATOM      6  C   UNL     1      24.351  17.493   4.302  1.00  0.00     0.000 C 
BRANCH   6   7
ATOM      7  C   UNL     1      23.026  16.711   4.399  1.00  0.00     0.000 C 
BRANCH   7   8
ATOM      8  C   UNL     1      23.064  15.468   5.309  1.00  0.00     0.000 C 
BRANCH   8   9
ATOM      9  C   UNL     1      23.362  14.144   4.581  1.00  0.00     0.000 C 
BRANCH   9  10
ATOM     10  C   UNL     1      24.747  13.550   4.919  1.00  0.00     0.000 C 
BRANCH  10  11
ATOM     11  C   UNL     1      25.812  13.923   3.876  1.00  0.00     0.000 C 
BRANCH  11  12
ATOM     12  C   UNL     1      27.229  13.974   4.468  1.00  0.00     0.006 C 
BRANCH  12  13
ATOM     13  C   UNL     1      28.057  15.142   3.915  1.00  0.00     0.053 C 
BRANCH  13  14
ATOM     14  C   UNL     1      28.398  16.104   5.009  1.00  0.00     0.041 C 
ATOM     15  O   UNL     1      29.602  16.365   5.273  1.00  0.00    -0.550 OA
ATOM     16  O   UNL     1      27.386  16.743   5.714  1.00  0.00    -0.550 OA
ENDBRANCH  13  14
ENDBRANCH  12  13
ENDBRANCH  11  12
ENDBRANCH  10  11
ENDBRANCH   9  10
ENDBRANCH   8   9
ENDBRANCH   7   8
ENDBRANCH   6   7
ENDBRANCH   5   6
ENDBRANCH   4   5
ENDBRANCH   3   4
ENDBRANCH   2   3
ENDBRANCH   1   2
BRANCH   1  17
ATOM     17  C   UNL     1      21.748  22.229   7.029  1.00  0.00     0.000 C 
BRANCH  17  18
ATOM     18  C   UNL     1      21.117  23.147   8.089  1.00  0.00     0.000 C 
BRANCH  18  19
ATOM     19  C   UNL     1      21.734  22.954   9.485  1.00  0.00     0.000 C 
BRANCH  19  20
ATOM     20  C   UNL     1      20.769  23.328  10.626  1.00  0.00     0.000 C 
BRANCH  20  21
ATOM     21  C   UNL     1      19.431  22.566  10.635  1.00  0.00     0.000 C 
BRANCH  21  22
ATOM     22  C   UNL     1      18.218  23.481  10.398  1.00  0.00    -0.000 C 
BRANCH  22  23
ATOM     23  C   UNL     1      18.611  24.944  10.125  1.00  0.00    -0.000 C 
BRANCH  23  24
ATOM     24  C   UNL     1      18.366  25.441   8.688  1.00  0.00    -0.000 C 
BRANCH  24  25
ATOM     25  C   UNL     1      17.236  24.680   7.974  1.00  0.00    -0.000 C 
BRANCH  25  26
ATOM     26  C   UNL     1      17.741  23.818   6.802  1.00  0.00    -0.000 C 
BRANCH  26  27
ATOM     27  C   UNL     1      17.163  22.392   6.740  1.00  0.00    -0.000 C 
BRANCH  27  28
ATOM     28  C   UNL     1      18.115  21.332   7.315  1.00  0.00    -0.000 C 
BRANCH  28  29
ATOM     29  C   UNL     1      18.354  20.203   6.306  1.00  0.00    -0.003 C 
ATOM     30  C   UNL     1      17.620  20.473   4.995  1.00  0.00     0.004 C 
ENDBRANCH  28  29
ENDBRANCH  27  28
ENDBRANCH  26  27
ENDBRANCH  25  26
ENDBRANCH  24  25
ENDBRANCH  23  24
ENDBRANCH  22  23
ENDBRANCH  21  22
ENDBRANCH  20  21
ENDBRANCH  19  20
ENDBRANCH  18  19
ENDBRANCH  17  18
ENDBRANCH   1  17
TORSDOF 26
ENDMDL
MODEL 8
REMARK VINA RESULT:    -4.540      5.688      7.796
REMARK INTER + INTRA:         -15.529
REMARK INTER:                 -12.997
REMARK INTRA:                  -2.532
REMARK UNBOUND:                -4.088
REMARK SMILES CCCCCCCCCCCCCCCCCCCCCCCCCCCC(=O)[O-]
REMARK SMILES IDX 15 1 16 2 17 3 18 4 19 5 20 6 21 7 22 8 23 9 24 10 25 11
REMARK SMILES IDX 26 12 27 13 28 14 29 15 30 16 14 17 13 18 12 19 11 20 10 21
REMARK SMILES IDX 9 22 8 23 7 24 6 25 5 26 4 27 3 28 2 29 1 30
REMARK H PARENT
REMARK Flexibility Score: inf
ROOT
ATOM      1  C   UNL     1      23.101  19.384   6.509  1.00  0.00     0.000 C 
ENDROOT
BRANCH   1   2
ATOM      2  C   UNL     1      23.981  18.285   5.885  1.00  0.00     0.000 C 
BRANCH   2   3
ATOM      3  C   UNL     1      24.702  18.726   4.595  1.00  0.00     0.000 C 
BRANCH   3   4
ATOM      4  C   UNL     1      25.579  17.610   4.001  1.00  0.00     0.000 C 
BRANCH   4   5
ATOM      5  C   UNL     1      25.074  16.196   4.363  1.00  0.00     0.000 C 
BRANCH   5   6
ATOM      6  C   UNL     1      26.146  15.096   4.247  1.00  0.00     0.000 C 
BRANCH   6   7
ATOM      7  C   UNL     1      27.602  15.596   4.169  1.00  0.00     0.000 C 
BRANCH   7   8
ATOM      8  C   UNL     1      28.629  14.744   4.939  1.00  0.00     0.000 C 
BRANCH   8   9
ATOM      9  C   UNL     1      29.879  15.510   5.411  1.00  0.00     0.000 C 
BRANCH   9  10
ATOM     10  C   UNL     1      30.778  16.000   4.256  1.00  0.00     0.000 C 
BRANCH  10  11
ATOM     11  C   UNL     1      32.260  15.665   4.488  1.00  0.00     0.000 C 
BRANCH  11  12
ATOM     12  C   UNL     1      32.463  14.271   5.101  1.00  0.00     0.006 C 
BRANCH  12  13
ATOM     13  C   UNL     1      33.482  14.275   6.249  1.00  0.00     0.053 C 
BRANCH  13  14
ATOM     14  C   UNL     1      34.714  13.522   5.857  1.00  0.00     0.041 C 
ATOM     15  O   UNL     1      34.927  12.368   6.317  1.00  0.00    -0.550 OA
ATOM     16  O   UNL     1      35.611  14.078   4.953  1.00  0.00    -0.550 OA
ENDBRANCH  13  14
ENDBRANCH  12  13
ENDBRANCH  11  12
ENDBRANCH  10  11
ENDBRANCH   9  10
ENDBRANCH   8   9
ENDBRANCH   7   8
ENDBRANCH   6   7
ENDBRANCH   5   6
ENDBRANCH   4   5
ENDBRANCH   3   4
ENDBRANCH   2   3
ENDBRANCH   1   2
BRANCH   1  17
ATOM     17  C   UNL     1      21.899  19.763   5.629  1.00  0.00     0.000 C 
BRANCH  17  18
ATOM     18  C   UNL     1      21.815  21.277   5.369  1.00  0.00     0.000 C 
BRANCH  18  19
ATOM     19  C   UNL     1      20.950  22.010   6.408  1.00  0.00     0.000 C 
BRANCH  19  20
ATOM     20  C   UNL     1      19.548  22.367   5.881  1.00  0.00     0.000 C 
BRANCH  20  21
ATOM     21  C   UNL     1      18.387  21.572   6.505  1.00  0.00     0.000 C 
BRANCH  21  22
ATOM     22  C   UNL     1      17.111  22.412   6.681  1.00  0.00    -0.000 C 
BRANCH  22  23
ATOM     23  C   UNL     1      17.389  23.925   6.741  1.00  0.00    -0.000 C 
BRANCH  23  24
ATOM     24  C   UNL     1      17.117  24.598   8.099  1.00  0.00    -0.000 C 
BRANCH  24  25
ATOM     25  C   UNL     1      18.093  25.747   8.406  1.00  0.00    -0.000 C 
BRANCH  25  26
ATOM     26  C   UNL     1      19.497  25.251   8.800  1.00  0.00    -0.000 C 
BRANCH  26  27
ATOM     27  C   UNL     1      19.569  24.466  10.122  1.00  0.00    -0.000 C 
BRANCH  27  28
ATOM     28  C   UNL     1      19.851  22.969   9.919  1.00  0.00    -0.000 C 
BRANCH  28  29
ATOM     29  C   UNL     1      19.073  22.121  10.931  1.00  0.00    -0.003 C 
ATOM     30  C   UNL     1      17.825  21.513  10.295  1.00  0.00     0.004 C 
ENDBRANCH  28  29
ENDBRANCH  27  28
ENDBRANCH  26  27
ENDBRANCH  25  26
ENDBRANCH  24  25
ENDBRANCH  23  24
ENDBRANCH  22  23
ENDBRANCH  21  22
ENDBRANCH  20  21
ENDBRANCH  19  20
ENDBRANCH  18  19
ENDBRANCH  17  18
ENDBRANCH   1  17
TORSDOF 26
ENDMDL
MODEL 9
REMARK VINA RESULT:    -4.451      5.023     11.715
REMARK INTER + INTRA:         -15.306
REMARK INTER:                 -13.426
REMARK INTRA:                  -1.879
REMARK UNBOUND:                -4.088
REMARK SMILES CCCCCCCCCCCCCCCCCCCCCCCCCCCC(=O)[O-]
REMARK SMILES IDX 15 1 16 2 17 3 18 4 19 5 20 6 21 7 22 8 23 9 24 10 25 11
REMARK SMILES IDX 26 12 27 13 28 14 29 15 30 16 14 17 13 18 12 19 11 20 10 21
REMARK SMILES IDX 9 22 8 23 7 24 6 25 5 26 4 27 3 28 2 29 1 30
REMARK H PARENT
REMARK Flexibility Score: inf
ROOT
ATOM      1  C   UNL     1      23.287  18.782   5.495  1.00  0.00     0.000 C 
ENDROOT
BRANCH   1   2
ATOM      2  C   UNL     1      22.970  19.557   6.787  1.00  0.00     0.000 C 
BRANCH   2   3
ATOM      3  C   UNL     1      22.047  20.773   6.570  1.00  0.00     0.000 C 
BRANCH   3   4
ATOM      4  C   UNL     1      21.304  21.183   7.853  1.00  0.00     0.000 C 
BRANCH   4   5
ATOM      5  C   UNL     1      21.339  22.707   8.103  1.00  0.00     0.000 C 
BRANCH   5   6
ATOM      6  C   UNL     1      21.715  23.100   9.544  1.00  0.00     0.000 C 
BRANCH   6   7
ATOM      7  C   UNL     1      20.574  23.701  10.387  1.00  0.00     0.000 C 
BRANCH   7   8
ATOM      8  C   UNL     1      19.356  22.779  10.592  1.00  0.00     0.000 C 
BRANCH   8   9
ATOM      9  C   UNL     1      18.005  23.396  10.188  1.00  0.00     0.000 C 
BRANCH   9  10
ATOM     10  C   UNL     1      18.091  24.894   9.826  1.00  0.00     0.000 C 
BRANCH  10  11
ATOM     11  C   UNL     1      17.706  25.164   8.362  1.00  0.00     0.000 C 
BRANCH  11  12
ATOM     12  C   UNL     1      17.146  23.918   7.658  1.00  0.00     0.006 C 
BRANCH  12  13
ATOM     13  C   UNL     1      18.027  23.454   6.490  1.00  0.00     0.053 C 
BRANCH  13  14
ATOM     14  C   UNL     1      17.918  21.973   6.310  1.00  0.00     0.041 C 
ATOM     15  O   UNL     1      18.680  21.373   5.507  1.00  0.00    -0.550 OA
ATOM     16  O   UNL     1      16.998  21.247   7.057  1.00  0.00    -0.550 OA
ENDBRANCH  13  14
ENDBRANCH  12  13
ENDBRANCH  11  12
ENDBRANCH  10  11
ENDBRANCH   9  10
ENDBRANCH   8   9
ENDBRANCH   7   8
ENDBRANCH   6   7
ENDBRANCH   5   6
ENDBRANCH   4   5
ENDBRANCH   3   4
ENDBRANCH   2   3
ENDBRANCH   1   2
BRANCH   1  17
ATOM     17  C   UNL     1      24.796  18.632   5.240  1.00  0.00     0.000 C 
BRANCH  17  18
ATOM     18  C   UNL     1      25.100  17.898   3.924  1.00  0.00     0.000 C 
BRANCH  18  19
ATOM     19  C   UNL     1      26.524  17.316   3.883  1.00  0.00     0.000 C 
BRANCH  19  20
ATOM     20  C   UNL     1      26.785  16.287   4.999  1.00  0.00     0.000 C 
BRANCH  20  21
ATOM     21  C   UNL     1      28.178  16.361   5.652  1.00  0.00     0.000 C 
BRANCH  21  22
ATOM     22  C   UNL     1      29.318  16.451   4.624  1.00  0.00    -0.000 C 
BRANCH  22  23
ATOM     23  C   UNL     1      30.513  15.543   4.970  1.00  0.00    -0.000 C 
BRANCH  23  24
ATOM     24  C   UNL     1      31.889  16.045   4.494  1.00  0.00    -0.000 C 
BRANCH  24  25
ATOM     25  C   UNL     1      33.045  15.559   5.384  1.00  0.00    -0.000 C 
BRANCH  25  26
ATOM     26  C   UNL     1      33.655  14.229   4.900  1.00  0.00    -0.000 C 
BRANCH  26  27
ATOM     27  C   UNL     1      34.907  13.764   5.667  1.00  0.00    -0.000 C 
BRANCH  27  28
ATOM     28  C   UNL     1      34.581  12.813   6.829  1.00  0.00    -0.000 C 
BRANCH  28  29
ATOM     29  C   UNL     1      34.020  13.583   8.029  1.00  0.00    -0.003 C 
ATOM     30  C   UNL     1      33.021  12.732   8.809  1.00  0.00     0.004 C 
ENDBRANCH  28  29
ENDBRANCH  27  28
ENDBRANCH  26  27
ENDBRANCH  25  26
ENDBRANCH  24  25
ENDBRANCH  23  24
ENDBRANCH  22  23
ENDBRANCH  21  22
ENDBRANCH  20  21
ENDBRANCH  19  20
ENDBRANCH  18  19
ENDBRANCH  17  18
ENDBRANCH   1  17
TORSDOF 26
ENDMDL
