MODEL 1
REMARK VINA RESULT:    -4.873      0.000      0.000
REMARK INTER + INTRA:          -7.093
REMARK INTER:                  -6.867
REMARK INTRA:                  -0.226
REMARK UNBOUND:                -0.226
REMARK SMILES CCCCCCCCC(=O)[O-]
REMARK SMILES IDX 6 1 7 2 8 3 9 4 10 5 11 6 5 7 4 8 3 9 2 10 1 11
REMARK H PARENT
REMARK Flexibility Score: inf
ROOT
ATOM      1  C   UNL     1      38.037  67.135  24.559  1.00  0.00     0.000 C 
ENDROOT
BRANCH   1   2
ATOM      2  C   UNL     1      39.537  67.098  24.899  1.00  0.00     0.006 C 
BRANCH   2   3
ATOM      3  C   UNL     1      40.352  66.338  23.846  1.00  0.00     0.053 C 
BRANCH   3   4
ATOM      4  C   UNL     1      41.195  67.265  23.024  1.00  0.00     0.041 C 
ATOM      5  O   UNL     1      41.213  67.162  21.770  1.00  0.00    -0.550 OA
ATOM      6  O   UNL     1      41.989  68.218  23.649  1.00  0.00    -0.550 OA
ENDBRANCH   3   4
ENDBRANCH   2   3
ENDBRANCH   1   2
BRANCH   1   7
ATOM      7  C   UNL     1      37.156  67.509  25.765  1.00  0.00     0.000 C 
BRANCH   7   8
ATOM      8  C   UNL     1      35.641  67.507  25.492  1.00  0.00    -0.000 C 
BRANCH   8   9
ATOM      9  C   UNL     1      34.847  66.685  26.522  1.00  0.00    -0.000 C 
BRANCH   9  10
ATOM     10  C   UNL     1      34.663  65.221  26.090  1.00  0.00    -0.003 C 
ATOM     11  C   UNL     1      34.933  64.230  27.222  1.00  0.00     0.004 C 
ENDBRANCH   9  10
ENDBRANCH   8   9
ENDBRANCH   7   8
ENDBRANCH   1   7
TORSDOF 7
ENDMDL
MODEL 2
REMARK VINA RESULT:    -4.808      1.203      1.504
REMARK INTER + INTRA:          -7.001
REMARK INTER:                  -6.770
REMARK INTRA:                  -0.231
REMARK UNBOUND:                -0.226
REMARK SMILES CCCCCCCCC(=O)[O-]
REMARK SMILES IDX 6 1 7 2 8 3 9 4 10 5 11 6 5 7 4 8 3 9 2 10 1 11
REMARK H PARENT
REMARK Flexibility Score: inf
ROOT
ATOM      1  C   UNL     1      38.210  67.159  24.583  1.00  0.00     0.000 C 
ENDROOT
BRANCH   1   2
ATOM      2  C   UNL     1      39.642  66.907  25.088  1.00  0.00     0.006 C 
BRANCH   2   3
ATOM      3  C   UNL     1      40.689  67.111  23.987  1.00  0.00     0.053 C 
BRANCH   3   4
ATOM      4  C   UNL     1      41.232  65.806  23.491  1.00  0.00     0.041 C 
ATOM      5  O   UNL     1      41.733  64.980  24.298  1.00  0.00    -0.550 OA
ATOM      6  O   UNL     1      41.218  65.520  22.131  1.00  0.00    -0.550 OA
ENDBRANCH   3   4
ENDBRANCH   2   3
ENDBRANCH   1   2
BRANCH   1   7
ATOM      7  C   UNL     1      37.238  67.559  25.708  1.00  0.00     0.000 C 
BRANCH   7   8
ATOM      8  C   UNL     1      35.744  67.415  25.362  1.00  0.00    -0.000 C 
BRANCH   8   9
ATOM      9  C   UNL     1      34.952  66.648  26.434  1.00  0.00    -0.000 C 
BRANCH   9  10
ATOM     10  C   UNL     1      34.691  65.186  26.040  1.00  0.00    -0.003 C 
ATOM     11  C   UNL     1      34.885  64.214  27.204  1.00  0.00     0.004 C 
ENDBRANCH   9  10
ENDBRANCH   8   9
ENDBRANCH   7   8
ENDBRANCH   1   7
TORSDOF 7
ENDMDL
MODEL 3
REMARK VINA RESULT:    -4.726      4.223      6.903
REMARK INTER + INTRA:          -6.886
REMARK INTER:                  -6.647
REMARK INTRA:                  -0.239
REMARK UNBOUND:                -0.226
REMARK SMILES CCCCCCCCC(=O)[O-]
REMARK SMILES IDX 6 1 7 2 8 3 9 4 10 5 11 6 5 7 4 8 3 9 2 10 1 11
REMARK H PARENT
REMARK Flexibility Score: inf
ROOT
ATOM      1  C   UNL     1      41.847  64.333  24.663  1.00  0.00     0.000 C 
ENDROOT
BRANCH   1   2
ATOM      2  C   UNL     1      41.337  65.724  25.078  1.00  0.00     0.006 C 
BRANCH   2   3
ATOM      3  C   UNL     1      40.445  66.360  24.004  1.00  0.00     0.053 C 
BRANCH   3   4
ATOM      4  C   UNL     1      41.220  67.293  23.123  1.00  0.00     0.041 C 
ATOM      5  O   UNL     1      41.218  67.134  21.875  1.00  0.00    -0.550 OA
ATOM      6  O   UNL     1      41.972  68.315  23.688  1.00  0.00    -0.550 OA
ENDBRANCH   3   4
ENDBRANCH   2   3
ENDBRANCH   1   2
BRANCH   1   7
ATOM      7  C   UNL     1      42.203  63.440  25.865  1.00  0.00     0.000 C 
BRANCH   7   8
ATOM      8  C   UNL     1      42.945  62.138  25.513  1.00  0.00    -0.000 C 
BRANCH   8   9
ATOM      9  C   UNL     1      44.190  61.902  26.386  1.00  0.00    -0.000 C 
BRANCH   9  10
ATOM     10  C   UNL     1      45.498  62.220  25.644  1.00  0.00    -0.003 C 
ATOM     11  C   UNL     1      46.486  63.014  26.499  1.00  0.00     0.004 C 
ENDBRANCH   9  10
ENDBRANCH   8   9
ENDBRANCH   7   8
ENDBRANCH   1   7
TORSDOF 7
ENDMDL
MODEL 4
REMARK VINA RESULT:    -4.720      0.941      1.273
REMARK INTER + INTRA:          -6.877
REMARK INTER:                  -6.719
REMARK INTRA:                  -0.158
REMARK UNBOUND:                -0.226
REMARK SMILES CCCCCCCCC(=O)[O-]
REMARK SMILES IDX 6 1 7 2 8 3 9 4 10 5 11 6 5 7 4 8 3 9 2 10 1 11
REMARK H PARENT
REMARK Flexibility Score: inf
ROOT
ATOM      1  C   UNL     1      38.920  66.739  24.251  1.00  0.00     0.000 C 
ENDROOT
BRANCH   1   2
ATOM      2  C   UNL     1      39.971  67.072  25.324  1.00  0.00     0.006 C 
BRANCH   2   3
ATOM      3  C   UNL     1      41.402  66.823  24.831  1.00  0.00     0.053 C 
BRANCH   3   4
ATOM      4  C   UNL     1      41.811  67.824  23.793  1.00  0.00     0.041 C 
ATOM      5  O   UNL     1      41.533  67.631  22.581  1.00  0.00    -0.550 OA
ATOM      6  O   UNL     1      42.533  68.951  24.164  1.00  0.00    -0.550 OA
ENDBRANCH   3   4
ENDBRANCH   2   3
ENDBRANCH   1   2
BRANCH   1   7
ATOM      7  C   UNL     1      37.619  67.546  24.415  1.00  0.00     0.000 C 
BRANCH   7   8
ATOM      8  C   UNL     1      36.998  67.505  25.823  1.00  0.00    -0.000 C 
BRANCH   8   9
ATOM      9  C   UNL     1      35.463  67.613  25.806  1.00  0.00    -0.000 C 
BRANCH   9  10
ATOM     10  C   UNL     1      34.786  66.509  26.633  1.00  0.00    -0.003 C 
ATOM     11  C   UNL     1      34.559  65.224  25.836  1.00  0.00     0.004 C 
ENDBRANCH   9  10
ENDBRANCH   8   9
ENDBRANCH   7   8
ENDBRANCH   1   7
TORSDOF 7
ENDMDL
MODEL 5
REMARK VINA RESULT:    -4.700      1.355      2.201
REMARK INTER + INTRA:          -6.849
REMARK INTER:                  -6.606
REMARK INTRA:                  -0.243
REMARK UNBOUND:                -0.226
REMARK SMILES CCCCCCCCC(=O)[O-]
REMARK SMILES IDX 6 1 7 2 8 3 9 4 10 5 11 6 5 7 4 8 3 9 2 10 1 11
REMARK H PARENT
REMARK Flexibility Score: inf
ROOT
ATOM      1  C   UNL     1      39.966  66.758  24.875  1.00  0.00     0.000 C 
ENDROOT
BRANCH   1   2
ATOM      2  C   UNL     1      40.964  66.996  23.729  1.00  0.00     0.006 C 
BRANCH   2   3
ATOM      3  C   UNL     1      41.080  65.782  22.799  1.00  0.00     0.053 C 
BRANCH   3   4
ATOM      4  C   UNL     1      40.386  66.018  21.492  1.00  0.00     0.041 C 
ATOM      5  O   UNL     1      39.877  65.055  20.862  1.00  0.00    -0.550 OA
ATOM      6  O   UNL     1      40.336  67.297  20.954  1.00  0.00    -0.550 OA
ENDBRANCH   3   4
ENDBRANCH   2   3
ENDBRANCH   1   2
BRANCH   1   7
ATOM      7  C   UNL     1      38.503  66.996  24.458  1.00  0.00     0.000 C 
BRANCH   7   8
ATOM      8  C   UNL     1      37.519  67.211  25.622  1.00  0.00    -0.000 C 
BRANCH   8   9
ATOM      9  C   UNL     1      36.201  67.870  25.180  1.00  0.00    -0.000 C 
BRANCH   9  10
ATOM     10  C   UNL     1      35.014  67.467  26.068  1.00  0.00    -0.003 C 
ATOM     11  C   UNL     1      34.904  65.954  26.261  1.00  0.00     0.004 C 
ENDBRANCH   9  10
ENDBRANCH   8   9
ENDBRANCH   7   8
ENDBRANCH   1   7
TORSDOF 7
ENDMDL
MODEL 6
REMARK VINA RESULT:    -4.635      4.456      7.117
REMARK INTER + INTRA:          -6.758
REMARK INTER:                  -6.534
REMARK INTRA:                  -0.224
REMARK UNBOUND:                -0.226
REMARK SMILES CCCCCCCCC(=O)[O-]
REMARK SMILES IDX 6 1 7 2 8 3 9 4 10 5 11 6 5 7 4 8 3 9 2 10 1 11
REMARK H PARENT
REMARK Flexibility Score: inf
ROOT
ATOM      1  C   UNL     1      42.679  68.875  24.013  1.00  0.00     0.000 C 
ENDROOT
BRANCH   1   2
ATOM      2  C   UNL     1      41.816  67.807  24.708  1.00  0.00     0.006 C 
BRANCH   2   3
ATOM      3  C   UNL     1      40.796  67.174  23.752  1.00  0.00     0.053 C 
BRANCH   3   4
ATOM      4  C   UNL     1      41.250  65.830  23.270  1.00  0.00     0.041 C 
ATOM      5  O   UNL     1      41.155  65.528  22.052  1.00  0.00    -0.550 OA
ATOM      6  O   UNL     1      41.744  64.899  24.175  1.00  0.00    -0.550 OA
ENDBRANCH   3   4
ENDBRANCH   2   3
ENDBRANCH   1   2
BRANCH   1   7
ATOM      7  C   UNL     1      43.396  69.807  25.006  1.00  0.00     0.000 C 
BRANCH   7   8
ATOM      8  C   UNL     1      44.104  71.018  24.371  1.00  0.00    -0.000 C 
BRANCH   8   9
ATOM      9  C   UNL     1      43.779  72.343  25.081  1.00  0.00    -0.000 C 
BRANCH   9  10
ATOM     10  C   UNL     1      42.619  73.100  24.413  1.00  0.00    -0.003 C 
ATOM     11  C   UNL     1      41.631  73.682  25.424  1.00  0.00     0.004 C 
ENDBRANCH   9  10
ENDBRANCH   8   9
ENDBRANCH   7   8
ENDBRANCH   1   7
TORSDOF 7
ENDMDL
MODEL 7
REMARK VINA RESULT:    -4.595      4.087      6.124
REMARK INTER + INTRA:          -6.701
REMARK INTER:                  -6.460
REMARK INTRA:                  -0.242
REMARK UNBOUND:                -0.226
REMARK SMILES CCCCCCCCC(=O)[O-]
REMARK SMILES IDX 6 1 7 2 8 3 9 4 10 5 11 6 5 7 4 8 3 9 2 10 1 11
REMARK H PARENT
REMARK Flexibility Score: inf
ROOT
ATOM      1  C   UNL     1      41.251  65.966  24.869  1.00  0.00     0.000 C 
ENDROOT
BRANCH   1   2
ATOM      2  C   UNL     1      40.240  66.507  23.843  1.00  0.00     0.006 C 
BRANCH   2   3
ATOM      3  C   UNL     1      40.931  67.146  22.631  1.00  0.00     0.053 C 
BRANCH   3   4
ATOM      4  C   UNL     1      40.359  66.644  21.340  1.00  0.00     0.041 C 
ATOM      5  O   UNL     1      40.129  67.443  20.396  1.00  0.00    -0.550 OA
ATOM      6  O   UNL     1      40.048  65.298  21.196  1.00  0.00    -0.550 OA
ENDBRANCH   3   4
ENDBRANCH   2   3
ENDBRANCH   1   2
BRANCH   1   7
ATOM      7  C   UNL     1      41.744  64.546  24.535  1.00  0.00     0.000 C 
BRANCH   7   8
ATOM      8  C   UNL     1      42.122  63.683  25.753  1.00  0.00    -0.000 C 
BRANCH   8   9
ATOM      9  C   UNL     1      42.559  62.259  25.366  1.00  0.00    -0.000 C 
BRANCH   9  10
ATOM     10  C   UNL     1      43.645  61.703  26.301  1.00  0.00    -0.003 C 
ATOM     11  C   UNL     1      45.061  62.033  25.828  1.00  0.00     0.004 C 
ENDBRANCH   9  10
ENDBRANCH   8   9
ENDBRANCH   7   8
ENDBRANCH   1   7
TORSDOF 7
ENDMDL
MODEL 8
REMARK VINA RESULT:    -4.595      3.985      6.519
REMARK INTER + INTRA:          -6.701
REMARK INTER:                  -6.513
REMARK INTRA:                  -0.188
REMARK UNBOUND:                -0.226
REMARK SMILES CCCCCCCCC(=O)[O-]
REMARK SMILES IDX 6 1 7 2 8 3 9 4 10 5 11 6 5 7 4 8 3 9 2 10 1 11
REMARK H PARENT
REMARK Flexibility Score: inf
ROOT
ATOM      1  C   UNL     1      41.709  64.880  24.184  1.00  0.00     0.000 C 
ENDROOT
BRANCH   1   2
ATOM      2  C   UNL     1      41.253  65.841  25.295  1.00  0.00     0.006 C 
BRANCH   2   3
ATOM      3  C   UNL     1      40.634  67.126  24.732  1.00  0.00     0.053 C 
BRANCH   3   4
ATOM      4  C   UNL     1      41.536  67.782  23.731  1.00  0.00     0.041 C 
ATOM      5  O   UNL     1      42.437  68.574  24.112  1.00  0.00    -0.550 OA
ATOM      6  O   UNL     1      41.355  67.545  22.374  1.00  0.00    -0.550 OA
ENDBRANCH   3   4
ENDBRANCH   2   3
ENDBRANCH   1   2
BRANCH   1   7
ATOM      7  C   UNL     1      41.693  63.404  24.622  1.00  0.00     0.000 C 
BRANCH   7   8
ATOM      8  C   UNL     1      42.434  63.106  25.938  1.00  0.00    -0.000 C 
BRANCH   8   9
ATOM      9  C   UNL     1      43.174  61.757  25.917  1.00  0.00    -0.000 C 
BRANCH   9  10
ATOM     10  C   UNL     1      44.590  61.853  26.508  1.00  0.00    -0.003 C 
ATOM     11  C   UNL     1      45.641  62.235  25.466  1.00  0.00     0.004 C 
ENDBRANCH   9  10
ENDBRANCH   8   9
ENDBRANCH   7   8
ENDBRANCH   1   7
TORSDOF 7
ENDMDL
MODEL 9
REMARK VINA RESULT:    -4.544      3.835      6.259
REMARK INTER + INTRA:          -6.629
REMARK INTER:                  -6.400
REMARK INTRA:                  -0.229
REMARK UNBOUND:                -0.226
REMARK SMILES CCCCCCCCC(=O)[O-]
REMARK SMILES IDX 6 1 7 2 8 3 9 4 10 5 11 6 5 7 4 8 3 9 2 10 1 11
REMARK H PARENT
REMARK Flexibility Score: inf
ROOT
ATOM      1  C   UNL     1      41.391  65.400  23.363  1.00  0.00     0.000 C 
ENDROOT
BRANCH   1   2
ATOM      2  C   UNL     1      40.770  66.806  23.431  1.00  0.00     0.006 C 
BRANCH   2   3
ATOM      3  C   UNL     1      39.237  66.765  23.391  1.00  0.00     0.053 C 
BRANCH   3   4
ATOM      4  C   UNL     1      38.639  67.133  24.715  1.00  0.00     0.041 C 
ATOM      5  O   UNL     1      39.347  67.120  25.755  1.00  0.00    -0.550 OA
ATOM      6  O   UNL     1      37.291  67.454  24.802  1.00  0.00    -0.550 OA
ENDBRANCH   3   4
ENDBRANCH   2   3
ENDBRANCH   1   2
BRANCH   1   7
ATOM      7  C   UNL     1      41.632  64.781  24.752  1.00  0.00     0.000 C 
BRANCH   7   8
ATOM      8  C   UNL     1      42.116  63.319  24.740  1.00  0.00    -0.000 C 
BRANCH   8   9
ATOM      9  C   UNL     1      42.453  62.788  26.144  1.00  0.00    -0.000 C 
BRANCH   9  10
ATOM     10  C   UNL     1      43.420  61.594  26.105  1.00  0.00    -0.003 C 
ATOM     11  C   UNL     1      44.868  62.011  25.845  1.00  0.00     0.004 C 
ENDBRANCH   9  10
ENDBRANCH   8   9
ENDBRANCH   7   8
ENDBRANCH   1   7
TORSDOF 7
ENDMDL
