MODEL 1
REMARK VINA RESULT:    -5.362      0.000      0.000
REMARK INTER + INTRA:          -5.362
REMARK INTER:                  -5.362
REMARK INTRA:                   0.000
REMARK UNBOUND:                 0.000
REMARK SMILES O=c1ccc2ccccc2o1
REMARK SMILES IDX 7 1 8 2 9 3 10 4 5 5 6 6 4 7 3 8 2 9 1 10 11 11
REMARK H PARENT
REMARK Flexibility Score: inf
ROOT
ATOM      1  C   UNL     1     108.695  40.363 134.811  1.00  0.00     0.001 A 
ATOM      2  C   UNL     1     108.213  41.553 134.256  1.00  0.00     0.004 A 
ATOM      3  C   UNL     1     108.193  42.727 135.016  1.00  0.00     0.048 A 
ATOM      4  C   UNL     1     108.657  42.715 136.337  1.00  0.00     0.138 A 
ATOM      5  C   UNL     1     109.143  41.513 136.898  1.00  0.00     0.018 A 
ATOM      6  C   UNL     1     109.160  40.339 136.130  1.00  0.00     0.012 A 
ATOM      7  C   UNL     1     109.599  41.532 138.219  1.00  0.00     0.019 A 
ATOM      8  C   UNL     1     109.561  42.725 138.940  1.00  0.00     0.094 A 
ATOM      9  C   UNL     1     109.065  43.877 138.319  1.00  0.00     0.336 A 
ATOM     10  O   UNL     1     109.023  44.963 138.953  1.00  0.00    -0.246 OA
ATOM     11  O   UNL     1     108.638  43.832 137.060  1.00  0.00    -0.423 OA
ENDROOT
TORSDOF 0
ENDMDL
MODEL 2
REMARK VINA RESULT:    -5.329      1.692      2.399
REMARK INTER + INTRA:          -5.329
REMARK INTER:                  -5.329
REMARK INTRA:                   0.000
REMARK UNBOUND:                 0.000
REMARK SMILES O=c1ccc2ccccc2o1
REMARK SMILES IDX 7 1 8 2 9 3 10 4 5 5 6 6 4 7 3 8 2 9 1 10 11 11
REMARK H PARENT
REMARK Flexibility Score: inf
ROOT
ATOM      1  C   UNL     1     108.178  42.294 134.333  1.00  0.00     0.001 A 
ATOM      2  C   UNL     1     108.571  40.956 134.438  1.00  0.00     0.004 A 
ATOM      3  C   UNL     1     109.055  40.458 135.652  1.00  0.00     0.048 A 
ATOM      4  C   UNL     1     109.147  41.299 136.768  1.00  0.00     0.138 A 
ATOM      5  C   UNL     1     108.752  42.651 136.661  1.00  0.00     0.018 A 
ATOM      6  C   UNL     1     108.267  43.144 135.441  1.00  0.00     0.012 A 
ATOM      7  C   UNL     1     108.856  43.466 137.792  1.00  0.00     0.019 A 
ATOM      8  C   UNL     1     109.343  42.927 138.982  1.00  0.00     0.094 A 
ATOM      9  C   UNL     1     109.718  41.579 139.013  1.00  0.00     0.336 A 
ATOM     10  O   UNL     1     110.160  41.075 140.078  1.00  0.00    -0.246 OA
ATOM     11  O   UNL     1     109.608  40.824 137.923  1.00  0.00    -0.423 OA
ENDROOT
TORSDOF 0
ENDMDL
MODEL 3
REMARK VINA RESULT:    -5.181      1.864      4.359
REMARK INTER + INTRA:          -5.181
REMARK INTER:                  -5.181
REMARK INTRA:                   0.000
REMARK UNBOUND:                 0.000
REMARK SMILES O=c1ccc2ccccc2o1
REMARK SMILES IDX 7 1 8 2 9 3 10 4 5 5 6 6 4 7 3 8 2 9 1 10 11 11
REMARK H PARENT
REMARK Flexibility Score: inf
ROOT
ATOM      1  C   UNL     1     108.892  44.194 138.563  1.00  0.00     0.001 A 
ATOM      2  C   UNL     1     109.463  43.017 139.058  1.00  0.00     0.004 A 
ATOM      3  C   UNL     1     109.535  41.876 138.252  1.00  0.00     0.048 A 
ATOM      4  C   UNL     1     109.034  41.909 136.945  1.00  0.00     0.138 A 
ATOM      5  C   UNL     1     108.456  43.098 136.445  1.00  0.00     0.018 A 
ATOM      6  C   UNL     1     108.388  44.239 137.259  1.00  0.00     0.012 A 
ATOM      7  C   UNL     1     107.965  43.101 135.137  1.00  0.00     0.019 A 
ATOM      8  C   UNL     1     108.057  41.941 134.368  1.00  0.00     0.094 A 
ATOM      9  C   UNL     1     108.641  40.800 134.930  1.00  0.00     0.336 A 
ATOM     10  O   UNL     1     108.733  39.743 134.252  1.00  0.00    -0.246 OA
ATOM     11  O   UNL     1     109.102  40.824 136.178  1.00  0.00    -0.423 OA
ENDROOT
TORSDOF 0
ENDMDL
MODEL 4
REMARK VINA RESULT:    -5.170      1.180      1.356
REMARK INTER + INTRA:          -5.170
REMARK INTER:                  -5.170
REMARK INTRA:                   0.000
REMARK UNBOUND:                 0.000
REMARK SMILES O=c1ccc2ccccc2o1
REMARK SMILES IDX 7 1 8 2 9 3 10 4 5 5 6 6 4 7 3 8 2 9 1 10 11 11
REMARK H PARENT
REMARK Flexibility Score: inf
ROOT
ATOM      1  C   UNL     1     108.984  40.341 135.128  1.00  0.00     0.001 A 
ATOM      2  C   UNL     1     108.381  41.101 134.120  1.00  0.00     0.004 A 
ATOM      3  C   UNL     1     108.008  42.427 134.365  1.00  0.00     0.048 A 
ATOM      4  C   UNL     1     108.236  42.998 135.622  1.00  0.00     0.138 A 
ATOM      5  C   UNL     1     108.843  42.230 136.641  1.00  0.00     0.018 A 
ATOM      6  C   UNL     1     109.216  40.902 136.389  1.00  0.00     0.012 A 
ATOM      7  C   UNL     1     109.058  42.827 137.887  1.00  0.00     0.019 A 
ATOM      8  C   UNL     1     108.671  44.152 138.087  1.00  0.00     0.094 A 
ATOM      9  C   UNL     1     108.073  44.851 137.032  1.00  0.00     0.336 A 
ATOM     10  O   UNL     1     107.717  46.047 137.193  1.00  0.00    -0.246 OA
ATOM     11  O   UNL     1     107.881  44.259 135.856  1.00  0.00    -0.423 OA
ENDROOT
TORSDOF 0
ENDMDL
MODEL 5
REMARK VINA RESULT:    -5.124      0.990      2.087
REMARK INTER + INTRA:          -5.124
REMARK INTER:                  -5.124
REMARK INTRA:                   0.000
REMARK UNBOUND:                 0.000
REMARK SMILES O=c1ccc2ccccc2o1
REMARK SMILES IDX 7 1 8 2 9 3 10 4 5 5 6 6 4 7 3 8 2 9 1 10 11 11
REMARK H PARENT
REMARK Flexibility Score: inf
ROOT
ATOM      1  C   UNL     1     108.132  41.181 134.204  1.00  0.00     0.001 A 
ATOM      2  C   UNL     1     108.828  40.281 135.018  1.00  0.00     0.004 A 
ATOM      3  C   UNL     1     109.269  40.675 136.286  1.00  0.00     0.048 A 
ATOM      4  C   UNL     1     109.016  41.973 136.744  1.00  0.00     0.138 A 
ATOM      5  C   UNL     1     108.314  42.883 135.921  1.00  0.00     0.018 A 
ATOM      6  C   UNL     1     107.874  42.481 134.652  1.00  0.00     0.012 A 
ATOM      7  C   UNL     1     108.076  44.172 136.406  1.00  0.00     0.019 A 
ATOM      8  C   UNL     1     108.534  44.521 137.676  1.00  0.00     0.094 A 
ATOM      9  C   UNL     1     109.223  43.569 138.435  1.00  0.00     0.336 A 
ATOM     10  O   UNL     1     109.644  43.865 139.583  1.00  0.00    -0.246 OA
ATOM     11  O   UNL     1     109.436  42.348 137.950  1.00  0.00    -0.423 OA
ENDROOT
TORSDOF 0
ENDMDL
MODEL 6
REMARK VINA RESULT:    -5.057     12.758     13.924
REMARK INTER + INTRA:          -5.057
REMARK INTER:                  -5.057
REMARK INTRA:                   0.000
REMARK UNBOUND:                 0.000
REMARK SMILES O=c1ccc2ccccc2o1
REMARK SMILES IDX 7 1 8 2 9 3 10 4 5 5 6 6 4 7 3 8 2 9 1 10 11 11
REMARK H PARENT
REMARK Flexibility Score: inf
ROOT
ATOM      1  C   UNL     1     100.142  53.301 131.694  1.00  0.00     0.001 A 
ATOM      2  C   UNL     1     100.997  52.894 130.665  1.00  0.00     0.004 A 
ATOM      3  C   UNL     1     101.025  51.556 130.260  1.00  0.00     0.048 A 
ATOM      4  C   UNL     1     100.196  50.617 130.886  1.00  0.00     0.138 A 
ATOM      5  C   UNL     1      99.333  51.027 131.927  1.00  0.00     0.018 A 
ATOM      6  C   UNL     1      99.309  52.372 132.327  1.00  0.00     0.012 A 
ATOM      7  C   UNL     1      98.518  50.068 132.533  1.00  0.00     0.019 A 
ATOM      8  C   UNL     1      98.578  48.744 132.098  1.00  0.00     0.094 A 
ATOM      9  C   UNL     1      99.458  48.410 131.062  1.00  0.00     0.336 A 
ATOM     10  O   UNL     1      99.527  47.221 130.655  1.00  0.00    -0.246 OA
ATOM     11  O   UNL     1     100.223  49.343 130.501  1.00  0.00    -0.423 OA
ENDROOT
TORSDOF 0
ENDMDL
MODEL 7
REMARK VINA RESULT:    -4.930     12.490     13.498
REMARK INTER + INTRA:          -4.930
REMARK INTER:                  -4.930
REMARK INTRA:                   0.000
REMARK UNBOUND:                 0.000
REMARK SMILES O=c1ccc2ccccc2o1
REMARK SMILES IDX 7 1 8 2 9 3 10 4 5 5 6 6 4 7 3 8 2 9 1 10 11 11
REMARK H PARENT
REMARK Flexibility Score: inf
ROOT
ATOM      1  C   UNL     1      98.381  49.215 132.280  1.00  0.00     0.001 A 
ATOM      2  C   UNL     1      99.303  48.459 131.549  1.00  0.00     0.004 A 
ATOM      3  C   UNL     1     100.441  49.067 131.007  1.00  0.00     0.048 A 
ATOM      4  C   UNL     1     100.659  50.438 131.196  1.00  0.00     0.138 A 
ATOM      5  C   UNL     1      99.727  51.201 131.933  1.00  0.00     0.018 A 
ATOM      6  C   UNL     1      98.589  50.585 132.475  1.00  0.00     0.012 A 
ATOM      7  C   UNL     1      99.972  52.566 132.105  1.00  0.00     0.019 A 
ATOM      8  C   UNL     1     101.119  53.132 131.548  1.00  0.00     0.094 A 
ATOM      9  C   UNL     1     101.997  52.314 130.828  1.00  0.00     0.336 A 
ATOM     10  O   UNL     1     103.037  52.805 130.318  1.00  0.00    -0.246 OA
ATOM     11  O   UNL     1     101.741  51.016 130.680  1.00  0.00    -0.423 OA
ENDROOT
TORSDOF 0
ENDMDL
MODEL 8
REMARK VINA RESULT:    -4.919      1.633      3.822
REMARK INTER + INTRA:          -4.919
REMARK INTER:                  -4.919
REMARK INTRA:                   0.000
REMARK UNBOUND:                 0.000
REMARK SMILES O=c1ccc2ccccc2o1
REMARK SMILES IDX 7 1 8 2 9 3 10 4 5 5 6 6 4 7 3 8 2 9 1 10 11 11
REMARK H PARENT
REMARK Flexibility Score: inf
ROOT
ATOM      1  C   UNL     1     109.297  44.119 139.303  1.00  0.00     0.001 A 
ATOM      2  C   UNL     1     108.718  44.923 138.316  1.00  0.00     0.004 A 
ATOM      3  C   UNL     1     108.424  44.389 137.057  1.00  0.00     0.048 A 
ATOM      4  C   UNL     1     108.710  43.047 136.780  1.00  0.00     0.138 A 
ATOM      5  C   UNL     1     109.297  42.236 137.777  1.00  0.00     0.018 A 
ATOM      6  C   UNL     1     109.587  42.776 139.038  1.00  0.00     0.012 A 
ATOM      7  C   UNL     1     109.571  40.899 137.472  1.00  0.00     0.019 A 
ATOM      8  C   UNL     1     109.261  40.409 136.203  1.00  0.00     0.094 A 
ATOM      9  C   UNL     1     108.683  41.272 135.265  1.00  0.00     0.336 A 
ATOM     10  O   UNL     1     108.397  40.849 134.115  1.00  0.00    -0.246 OA
ATOM     11  O   UNL     1     108.431  42.540 135.582  1.00  0.00    -0.423 OA
ENDROOT
TORSDOF 0
ENDMDL
MODEL 9
REMARK VINA RESULT:    -4.817      1.997      4.212
REMARK INTER + INTRA:          -4.817
REMARK INTER:                  -4.817
REMARK INTRA:                   0.000
REMARK UNBOUND:                 0.000
REMARK SMILES O=c1ccc2ccccc2o1
REMARK SMILES IDX 7 1 8 2 9 3 10 4 5 5 6 6 4 7 3 8 2 9 1 10 11 11
REMARK H PARENT
REMARK Flexibility Score: inf
ROOT
ATOM      1  C   UNL     1     108.694  46.488 137.402  1.00  0.00     0.001 A 
ATOM      2  C   UNL     1     109.525  46.263 138.504  1.00  0.00     0.004 A 
ATOM      3  C   UNL     1     109.842  44.956 138.892  1.00  0.00     0.048 A 
ATOM      4  C   UNL     1     109.328  43.869 138.176  1.00  0.00     0.138 A 
ATOM      5  C   UNL     1     108.487  44.097 137.063  1.00  0.00     0.018 A 
ATOM      6  C   UNL     1     108.174  45.409 136.680  1.00  0.00     0.012 A 
ATOM      7  C   UNL     1     107.988  42.991 136.368  1.00  0.00     0.019 A 
ATOM      8  C   UNL     1     108.331  41.706 136.789  1.00  0.00     0.094 A 
ATOM      9  C   UNL     1     109.167  41.557 137.901  1.00  0.00     0.336 A 
ATOM     10  O   UNL     1     109.487  40.406 138.296  1.00  0.00    -0.246 OA
ATOM     11  O   UNL     1     109.629  42.626 138.544  1.00  0.00    -0.423 OA
ENDROOT
TORSDOF 0
ENDMDL
