MODEL 1
REMARK VINA RESULT:    -4.616      0.000      0.000
REMARK INTER + INTRA:          -7.831
REMARK INTER:                  -7.045
REMARK INTRA:                  -0.786
REMARK UNBOUND:                -0.786
REMARK SMILES O=C([O-])CCCCCCCCC(=O)[O-]
REMARK SMILES IDX 7 1 6 2 5 3 4 4 2 5 1 6 3 7 8 8 9 9 10 10 11 11 12 12 13 13
REMARK SMILES IDX 14 14
REMARK H PARENT
REMARK Flexibility Score: inf
ROOT
ATOM      1  C   UNL     1     -21.039 -26.279  39.916  1.00  0.00     0.000 C 
ENDROOT
BRANCH   1   2
ATOM      2  C   UNL     1     -21.124 -26.981  38.550  1.00  0.00     0.000 C 
BRANCH   2   3
ATOM      3  C   UNL     1     -22.177 -28.104  38.514  1.00  0.00     0.006 C 
BRANCH   3   4
ATOM      4  C   UNL     1     -22.710 -28.503  39.903  1.00  0.00     0.053 C 
BRANCH   4   5
ATOM      5  C   UNL     1     -24.028 -29.213  39.833  1.00  0.00     0.041 C 
ATOM      6  O   UNL     1     -24.582 -29.632  40.884  1.00  0.00    -0.550 OA
ATOM      7  O   UNL     1     -24.663 -29.382  38.608  1.00  0.00    -0.550 OA
ENDBRANCH   4   5
ENDBRANCH   3   4
ENDBRANCH   2   3
ENDBRANCH   1   2
BRANCH   1   8
ATOM      8  C   UNL     1     -20.892 -24.754  39.791  1.00  0.00     0.000 C 
BRANCH   8   9
ATOM      9  C   UNL     1     -21.843 -23.991  40.730  1.00  0.00     0.000 C 
BRANCH   9  10
ATOM     10  C   UNL     1     -22.784 -24.927  41.503  1.00  0.00     0.006 C 
BRANCH  10  11
ATOM     11  C   UNL     1     -24.266 -24.644  41.221  1.00  0.00     0.053 C 
BRANCH  11  12
ATOM     12  C   UNL     1     -25.111 -25.796  41.665  1.00  0.00     0.041 C 
ATOM     13  O   UNL     1     -24.640 -26.663  42.448  1.00  0.00    -0.550 OA
ATOM     14  O   UNL     1     -26.403 -25.940  41.175  1.00  0.00    -0.550 OA
ENDBRANCH  11  12
ENDBRANCH  10  11
ENDBRANCH   9  10
ENDBRANCH   8   9
ENDBRANCH   1   8
TORSDOF 9
ENDMDL
MODEL 2
REMARK VINA RESULT:    -4.590      1.236      2.005
REMARK INTER + INTRA:          -7.791
REMARK INTER:                  -7.074
REMARK INTRA:                  -0.717
REMARK UNBOUND:                -0.786
REMARK SMILES O=C([O-])CCCCCCCCC(=O)[O-]
REMARK SMILES IDX 7 1 6 2 5 3 4 4 2 5 1 6 3 7 8 8 9 9 10 10 11 11 12 12 13 13
REMARK SMILES IDX 14 14
REMARK H PARENT
REMARK Flexibility Score: inf
ROOT
ATOM      1  C   UNL     1     -21.052 -26.965  38.518  1.00  0.00     0.000 C 
ENDROOT
BRANCH   1   2
ATOM      2  C   UNL     1     -22.196 -27.976  38.704  1.00  0.00     0.000 C 
BRANCH   2   3
ATOM      3  C   UNL     1     -22.651 -28.109  40.169  1.00  0.00     0.006 C 
BRANCH   3   4
ATOM      4  C   UNL     1     -23.349 -29.445  40.487  1.00  0.00     0.053 C 
BRANCH   4   5
ATOM      5  C   UNL     1     -24.722 -29.533  39.893  1.00  0.00     0.041 C 
ATOM      6  O   UNL     1     -24.960 -30.341  38.956  1.00  0.00    -0.550 OA
ATOM      7  O   UNL     1     -25.750 -28.747  40.398  1.00  0.00    -0.550 OA
ENDBRANCH   4   5
ENDBRANCH   3   4
ENDBRANCH   2   3
ENDBRANCH   1   2
BRANCH   1   8
ATOM      8  C   UNL     1     -20.672 -26.250  39.825  1.00  0.00     0.000 C 
BRANCH   8   9
ATOM      9  C   UNL     1     -20.405 -24.749  39.620  1.00  0.00     0.000 C 
BRANCH   9  10
ATOM     10  C   UNL     1     -21.585 -23.873  40.070  1.00  0.00     0.006 C 
BRANCH  10  11
ATOM     11  C   UNL     1     -22.271 -24.408  41.334  1.00  0.00     0.053 C 
BRANCH  11  12
ATOM     12  C   UNL     1     -23.758 -24.322  41.196  1.00  0.00     0.041 C 
ATOM     13  O   UNL     1     -24.297 -23.254  40.803  1.00  0.00    -0.550 OA
ATOM     14  O   UNL     1     -24.553 -25.405  41.548  1.00  0.00    -0.550 OA
ENDBRANCH  11  12
ENDBRANCH  10  11
ENDBRANCH   9  10
ENDBRANCH   8   9
ENDBRANCH   1   8
TORSDOF 9
ENDMDL
MODEL 3
REMARK VINA RESULT:    -4.577      1.694      3.543
REMARK INTER + INTRA:          -7.772
REMARK INTER:                  -7.203
REMARK INTRA:                  -0.569
REMARK UNBOUND:                -0.786
REMARK SMILES O=C([O-])CCCCCCCCC(=O)[O-]
REMARK SMILES IDX 7 1 6 2 5 3 4 4 2 5 1 6 3 7 8 8 9 9 10 10 11 11 12 12 13 13
REMARK SMILES IDX 14 14
REMARK H PARENT
REMARK Flexibility Score: inf
ROOT
ATOM      1  C   UNL     1     -22.596 -28.135  39.984  1.00  0.00     0.000 C 
ENDROOT
BRANCH   1   2
ATOM      2  C   UNL     1     -23.293 -29.504  40.058  1.00  0.00     0.000 C 
BRANCH   2   3
ATOM      3  C   UNL     1     -24.691 -29.436  40.700  1.00  0.00     0.006 C 
BRANCH   3   4
ATOM      4  C   UNL     1     -25.586 -28.322  40.126  1.00  0.00     0.053 C 
BRANCH   4   5
ATOM      5  C   UNL     1     -25.965 -27.300  41.153  1.00  0.00     0.041 C 
ATOM      6  O   UNL     1     -27.029 -26.636  41.030  1.00  0.00    -0.550 OA
ATOM      7  O   UNL     1     -25.158 -27.101  42.268  1.00  0.00    -0.550 OA
ENDBRANCH   4   5
ENDBRANCH   3   4
ENDBRANCH   2   3
ENDBRANCH   1   2
BRANCH   1   8
ATOM      8  C   UNL     1     -21.929 -27.881  38.623  1.00  0.00     0.000 C 
BRANCH   8   9
ATOM      9  C   UNL     1     -20.928 -26.713  38.666  1.00  0.00     0.000 C 
BRANCH   9  10
ATOM     10  C   UNL     1     -20.871 -26.035  40.044  1.00  0.00     0.006 C 
BRANCH  10  11
ATOM     11  C   UNL     1     -21.127 -24.524  39.972  1.00  0.00     0.053 C 
BRANCH  11  12
ATOM     12  C   UNL     1     -22.066 -24.103  41.058  1.00  0.00     0.041 C 
ATOM     13  O   UNL     1     -22.995 -24.870  41.426  1.00  0.00    -0.550 OA
ATOM     14  O   UNL     1     -21.947 -22.843  41.631  1.00  0.00    -0.550 OA
ENDBRANCH  11  12
ENDBRANCH  10  11
ENDBRANCH   9  10
ENDBRANCH   8   9
ENDBRANCH   1   8
TORSDOF 9
ENDMDL
MODEL 4
REMARK VINA RESULT:    -4.518      2.921      5.321
REMARK INTER + INTRA:          -7.681
REMARK INTER:                  -7.279
REMARK INTRA:                  -0.402
REMARK UNBOUND:                -0.786
REMARK SMILES O=C([O-])CCCCCCCCC(=O)[O-]
REMARK SMILES IDX 7 1 6 2 5 3 4 4 2 5 1 6 3 7 8 8 9 9 10 10 11 11 12 12 13 13
REMARK SMILES IDX 14 14
REMARK H PARENT
REMARK Flexibility Score: inf
ROOT
ATOM      1  C   UNL     1     -22.989 -29.338  40.238  1.00  0.00     0.000 C 
ENDROOT
BRANCH   1   2
ATOM      2  C   UNL     1     -24.091 -29.114  41.288  1.00  0.00     0.000 C 
BRANCH   2   3
ATOM      3  C   UNL     1     -25.081 -28.002  40.895  1.00  0.00     0.006 C 
BRANCH   3   4
ATOM      4  C   UNL     1     -25.113 -26.819  41.881  1.00  0.00     0.053 C 
BRANCH   4   5
ATOM      5  C   UNL     1     -26.341 -25.974  41.729  1.00  0.00     0.041 C 
ATOM      6  O   UNL     1     -26.240 -24.737  41.512  1.00  0.00    -0.550 OA
ATOM      7  O   UNL     1     -27.600 -26.559  41.792  1.00  0.00    -0.550 OA
ENDBRANCH   4   5
ENDBRANCH   3   4
ENDBRANCH   2   3
ENDBRANCH   1   2
BRANCH   1   8
ATOM      8  C   UNL     1     -22.457 -28.023  39.645  1.00  0.00     0.000 C 
BRANCH   8   9
ATOM      9  C   UNL     1     -22.141 -28.139  38.144  1.00  0.00     0.000 C 
BRANCH   9  10
ATOM     10  C   UNL     1     -20.932 -27.287  37.729  1.00  0.00     0.006 C 
BRANCH  10  11
ATOM     11  C   UNL     1     -20.388 -26.429  38.880  1.00  0.00     0.053 C 
BRANCH  11  12
ATOM     12  C   UNL     1     -18.912 -26.233  38.732  1.00  0.00     0.041 C 
ATOM     13  O   UNL     1     -18.265 -26.907  37.887  1.00  0.00    -0.550 OA
ATOM     14  O   UNL     1     -18.243 -25.341  39.559  1.00  0.00    -0.550 OA
ENDBRANCH  11  12
ENDBRANCH  10  11
ENDBRANCH   9  10
ENDBRANCH   8   9
ENDBRANCH   1   8
TORSDOF 9
ENDMDL
MODEL 5
REMARK VINA RESULT:    -4.514      0.347      4.009
REMARK INTER + INTRA:          -7.675
REMARK INTER:                  -6.940
REMARK INTRA:                  -0.734
REMARK UNBOUND:                -0.786
REMARK SMILES O=C([O-])CCCCCCCCC(=O)[O-]
REMARK SMILES IDX 7 1 6 2 5 3 4 4 2 5 1 6 3 7 8 8 9 9 10 10 11 11 12 12 13 13
REMARK SMILES IDX 14 14
REMARK H PARENT
REMARK Flexibility Score: inf
ROOT
ATOM      1  C   UNL     1     -20.943 -24.819  40.019  1.00  0.00     0.000 C 
ENDROOT
BRANCH   1   2
ATOM      2  C   UNL     1     -22.172 -24.068  40.562  1.00  0.00     0.000 C 
BRANCH   2   3
ATOM      3  C   UNL     1     -23.063 -24.942  41.463  1.00  0.00     0.006 C 
BRANCH   3   4
ATOM      4  C   UNL     1     -24.570 -24.666  41.306  1.00  0.00     0.053 C 
BRANCH   4   5
ATOM      5  C   UNL     1     -25.420 -25.746  41.901  1.00  0.00     0.041 C 
ATOM      6  O   UNL     1     -26.674 -25.628  41.929  1.00  0.00    -0.550 OA
ATOM      7  O   UNL     1     -24.829 -26.904  42.394  1.00  0.00    -0.550 OA
ENDBRANCH   4   5
ENDBRANCH   3   4
ENDBRANCH   2   3
ENDBRANCH   1   2
BRANCH   1   8
ATOM      8  C   UNL     1     -21.113 -26.345  40.064  1.00  0.00     0.000 C 
BRANCH   8   9
ATOM      9  C   UNL     1     -21.127 -26.979  38.661  1.00  0.00     0.000 C 
BRANCH   9  10
ATOM     10  C   UNL     1     -22.138 -28.129  38.544  1.00  0.00     0.006 C 
BRANCH  10  11
ATOM     11  C   UNL     1     -22.778 -28.495  39.890  1.00  0.00     0.053 C 
BRANCH  11  12
ATOM     12  C   UNL     1     -24.114 -29.132  39.675  1.00  0.00     0.041 C 
ATOM     13  O   UNL     1     -24.702 -29.015  38.568  1.00  0.00    -0.550 OA
ATOM     14  O   UNL     1     -24.735 -29.815  40.715  1.00  0.00    -0.550 OA
ENDBRANCH  11  12
ENDBRANCH  10  11
ENDBRANCH   9  10
ENDBRANCH   8   9
ENDBRANCH   1   8
TORSDOF 9
ENDMDL
MODEL 6
REMARK VINA RESULT:    -4.506      2.367      4.447
REMARK INTER + INTRA:          -7.663
REMARK INTER:                  -7.017
REMARK INTRA:                  -0.646
REMARK UNBOUND:                -0.786
REMARK SMILES O=C([O-])CCCCCCCCC(=O)[O-]
REMARK SMILES IDX 7 1 6 2 5 3 4 4 2 5 1 6 3 7 8 8 9 9 10 10 11 11 12 12 13 13
REMARK SMILES IDX 14 14
REMARK H PARENT
REMARK Flexibility Score: inf
ROOT
ATOM      1  C   UNL     1     -24.077 -29.023  39.263  1.00  0.00     0.000 C 
ENDROOT
BRANCH   1   2
ATOM      2  C   UNL     1     -24.975 -29.052  40.512  1.00  0.00     0.000 C 
BRANCH   2   3
ATOM      3  C   UNL     1     -25.774 -27.751  40.710  1.00  0.00     0.006 C 
BRANCH   3   4
ATOM      4  C   UNL     1     -25.088 -26.734  41.642  1.00  0.00     0.053 C 
BRANCH   4   5
ATOM      5  C   UNL     1     -25.977 -25.581  41.993  1.00  0.00     0.041 C 
ATOM      6  O   UNL     1     -26.867 -25.709  42.876  1.00  0.00    -0.550 OA
ATOM      7  O   UNL     1     -25.803 -24.352  41.368  1.00  0.00    -0.550 OA
ENDBRANCH   4   5
ENDBRANCH   3   4
ENDBRANCH   2   3
ENDBRANCH   1   2
BRANCH   1   8
ATOM      8  C   UNL     1     -22.631 -28.611  39.581  1.00  0.00     0.000 C 
BRANCH   8   9
ATOM      9  C   UNL     1     -21.918 -27.980  38.372  1.00  0.00     0.000 C 
BRANCH   9  10
ATOM     10  C   UNL     1     -21.105 -26.732  38.753  1.00  0.00     0.006 C 
BRANCH  10  11
ATOM     11  C   UNL     1     -21.299 -26.324  40.218  1.00  0.00     0.053 C 
BRANCH  11  12
ATOM     12  C   UNL     1     -21.671 -24.877  40.312  1.00  0.00     0.041 C 
ATOM     13  O   UNL     1     -21.433 -24.099  39.351  1.00  0.00    -0.550 OA
ATOM     14  O   UNL     1     -22.235 -24.378  41.479  1.00  0.00    -0.550 OA
ENDBRANCH  11  12
ENDBRANCH  10  11
ENDBRANCH   9  10
ENDBRANCH   8   9
ENDBRANCH   1   8
TORSDOF 9
ENDMDL
MODEL 7
REMARK VINA RESULT:    -4.463      1.708      4.077
REMARK INTER + INTRA:          -7.597
REMARK INTER:                  -6.984
REMARK INTRA:                  -0.613
REMARK UNBOUND:                -0.786
REMARK SMILES O=C([O-])CCCCCCCCC(=O)[O-]
REMARK SMILES IDX 7 1 6 2 5 3 4 4 2 5 1 6 3 7 8 8 9 9 10 10 11 11 12 12 13 13
REMARK SMILES IDX 14 14
REMARK H PARENT
REMARK Flexibility Score: inf
ROOT
ATOM      1  C   UNL     1     -21.879 -28.129  38.198  1.00  0.00     0.000 C 
ENDROOT
BRANCH   1   2
ATOM      2  C   UNL     1     -21.064 -26.850  38.453  1.00  0.00     0.000 C 
BRANCH   2   3
ATOM      3  C   UNL     1     -21.051 -26.428  39.934  1.00  0.00     0.006 C 
BRANCH   3   4
ATOM      4  C   UNL     1     -20.863 -24.915  40.149  1.00  0.00     0.053 C 
BRANCH   4   5
ATOM      5  C   UNL     1     -21.966 -24.306  40.959  1.00  0.00     0.041 C 
ATOM      6  O   UNL     1     -23.027 -24.950  41.177  1.00  0.00    -0.550 OA
ATOM      7  O   UNL     1     -21.810 -23.037  41.505  1.00  0.00    -0.550 OA
ENDBRANCH   4   5
ENDBRANCH   3   4
ENDBRANCH   2   3
ENDBRANCH   1   2
BRANCH   1   8
ATOM      8  C   UNL     1     -22.689 -28.572  39.427  1.00  0.00     0.000 C 
BRANCH   8   9
ATOM      9  C   UNL     1     -24.112 -29.029  39.062  1.00  0.00     0.000 C 
BRANCH   9  10
ATOM     10  C   UNL     1     -25.041 -29.098  40.284  1.00  0.00     0.006 C 
BRANCH  10  11
ATOM     11  C   UNL     1     -24.643 -28.109  41.387  1.00  0.00     0.053 C 
BRANCH  11  12
ATOM     12  C   UNL     1     -25.727 -27.100  41.599  1.00  0.00     0.041 C 
ATOM     13  O   UNL     1     -25.661 -26.293  42.564  1.00  0.00    -0.550 OA
ATOM     14  O   UNL     1     -26.834 -27.082  40.760  1.00  0.00    -0.550 OA
ENDBRANCH  11  12
ENDBRANCH  10  11
ENDBRANCH   9  10
ENDBRANCH   8   9
ENDBRANCH   1   8
TORSDOF 9
ENDMDL
MODEL 8
REMARK VINA RESULT:    -4.457      1.967      4.882
REMARK INTER + INTRA:          -7.588
REMARK INTER:                  -7.062
REMARK INTRA:                  -0.527
REMARK UNBOUND:                -0.786
REMARK SMILES O=C([O-])CCCCCCCCC(=O)[O-]
REMARK SMILES IDX 7 1 6 2 5 3 4 4 2 5 1 6 3 7 8 8 9 9 10 10 11 11 12 12 13 13
REMARK SMILES IDX 14 14
REMARK H PARENT
REMARK Flexibility Score: inf
ROOT
ATOM      1  C   UNL     1     -21.872 -27.703  38.810  1.00  0.00     0.000 C 
ENDROOT
BRANCH   1   2
ATOM      2  C   UNL     1     -20.772 -26.628  38.846  1.00  0.00     0.000 C 
BRANCH   2   3
ATOM      3  C   UNL     1     -21.323 -25.207  39.062  1.00  0.00     0.006 C 
BRANCH   3   4
ATOM      4  C   UNL     1     -20.890 -24.566  40.394  1.00  0.00     0.053 C 
BRANCH   4   5
ATOM      5  C   UNL     1     -22.043 -24.001  41.164  1.00  0.00     0.041 C 
ATOM      6  O   UNL     1     -22.991 -24.745  41.529  1.00  0.00    -0.550 OA
ATOM      7  O   UNL     1     -22.056 -22.655  41.511  1.00  0.00    -0.550 OA
ENDBRANCH   4   5
ENDBRANCH   3   4
ENDBRANCH   2   3
ENDBRANCH   1   2
BRANCH   1   8
ATOM      8  C   UNL     1     -22.612 -27.840  40.150  1.00  0.00     0.000 C 
BRANCH   8   9
ATOM      9  C   UNL     1     -22.936 -29.303  40.498  1.00  0.00     0.000 C 
BRANCH   9  10
ATOM     10  C   UNL     1     -24.372 -29.483  41.013  1.00  0.00     0.006 C 
BRANCH  10  11
ATOM     11  C   UNL     1     -25.429 -29.109  39.965  1.00  0.00     0.053 C 
BRANCH  11  12
ATOM     12  C   UNL     1     -25.360 -30.044  38.799  1.00  0.00     0.041 C 
ATOM     13  O   UNL     1     -24.875 -29.656  37.704  1.00  0.00    -0.550 OA
ATOM     14  O   UNL     1     -25.878 -31.329  38.906  1.00  0.00    -0.550 OA
ENDBRANCH  11  12
ENDBRANCH  10  11
ENDBRANCH   9  10
ENDBRANCH   8   9
ENDBRANCH   1   8
TORSDOF 9
ENDMDL
MODEL 9
REMARK VINA RESULT:    -4.428      1.733      4.490
REMARK INTER + INTRA:          -7.544
REMARK INTER:                  -7.065
REMARK INTRA:                  -0.479
REMARK UNBOUND:                -0.786
REMARK SMILES O=C([O-])CCCCCCCCC(=O)[O-]
REMARK SMILES IDX 7 1 6 2 5 3 4 4 2 5 1 6 3 7 8 8 9 9 10 10 11 11 12 12 13 13
REMARK SMILES IDX 14 14
REMARK H PARENT
REMARK Flexibility Score: inf
ROOT
ATOM      1  C   UNL     1     -20.570 -26.295  39.482  1.00  0.00     0.000 C 
ENDROOT
BRANCH   1   2
ATOM      2  C   UNL     1     -20.977 -24.830  39.717  1.00  0.00     0.000 C 
BRANCH   2   3
ATOM      3  C   UNL     1     -21.805 -24.633  40.999  1.00  0.00     0.006 C 
BRANCH   3   4
ATOM      4  C   UNL     1     -22.374 -23.211  41.161  1.00  0.00     0.053 C 
BRANCH   4   5
ATOM      5  C   UNL     1     -23.784 -23.094  40.669  1.00  0.00     0.041 C 
ATOM      6  O   UNL     1     -24.678 -23.866  41.107  1.00  0.00    -0.550 OA
ATOM      7  O   UNL     1     -24.121 -22.108  39.749  1.00  0.00    -0.550 OA
ENDBRANCH   4   5
ENDBRANCH   3   4
ENDBRANCH   2   3
ENDBRANCH   1   2
BRANCH   1   8
ATOM      8  C   UNL     1     -21.142 -26.868  38.176  1.00  0.00     0.000 C 
BRANCH   8   9
ATOM      9  C   UNL     1     -21.976 -28.141  38.406  1.00  0.00     0.000 C 
BRANCH   9  10
ATOM     10  C   UNL     1     -22.580 -28.203  39.817  1.00  0.00     0.006 C 
BRANCH  10  11
ATOM     11  C   UNL     1     -23.534 -29.390  40.002  1.00  0.00     0.053 C 
BRANCH  11  12
ATOM     12  C   UNL     1     -24.927 -28.906  40.254  1.00  0.00     0.041 C 
ATOM     13  O   UNL     1     -25.905 -29.473  39.698  1.00  0.00    -0.550 OA
ATOM     14  O   UNL     1     -25.143 -27.798  41.064  1.00  0.00    -0.550 OA
ENDBRANCH  11  12
ENDBRANCH  10  11
ENDBRANCH   9  10
ENDBRANCH   8   9
ENDBRANCH   1   8
TORSDOF 9
ENDMDL
