MODEL 1
REMARK VINA RESULT:    -4.899      0.000      0.000
REMARK INTER + INTRA:         -10.539
REMARK INTER:                  -8.908
REMARK INTRA:                  -1.631
REMARK UNBOUND:                -1.631
REMARK SMILES CCCCCC=CCC=CCCCCCCCC(=O)[O-]
REMARK SMILES IDX 11 1 12 2 13 3 14 4 15 5 16 6 17 7 18 8 19 9 20 10 10 11
REMARK SMILES IDX 9 12 8 13 7 14 6 15 5 16 4 17 3 18 2 19 1 20
REMARK H PARENT
REMARK Flexibility Score: inf
ROOT
ATOM      1  C   UNL     1      16.606  99.845  22.697  1.00  0.00     0.027 C 
ENDROOT
BRANCH   1   2
ATOM      2  C   UNL     1      16.965  99.248  24.063  1.00  0.00     0.004 C 
BRANCH   2   3
ATOM      3  C   UNL     1      18.063  98.182  23.923  1.00  0.00     0.000 C 
BRANCH   3   4
ATOM      4  C   UNL     1      18.744  97.853  25.261  1.00  0.00     0.000 C 
BRANCH   4   5
ATOM      5  C   UNL     1      18.599  98.987  26.290  1.00  0.00     0.000 C 
BRANCH   5   6
ATOM      6  C   UNL     1      19.916  99.750  26.526  1.00  0.00     0.006 C 
BRANCH   6   7
ATOM      7  C   UNL     1      20.280  99.952  28.006  1.00  0.00     0.053 C 
BRANCH   7   8
ATOM      8  C   UNL     1      21.221  98.897  28.502  1.00  0.00     0.041 C 
ATOM      9  O   UNL     1      21.485  97.896  27.784  1.00  0.00    -0.550 OA
ATOM     10  O   UNL     1      21.776  99.002  29.770  1.00  0.00    -0.550 OA
ENDBRANCH   7   8
ENDBRANCH   6   7
ENDBRANCH   5   6
ENDBRANCH   4   5
ENDBRANCH   3   4
ENDBRANCH   2   3
ENDBRANCH   1   2
BRANCH   1  11
ATOM     11  C   UNL     1      15.115  99.913  22.508  1.00  0.00    -0.031 C 
ATOM     12  C   UNL     1      14.267  99.617  23.504  1.00  0.00    -0.027 C 
BRANCH  12  13
ATOM     13  C   UNL     1      12.780  99.699  23.295  1.00  0.00     0.054 C 
BRANCH  13  14
ATOM     14  C   UNL     1      12.403  99.286  21.901  1.00  0.00    -0.027 C 
ATOM     15  C   UNL     1      11.831  98.097  21.653  1.00  0.00    -0.031 C 
BRANCH  15  16
ATOM     16  C   UNL     1      11.462  97.678  20.257  1.00  0.00     0.027 C 
BRANCH  16  17
ATOM     17  C   UNL     1      12.562  96.809  19.629  1.00  0.00     0.004 C 
BRANCH  17  18
ATOM     18  C   UNL     1      13.516  96.220  20.689  1.00  0.00     0.000 C 
BRANCH  18  19
ATOM     19  C   UNL     1      14.976  96.676  20.524  1.00  0.00    -0.003 C 
ATOM     20  C   UNL     1      15.901  96.123  21.606  1.00  0.00     0.004 C 
ENDBRANCH  18  19
ENDBRANCH  17  18
ENDBRANCH  16  17
ENDBRANCH  15  16
ENDBRANCH  13  14
ENDBRANCH  12  13
ENDBRANCH   1  11
TORSDOF 14
ENDMDL
MODEL 2
REMARK VINA RESULT:    -4.724      2.282      4.190
REMARK INTER + INTRA:         -10.222
REMARK INTER:                  -7.325
REMARK INTRA:                  -2.897
REMARK UNBOUND:                -1.631
REMARK SMILES CCCCCC=CCC=CCCCCCCCC(=O)[O-]
REMARK SMILES IDX 11 1 12 2 13 3 14 4 15 5 16 6 17 7 18 8 19 9 20 10 10 11
REMARK SMILES IDX 9 12 8 13 7 14 6 15 5 16 4 17 3 18 2 19 1 20
REMARK H PARENT
REMARK Flexibility Score: inf
ROOT
ATOM      1  C   UNL     1      11.437  99.954  23.786  1.00  0.00     0.027 C 
ENDROOT
BRANCH   1   2
ATOM      2  C   UNL     1      12.890 100.438  23.858  1.00  0.00     0.004 C 
BRANCH   2   3
ATOM      3  C   UNL     1      13.600  99.858  25.091  1.00  0.00     0.000 C 
BRANCH   3   4
ATOM      4  C   UNL     1      14.900  99.118  24.734  1.00  0.00     0.000 C 
BRANCH   4   5
ATOM      5  C   UNL     1      15.587  99.702  23.488  1.00  0.00     0.000 C 
BRANCH   5   6
ATOM      6  C   UNL     1      17.055  99.257  23.353  1.00  0.00     0.006 C 
BRANCH   6   7
ATOM      7  C   UNL     1      17.723  98.854  24.678  1.00  0.00     0.053 C 
BRANCH   7   8
ATOM      8  C   UNL     1      18.539  97.606  24.538  1.00  0.00     0.041 C 
ATOM      9  O   UNL     1      18.538  96.966  23.453  1.00  0.00    -0.550 OA
ATOM     10  O   UNL     1      19.270  97.129  25.618  1.00  0.00    -0.550 OA
ENDBRANCH   7   8
ENDBRANCH   6   7
ENDBRANCH   5   6
ENDBRANCH   4   5
ENDBRANCH   3   4
ENDBRANCH   2   3
ENDBRANCH   1   2
BRANCH   1  11
ATOM     11  C   UNL     1      11.272  98.877  22.749  1.00  0.00    -0.031 C 
ATOM     12  C   UNL     1      12.019  98.855  21.635  1.00  0.00    -0.027 C 
BRANCH  12  13
ATOM     13  C   UNL     1      11.843  97.764  20.615  1.00  0.00     0.054 C 
BRANCH  13  14
ATOM     14  C   UNL     1      13.098  96.951  20.466  1.00  0.00    -0.027 C 
ATOM     15  C   UNL     1      14.226  97.279  21.115  1.00  0.00    -0.031 C 
BRANCH  15  16
ATOM     16  C   UNL     1      15.486  96.473  20.959  1.00  0.00     0.027 C 
BRANCH  16  17
ATOM     17  C   UNL     1      15.548  95.337  21.991  1.00  0.00     0.004 C 
BRANCH  17  18
ATOM     18  C   UNL     1      15.181  95.817  23.411  1.00  0.00     0.000 C 
BRANCH  18  19
ATOM     19  C   UNL     1      13.974  95.080  24.016  1.00  0.00    -0.003 C 
ATOM     20  C   UNL     1      12.854  96.023  24.453  1.00  0.00     0.004 C 
ENDBRANCH  18  19
ENDBRANCH  17  18
ENDBRANCH  16  17
ENDBRANCH  15  16
ENDBRANCH  13  14
ENDBRANCH  12  13
ENDBRANCH   1  11
TORSDOF 14
ENDMDL
MODEL 3
REMARK VINA RESULT:    -4.716      3.179      5.984
REMARK INTER + INTRA:         -10.206
REMARK INTER:                  -7.439
REMARK INTRA:                  -2.768
REMARK UNBOUND:                -1.631
REMARK SMILES CCCCCC=CCC=CCCCCCCCC(=O)[O-]
REMARK SMILES IDX 11 1 12 2 13 3 14 4 15 5 16 6 17 7 18 8 19 9 20 10 10 11
REMARK SMILES IDX 9 12 8 13 7 14 6 15 5 16 4 17 3 18 2 19 1 20
REMARK H PARENT
REMARK Flexibility Score: inf
ROOT
ATOM      1  C   UNL     1      11.549  97.544  20.454  1.00  0.00     0.027 C 
ENDROOT
BRANCH   1   2
ATOM      2  C   UNL     1      12.824  96.810  20.023  1.00  0.00     0.004 C 
BRANCH   2   3
ATOM      3  C   UNL     1      14.052  97.363  20.763  1.00  0.00     0.000 C 
BRANCH   3   4
ATOM      4  C   UNL     1      15.148  96.304  20.968  1.00  0.00     0.000 C 
BRANCH   4   5
ATOM      5  C   UNL     1      15.376  95.973  22.453  1.00  0.00     0.000 C 
BRANCH   5   6
ATOM      6  C   UNL     1      14.148  96.288  23.329  1.00  0.00     0.006 C 
BRANCH   6   7
ATOM      7  C   UNL     1      14.402  96.187  24.841  1.00  0.00     0.053 C 
BRANCH   7   8
ATOM      8  C   UNL     1      14.546  94.766  25.293  1.00  0.00     0.041 C 
ATOM      9  O   UNL     1      15.633  94.365  25.788  1.00  0.00    -0.550 OA
ATOM     10  O   UNL     1      13.492  93.876  25.133  1.00  0.00    -0.550 OA
ENDBRANCH   7   8
ENDBRANCH   6   7
ENDBRANCH   5   6
ENDBRANCH   4   5
ENDBRANCH   3   4
ENDBRANCH   2   3
ENDBRANCH   1   2
BRANCH   1  11
ATOM     11  C   UNL     1      11.866  98.691  21.374  1.00  0.00    -0.031 C 
ATOM     12  C   UNL     1      11.385  98.742  22.625  1.00  0.00    -0.027 C 
BRANCH  12  13
ATOM     13  C   UNL     1      11.721  99.894  23.531  1.00  0.00     0.054 C 
BRANCH  13  14
ATOM     14  C   UNL     1      13.057  99.696  24.188  1.00  0.00    -0.027 C 
ATOM     15  C   UNL     1      14.203  99.927  23.529  1.00  0.00    -0.031 C 
BRANCH  15  16
ATOM     16  C   UNL     1      15.542  99.720  24.183  1.00  0.00     0.027 C 
BRANCH  16  17
ATOM     17  C   UNL     1      16.635  99.454  23.137  1.00  0.00     0.004 C 
BRANCH  17  18
ATOM     18  C   UNL     1      17.993  99.114  23.786  1.00  0.00     0.000 C 
BRANCH  18  19
ATOM     19  C   UNL     1      18.321  97.612  23.776  1.00  0.00    -0.003 C 
ATOM     20  C   UNL     1      18.015  96.923  25.105  1.00  0.00     0.004 C 
ENDBRANCH  18  19
ENDBRANCH  17  18
ENDBRANCH  16  17
ENDBRANCH  15  16
ENDBRANCH  13  14
ENDBRANCH  12  13
ENDBRANCH   1  11
TORSDOF 14
ENDMDL
MODEL 4
REMARK VINA RESULT:    -4.648      2.485      2.864
REMARK INTER + INTRA:         -10.084
REMARK INTER:                  -8.473
REMARK INTRA:                  -1.611
REMARK UNBOUND:                -1.631
REMARK SMILES CCCCCC=CCC=CCCCCCCCC(=O)[O-]
REMARK SMILES IDX 11 1 12 2 13 3 14 4 15 5 16 6 17 7 18 8 19 9 20 10 10 11
REMARK SMILES IDX 9 12 8 13 7 14 6 15 5 16 4 17 3 18 2 19 1 20
REMARK H PARENT
REMARK Flexibility Score: inf
ROOT
ATOM      1  C   UNL     1      16.250  99.854  22.688  1.00  0.00     0.027 C 
ENDROOT
BRANCH   1   2
ATOM      2  C   UNL     1      16.700  99.243  24.021  1.00  0.00     0.004 C 
BRANCH   2   3
ATOM      3  C   UNL     1      18.094  98.611  23.891  1.00  0.00     0.000 C 
BRANCH   3   4
ATOM      4  C   UNL     1      18.150  97.178  24.445  1.00  0.00     0.000 C 
BRANCH   4   5
ATOM      5  C   UNL     1      19.418  96.426  24.007  1.00  0.00     0.000 C 
BRANCH   5   6
ATOM      6  C   UNL     1      19.734  95.216  24.907  1.00  0.00     0.006 C 
BRANCH   6   7
ATOM      7  C   UNL     1      21.050  95.332  25.692  1.00  0.00     0.053 C 
BRANCH   7   8
ATOM      8  C   UNL     1      22.237  94.968  24.855  1.00  0.00     0.041 C 
ATOM      9  O   UNL     1      22.542  93.759  24.679  1.00  0.00    -0.550 OA
ATOM     10  O   UNL     1      23.028  95.966  24.299  1.00  0.00    -0.550 OA
ENDBRANCH   7   8
ENDBRANCH   6   7
ENDBRANCH   5   6
ENDBRANCH   4   5
ENDBRANCH   3   4
ENDBRANCH   2   3
ENDBRANCH   1   2
BRANCH   1  11
ATOM     11  C   UNL     1      14.764  99.719  22.501  1.00  0.00    -0.031 C 
ATOM     12  C   UNL     1      13.911  99.870  23.525  1.00  0.00    -0.027 C 
BRANCH  12  13
ATOM     13  C   UNL     1      12.428  99.738  23.314  1.00  0.00     0.054 C 
BRANCH  13  14
ATOM     14  C   UNL     1      12.120  99.182  21.953  1.00  0.00    -0.027 C 
ATOM     15  C   UNL     1      11.605  97.952  21.799  1.00  0.00    -0.031 C 
BRANCH  15  16
ATOM     16  C   UNL     1      11.304  97.390  20.437  1.00  0.00     0.027 C 
BRANCH  16  17
ATOM     17  C   UNL     1      12.583  96.889  19.750  1.00  0.00     0.004 C 
BRANCH  17  18
ATOM     18  C   UNL     1      13.542  96.192  20.737  1.00  0.00     0.000 C 
BRANCH  18  19
ATOM     19  C   UNL     1      15.011  96.617  20.573  1.00  0.00    -0.003 C 
ATOM     20  C   UNL     1      15.935  95.998  21.620  1.00  0.00     0.004 C 
ENDBRANCH  18  19
ENDBRANCH  17  18
ENDBRANCH  16  17
ENDBRANCH  15  16
ENDBRANCH  13  14
ENDBRANCH  12  13
ENDBRANCH   1  11
TORSDOF 14
ENDMDL
MODEL 5
REMARK VINA RESULT:    -4.599      3.473      6.480
REMARK INTER + INTRA:          -9.995
REMARK INTER:                  -7.129
REMARK INTRA:                  -2.866
REMARK UNBOUND:                -1.631
REMARK SMILES CCCCCC=CCC=CCCCCCCCC(=O)[O-]
REMARK SMILES IDX 11 1 12 2 13 3 14 4 15 5 16 6 17 7 18 8 19 9 20 10 10 11
REMARK SMILES IDX 9 12 8 13 7 14 6 15 5 16 4 17 3 18 2 19 1 20
REMARK H PARENT
REMARK Flexibility Score: inf
ROOT
ATOM      1  C   UNL     1      11.266  98.488  22.182  1.00  0.00     0.027 C 
ENDROOT
BRANCH   1   2
ATOM      2  C   UNL     1      12.060  98.542  20.872  1.00  0.00     0.004 C 
BRANCH   2   3
ATOM      3  C   UNL     1      12.008  97.190  20.144  1.00  0.00     0.000 C 
BRANCH   3   4
ATOM      4  C   UNL     1      13.183  96.271  20.514  1.00  0.00     0.000 C 
BRANCH   4   5
ATOM      5  C   UNL     1      14.541  96.989  20.431  1.00  0.00     0.000 C 
BRANCH   5   6
ATOM      6  C   UNL     1      15.394  96.800  21.700  1.00  0.00     0.006 C 
BRANCH   6   7
ATOM      7  C   UNL     1      14.647  96.157  22.880  1.00  0.00     0.053 C 
BRANCH   7   8
ATOM      8  C   UNL     1      15.245  94.842  23.274  1.00  0.00     0.041 C 
ATOM      9  O   UNL     1      15.930  94.184  22.446  1.00  0.00    -0.550 OA
ATOM     10  O   UNL     1      15.015  94.326  24.543  1.00  0.00    -0.550 OA
ENDBRANCH   7   8
ENDBRANCH   6   7
ENDBRANCH   5   6
ENDBRANCH   4   5
ENDBRANCH   3   4
ENDBRANCH   2   3
ENDBRANCH   1   2
BRANCH   1  11
ATOM     11  C   UNL     1      12.087  98.993  23.337  1.00  0.00    -0.031 C 
ATOM     12  C   UNL     1      13.238  99.653  23.145  1.00  0.00    -0.027 C 
BRANCH  12  13
ATOM     13  C   UNL     1      14.039 100.157  24.314  1.00  0.00     0.054 C 
BRANCH  13  14
ATOM     14  C   UNL     1      15.459  99.671  24.250  1.00  0.00    -0.027 C 
ATOM     15  C   UNL     1      16.262  99.988  23.222  1.00  0.00    -0.031 C 
BRANCH  15  16
ATOM     16  C   UNL     1      17.680  99.495  23.151  1.00  0.00     0.027 C 
BRANCH  16  17
ATOM     17  C   UNL     1      17.904  98.308  24.100  1.00  0.00     0.004 C 
BRANCH  17  18
ATOM     18  C   UNL     1      18.568  97.110  23.390  1.00  0.00     0.000 C 
BRANCH  18  19
ATOM     19  C   UNL     1      18.749  95.881  24.296  1.00  0.00    -0.003 C 
ATOM     20  C   UNL     1      17.951  95.971  25.595  1.00  0.00     0.004 C 
ENDBRANCH  18  19
ENDBRANCH  17  18
ENDBRANCH  16  17
ENDBRANCH  15  16
ENDBRANCH  13  14
ENDBRANCH  12  13
ENDBRANCH   1  11
TORSDOF 14
ENDMDL
MODEL 6
REMARK VINA RESULT:    -4.538      2.171      3.706
REMARK INTER + INTRA:          -9.883
REMARK INTER:                  -7.501
REMARK INTRA:                  -2.382
REMARK UNBOUND:                -1.631
REMARK SMILES CCCCCC=CCC=CCCCCCCCC(=O)[O-]
REMARK SMILES IDX 11 1 12 2 13 3 14 4 15 5 16 6 17 7 18 8 19 9 20 10 10 11
REMARK SMILES IDX 9 12 8 13 7 14 6 15 5 16 4 17 3 18 2 19 1 20
REMARK H PARENT
REMARK Flexibility Score: inf
ROOT
ATOM      1  C   UNL     1      12.647  99.635  23.102  1.00  0.00     0.027 C 
ENDROOT
BRANCH   1   2
ATOM      2  C   UNL     1      14.077  99.875  23.601  1.00  0.00     0.004 C 
BRANCH   2   3
ATOM      3  C   UNL     1      15.075  99.856  22.433  1.00  0.00     0.000 C 
BRANCH   3   4
ATOM      4  C   UNL     1      16.539  99.888  22.904  1.00  0.00     0.000 C 
BRANCH   4   5
ATOM      5  C   UNL     1      16.729  99.233  24.282  1.00  0.00     0.000 C 
BRANCH   5   6
ATOM      6  C   UNL     1      18.166  98.725  24.508  1.00  0.00     0.006 C 
BRANCH   6   7
ATOM      7  C   UNL     1      18.485  97.390  23.817  1.00  0.00     0.053 C 
BRANCH   7   8
ATOM      8  C   UNL     1      19.219  96.451  24.724  1.00  0.00     0.041 C 
ATOM      9  O   UNL     1      19.904  96.899  25.681  1.00  0.00    -0.550 OA
ATOM     10  O   UNL     1      19.177  95.082  24.489  1.00  0.00    -0.550 OA
ENDBRANCH   7   8
ENDBRANCH   6   7
ENDBRANCH   5   6
ENDBRANCH   4   5
ENDBRANCH   3   4
ENDBRANCH   2   3
ENDBRANCH   1   2
BRANCH   1  11
ATOM     11  C   UNL     1      12.644  98.868  21.809  1.00  0.00    -0.031 C 
ATOM     12  C   UNL     1      11.501  98.456  21.240  1.00  0.00    -0.027 C 
BRANCH  12  13
ATOM     13  C   UNL     1      11.521  97.697  19.942  1.00  0.00     0.054 C 
BRANCH  13  14
ATOM     14  C   UNL     1      12.225  96.379  20.093  1.00  0.00    -0.027 C 
ATOM     15  C   UNL     1      11.732  95.406  20.874  1.00  0.00    -0.031 C 
BRANCH  15  16
ATOM     16  C   UNL     1      12.441  94.090  21.034  1.00  0.00     0.027 C 
BRANCH  16  17
ATOM     17  C   UNL     1      13.893  94.293  21.491  1.00  0.00     0.004 C 
BRANCH  17  18
ATOM     18  C   UNL     1      13.983  95.070  22.822  1.00  0.00     0.000 C 
BRANCH  18  19
ATOM     19  C   UNL     1      15.061  96.167  22.822  1.00  0.00    -0.003 C 
ATOM     20  C   UNL     1      15.728  96.352  21.460  1.00  0.00     0.004 C 
ENDBRANCH  18  19
ENDBRANCH  17  18
ENDBRANCH  16  17
ENDBRANCH  15  16
ENDBRANCH  13  14
ENDBRANCH  12  13
ENDBRANCH   1  11
TORSDOF 14
ENDMDL
MODEL 7
REMARK VINA RESULT:    -4.534      2.800      3.549
REMARK INTER + INTRA:          -9.876
REMARK INTER:                  -7.251
REMARK INTRA:                  -2.624
REMARK UNBOUND:                -1.631
REMARK SMILES CCCCCC=CCC=CCCCCCCCC(=O)[O-]
REMARK SMILES IDX 11 1 12 2 13 3 14 4 15 5 16 6 17 7 18 8 19 9 20 10 10 11
REMARK SMILES IDX 9 12 8 13 7 14 6 15 5 16 4 17 3 18 2 19 1 20
REMARK H PARENT
REMARK Flexibility Score: inf
ROOT
ATOM      1  C   UNL     1      15.390  99.776  24.216  1.00  0.00     0.027 C 
ENDROOT
BRANCH   1   2
ATOM      2  C   UNL     1      16.198 100.004  22.933  1.00  0.00     0.004 C 
BRANCH   2   3
ATOM      3  C   UNL     1      17.664  99.589  23.128  1.00  0.00     0.000 C 
BRANCH   3   4
ATOM      4  C   UNL     1      17.892  98.814  24.436  1.00  0.00     0.000 C 
BRANCH   4   5
ATOM      5  C   UNL     1      18.501  97.422  24.198  1.00  0.00     0.000 C 
BRANCH   5   6
ATOM      6  C   UNL     1      18.222  96.444  25.355  1.00  0.00     0.006 C 
BRANCH   6   7
ATOM      7  C   UNL     1      18.083  94.974  24.928  1.00  0.00     0.053 C 
BRANCH   7   8
ATOM      8  C   UNL     1      16.967  94.283  25.648  1.00  0.00     0.041 C 
ATOM      9  O   UNL     1      16.466  93.227  25.177  1.00  0.00    -0.550 OA
ATOM     10  O   UNL     1      16.455  94.825  26.820  1.00  0.00    -0.550 OA
ENDBRANCH   7   8
ENDBRANCH   6   7
ENDBRANCH   5   6
ENDBRANCH   4   5
ENDBRANCH   3   4
ENDBRANCH   2   3
ENDBRANCH   1   2
BRANCH   1  11
ATOM     11  C   UNL     1      13.988  99.330  23.904  1.00  0.00    -0.031 C 
ATOM     12  C   UNL     1      13.344  99.754  22.807  1.00  0.00    -0.027 C 
BRANCH  12  13
ATOM     13  C   UNL     1      11.945  99.289  22.510  1.00  0.00     0.054 C 
BRANCH  13  14
ATOM     14  C   UNL     1      11.947  97.920  21.892  1.00  0.00    -0.027 C 
ATOM     15  C   UNL     1      12.492  97.696  20.687  1.00  0.00    -0.031 C 
BRANCH  15  16
ATOM     16  C   UNL     1      12.486  96.329  20.062  1.00  0.00     0.027 C 
BRANCH  16  17
ATOM     17  C   UNL     1      13.785  95.570  20.374  1.00  0.00     0.004 C 
BRANCH  17  18
ATOM     18  C   UNL     1      15.005  96.511  20.457  1.00  0.00     0.000 C 
BRANCH  18  19
ATOM     19  C   UNL     1      15.875  96.281  21.704  1.00  0.00    -0.003 C 
ATOM     20  C   UNL     1      15.055  95.992  22.961  1.00  0.00     0.004 C 
ENDBRANCH  18  19
ENDBRANCH  17  18
ENDBRANCH  16  17
ENDBRANCH  15  16
ENDBRANCH  13  14
ENDBRANCH  12  13
ENDBRANCH   1  11
TORSDOF 14
ENDMDL
MODEL 8
REMARK VINA RESULT:    -4.484      2.612      4.445
REMARK INTER + INTRA:          -9.785
REMARK INTER:                  -7.122
REMARK INTRA:                  -2.663
REMARK UNBOUND:                -1.631
REMARK SMILES CCCCCC=CCC=CCCCCCCCC(=O)[O-]
REMARK SMILES IDX 11 1 12 2 13 3 14 4 15 5 16 6 17 7 18 8 19 9 20 10 10 11
REMARK SMILES IDX 9 12 8 13 7 14 6 15 5 16 4 17 3 18 2 19 1 20
REMARK H PARENT
REMARK Flexibility Score: inf
ROOT
ATOM      1  C   UNL     1      14.190  95.696  20.734  1.00  0.00     0.027 C 
ENDROOT
BRANCH   1   2
ATOM      2  C   UNL     1      15.217  96.819  20.544  1.00  0.00     0.004 C 
BRANCH   2   3
ATOM      3  C   UNL     1      15.565  97.476  21.888  1.00  0.00     0.000 C 
BRANCH   3   4
ATOM      4  C   UNL     1      15.240  98.978  21.916  1.00  0.00     0.000 C 
BRANCH   4   5
ATOM      5  C   UNL     1      15.898  99.702  23.102  1.00  0.00     0.000 C 
BRANCH   5   6
ATOM      6  C   UNL     1      17.311  99.173  23.413  1.00  0.00     0.006 C 
BRANCH   6   7
ATOM      7  C   UNL     1      17.488  98.625  24.838  1.00  0.00     0.053 C 
BRANCH   7   8
ATOM      8  C   UNL     1      17.968  97.206  24.838  1.00  0.00     0.041 C 
ATOM      9  O   UNL     1      17.593  96.410  25.740  1.00  0.00    -0.550 OA
ATOM     10  O   UNL     1      18.859  96.774  23.865  1.00  0.00    -0.550 OA
ENDBRANCH   7   8
ENDBRANCH   6   7
ENDBRANCH   5   6
ENDBRANCH   4   5
ENDBRANCH   3   4
ENDBRANCH   2   3
ENDBRANCH   1   2
BRANCH   1  11
ATOM     11  C   UNL     1      12.795  96.248  20.849  1.00  0.00    -0.031 C 
ATOM     12  C   UNL     1      12.394  97.299  20.119  1.00  0.00    -0.027 C 
BRANCH  12  13
ATOM     13  C   UNL     1      10.992  97.829  20.243  1.00  0.00     0.054 C 
BRANCH  13  14
ATOM     14  C   UNL     1      10.765  98.453  21.590  1.00  0.00    -0.027 C 
ATOM     15  C   UNL     1      11.747  99.099  22.238  1.00  0.00    -0.031 C 
BRANCH  15  16
ATOM     16  C   UNL     1      11.525  99.716  23.591  1.00  0.00     0.027 C 
BRANCH  16  17
ATOM     17  C   UNL     1      12.485  99.127  24.635  1.00  0.00     0.004 C 
BRANCH  17  18
ATOM     18  C   UNL     1      12.741  97.622  24.409  1.00  0.00     0.000 C 
BRANCH  18  19
ATOM     19  C   UNL     1      14.056  97.121  25.030  1.00  0.00    -0.003 C 
ATOM     20  C   UNL     1      14.237  95.609  24.910  1.00  0.00     0.004 C 
ENDBRANCH  18  19
ENDBRANCH  17  18
ENDBRANCH  16  17
ENDBRANCH  15  16
ENDBRANCH  13  14
ENDBRANCH  12  13
ENDBRANCH   1  11
TORSDOF 14
ENDMDL
MODEL 9
REMARK VINA RESULT:    -4.478      3.989      5.082
REMARK INTER + INTRA:          -9.774
REMARK INTER:                  -7.232
REMARK INTRA:                  -2.541
REMARK UNBOUND:                -1.631
REMARK SMILES CCCCCC=CCC=CCCCCCCCC(=O)[O-]
REMARK SMILES IDX 11 1 12 2 13 3 14 4 15 5 16 6 17 7 18 8 19 9 20 10 10 11
REMARK SMILES IDX 9 12 8 13 7 14 6 15 5 16 4 17 3 18 2 19 1 20
REMARK H PARENT
REMARK Flexibility Score: inf
ROOT
ATOM      1  C   UNL     1      17.803  99.464  23.470  1.00  0.00     0.027 C 
ENDROOT
BRANCH   1   2
ATOM      2  C   UNL     1      17.815  98.205  24.345  1.00  0.00     0.004 C 
BRANCH   2   3
ATOM      3  C   UNL     1      17.773  96.937  23.479  1.00  0.00     0.000 C 
BRANCH   3   4
ATOM      4  C   UNL     1      17.313  95.698  24.265  1.00  0.00     0.000 C 
BRANCH   4   5
ATOM      5  C   UNL     1      15.839  95.346  24.000  1.00  0.00     0.000 C 
BRANCH   5   6
ATOM      6  C   UNL     1      14.878  96.013  25.002  1.00  0.00     0.006 C 
BRANCH   6   7
ATOM      7  C   UNL     1      13.447  96.211  24.478  1.00  0.00     0.053 C 
BRANCH   7   8
ATOM      8  C   UNL     1      12.577  95.025  24.759  1.00  0.00     0.041 C 
ATOM      9  O   UNL     1      12.875  93.894  24.289  1.00  0.00    -0.550 OA
ATOM     10  O   UNL     1      11.418  95.175  25.510  1.00  0.00    -0.550 OA
ENDBRANCH   7   8
ENDBRANCH   6   7
ENDBRANCH   5   6
ENDBRANCH   4   5
ENDBRANCH   3   4
ENDBRANCH   2   3
ENDBRANCH   1   2
BRANCH   1  11
ATOM     11  C   UNL     1      16.396  99.902  23.166  1.00  0.00    -0.031 C 
ATOM     12  C   UNL     1      15.358  99.499  23.913  1.00  0.00    -0.027 C 
BRANCH  12  13
ATOM     13  C   UNL     1      13.961  99.955  23.595  1.00  0.00     0.054 C 
BRANCH  13  14
ATOM     14  C   UNL     1      13.447  99.300  22.345  1.00  0.00    -0.027 C 
ATOM     15  C   UNL     1      12.133  99.121  22.137  1.00  0.00    -0.031 C 
BRANCH  15  16
ATOM     16  C   UNL     1      11.617  98.457  20.891  1.00  0.00     0.027 C 
BRANCH  16  17
ATOM     17  C   UNL     1      11.717  96.928  20.994  1.00  0.00     0.004 C 
BRANCH  17  18
ATOM     18  C   UNL     1      12.775  96.346  20.033  1.00  0.00     0.000 C 
BRANCH  18  19
ATOM     19  C   UNL     1      14.027  95.811  20.747  1.00  0.00    -0.003 C 
ATOM     20  C   UNL     1      15.261  96.685  20.530  1.00  0.00     0.004 C 
ENDBRANCH  18  19
ENDBRANCH  17  18
ENDBRANCH  16  17
ENDBRANCH  15  16
ENDBRANCH  13  14
ENDBRANCH  12  13
ENDBRANCH   1  11
TORSDOF 14
ENDMDL
