MODEL 1
REMARK VINA RESULT:     0.000      0.000      0.000
REMARK INTER + INTRA:          -2.600
REMARK INTER:                   0.000
REMARK INTRA:                  -2.600
REMARK UNBOUND:                -2.600
REMARK SMILES COc1cc(CNC(=O)CCCCC=CC(C)C)ccc1O
REMARK SMILES IDX 11 1 12 2 13 3 14 4 15 5 16 6 17 7 18 8 10 9 8 10 9 11 7 12
REMARK SMILES IDX 6 14 5 15 4 16 19 17 3 18 20 19 21 20 2 21 1 22 22 23
REMARK H PARENT 7 13 22 24
REMARK Flexibility Score: inf
ROOT
ATOM      1  C   UNL     1      12.003  47.565  36.282  1.00  0.00     0.010 C 
ENDROOT
BRANCH   1   2
ATOM      2  C   UNL     1      10.901  47.552  37.352  1.00  0.00     0.005 C 
BRANCH   2   3
ATOM      3  C   UNL     1       9.500  47.683  36.737  1.00  0.00     0.027 C 
BRANCH   3   4
ATOM      4  C   UNL     1       9.549  47.727  35.231  1.00  0.00    -0.031 C 
ATOM      5  C   UNL     1       9.047  48.721  34.472  1.00  0.00    -0.028 C 
BRANCH   5   6
ATOM      6  C   UNL     1       8.431  49.993  35.014  1.00  0.00     0.005 C 
ATOM      7  C   UNL     1       6.914  49.823  35.135  1.00  0.00     0.012 C 
ATOM      8  C   UNL     1       8.769  51.167  34.089  1.00  0.00     0.012 C 
ENDBRANCH   5   6
ENDBRANCH   3   4
ENDBRANCH   2   3
ENDBRANCH   1   2
BRANCH   1   9
ATOM      9  C   UNL     1      13.012  48.691  36.546  1.00  0.00     0.100 C 
BRANCH   9  10
ATOM     10  C   UNL     1      12.374  50.045  36.409  1.00  0.00     0.220 C 
ATOM     11  O   UNL     1      12.050  50.470  35.266  1.00  0.00    -0.275 OA
ATOM     12  N   UNL     1      12.185  50.873  37.567  1.00  0.00    -0.352 N 
ATOM     13  H   UNL     1      12.519  50.534  38.500  1.00  0.00     0.163 HD
BRANCH  12  14
ATOM     14  C   UNL     1      11.494  52.158  37.507  1.00  0.00     0.151 C 
BRANCH  14  15
ATOM     15  C   UNL     1      10.023  51.983  37.771  1.00  0.00    -0.025 A 
ATOM     16  C   UNL     1       9.104  52.914  37.262  1.00  0.00     0.056 A 
ATOM     17  C   UNL     1       9.559  50.894  38.526  1.00  0.00     0.009 A 
ATOM     18  C   UNL     1       7.725  52.764  37.509  1.00  0.00     0.160 A 
ATOM     19  C   UNL     1       8.193  50.742  38.774  1.00  0.00     0.050 A 
ATOM     20  C   UNL     1       7.277  51.675  38.273  1.00  0.00     0.157 A 
BRANCH  18  21
ATOM     21  O   UNL     1       6.774  53.672  37.017  1.00  0.00    -0.493 OA
ATOM     22  C   UNL     1       6.280  53.675  35.681  1.00  0.00     0.278 C 
ENDBRANCH  18  21
BRANCH  20  23
ATOM     23  O   UNL     1       5.915  51.527  38.529  1.00  0.00    -0.504 OA
ATOM     24  H   UNL     1       5.297  51.076  37.866  1.00  0.00     0.293 HD
ENDBRANCH  20  23
ENDBRANCH  14  15
ENDBRANCH  12  14
ENDBRANCH   9  10
ENDBRANCH   1   9
TORSDOF 10
ENDMDL
MODEL 2
REMARK VINA RESULT:     0.000      5.369      7.412
REMARK INTER + INTRA:          -2.600
REMARK INTER:                   0.000
REMARK INTRA:                  -2.600
REMARK UNBOUND:                -2.600
REMARK SMILES COc1cc(CNC(=O)CCCCC=CC(C)C)ccc1O
REMARK SMILES IDX 11 1 12 2 13 3 14 4 15 5 16 6 17 7 18 8 10 9 8 10 9 11 7 12
REMARK SMILES IDX 6 14 5 15 4 16 19 17 3 18 20 19 21 20 2 21 1 22 22 23
REMARK H PARENT 7 13 22 24
REMARK Flexibility Score: inf
ROOT
ATOM      1  C   UNL     1       6.787  50.537  36.551  1.00  0.00     0.010 C 
ENDROOT
BRANCH   1   2
ATOM      2  C   UNL     1       6.385  49.653  37.741  1.00  0.00     0.005 C 
BRANCH   2   3
ATOM      3  C   UNL     1       6.306  48.168  37.355  1.00  0.00     0.027 C 
BRANCH   3   4
ATOM      4  C   UNL     1       6.711  47.938  35.921  1.00  0.00    -0.031 C 
ATOM      5  C   UNL     1       5.940  47.344  34.989  1.00  0.00    -0.028 C 
BRANCH   5   6
ATOM      6  C   UNL     1       4.513  46.889  35.210  1.00  0.00     0.005 C 
ATOM      7  C   UNL     1       4.498  45.416  35.626  1.00  0.00     0.012 C 
ATOM      8  C   UNL     1       3.699  47.096  33.929  1.00  0.00     0.012 C 
ENDBRANCH   5   6
ENDBRANCH   3   4
ENDBRANCH   2   3
ENDBRANCH   1   2
BRANCH   1   9
ATOM      9  C   UNL     1       5.733  51.620  36.290  1.00  0.00     0.100 C 
BRANCH   9  10
ATOM     10  C   UNL     1       4.425  51.022  35.854  1.00  0.00     0.220 C 
ATOM     11  O   UNL     1       4.325  50.509  34.706  1.00  0.00    -0.275 OA
ATOM     12  N   UNL     1       3.280  51.084  36.719  1.00  0.00    -0.352 N 
ATOM     13  H   UNL     1       3.360  51.571  37.642  1.00  0.00     0.163 HD
BRANCH  12  14
ATOM     14  C   UNL     1       2.010  50.445  36.384  1.00  0.00     0.151 C 
BRANCH  14  15
ATOM     15  C   UNL     1       1.962  49.043  36.928  1.00  0.00    -0.025 A 
ATOM     16  C   UNL     1       1.139  48.082  36.318  1.00  0.00     0.056 A 
ATOM     17  C   UNL     1       2.733  48.684  38.044  1.00  0.00     0.009 A 
ATOM     18  C   UNL     1       1.080  46.769  36.823  1.00  0.00     0.160 A 
ATOM     19  C   UNL     1       2.678  47.383  38.549  1.00  0.00     0.050 A 
ATOM     20  C   UNL     1       1.851  46.427  37.946  1.00  0.00     0.157 A 
BRANCH  18  21
ATOM     21  O   UNL     1       0.271  45.780  36.242  1.00  0.00    -0.493 OA
ATOM     22  C   UNL     1       0.613  45.047  35.068  1.00  0.00     0.278 C 
ENDBRANCH  18  21
BRANCH  20  23
ATOM     23  O   UNL     1       1.789  45.132  38.456  1.00  0.00    -0.504 OA
ATOM     24  H   UNL     1       2.183  44.898  39.359  1.00  0.00     0.293 HD
ENDBRANCH  20  23
ENDBRANCH  14  15
ENDBRANCH  12  14
ENDBRANCH   9  10
ENDBRANCH   1   9
TORSDOF 10
ENDMDL
MODEL 3
REMARK VINA RESULT:     0.000      3.531      5.764
REMARK INTER + INTRA:          -2.600
REMARK INTER:                   0.000
REMARK INTRA:                  -2.600
REMARK UNBOUND:                -2.600
REMARK SMILES COc1cc(CNC(=O)CCCCC=CC(C)C)ccc1O
REMARK SMILES IDX 11 1 12 2 13 3 14 4 15 5 16 6 17 7 18 8 10 9 8 10 9 11 7 12
REMARK SMILES IDX 6 14 5 15 4 16 19 17 3 18 20 19 21 20 2 21 1 22 22 23
REMARK H PARENT 7 13 22 24
REMARK Flexibility Score: inf
ROOT
ATOM      1  C   UNL     1       6.660  50.756  38.866  1.00  0.00     0.010 C 
ENDROOT
BRANCH   1   2
ATOM      2  C   UNL     1       6.665  52.264  39.156  1.00  0.00     0.005 C 
BRANCH   2   3
ATOM      3  C   UNL     1       5.283  52.897  38.938  1.00  0.00     0.027 C 
BRANCH   3   4
ATOM      4  C   UNL     1       4.247  51.870  38.558  1.00  0.00    -0.031 C 
ATOM      5  C   UNL     1       3.500  51.908  37.438  1.00  0.00    -0.028 C 
BRANCH   5   6
ATOM      6  C   UNL     1       3.640  52.941  36.340  1.00  0.00     0.005 C 
ATOM      7  C   UNL     1       2.663  54.094  36.586  1.00  0.00     0.012 C 
ATOM      8  C   UNL     1       3.375  52.291  34.978  1.00  0.00     0.012 C 
ENDBRANCH   5   6
ENDBRANCH   3   4
ENDBRANCH   2   3
ENDBRANCH   1   2
BRANCH   1   9
ATOM      9  C   UNL     1       7.697  50.398  37.793  1.00  0.00     0.100 C 
BRANCH   9  10
ATOM     10  C   UNL     1       7.350  51.011  36.465  1.00  0.00     0.220 C 
ATOM     11  O   UNL     1       6.371  50.564  35.808  1.00  0.00    -0.275 OA
ATOM     12  N   UNL     1       8.162  52.064  35.924  1.00  0.00    -0.352 N 
ATOM     13  H   UNL     1       9.010  52.381  36.451  1.00  0.00     0.163 HD
BRANCH  12  14
ATOM     14  C   UNL     1       7.824  52.755  34.682  1.00  0.00     0.151 C 
BRANCH  14  15
ATOM     15  C   UNL     1       6.979  53.968  34.963  1.00  0.00    -0.025 A 
ATOM     16  C   UNL     1       6.115  54.463  33.974  1.00  0.00     0.056 A 
ATOM     17  C   UNL     1       7.048  54.612  36.207  1.00  0.00     0.009 A 
ATOM     18  C   UNL     1       5.325  55.603  34.222  1.00  0.00     0.160 A 
ATOM     19  C   UNL     1       6.267  55.742  36.458  1.00  0.00     0.050 A 
ATOM     20  C   UNL     1       5.410  56.242  35.470  1.00  0.00     0.157 A 
BRANCH  18  21
ATOM     21  O   UNL     1       4.448  56.129  33.260  1.00  0.00    -0.493 OA
ATOM     22  C   UNL     1       3.155  55.602  32.976  1.00  0.00     0.278 C 
ENDBRANCH  18  21
BRANCH  20  23
ATOM     23  O   UNL     1       4.638  57.375  35.717  1.00  0.00    -0.504 OA
ATOM     24  H   UNL     1       3.791  57.329  36.270  1.00  0.00     0.293 HD
ENDBRANCH  20  23
ENDBRANCH  14  15
ENDBRANCH  12  14
ENDBRANCH   9  10
ENDBRANCH   1   9
TORSDOF 10
ENDMDL
MODEL 4
REMARK VINA RESULT:     0.000      2.351      4.300
REMARK INTER + INTRA:          -2.600
REMARK INTER:                   0.000
REMARK INTRA:                  -2.600
REMARK UNBOUND:                -2.600
REMARK SMILES COc1cc(CNC(=O)CCCCC=CC(C)C)ccc1O
REMARK SMILES IDX 11 1 12 2 13 3 14 4 15 5 16 6 17 7 18 8 10 9 8 10 9 11 7 12
REMARK SMILES IDX 6 14 5 15 4 16 19 17 3 18 20 19 21 20 2 21 1 22 22 23
REMARK H PARENT 7 13 22 24
REMARK Flexibility Score: inf
ROOT
ATOM      1  C   UNL     1       9.127  47.926  33.462  1.00  0.00     0.010 C 
ENDROOT
BRANCH   1   2
ATOM      2  C   UNL     1       8.669  49.386  33.588  1.00  0.00     0.005 C 
BRANCH   2   3
ATOM      3  C   UNL     1       9.838  50.333  33.893  1.00  0.00     0.027 C 
BRANCH   3   4
ATOM      4  C   UNL     1      11.158  49.604  33.928  1.00  0.00    -0.031 C 
ATOM      5  C   UNL     1      12.004  49.594  34.976  1.00  0.00    -0.028 C 
BRANCH   5   6
ATOM      6  C   UNL     1      11.728  50.241  36.316  1.00  0.00     0.005 C 
ATOM      7  C   UNL     1      12.309  51.658  36.337  1.00  0.00     0.012 C 
ATOM      8  C   UNL     1      12.337  49.393  37.437  1.00  0.00     0.012 C 
ENDBRANCH   5   6
ENDBRANCH   3   4
ENDBRANCH   2   3
ENDBRANCH   1   2
BRANCH   1   9
ATOM      9  C   UNL     1       8.378  47.026  34.453  1.00  0.00     0.100 C 
BRANCH   9  10
ATOM     10  C   UNL     1       8.712  47.376  35.876  1.00  0.00     0.220 C 
ATOM     11  O   UNL     1       9.853  47.098  36.336  1.00  0.00    -0.275 OA
ATOM     12  N   UNL     1       7.718  47.974  36.723  1.00  0.00    -0.352 N 
ATOM     13  H   UNL     1       6.755  48.138  36.346  1.00  0.00     0.163 HD
BRANCH  12  14
ATOM     14  C   UNL     1       8.010  48.414  38.084  1.00  0.00     0.151 C 
BRANCH  14  15
ATOM     15  C   UNL     1       8.444  49.854  38.095  1.00  0.00    -0.025 A 
ATOM     16  C   UNL     1       9.259  50.333  39.133  1.00  0.00     0.056 A 
ATOM     17  C   UNL     1       8.039  50.728  37.074  1.00  0.00     0.009 A 
ATOM     18  C   UNL     1       9.665  51.682  39.158  1.00  0.00     0.160 A 
ATOM     19  C   UNL     1       8.438  52.066  37.095  1.00  0.00     0.050 A 
ATOM     20  C   UNL     1       9.245  52.546  38.134  1.00  0.00     0.157 A 
BRANCH  18  21
ATOM     21  O   UNL     1      10.480  52.199  40.177  1.00  0.00    -0.493 OA
ATOM     22  C   UNL     1      11.894  52.032  40.239  1.00  0.00     0.278 C 
ENDBRANCH  18  21
BRANCH  20  23
ATOM     23  O   UNL     1       9.635  53.884  38.159  1.00  0.00    -0.504 OA
ATOM     24  H   UNL     1       8.957  54.635  38.117  1.00  0.00     0.293 HD
ENDBRANCH  20  23
ENDBRANCH  14  15
ENDBRANCH  12  14
ENDBRANCH   9  10
ENDBRANCH   1   9
TORSDOF 10
ENDMDL
MODEL 5
REMARK VINA RESULT:     0.000      8.503     10.387
REMARK INTER + INTRA:          -2.600
REMARK INTER:                   0.000
REMARK INTRA:                  -2.600
REMARK UNBOUND:                -2.600
REMARK SMILES COc1cc(CNC(=O)CCCCC=CC(C)C)ccc1O
REMARK SMILES IDX 11 1 12 2 13 3 14 4 15 5 16 6 17 7 18 8 10 9 8 10 9 11 7 12
REMARK SMILES IDX 6 14 5 15 4 16 19 17 3 18 20 19 21 20 2 21 1 22 22 23
REMARK H PARENT 7 13 22 24
REMARK Flexibility Score: inf
ROOT
ATOM      1  C   UNL     1       8.001  41.499  30.524  1.00  0.00     0.010 C 
ENDROOT
BRANCH   1   2
ATOM      2  C   UNL     1       7.904  42.994  30.864  1.00  0.00     0.005 C 
BRANCH   2   3
ATOM      3  C   UNL     1       7.834  43.238  32.378  1.00  0.00     0.027 C 
BRANCH   3   4
ATOM      4  C   UNL     1       7.947  41.953  33.160  1.00  0.00    -0.031 C 
ATOM      5  C   UNL     1       7.036  41.510  34.049  1.00  0.00    -0.028 C 
BRANCH   5   6
ATOM      6  C   UNL     1       5.714  42.187  34.340  1.00  0.00     0.005 C 
ATOM      7  C   UNL     1       5.869  43.134  35.534  1.00  0.00     0.012 C 
ATOM      8  C   UNL     1       4.642  41.130  34.627  1.00  0.00     0.012 C 
ENDBRANCH   5   6
ENDBRANCH   3   4
ENDBRANCH   2   3
ENDBRANCH   1   2
BRANCH   1   9
ATOM      9  C   UNL     1       6.855  41.069  29.600  1.00  0.00     0.100 C 
BRANCH   9  10
ATOM     10  C   UNL     1       5.522  41.185  30.283  1.00  0.00     0.220 C 
ATOM     11  O   UNL     1       5.217  40.375  31.200  1.00  0.00    -0.275 OA
ATOM     12  N   UNL     1       4.578  42.181  29.857  1.00  0.00    -0.352 N 
ATOM     13  H   UNL     1       4.819  42.804  29.051  1.00  0.00     0.163 HD
BRANCH  12  14
ATOM     14  C   UNL     1       3.305  42.397  30.540  1.00  0.00     0.151 C 
BRANCH  14  15
ATOM     15  C   UNL     1       3.451  43.437  31.617  1.00  0.00    -0.025 A 
ATOM     16  C   UNL     1       2.577  43.435  32.716  1.00  0.00     0.056 A 
ATOM     17  C   UNL     1       4.455  44.414  31.534  1.00  0.00     0.009 A 
ATOM     18  C   UNL     1       2.698  44.409  33.726  1.00  0.00     0.160 A 
ATOM     19  C   UNL     1       4.579  45.382  32.533  1.00  0.00     0.050 A 
ATOM     20  C   UNL     1       3.703  45.385  33.625  1.00  0.00     0.157 A 
BRANCH  18  21
ATOM     21  O   UNL     1       1.845  44.441  34.841  1.00  0.00    -0.493 OA
ATOM     22  C   UNL     1       1.981  43.600  35.983  1.00  0.00     0.278 C 
ENDBRANCH  18  21
BRANCH  20  23
ATOM     23  O   UNL     1       3.821  46.357  34.617  1.00  0.00    -0.504 OA
ATOM     24  H   UNL     1       3.419  47.280  34.506  1.00  0.00     0.293 HD
ENDBRANCH  20  23
ENDBRANCH  14  15
ENDBRANCH  12  14
ENDBRANCH   9  10
ENDBRANCH   1   9
TORSDOF 10
ENDMDL
MODEL 6
REMARK VINA RESULT:     0.001      7.770      9.621
REMARK INTER + INTRA:          -2.599
REMARK INTER:                   0.000
REMARK INTRA:                  -2.599
REMARK UNBOUND:                -2.600
REMARK SMILES COc1cc(CNC(=O)CCCCC=CC(C)C)ccc1O
REMARK SMILES IDX 11 1 12 2 13 3 14 4 15 5 16 6 17 7 18 8 10 9 8 10 9 11 7 12
REMARK SMILES IDX 6 14 5 15 4 16 19 17 3 18 20 19 21 20 2 21 1 22 22 23
REMARK H PARENT 7 13 22 24
REMARK Flexibility Score: inf
ROOT
ATOM      1  C   UNL     1      14.555  44.281  32.780  1.00  0.00     0.010 C 
ENDROOT
BRANCH   1   2
ATOM      2  C   UNL     1      13.479  45.376  32.800  1.00  0.00     0.005 C 
BRANCH   2   3
ATOM      3  C   UNL     1      12.205  44.919  33.526  1.00  0.00     0.027 C 
BRANCH   3   4
ATOM      4  C   UNL     1      12.349  43.530  34.093  1.00  0.00    -0.031 C 
ATOM      5  C   UNL     1      11.539  42.493  33.806  1.00  0.00    -0.028 C 
BRANCH   5   6
ATOM      6  C   UNL     1      10.407  42.533  32.801  1.00  0.00     0.005 C 
ATOM      7  C   UNL     1       9.096  42.881  33.513  1.00  0.00     0.012 C 
ATOM      8  C   UNL     1      10.293  41.180  32.093  1.00  0.00     0.012 C 
ENDBRANCH   5   6
ENDBRANCH   3   4
ENDBRANCH   2   3
ENDBRANCH   1   2
BRANCH   1   9
ATOM      9  C   UNL     1      14.977  43.951  31.342  1.00  0.00     0.100 C 
BRANCH   9  10
ATOM     10  C   UNL     1      13.844  43.345  30.561  1.00  0.00     0.220 C 
ATOM     11  O   UNL     1      13.462  42.172  30.822  1.00  0.00    -0.275 OA
ATOM     12  N   UNL     1      13.236  44.080  29.487  1.00  0.00    -0.352 N 
ATOM     13  H   UNL     1      13.607  45.027  29.239  1.00  0.00     0.163 HD
BRANCH  12  14
ATOM     14  C   UNL     1      12.078  43.578  28.752  1.00  0.00     0.151 C 
BRANCH  14  15
ATOM     15  C   UNL     1      10.800  44.051  29.389  1.00  0.00    -0.025 A 
ATOM     16  C   UNL     1       9.618  43.311  29.222  1.00  0.00     0.056 A 
ATOM     17  C   UNL     1      10.776  45.229  30.152  1.00  0.00     0.009 A 
ATOM     18  C   UNL     1       8.414  43.748  29.808  1.00  0.00     0.160 A 
ATOM     19  C   UNL     1       9.585  45.666  30.734  1.00  0.00     0.050 A 
ATOM     20  C   UNL     1       8.404  44.934  30.561  1.00  0.00     0.157 A 
BRANCH  18  21
ATOM     21  O   UNL     1       7.212  43.037  29.665  1.00  0.00    -0.493 OA
ATOM     22  C   UNL     1       6.867  41.878  30.419  1.00  0.00     0.278 C 
ENDBRANCH  18  21
BRANCH  20  23
ATOM     23  O   UNL     1       7.213  45.375  31.134  1.00  0.00    -0.504 OA
ATOM     24  H   UNL     1       6.398  44.777  31.189  1.00  0.00     0.293 HD
ENDBRANCH  20  23
ENDBRANCH  14  15
ENDBRANCH  12  14
ENDBRANCH   9  10
ENDBRANCH   1   9
TORSDOF 10
ENDMDL
MODEL 7
REMARK VINA RESULT:     0.001      3.302      4.730
REMARK INTER + INTRA:          -2.599
REMARK INTER:                   0.000
REMARK INTRA:                  -2.599
REMARK UNBOUND:                -2.600
REMARK SMILES COc1cc(CNC(=O)CCCCC=CC(C)C)ccc1O
REMARK SMILES IDX 11 1 12 2 13 3 14 4 15 5 16 6 17 7 18 8 10 9 8 10 9 11 7 12
REMARK SMILES IDX 6 14 5 15 4 16 19 17 3 18 20 19 21 20 2 21 1 22 22 23
REMARK H PARENT 7 13 22 24
REMARK Flexibility Score: inf
ROOT
ATOM      1  C   UNL     1      13.757  44.089  37.261  1.00  0.00     0.010 C 
ENDROOT
BRANCH   1   2
ATOM      2  C   UNL     1      12.264  43.794  37.465  1.00  0.00     0.005 C 
BRANCH   2   3
ATOM      3  C   UNL     1      11.376  44.685  36.585  1.00  0.00     0.027 C 
BRANCH   3   4
ATOM      4  C   UNL     1      12.191  45.582  35.688  1.00  0.00    -0.031 C 
ATOM      5  C   UNL     1      12.104  46.925  35.656  1.00  0.00    -0.028 C 
BRANCH   5   6
ATOM      6  C   UNL     1      11.237  47.756  36.577  1.00  0.00     0.005 C 
ATOM      7  C   UNL     1       9.884  48.026  35.912  1.00  0.00     0.012 C 
ATOM      8  C   UNL     1      11.945  49.074  36.910  1.00  0.00     0.012 C 
ENDBRANCH   5   6
ENDBRANCH   3   4
ENDBRANCH   2   3
ENDBRANCH   1   2
BRANCH   1   9
ATOM      9  C   UNL     1      14.429  44.470  38.587  1.00  0.00     0.100 C 
BRANCH   9  10
ATOM     10  C   UNL     1      13.888  45.764  39.127  1.00  0.00     0.220 C 
ATOM     11  O   UNL     1      14.179  46.850  38.554  1.00  0.00    -0.275 OA
ATOM     12  N   UNL     1      13.089  45.769  40.320  1.00  0.00    -0.352 N 
ATOM     13  H   UNL     1      12.910  44.868  40.821  1.00  0.00     0.163 HD
BRANCH  12  14
ATOM     14  C   UNL     1      12.466  46.983  40.840  1.00  0.00     0.151 C 
BRANCH  14  15
ATOM     15  C   UNL     1      11.080  47.151  40.280  1.00  0.00    -0.025 A 
ATOM     16  C   UNL     1      10.510  48.431  40.190  1.00  0.00     0.056 A 
ATOM     17  C   UNL     1      10.347  46.036  39.844  1.00  0.00     0.009 A 
ATOM     18  C   UNL     1       9.210  48.600  39.674  1.00  0.00     0.160 A 
ATOM     19  C   UNL     1       9.058  46.198  39.332  1.00  0.00     0.050 A 
ATOM     20  C   UNL     1       8.486  47.474  39.250  1.00  0.00     0.157 A 
BRANCH  18  21
ATOM     21  O   UNL     1       8.606  49.862  39.567  1.00  0.00    -0.493 OA
ATOM     22  C   UNL     1       8.874  50.798  38.526  1.00  0.00     0.278 C 
ENDBRANCH  18  21
BRANCH  20  23
ATOM     23  O   UNL     1       7.196  47.634  38.748  1.00  0.00    -0.504 OA
ATOM     24  H   UNL     1       7.008  48.231  37.953  1.00  0.00     0.293 HD
ENDBRANCH  20  23
ENDBRANCH  14  15
ENDBRANCH  12  14
ENDBRANCH   9  10
ENDBRANCH   1   9
TORSDOF 10
ENDMDL
MODEL 8
REMARK VINA RESULT:     0.001     12.028     13.599
REMARK INTER + INTRA:          -2.599
REMARK INTER:                   0.000
REMARK INTRA:                  -2.599
REMARK UNBOUND:                -2.600
REMARK SMILES COc1cc(CNC(=O)CCCCC=CC(C)C)ccc1O
REMARK SMILES IDX 11 1 12 2 13 3 14 4 15 5 16 6 17 7 18 8 10 9 8 10 9 11 7 12
REMARK SMILES IDX 6 14 5 15 4 16 19 17 3 18 20 19 21 20 2 21 1 22 22 23
REMARK H PARENT 7 13 22 24
REMARK Flexibility Score: inf
ROOT
ATOM      1  C   UNL     1       7.660  40.489  28.708  1.00  0.00     0.010 C 
ENDROOT
BRANCH   1   2
ATOM      2  C   UNL     1       6.899  41.417  29.666  1.00  0.00     0.005 C 
BRANCH   2   3
ATOM      3  C   UNL     1       5.500  40.879  30.000  1.00  0.00     0.027 C 
BRANCH   3   4
ATOM      4  C   UNL     1       5.242  39.543  29.351  1.00  0.00    -0.031 C 
ATOM      5  C   UNL     1       4.218  39.277  28.516  1.00  0.00    -0.028 C 
BRANCH   5   6
ATOM      6  C   UNL     1       3.214  40.299  28.028  1.00  0.00     0.005 C 
ATOM      7  C   UNL     1       1.984  40.292  28.940  1.00  0.00     0.012 C 
ATOM      8  C   UNL     1       2.815  39.986  26.583  1.00  0.00     0.012 C 
ENDBRANCH   5   6
ENDBRANCH   3   4
ENDBRANCH   2   3
ENDBRANCH   1   2
BRANCH   1   9
ATOM      9  C   UNL     1       8.092  41.240  27.442  1.00  0.00     0.100 C 
BRANCH   9  10
ATOM     10  C   UNL     1       6.906  41.686  26.634  1.00  0.00     0.220 C 
ATOM     11  O   UNL     1       6.220  40.832  26.009  1.00  0.00    -0.275 OA
ATOM     12  N   UNL     1       6.589  43.083  26.529  1.00  0.00    -0.352 N 
ATOM     13  H   UNL     1       7.207  43.786  27.000  1.00  0.00     0.163 HD
BRANCH  12  14
ATOM     14  C   UNL     1       5.402  43.567  25.831  1.00  0.00     0.151 C 
BRANCH  14  15
ATOM     15  C   UNL     1       4.241  43.689  26.780  1.00  0.00    -0.025 A 
ATOM     16  C   UNL     1       2.926  43.609  26.293  1.00  0.00     0.056 A 
ATOM     17  C   UNL     1       4.459  43.884  28.153  1.00  0.00     0.009 A 
ATOM     18  C   UNL     1       1.831  43.729  27.171  1.00  0.00     0.160 A 
ATOM     19  C   UNL     1       3.377  44.004  29.027  1.00  0.00     0.050 A 
ATOM     20  C   UNL     1       2.066  43.932  28.541  1.00  0.00     0.157 A 
BRANCH  18  21
ATOM     21  O   UNL     1       0.503  43.654  26.724  1.00  0.00    -0.493 OA
ATOM     22  C   UNL     1      -0.182  42.438  26.436  1.00  0.00     0.278 C 
ENDBRANCH  18  21
BRANCH  20  23
ATOM     23  O   UNL     1       0.986  44.062  29.412  1.00  0.00    -0.504 OA
ATOM     24  H   UNL     1       0.896  43.478  30.235  1.00  0.00     0.293 HD
ENDBRANCH  20  23
ENDBRANCH  14  15
ENDBRANCH  12  14
ENDBRANCH   9  10
ENDBRANCH   1   9
TORSDOF 10
ENDMDL
MODEL 9
REMARK VINA RESULT:     0.001      9.545     12.025
REMARK INTER + INTRA:          -2.599
REMARK INTER:                   0.000
REMARK INTRA:                  -2.599
REMARK UNBOUND:                -2.600
REMARK SMILES COc1cc(CNC(=O)CCCCC=CC(C)C)ccc1O
REMARK SMILES IDX 11 1 12 2 13 3 14 4 15 5 16 6 17 7 18 8 10 9 8 10 9 11 7 12
REMARK SMILES IDX 6 14 5 15 4 16 19 17 3 18 20 19 21 20 2 21 1 22 22 23
REMARK H PARENT 7 13 22 24
REMARK Flexibility Score: inf
ROOT
ATOM      1  C   UNL     1       1.437  46.671  34.099  1.00  0.00     0.010 C 
ENDROOT
BRANCH   1   2
ATOM      2  C   UNL     1       2.176  47.325  32.923  1.00  0.00     0.005 C 
BRANCH   2   3
ATOM      3  C   UNL     1       1.386  47.213  31.612  1.00  0.00     0.027 C 
BRANCH   3   4
ATOM      4  C   UNL     1       0.049  46.547  31.816  1.00  0.00    -0.031 C 
ATOM      5  C   UNL     1      -0.368  45.441  31.170  1.00  0.00    -0.028 C 
BRANCH   5   6
ATOM      6  C   UNL     1       0.473  44.640  30.198  1.00  0.00     0.005 C 
ATOM      7  C   UNL     1       0.212  45.123  28.768  1.00  0.00     0.012 C 
ATOM      8  C   UNL     1       0.143  43.150  30.332  1.00  0.00     0.012 C 
ENDBRANCH   5   6
ENDBRANCH   3   4
ENDBRANCH   2   3
ENDBRANCH   1   2
BRANCH   1   9
ATOM      9  C   UNL     1       2.301  45.587  34.758  1.00  0.00     0.100 C 
BRANCH   9  10
ATOM     10  C   UNL     1       2.554  44.439  33.822  1.00  0.00     0.220 C 
ATOM     11  O   UNL     1       1.613  43.651  33.532  1.00  0.00    -0.275 OA
ATOM     12  N   UNL     1       3.873  44.210  33.304  1.00  0.00    -0.352 N 
ATOM     13  H   UNL     1       4.659  44.834  33.605  1.00  0.00     0.163 HD
BRANCH  12  14
ATOM     14  C   UNL     1       4.160  43.165  32.325  1.00  0.00     0.151 C 
BRANCH  14  15
ATOM     15  C   UNL     1       4.035  43.701  30.924  1.00  0.00    -0.025 A 
ATOM     16  C   UNL     1       3.737  42.830  29.864  1.00  0.00     0.056 A 
ATOM     17  C   UNL     1       4.216  45.068  30.665  1.00  0.00     0.009 A 
ATOM     18  C   UNL     1       3.626  43.319  28.548  1.00  0.00     0.160 A 
ATOM     19  C   UNL     1       4.108  45.558  29.362  1.00  0.00     0.050 A 
ATOM     20  C   UNL     1       3.818  44.689  28.304  1.00  0.00     0.157 A 
BRANCH  18  21
ATOM     21  O   UNL     1       3.328  42.482  27.462  1.00  0.00    -0.493 OA
ATOM     22  C   UNL     1       2.019  42.021  27.135  1.00  0.00     0.278 C 
ENDBRANCH  18  21
BRANCH  20  23
ATOM     23  O   UNL     1       3.719  45.176  27.002  1.00  0.00    -0.504 OA
ATOM     24  H   UNL     1       3.060  45.906  26.758  1.00  0.00     0.293 HD
ENDBRANCH  20  23
ENDBRANCH  14  15
ENDBRANCH  12  14
ENDBRANCH   9  10
ENDBRANCH   1   9
TORSDOF 10
ENDMDL
