MODEL 1
REMARK VINA RESULT:    -4.387      0.000      0.000
REMARK INTER + INTRA:          -6.104
REMARK INTER:                  -5.926
REMARK INTRA:                  -0.178
REMARK UNBOUND:                -0.178
REMARK SMILES [NH3+]CCCC[C@@H]([NH3+])C(=O)[O-]
REMARK SMILES IDX 4 1 3 2 2 3 1 4 5 8 6 9 7 10 8 14 9 15 10 16
REMARK H PARENT 1 5 1 6 1 7 7 11 7 12 7 13
REMARK Flexibility Score: inf
ROOT
ATOM      1  C   UNL     1       2.674  -0.808  14.802  1.00  0.00     0.012 C 
ENDROOT
BRANCH   1   2
ATOM      2  C   UNL     1       2.604  -2.204  14.171  1.00  0.00     0.061 C 
BRANCH   2   3
ATOM      3  C   UNL     1       2.665  -3.299  15.244  1.00  0.00     0.258 C 
BRANCH   3   4
ATOM      4  N   UNL     1       2.274  -4.595  14.692  1.00  0.00    -0.358 N 
ATOM      5  H   UNL     1       1.252  -4.595  14.465  1.00  0.00     0.344 HD
ATOM      6  H   UNL     1       2.814  -4.771  13.815  1.00  0.00     0.344 HD
ATOM      7  H   UNL     1       2.484  -5.356  15.378  1.00  0.00     0.344 HD
ENDBRANCH   3   4
ENDBRANCH   2   3
ENDBRANCH   1   2
BRANCH   1   8
ATOM      8  C   UNL     1       1.266  -0.251  15.062  1.00  0.00     0.072 C 
BRANCH   8   9
ATOM      9  C   UNL     1       0.205  -0.841  14.106  1.00  0.00     0.227 C 
BRANCH   9  10
ATOM     10  N   UNL     1      -0.942  -1.392  14.841  1.00  0.00    -0.350 N 
ATOM     11  H   UNL     1      -0.620  -1.842  15.728  1.00  0.00     0.345 HD
ATOM     12  H   UNL     1      -1.410  -2.132  14.267  1.00  0.00     0.345 HD
ATOM     13  H   UNL     1      -1.637  -0.642  15.065  1.00  0.00     0.345 HD
ENDBRANCH   9  10
BRANCH   9  14
ATOM     14  C   UNL     1      -0.259   0.226  13.152  1.00  0.00     0.099 C 
ATOM     15  O   UNL     1      -0.499  -0.061  11.949  1.00  0.00    -0.544 OA
ATOM     16  O   UNL     1      -0.408   1.538  13.586  1.00  0.00    -0.544 OA
ENDBRANCH   9  14
ENDBRANCH   8   9
ENDBRANCH   1   8
TORSDOF 7
ENDMDL
MODEL 2
REMARK VINA RESULT:    -4.259      1.915      2.046
REMARK INTER + INTRA:          -5.930
REMARK INTER:                  -5.745
REMARK INTRA:                  -0.185
REMARK UNBOUND:                -0.178
REMARK SMILES [NH3+]CCCC[C@@H]([NH3+])C(=O)[O-]
REMARK SMILES IDX 4 1 3 2 2 3 1 4 5 8 6 9 7 10 8 14 9 15 10 16
REMARK H PARENT 1 5 1 6 1 7 7 11 7 12 7 13
REMARK Flexibility Score: inf
ROOT
ATOM      1  C   UNL     1       2.540  -1.540  14.175  1.00  0.00     0.012 C 
ENDROOT
BRANCH   1   2
ATOM      2  C   UNL     1       3.424  -2.277  15.189  1.00  0.00     0.061 C 
BRANCH   2   3
ATOM      3  C   UNL     1       2.698  -3.499  15.768  1.00  0.00     0.258 C 
BRANCH   3   4
ATOM      4  N   UNL     1       2.359  -4.453  14.713  1.00  0.00    -0.358 N 
ATOM      5  H   UNL     1       1.755  -5.216  15.099  1.00  0.00     0.344 HD
ATOM      6  H   UNL     1       1.833  -3.957  13.958  1.00  0.00     0.344 HD
ATOM      7  H   UNL     1       3.229  -4.864  14.305  1.00  0.00     0.344 HD
ENDBRANCH   3   4
ENDBRANCH   2   3
ENDBRANCH   1   2
BRANCH   1   8
ATOM      8  C   UNL     1       1.771  -0.393  14.848  1.00  0.00     0.072 C 
BRANCH   8   9
ATOM      9  C   UNL     1       0.345  -0.217  14.279  1.00  0.00     0.227 C 
BRANCH   9  10
ATOM     10  N   UNL     1       0.216  -0.814  12.942  1.00  0.00    -0.350 N 
ATOM     11  H   UNL     1       0.877  -1.617  12.841  1.00  0.00     0.345 HD
ATOM     12  H   UNL     1       0.468  -0.108  12.211  1.00  0.00     0.345 HD
ATOM     13  H   UNL     1      -0.762  -1.146  12.774  1.00  0.00     0.345 HD
ENDBRANCH   9  10
BRANCH   9  14
ATOM     14  C   UNL     1      -0.651  -0.841  15.219  1.00  0.00     0.099 C 
ATOM     15  O   UNL     1      -1.844  -1.013  14.854  1.00  0.00    -0.544 OA
ATOM     16  O   UNL     1      -0.266  -1.213  16.502  1.00  0.00    -0.544 OA
ENDBRANCH   9  14
ENDBRANCH   8   9
ENDBRANCH   1   8
TORSDOF 7
ENDMDL
MODEL 3
REMARK VINA RESULT:    -4.197      6.869      7.997
REMARK INTER + INTRA:          -5.847
REMARK INTER:                  -5.671
REMARK INTRA:                  -0.176
REMARK UNBOUND:                -0.178
REMARK SMILES [NH3+]CCCC[C@@H]([NH3+])C(=O)[O-]
REMARK SMILES IDX 4 1 3 2 2 3 1 4 5 8 6 9 7 10 8 14 9 15 10 16
REMARK H PARENT 1 5 1 6 1 7 7 11 7 12 7 13
REMARK Flexibility Score: inf
ROOT
ATOM      1  C   UNL     1       2.807   4.678  10.377  1.00  0.00     0.012 C 
ENDROOT
BRANCH   1   2
ATOM      2  C   UNL     1       3.173   5.930  11.183  1.00  0.00     0.061 C 
BRANCH   2   3
ATOM      3  C   UNL     1       2.568   7.190  10.551  1.00  0.00     0.258 C 
BRANCH   3   4
ATOM      4  N   UNL     1       1.957   8.044  11.568  1.00  0.00    -0.358 N 
ATOM      5  H   UNL     1       2.335   7.803  12.514  1.00  0.00     0.344 HD
ATOM      6  H   UNL     1       2.184   9.043  11.359  1.00  0.00     0.344 HD
ATOM      7  H   UNL     1       0.918   7.925  11.561  1.00  0.00     0.344 HD
ENDBRANCH   3   4
ENDBRANCH   2   3
ENDBRANCH   1   2
BRANCH   1   8
ATOM      8  C   UNL     1       1.427   4.142  10.789  1.00  0.00     0.072 C 
BRANCH   8   9
ATOM      9  C   UNL     1       0.465   3.990   9.590  1.00  0.00     0.227 C 
BRANCH   9  10
ATOM     10  N   UNL     1       1.131   4.296   8.316  1.00  0.00    -0.350 N 
ATOM     11  H   UNL     1       1.970   4.897   8.483  1.00  0.00     0.345 HD
ATOM     12  H   UNL     1       0.482   4.831   7.694  1.00  0.00     0.345 HD
ATOM     13  H   UNL     1       1.425   3.418   7.828  1.00  0.00     0.345 HD
ENDBRANCH   9  10
BRANCH   9  14
ATOM     14  C   UNL     1      -0.082   2.589   9.560  1.00  0.00     0.099 C 
ATOM     15  O   UNL     1      -0.394   2.008  10.634  1.00  0.00    -0.544 OA
ATOM     16  O   UNL     1      -0.228   1.918   8.352  1.00  0.00    -0.544 OA
ENDBRANCH   9  14
ENDBRANCH   8   9
ENDBRANCH   1   8
TORSDOF 7
ENDMDL
MODEL 4
REMARK VINA RESULT:    -4.191      1.278      1.729
REMARK INTER + INTRA:          -5.839
REMARK INTER:                  -5.603
REMARK INTRA:                  -0.236
REMARK UNBOUND:                -0.178
REMARK SMILES [NH3+]CCCC[C@@H]([NH3+])C(=O)[O-]
REMARK SMILES IDX 4 1 3 2 2 3 1 4 5 8 6 9 7 10 8 14 9 15 10 16
REMARK H PARENT 1 5 1 6 1 7 7 11 7 12 7 13
REMARK Flexibility Score: inf
ROOT
ATOM      1  C   UNL     1       2.176  -0.889  14.974  1.00  0.00     0.012 C 
ENDROOT
BRANCH   1   2
ATOM      2  C   UNL     1       3.155  -2.034  14.687  1.00  0.00     0.061 C 
BRANCH   2   3
ATOM      3  C   UNL     1       2.776  -3.295  15.474  1.00  0.00     0.258 C 
BRANCH   3   4
ATOM      4  N   UNL     1       2.406  -4.384  14.572  1.00  0.00    -0.358 N 
ATOM      5  H   UNL     1       2.629  -4.123  13.583  1.00  0.00     0.344 HD
ATOM      6  H   UNL     1       2.951  -5.239  14.825  1.00  0.00     0.344 HD
ATOM      7  H   UNL     1       1.386  -4.594  14.660  1.00  0.00     0.344 HD
ENDBRANCH   3   4
ENDBRANCH   2   3
ENDBRANCH   1   2
BRANCH   1   8
ATOM      8  C   UNL     1       0.927  -0.999  14.086  1.00  0.00     0.072 C 
BRANCH   8   9
ATOM      9  C   UNL     1      -0.387  -0.815  14.879  1.00  0.00     0.227 C 
BRANCH   9  10
ATOM     10  N   UNL     1      -0.340  -1.508  16.174  1.00  0.00    -0.350 N 
ATOM     11  H   UNL     1      -0.238  -2.538  16.028  1.00  0.00     0.345 HD
ATOM     12  H   UNL     1      -1.237  -1.353  16.692  1.00  0.00     0.345 HD
ATOM     13  H   UNL     1       0.455  -1.159  16.756  1.00  0.00     0.345 HD
ENDBRANCH   9  10
BRANCH   9  14
ATOM     14  C   UNL     1      -0.643   0.653  15.091  1.00  0.00     0.099 C 
ATOM     15  O   UNL     1      -0.968   1.081  16.230  1.00  0.00    -0.544 OA
ATOM     16  O   UNL     1      -0.542   1.543  14.028  1.00  0.00    -0.544 OA
ENDBRANCH   9  14
ENDBRANCH   8   9
ENDBRANCH   1   8
TORSDOF 7
ENDMDL
MODEL 5
REMARK VINA RESULT:    -4.173      6.881      8.064
REMARK INTER + INTRA:          -5.814
REMARK INTER:                  -5.520
REMARK INTRA:                  -0.294
REMARK UNBOUND:                -0.178
REMARK SMILES [NH3+]CCCC[C@@H]([NH3+])C(=O)[O-]
REMARK SMILES IDX 4 1 3 2 2 3 1 4 5 8 6 9 7 10 8 14 9 15 10 16
REMARK H PARENT 1 5 1 6 1 7 7 11 7 12 7 13
REMARK Flexibility Score: inf
ROOT
ATOM      1  C   UNL     1       2.735   4.849  11.234  1.00  0.00     0.012 C 
ENDROOT
BRANCH   1   2
ATOM      2  C   UNL     1       3.383   6.149  10.741  1.00  0.00     0.061 C 
BRANCH   2   3
ATOM      3  C   UNL     1       2.319   7.182  10.347  1.00  0.00     0.258 C 
BRANCH   3   4
ATOM      4  N   UNL     1       1.958   8.023  11.487  1.00  0.00    -0.358 N 
ATOM      5  H   UNL     1       0.936   7.932  11.693  1.00  0.00     0.344 HD
ATOM      6  H   UNL     1       2.500   7.714  12.326  1.00  0.00     0.344 HD
ATOM      7  H   UNL     1       2.190   9.022  11.284  1.00  0.00     0.344 HD
ENDBRANCH   3   4
ENDBRANCH   2   3
ENDBRANCH   1   2
BRANCH   1   8
ATOM      8  C   UNL     1       1.710   4.326  10.216  1.00  0.00     0.072 C 
BRANCH   8   9
ATOM      9  C   UNL     1       0.303   4.142  10.827  1.00  0.00     0.227 C 
BRANCH   9  10
ATOM     10  N   UNL     1       0.212   4.735  12.169  1.00  0.00    -0.350 N 
ATOM     11  H   UNL     1      -0.672   4.432  12.638  1.00  0.00     0.345 HD
ATOM     12  H   UNL     1       0.184   5.779  12.095  1.00  0.00     0.345 HD
ATOM     13  H   UNL     1       1.031   4.455  12.757  1.00  0.00     0.345 HD
ENDBRANCH   9  10
BRANCH   9  14
ATOM     14  C   UNL     1      -0.724   4.764   9.919  1.00  0.00     0.099 C 
ATOM     15  O   UNL     1      -0.373   5.267   8.819  1.00  0.00    -0.544 OA
ATOM     16  O   UNL     1      -2.061   4.805  10.297  1.00  0.00    -0.544 OA
ENDBRANCH   9  14
ENDBRANCH   8   9
ENDBRANCH   1   8
TORSDOF 7
ENDMDL
MODEL 6
REMARK VINA RESULT:    -4.111      6.960      8.049
REMARK INTER + INTRA:          -5.731
REMARK INTER:                  -5.587
REMARK INTRA:                  -0.144
REMARK UNBOUND:                -0.178
REMARK SMILES [NH3+]CCCC[C@@H]([NH3+])C(=O)[O-]
REMARK SMILES IDX 4 1 3 2 2 3 1 4 5 8 6 9 7 10 8 14 9 15 10 16
REMARK H PARENT 1 5 1 6 1 7 7 11 7 12 7 13
REMARK Flexibility Score: inf
ROOT
ATOM      1  C   UNL     1       2.706   5.018   9.787  1.00  0.00     0.012 C 
ENDROOT
BRANCH   1   2
ATOM      2  C   UNL     1       3.102   6.058  10.842  1.00  0.00     0.061 C 
BRANCH   2   3
ATOM      3  C   UNL     1       2.714   7.474  10.393  1.00  0.00     0.258 C 
BRANCH   3   4
ATOM      4  N   UNL     1       1.951   8.161  11.434  1.00  0.00    -0.358 N 
ATOM      5  H   UNL     1       1.351   7.477  11.952  1.00  0.00     0.344 HD
ATOM      6  H   UNL     1       2.614   8.606  12.108  1.00  0.00     0.344 HD
ATOM      7  H   UNL     1       1.352   8.904  11.008  1.00  0.00     0.344 HD
ENDBRANCH   3   4
ENDBRANCH   2   3
ENDBRANCH   1   2
BRANCH   1   8
ATOM      8  C   UNL     1       1.576   4.114  10.303  1.00  0.00     0.072 C 
BRANCH   8   9
ATOM      9  C   UNL     1       0.349   4.915  10.794  1.00  0.00     0.227 C 
BRANCH   9  10
ATOM     10  N   UNL     1      -0.402   5.499   9.674  1.00  0.00    -0.350 N 
ATOM     11  H   UNL     1      -1.377   5.726   9.974  1.00  0.00     0.345 HD
ATOM     12  H   UNL     1      -0.469   4.807   8.892  1.00  0.00     0.345 HD
ATOM     13  H   UNL     1       0.065   6.367   9.324  1.00  0.00     0.345 HD
ENDBRANCH   9  10
BRANCH   9  14
ATOM     14  C   UNL     1      -0.547   4.015  11.601  1.00  0.00     0.099 C 
ATOM     15  O   UNL     1      -1.218   3.114  11.031  1.00  0.00    -0.544 OA
ATOM     16  O   UNL     1      -0.657   4.185  12.977  1.00  0.00    -0.544 OA
ENDBRANCH   9  14
ENDBRANCH   8   9
ENDBRANCH   1   8
TORSDOF 7
ENDMDL
MODEL 7
REMARK VINA RESULT:    -3.977      2.658      4.301
REMARK INTER + INTRA:          -5.550
REMARK INTER:                  -5.386
REMARK INTRA:                  -0.164
REMARK UNBOUND:                -0.178
REMARK SMILES [NH3+]CCCC[C@@H]([NH3+])C(=O)[O-]
REMARK SMILES IDX 4 1 3 2 2 3 1 4 5 8 6 9 7 10 8 14 9 15 10 16
REMARK H PARENT 1 5 1 6 1 7 7 11 7 12 7 13
REMARK Flexibility Score: inf
ROOT
ATOM      1  C   UNL     1       0.067   0.513  14.647  1.00  0.00     0.012 C 
ENDROOT
BRANCH   1   2
ATOM      2  C   UNL     1      -0.172   1.235  13.315  1.00  0.00     0.061 C 
BRANCH   2   3
ATOM      3  C   UNL     1      -0.846   0.306  12.296  1.00  0.00     0.258 C 
BRANCH   3   4
ATOM      4  N   UNL     1      -1.987  -0.385  12.894  1.00  0.00    -0.358 N 
ATOM      5  H   UNL     1      -2.881  -0.021  12.489  1.00  0.00     0.344 HD
ATOM      6  H   UNL     1      -1.915  -1.407  12.688  1.00  0.00     0.344 HD
ATOM      7  H   UNL     1      -1.988  -0.248  13.931  1.00  0.00     0.344 HD
ENDBRANCH   3   4
ENDBRANCH   2   3
ENDBRANCH   1   2
BRANCH   1   8
ATOM      8  C   UNL     1       1.434  -0.189  14.653  1.00  0.00     0.072 C 
BRANCH   8   9
ATOM      9  C   UNL     1       1.434  -1.484  15.497  1.00  0.00     0.227 C 
BRANCH   9  10
ATOM     10  N   UNL     1       0.075  -2.007  15.690  1.00  0.00    -0.350 N 
ATOM     11  H   UNL     1      -0.516  -1.795  14.854  1.00  0.00     0.345 HD
ATOM     12  H   UNL     1      -0.372  -1.540  16.514  1.00  0.00     0.345 HD
ATOM     13  H   UNL     1       0.091  -3.040  15.852  1.00  0.00     0.345 HD
ENDBRANCH   9  10
BRANCH   9  14
ATOM     14  C   UNL     1       2.292  -2.521  14.823  1.00  0.00     0.099 C 
ATOM     15  O   UNL     1       3.185  -2.170  14.005  1.00  0.00    -0.544 OA
ATOM     16  O   UNL     1       2.093  -3.872  15.082  1.00  0.00    -0.544 OA
ENDBRANCH   9  14
ENDBRANCH   8   9
ENDBRANCH   1   8
TORSDOF 7
ENDMDL
MODEL 8
REMARK VINA RESULT:    -3.930      7.075      7.834
REMARK INTER + INTRA:          -5.487
REMARK INTER:                  -4.908
REMARK INTRA:                  -0.579
REMARK UNBOUND:                -0.178
REMARK SMILES [NH3+]CCCC[C@@H]([NH3+])C(=O)[O-]
REMARK SMILES IDX 4 1 3 2 2 3 1 4 5 8 6 9 7 10 8 14 9 15 10 16
REMARK H PARENT 1 5 1 6 1 7 7 11 7 12 7 13
REMARK Flexibility Score: inf
ROOT
ATOM      1  C   UNL     1       1.330   4.635  11.109  1.00  0.00     0.012 C 
ENDROOT
BRANCH   1   2
ATOM      2  C   UNL     1       2.744   4.677  10.516  1.00  0.00     0.061 C 
BRANCH   2   3
ATOM      3  C   UNL     1       2.837   5.707   9.382  1.00  0.00     0.258 C 
BRANCH   3   4
ATOM      4  N   UNL     1       3.096   5.052   8.101  1.00  0.00    -0.358 N 
ATOM      5  H   UNL     1       3.255   5.770   7.356  1.00  0.00     0.344 HD
ATOM      6  H   UNL     1       3.952   4.459   8.186  1.00  0.00     0.344 HD
ATOM      7  H   UNL     1       2.287   4.444   7.838  1.00  0.00     0.344 HD
ENDBRANCH   3   4
ENDBRANCH   2   3
ENDBRANCH   1   2
BRANCH   1   8
ATOM      8  C   UNL     1       0.552   3.415  10.592  1.00  0.00     0.072 C 
BRANCH   8   9
ATOM      9  C   UNL     1      -0.564   3.799   9.595  1.00  0.00     0.227 C 
BRANCH   9  10
ATOM     10  N   UNL     1      -0.832   5.244   9.609  1.00  0.00    -0.350 N 
ATOM     11  H   UNL     1       0.065   5.776   9.687  1.00  0.00     0.345 HD
ATOM     12  H   UNL     1      -1.414   5.490  10.443  1.00  0.00     0.345 HD
ATOM     13  H   UNL     1      -1.336   5.538   8.741  1.00  0.00     0.345 HD
ENDBRANCH   9  10
BRANCH   9  14
ATOM     14  C   UNL     1      -0.172   3.362   8.209  1.00  0.00     0.099 C 
ATOM     15  O   UNL     1       0.305   4.195   7.394  1.00  0.00    -0.544 OA
ATOM     16  O   UNL     1      -0.350   2.041   7.814  1.00  0.00    -0.544 OA
ENDBRANCH   9  14
ENDBRANCH   8   9
ENDBRANCH   1   8
TORSDOF 7
ENDMDL
MODEL 9
REMARK VINA RESULT:    -3.906      3.516      4.708
REMARK INTER + INTRA:          -5.455
REMARK INTER:                  -5.227
REMARK INTRA:                  -0.227
REMARK UNBOUND:                -0.178
REMARK SMILES [NH3+]CCCC[C@@H]([NH3+])C(=O)[O-]
REMARK SMILES IDX 4 1 3 2 2 3 1 4 5 8 6 9 7 10 8 14 9 15 10 16
REMARK H PARENT 1 5 1 6 1 7 7 11 7 12 7 13
REMARK Flexibility Score: inf
ROOT
ATOM      1  C   UNL     1       0.032  -1.110  15.754  1.00  0.00     0.012 C 
ENDROOT
BRANCH   1   2
ATOM      2  C   UNL     1      -0.882  -0.149  16.526  1.00  0.00     0.061 C 
BRANCH   2   3
ATOM      3  C   UNL     1      -1.222  -0.706  17.915  1.00  0.00     0.258 C 
BRANCH   3   4
ATOM      4  N   UNL     1      -0.662   0.139  18.968  1.00  0.00    -0.358 N 
ATOM      5  H   UNL     1      -1.432   0.601  19.506  1.00  0.00     0.344 HD
ATOM      6  H   UNL     1      -0.102  -0.454  19.622  1.00  0.00     0.344 HD
ATOM      7  H   UNL     1      -0.037   0.866  18.552  1.00  0.00     0.344 HD
ENDBRANCH   3   4
ENDBRANCH   2   3
ENDBRANCH   1   2
BRANCH   1   8
ATOM      8  C   UNL     1       1.286  -0.385  15.243  1.00  0.00     0.072 C 
BRANCH   8   9
ATOM      9  C   UNL     1       2.594  -0.994  15.796  1.00  0.00     0.227 C 
BRANCH   9  10
ATOM     10  N   UNL     1       2.581  -1.068  17.264  1.00  0.00    -0.350 N 
ATOM     11  H   UNL     1       1.597  -1.057  17.617  1.00  0.00     0.345 HD
ATOM     12  H   UNL     1       3.067  -0.232  17.666  1.00  0.00     0.345 HD
ATOM     13  H   UNL     1       3.060  -1.936  17.598  1.00  0.00     0.345 HD
ENDBRANCH   9  10
BRANCH   9  14
ATOM     14  C   UNL     1       2.792  -2.368  15.214  1.00  0.00     0.099 C 
ATOM     15  O   UNL     1       2.890  -3.369  15.973  1.00  0.00    -0.544 OA
ATOM     16  O   UNL     1       2.887  -2.540  13.838  1.00  0.00    -0.544 OA
ENDBRANCH   9  14
ENDBRANCH   8   9
ENDBRANCH   1   8
TORSDOF 7
ENDMDL
