MODEL 1
REMARK VINA RESULT:    -6.317      0.000      0.000
REMARK INTER + INTRA:          -8.157
REMARK INTER:                  -7.610
REMARK INTRA:                  -0.547
REMARK UNBOUND:                -0.547
REMARK SMILES CCCCc1oc(O)c2ccccc12
REMARK SMILES IDX 4 1 5 2 7 3 6 4 9 5 14 6 10 7 13 8 11 9 12 10 8 11 3 13 2 14
REMARK SMILES IDX 1 15
REMARK H PARENT 8 12
REMARK Flexibility Score: inf
ROOT
ATOM      1  C   UNL     1      18.238 -59.462  18.542  1.00  0.00     0.076 C 
ENDROOT
BRANCH   1   2
ATOM      2  C   UNL     1      18.868 -58.172  18.113  1.00  0.00     0.116 A 
ATOM      3  C   UNL     1      20.310 -56.810  17.299  1.00  0.00     0.290 A 
ATOM      4  O   UNL     1      20.043 -58.084  17.514  1.00  0.00    -0.430 OA
ATOM      5  C   UNL     1      19.281 -56.032  17.776  1.00  0.00     0.066 A 
ATOM      6  C   UNL     1      18.359 -56.898  18.299  1.00  0.00     0.027 A 
ATOM      7  C   UNL     1      19.093 -54.652  17.796  1.00  0.00     0.016 A 
ATOM      8  C   UNL     1      17.178 -56.444  18.887  1.00  0.00     0.012 A 
ATOM      9  C   UNL     1      17.910 -54.162  18.380  1.00  0.00     0.001 A 
ATOM     10  C   UNL     1      16.957 -55.054  18.924  1.00  0.00     0.001 A 
BRANCH   3  11
ATOM     11  O   UNL     1      21.466 -56.343  16.684  1.00  0.00    -0.480 OA
ATOM     12  H   UNL     1      22.074 -55.692  17.165  1.00  0.00     0.297 HD
ENDBRANCH   3  11
ENDBRANCH   1   2
BRANCH   1  13
ATOM     13  C   UNL     1      17.505 -60.118  17.364  1.00  0.00     0.008 C 
BRANCH  13  14
ATOM     14  C   UNL     1      16.000 -59.813  17.366  1.00  0.00    -0.003 C 
ATOM     15  C   UNL     1      15.617 -58.714  16.376  1.00  0.00     0.004 C 
ENDBRANCH  13  14
ENDBRANCH   1  13
TORSDOF 4
ENDMDL
MODEL 2
REMARK VINA RESULT:    -6.042      1.833      4.163
REMARK INTER + INTRA:          -7.826
REMARK INTER:                  -7.626
REMARK INTRA:                  -0.199
REMARK UNBOUND:                -0.547
REMARK SMILES CCCCc1oc(O)c2ccccc12
REMARK SMILES IDX 4 1 5 2 7 3 6 4 9 5 14 6 10 7 13 8 11 9 12 10 8 11 3 13 2 14
REMARK SMILES IDX 1 15
REMARK H PARENT 8 12
REMARK Flexibility Score: inf
ROOT
ATOM      1  C   UNL     1      20.528 -56.403  16.993  1.00  0.00     0.076 C 
ENDROOT
BRANCH   1   2
ATOM      2  C   UNL     1      19.310 -56.895  17.714  1.00  0.00     0.116 A 
ATOM      3  C   UNL     1      17.999 -58.213  18.782  1.00  0.00     0.290 A 
ATOM      4  O   UNL     1      19.202 -58.096  18.254  1.00  0.00    -0.430 OA
ATOM      5  C   UNL     1      17.288 -57.053  18.581  1.00  0.00     0.066 A 
ATOM      6  C   UNL     1      18.121 -56.209  17.896  1.00  0.00     0.027 A 
ATOM      7  C   UNL     1      15.991 -56.685  18.935  1.00  0.00     0.016 A 
ATOM      8  C   UNL     1      17.714 -54.931  17.511  1.00  0.00     0.012 A 
ATOM      9  C   UNL     1      15.552 -55.401  18.563  1.00  0.00     0.001 A 
ATOM     10  C   UNL     1      16.409 -54.529  17.853  1.00  0.00     0.001 A 
BRANCH   3  11
ATOM     11  O   UNL     1      17.535 -59.347  19.438  1.00  0.00    -0.480 OA
ATOM     12  H   UNL     1      17.423 -59.348  20.444  1.00  0.00     0.297 HD
ENDBRANCH   3  11
ENDBRANCH   1   2
BRANCH   1  13
ATOM     13  C   UNL     1      21.705 -57.359  17.218  1.00  0.00     0.008 C 
BRANCH  13  14
ATOM     14  C   UNL     1      22.998 -56.867  16.552  1.00  0.00    -0.003 C 
ATOM     15  C   UNL     1      22.829 -55.516  15.856  1.00  0.00     0.004 C 
ENDBRANCH  13  14
ENDBRANCH   1  13
TORSDOF 4
ENDMDL
MODEL 3
REMARK VINA RESULT:    -5.979      2.089      4.036
REMARK INTER + INTRA:          -7.749
REMARK INTER:                  -7.246
REMARK INTRA:                  -0.503
REMARK UNBOUND:                -0.547
REMARK SMILES CCCCc1oc(O)c2ccccc12
REMARK SMILES IDX 4 1 5 2 7 3 6 4 9 5 14 6 10 7 13 8 11 9 12 10 8 11 3 13 2 14
REMARK SMILES IDX 1 15
REMARK H PARENT 8 12
REMARK Flexibility Score: inf
ROOT
ATOM      1  C   UNL     1      15.756 -56.277  17.678  1.00  0.00     0.076 C 
ENDROOT
BRANCH   1   2
ATOM      2  C   UNL     1      17.001 -57.097  17.830  1.00  0.00     0.116 A 
ATOM      3  C   UNL     1      18.282 -58.729  18.374  1.00  0.00     0.290 A 
ATOM      4  O   UNL     1      17.033 -58.303  18.370  1.00  0.00    -0.430 OA
ATOM      5  C   UNL     1      19.101 -57.770  17.824  1.00  0.00     0.066 A 
ATOM      6  C   UNL     1      18.287 -56.725  17.478  1.00  0.00     0.027 A 
ATOM      7  C   UNL     1      20.478 -57.736  17.613  1.00  0.00     0.016 A 
ATOM      8  C   UNL     1      18.794 -55.563  16.896  1.00  0.00     0.012 A 
ATOM      9  C   UNL     1      21.020 -56.578  17.025  1.00  0.00     0.001 A 
ATOM     10  C   UNL     1      20.181 -55.496  16.669  1.00  0.00     0.001 A 
BRANCH   3  11
ATOM     11  O   UNL     1      18.690 -59.962  18.868  1.00  0.00    -0.480 OA
ATOM     12  H   UNL     1      18.006 -60.657  19.138  1.00  0.00     0.297 HD
ENDBRANCH   3  11
ENDBRANCH   1   2
BRANCH   1  13
ATOM     13  C   UNL     1      15.636 -55.268  18.827  1.00  0.00     0.008 C 
BRANCH  13  14
ATOM     14  C   UNL     1      15.982 -53.837  18.390  1.00  0.00    -0.003 C 
ATOM     15  C   UNL     1      17.121 -53.228  19.207  1.00  0.00     0.004 C 
ENDBRANCH  13  14
ENDBRANCH   1  13
TORSDOF 4
ENDMDL
MODEL 4
REMARK VINA RESULT:    -5.951      2.297      4.285
REMARK INTER + INTRA:          -7.716
REMARK INTER:                  -7.615
REMARK INTRA:                  -0.101
REMARK UNBOUND:                -0.547
REMARK SMILES CCCCc1oc(O)c2ccccc12
REMARK SMILES IDX 4 1 5 2 7 3 6 4 9 5 14 6 10 7 13 8 11 9 12 10 8 11 3 13 2 14
REMARK SMILES IDX 1 15
REMARK H PARENT 8 12
REMARK Flexibility Score: inf
ROOT
ATOM      1  C   UNL     1      20.049 -56.590  17.431  1.00  0.00     0.076 C 
ENDROOT
BRANCH   1   2
ATOM      2  C   UNL     1      18.573 -56.336  17.482  1.00  0.00     0.116 A 
ATOM      3  C   UNL     1      16.469 -56.638  17.207  1.00  0.00     0.290 A 
ATOM      4  O   UNL     1      17.660 -57.179  17.035  1.00  0.00    -0.430 OA
ATOM      5  C   UNL     1      16.601 -55.396  17.782  1.00  0.00     0.066 A 
ATOM      6  C   UNL     1      17.944 -55.198  17.957  1.00  0.00     0.027 A 
ATOM      7  C   UNL     1      15.658 -54.438  18.151  1.00  0.00     0.016 A 
ATOM      8  C   UNL     1      18.445 -54.020  18.513  1.00  0.00     0.012 A 
ATOM      9  C   UNL     1      16.132 -53.240  18.718  1.00  0.00     0.001 A 
ATOM     10  C   UNL     1      17.519 -53.032  18.897  1.00  0.00     0.001 A 
BRANCH   3  11
ATOM     11  O   UNL     1      15.271 -57.246  16.850  1.00  0.00    -0.480 OA
ATOM     12  H   UNL     1      14.388 -56.791  17.045  1.00  0.00     0.297 HD
ENDBRANCH   3  11
ENDBRANCH   1   2
BRANCH   1  13
ATOM     13  C   UNL     1      20.752 -55.499  16.614  1.00  0.00     0.008 C 
BRANCH  13  14
ATOM     14  C   UNL     1      22.245 -55.792  16.403  1.00  0.00    -0.003 C 
ATOM     15  C   UNL     1      22.659 -57.166  16.929  1.00  0.00     0.004 C 
ENDBRANCH  13  14
ENDBRANCH   1  13
TORSDOF 4
ENDMDL
MODEL 5
REMARK VINA RESULT:    -5.894      2.379      4.382
REMARK INTER + INTRA:          -7.648
REMARK INTER:                  -7.234
REMARK INTRA:                  -0.413
REMARK UNBOUND:                -0.547
REMARK SMILES CCCCc1oc(O)c2ccccc12
REMARK SMILES IDX 4 1 5 2 7 3 6 4 9 5 14 6 10 7 13 8 11 9 12 10 8 11 3 13 2 14
REMARK SMILES IDX 1 15
REMARK H PARENT 8 12
REMARK Flexibility Score: inf
ROOT
ATOM      1  C   UNL     1      17.157 -53.851  18.957  1.00  0.00     0.076 C 
ENDROOT
BRANCH   1   2
ATOM      2  C   UNL     1      17.543 -55.278  18.716  1.00  0.00     0.116 A 
ATOM      3  C   UNL     1      17.458 -57.421  18.760  1.00  0.00     0.290 A 
ATOM      4  O   UNL     1      16.822 -56.317  19.103  1.00  0.00    -0.430 OA
ATOM      5  C   UNL     1      18.638 -57.100  18.130  1.00  0.00     0.066 A 
ATOM      6  C   UNL     1      18.697 -55.733  18.103  1.00  0.00     0.027 A 
ATOM      7  C   UNL     1      19.650 -57.895  17.595  1.00  0.00     0.016 A 
ATOM      8  C   UNL     1      19.781 -55.058  17.540  1.00  0.00     0.012 A 
ATOM      9  C   UNL     1      20.755 -57.243  17.017  1.00  0.00     0.001 A 
ATOM     10  C   UNL     1      20.820 -55.831  16.990  1.00  0.00     0.001 A 
BRANCH   3  11
ATOM     11  O   UNL     1      16.991 -58.706  19.008  1.00  0.00    -0.480 OA
ATOM     12  H   UNL     1      16.042 -58.853  19.328  1.00  0.00     0.297 HD
ENDBRANCH   3  11
ENDBRANCH   1   2
BRANCH   1  13
ATOM     13  C   UNL     1      16.743 -53.179  17.641  1.00  0.00     0.008 C 
BRANCH  13  14
ATOM     14  C   UNL     1      15.986 -54.135  16.707  1.00  0.00    -0.003 C 
ATOM     15  C   UNL     1      16.533 -54.124  15.279  1.00  0.00     0.004 C 
ENDBRANCH  13  14
ENDBRANCH   1  13
TORSDOF 4
ENDMDL
MODEL 6
REMARK VINA RESULT:    -5.827      1.954      4.606
REMARK INTER + INTRA:          -7.567
REMARK INTER:                  -7.262
REMARK INTRA:                  -0.305
REMARK UNBOUND:                -0.547
REMARK SMILES CCCCc1oc(O)c2ccccc12
REMARK SMILES IDX 4 1 5 2 7 3 6 4 9 5 14 6 10 7 13 8 11 9 12 10 8 11 3 13 2 14
REMARK SMILES IDX 1 15
REMARK H PARENT 8 12
REMARK Flexibility Score: inf
ROOT
ATOM      1  C   UNL     1      19.547 -55.477  16.913  1.00  0.00     0.076 C 
ENDROOT
BRANCH   1   2
ATOM      2  C   UNL     1      18.558 -56.529  16.510  1.00  0.00     0.116 A 
ATOM      3  C   UNL     1      17.062 -57.550  15.362  1.00  0.00     0.290 A 
ATOM      4  O   UNL     1      17.849 -56.491  15.396  1.00  0.00    -0.430 OA
ATOM      5  C   UNL     1      17.256 -58.308  16.494  1.00  0.00     0.066 A 
ATOM      6  C   UNL     1      18.208 -57.658  17.230  1.00  0.00     0.027 A 
ATOM      7  C   UNL     1      16.670 -59.496  16.926  1.00  0.00     0.016 A 
ATOM      8  C   UNL     1      18.644 -58.149  18.462  1.00  0.00     0.012 A 
ATOM      9  C   UNL     1      17.090 -60.019  18.163  1.00  0.00     0.001 A 
ATOM     10  C   UNL     1      18.073 -59.348  18.928  1.00  0.00     0.001 A 
BRANCH   3  11
ATOM     11  O   UNL     1      16.175 -57.837  14.333  1.00  0.00    -0.480 OA
ATOM     12  H   UNL     1      15.184 -57.662  14.446  1.00  0.00     0.297 HD
ENDBRANCH   3  11
ENDBRANCH   1   2
BRANCH   1  13
ATOM     13  C   UNL     1      19.044 -54.715  18.145  1.00  0.00     0.008 C 
BRANCH  13  14
ATOM     14  C   UNL     1      17.624 -54.161  17.954  1.00  0.00    -0.003 C 
ATOM     15  C   UNL     1      17.156 -53.310  19.135  1.00  0.00     0.004 C 
ENDBRANCH  13  14
ENDBRANCH   1  13
TORSDOF 4
ENDMDL
MODEL 7
REMARK VINA RESULT:    -5.781      1.587      3.920
REMARK INTER + INTRA:          -7.512
REMARK INTER:                  -7.060
REMARK INTRA:                  -0.452
REMARK UNBOUND:                -0.547
REMARK SMILES CCCCc1oc(O)c2ccccc12
REMARK SMILES IDX 4 1 5 2 7 3 6 4 9 5 14 6 10 7 13 8 11 9 12 10 8 11 3 13 2 14
REMARK SMILES IDX 1 15
REMARK H PARENT 8 12
REMARK Flexibility Score: inf
ROOT
ATOM      1  C   UNL     1      17.462 -53.952  18.952  1.00  0.00     0.076 C 
ENDROOT
BRANCH   1   2
ATOM      2  C   UNL     1      18.412 -54.931  18.331  1.00  0.00     0.116 A 
ATOM      3  C   UNL     1      20.076 -55.686  17.209  1.00  0.00     0.290 A 
ATOM      4  O   UNL     1      19.479 -54.587  17.632  1.00  0.00    -0.430 OA
ATOM      5  C   UNL     1      19.376 -56.790  17.638  1.00  0.00     0.066 A 
ATOM      6  C   UNL     1      18.311 -56.312  18.353  1.00  0.00     0.027 A 
ATOM      7  C   UNL     1      19.589 -58.154  17.451  1.00  0.00     0.016 A 
ATOM      8  C   UNL     1      17.374 -57.168  18.932  1.00  0.00     0.012 A 
ATOM      9  C   UNL     1      18.662 -59.044  18.025  1.00  0.00     0.001 A 
ATOM     10  C   UNL     1      17.559 -58.553  18.761  1.00  0.00     0.001 A 
BRANCH   3  11
ATOM     11  O   UNL     1      21.234 -55.705  16.442  1.00  0.00    -0.480 OA
ATOM     12  H   UNL     1      22.133 -55.510  16.866  1.00  0.00     0.297 HD
ENDBRANCH   3  11
ENDBRANCH   1   2
BRANCH   1  13
ATOM     13  C   UNL     1      16.696 -53.187  17.866  1.00  0.00     0.008 C 
BRANCH  13  14
ATOM     14  C   UNL     1      16.031 -54.123  16.846  1.00  0.00    -0.003 C 
ATOM     15  C   UNL     1      16.391 -53.778  15.402  1.00  0.00     0.004 C 
ENDBRANCH  13  14
ENDBRANCH   1  13
TORSDOF 4
ENDMDL
MODEL 8
REMARK VINA RESULT:    -5.779      1.855      4.554
REMARK INTER + INTRA:          -7.509
REMARK INTER:                  -7.203
REMARK INTRA:                  -0.307
REMARK UNBOUND:                -0.547
REMARK SMILES CCCCc1oc(O)c2ccccc12
REMARK SMILES IDX 4 1 5 2 7 3 6 4 9 5 14 6 10 7 13 8 11 9 12 10 8 11 3 13 2 14
REMARK SMILES IDX 1 15
REMARK H PARENT 8 12
REMARK Flexibility Score: inf
ROOT
ATOM      1  C   UNL     1      19.388 -55.197  17.763  1.00  0.00     0.076 C 
ENDROOT
BRANCH   1   2
ATOM      2  C   UNL     1      18.515 -56.396  17.977  1.00  0.00     0.116 A 
ATOM      3  C   UNL     1      17.699 -58.152  18.897  1.00  0.00     0.290 A 
ATOM      4  O   UNL     1      18.582 -57.182  19.037  1.00  0.00    -0.430 OA
ATOM      5  C   UNL     1      17.032 -58.005  17.703  1.00  0.00     0.066 A 
ATOM      6  C   UNL     1      17.552 -56.886  17.111  1.00  0.00     0.027 A 
ATOM      7  C   UNL     1      16.029 -58.762  17.101  1.00  0.00     0.016 A 
ATOM      8  C   UNL     1      17.108 -56.443  15.865  1.00  0.00     0.012 A 
ATOM      9  C   UNL     1      15.558 -58.339  15.844  1.00  0.00     0.001 A 
ATOM     10  C   UNL     1      16.096 -57.185  15.229  1.00  0.00     0.001 A 
BRANCH   3  11
ATOM     11  O   UNL     1      17.491 -59.165  19.825  1.00  0.00    -0.480 OA
ATOM     12  H   UNL     1      17.556 -58.973  20.817  1.00  0.00     0.297 HD
ENDBRANCH   3  11
ENDBRANCH   1   2
BRANCH   1  13
ATOM     13  C   UNL     1      20.514 -55.524  16.775  1.00  0.00     0.008 C 
BRANCH  13  14
ATOM     14  C   UNL     1      21.256 -56.820  17.138  1.00  0.00    -0.003 C 
ATOM     15  C   UNL     1      22.728 -56.793  16.730  1.00  0.00     0.004 C 
ENDBRANCH  13  14
ENDBRANCH   1  13
TORSDOF 4
ENDMDL
MODEL 9
REMARK VINA RESULT:    -5.680      2.077      2.398
REMARK INTER + INTRA:          -7.389
REMARK INTER:                  -6.974
REMARK INTRA:                  -0.415
REMARK UNBOUND:                -0.547
REMARK SMILES CCCCc1oc(O)c2ccccc12
REMARK SMILES IDX 4 1 5 2 7 3 6 4 9 5 14 6 10 7 13 8 11 9 12 10 8 11 3 13 2 14
REMARK SMILES IDX 1 15
REMARK H PARENT 8 12
REMARK Flexibility Score: inf
ROOT
ATOM      1  C   UNL     1      19.309 -58.115  17.720  1.00  0.00     0.076 C 
ENDROOT
BRANCH   1   2
ATOM      2  C   UNL     1      18.526 -57.093  16.954  1.00  0.00     0.116 A 
ATOM      3  C   UNL     1      17.581 -56.107  15.301  1.00  0.00     0.290 A 
ATOM      4  O   UNL     1      18.261 -57.178  15.662  1.00  0.00    -0.430 OA
ATOM      5  C   UNL     1      17.396 -55.286  16.389  1.00  0.00     0.066 A 
ATOM      6  C   UNL     1      18.001 -55.911  17.446  1.00  0.00     0.027 A 
ATOM      7  C   UNL     1      16.759 -54.054  16.525  1.00  0.00     0.016 A 
ATOM      8  C   UNL     1      18.016 -55.345  18.721  1.00  0.00     0.012 A 
ATOM      9  C   UNL     1      16.755 -53.458  17.800  1.00  0.00     0.001 A 
ATOM     10  C   UNL     1      17.381 -54.100  18.893  1.00  0.00     0.001 A 
BRANCH   3  11
ATOM     11  O   UNL     1      17.130 -55.860  14.010  1.00  0.00    -0.480 OA
ATOM     12  H   UNL     1      16.372 -56.405  13.619  1.00  0.00     0.297 HD
ENDBRANCH   3  11
ENDBRANCH   1   2
BRANCH   1  13
ATOM     13  C   UNL     1      18.363 -59.083  18.442  1.00  0.00     0.008 C 
BRANCH  13  14
ATOM     14  C   UNL     1      17.641 -60.031  17.473  1.00  0.00    -0.003 C 
ATOM     15  C   UNL     1      16.132 -59.789  17.422  1.00  0.00     0.004 C 
ENDBRANCH  13  14
ENDBRANCH   1  13
TORSDOF 4
ENDMDL
