MODEL 1
REMARK VINA RESULT:    -6.133      0.000      0.000
REMARK INTER + INTRA:          -6.998
REMARK INTER:                  -6.670
REMARK INTRA:                  -0.327
REMARK UNBOUND:                -0.327
REMARK SMILES C[C@H]1[C@H](C)CC[C@@]2(C(=O)[O-])CC[C@@]3(C)C(=CC[C@@H]4[C@]5(C)CC[C@H](O)C(C)(C)[C@H]5CC[C@@]43C)[C@@H]12
REMARK SMILES IDX 7 1 6 2 11 3 33 4 5 5 12 6 15 7 2 8 3 9 13 10 16 11 1 12
REMARK SMILES IDX 4 13 14 14 31 15 17 16 18 17 30 18 32 19 19 20 29 21 28 22
REMARK SMILES IDX 21 23 20 24 25 25 22 26 23 27 26 28 27 29 8 30 9 31 10 32
REMARK SMILES IDX 24 33
REMARK H PARENT 24 34
REMARK Flexibility Score: inf
ROOT
ATOM      1  C   UNL     1      14.918  49.125  28.971  1.00  0.00     0.017 C 
ATOM      2  C   UNL     1      14.850  47.574  28.810  1.00  0.00     0.014 C 
ATOM      3  C   UNL     1      13.621  49.721  28.361  1.00  0.00     0.014 C 
ATOM      4  C   UNL     1      15.039  49.538  30.486  1.00  0.00     0.030 C 
ATOM      5  C   UNL     1      15.701  46.847  29.863  1.00  0.00     0.004 C 
ATOM      6  C   UNL     1      13.518  51.243  28.432  1.00  0.00     0.013 C 
ATOM      7  C   UNL     1      14.548  50.975  30.813  1.00  0.00    -0.063 C 
ATOM      8  C   UNL     1      14.504  48.453  31.505  1.00  0.00    -0.003 C 
ATOM      9  C   UNL     1      15.088  47.026  31.264  1.00  0.00    -0.011 C 
ATOM     10  C   UNL     1      13.743  51.893  29.858  1.00  0.00    -0.006 C 
ATOM     11  C   UNL     1      14.903  51.480  32.017  1.00  0.00    -0.027 C 
ATOM     12  C   UNL     1      12.974  48.397  31.633  1.00  0.00     0.008 C 
ATOM     13  C   UNL     1      16.126  46.651  32.339  1.00  0.00     0.008 C 
ATOM     14  C   UNL     1      12.303  52.008  30.478  1.00  0.00     0.017 C 
ATOM     15  C   UNL     1      14.500  53.344  29.772  1.00  0.00    -0.020 C 
ATOM     16  C   UNL     1      14.693  52.917  32.380  1.00  0.00     0.032 C 
ATOM     17  C   UNL     1      15.106  53.821  31.197  1.00  0.00     0.006 C 
ATOM     18  C   UNL     1      13.514  54.376  29.114  1.00  0.00     0.008 C 
ATOM     19  C   UNL     1      15.743  53.233  28.820  1.00  0.00     0.012 C 
ATOM     20  C   UNL     1      15.157  55.406  31.514  1.00  0.00    -0.025 C 
ATOM     21  C   UNL     1      13.857  55.837  29.351  1.00  0.00     0.005 C 
ATOM     22  C   UNL     1      13.915  56.116  30.869  1.00  0.00     0.003 C 
ATOM     23  C   UNL     1      15.128  55.684  33.052  1.00  0.00     0.010 C 
ATOM     24  C   UNL     1      16.518  55.972  30.985  1.00  0.00     0.012 C 
ATOM     25  C   UNL     1      13.668  57.631  31.270  1.00  0.00    -0.006 C 
ATOM     26  C   UNL     1      14.988  57.165  33.431  1.00  0.00     0.033 C 
ATOM     27  C   UNL     1      13.716  57.776  32.829  1.00  0.00     0.120 C 
ATOM     28  C   UNL     1      12.247  58.070  30.803  1.00  0.00     0.014 C 
ATOM     29  C   UNL     1      14.667  58.622  30.611  1.00  0.00     0.014 C 
ENDROOT
BRANCH   1  30
ATOM     30  C   UNL     1      16.171  49.590  28.199  1.00  0.00     0.048 C 
ATOM     31  O   UNL     1      17.217  49.926  28.811  1.00  0.00    -0.550 OA
ATOM     32  O   UNL     1      16.199  49.617  26.808  1.00  0.00    -0.550 OA
ENDBRANCH   1  30
BRANCH  27  33
ATOM     33  O   UNL     1      12.606  57.148  33.424  1.00  0.00    -0.393 OA
ATOM     34  H   UNL     1      11.889  57.831  33.511  1.00  0.00     0.210 HD
ENDBRANCH  27  33
TORSDOF 2
ENDMDL
MODEL 2
REMARK VINA RESULT:    -5.991      2.331      8.066
REMARK INTER + INTRA:          -6.843
REMARK INTER:                  -6.518
REMARK INTRA:                  -0.325
REMARK UNBOUND:                -0.327
REMARK SMILES C[C@H]1[C@H](C)CC[C@@]2(C(=O)[O-])CC[C@@]3(C)C(=CC[C@@H]4[C@]5(C)CC[C@H](O)C(C)(C)[C@H]5CC[C@@]43C)[C@@H]12
REMARK SMILES IDX 7 1 6 2 11 3 33 4 5 5 12 6 15 7 2 8 3 9 13 10 16 11 1 12
REMARK SMILES IDX 4 13 14 14 31 15 17 16 18 17 30 18 32 19 19 20 29 21 28 22
REMARK SMILES IDX 21 23 20 24 25 25 22 26 23 27 26 28 27 29 8 30 9 31 10 32
REMARK SMILES IDX 24 33
REMARK H PARENT 24 34
REMARK Flexibility Score: inf
ROOT
ATOM      1  C   UNL     1      14.647  57.182  32.486  1.00  0.00     0.017 C 
ATOM      2  C   UNL     1      14.602  58.621  33.088  1.00  0.00     0.014 C 
ATOM      3  C   UNL     1      15.440  56.281  33.470  1.00  0.00     0.014 C 
ATOM      4  C   UNL     1      13.197  56.603  32.276  1.00  0.00     0.030 C 
ATOM      5  C   UNL     1      13.391  59.421  32.582  1.00  0.00     0.004 C 
ATOM      6  C   UNL     1      15.585  54.825  33.034  1.00  0.00     0.013 C 
ATOM      7  C   UNL     1      13.111  55.053  32.242  1.00  0.00    -0.063 C 
ATOM      8  C   UNL     1      12.090  57.266  33.191  1.00  0.00    -0.003 C 
ATOM      9  C   UNL     1      12.085  58.826  33.137  1.00  0.00    -0.011 C 
ATOM     10  C   UNL     1      14.246  54.076  32.641  1.00  0.00    -0.006 C 
ATOM     11  C   UNL     1      11.960  54.519  31.771  1.00  0.00    -0.027 C 
ATOM     12  C   UNL     1      12.086  56.774  34.647  1.00  0.00     0.008 C 
ATOM     13  C   UNL     1      10.885  59.360  32.333  1.00  0.00     0.008 C 
ATOM     14  C   UNL     1      13.772  53.380  33.968  1.00  0.00     0.017 C 
ATOM     15  C   UNL     1      14.463  53.005  31.421  1.00  0.00    -0.020 C 
ATOM     16  C   UNL     1      11.815  53.059  31.474  1.00  0.00     0.032 C 
ATOM     17  C   UNL     1      13.069  52.547  30.732  1.00  0.00     0.006 C 
ATOM     18  C   UNL     1      15.336  51.814  31.959  1.00  0.00     0.008 C 
ATOM     19  C   UNL     1      15.282  53.683  30.266  1.00  0.00     0.012 C 
ATOM     20  C   UNL     1      12.967  51.047  30.137  1.00  0.00    -0.025 C 
ATOM     21  C   UNL     1      15.270  50.541  31.132  1.00  0.00     0.005 C 
ATOM     22  C   UNL     1      13.805  50.065  31.030  1.00  0.00     0.003 C 
ATOM     23  C   UNL     1      11.488  50.539  30.117  1.00  0.00     0.010 C 
ATOM     24  C   UNL     1      13.450  51.071  28.649  1.00  0.00     0.012 C 
ATOM     25  C   UNL     1      13.635  48.514  30.741  1.00  0.00    -0.006 C 
ATOM     26  C   UNL     1      11.327  49.059  29.740  1.00  0.00     0.033 C 
ATOM     27  C   UNL     1      12.112  48.152  30.696  1.00  0.00     0.120 C 
ATOM     28  C   UNL     1      14.277  47.694  31.902  1.00  0.00     0.014 C 
ATOM     29  C   UNL     1      14.335  48.040  29.437  1.00  0.00     0.014 C 
ENDROOT
BRANCH   1  30
ATOM     30  C   UNL     1      15.366  57.301  31.124  1.00  0.00     0.048 C 
ATOM     31  O   UNL     1      14.721  57.231  30.047  1.00  0.00    -0.550 OA
ATOM     32  O   UNL     1      16.737  57.527  31.044  1.00  0.00    -0.550 OA
ENDBRANCH   1  30
BRANCH  27  33
ATOM     33  O   UNL     1      11.534  48.260  31.974  1.00  0.00    -0.393 OA
ATOM     34  H   UNL     1      10.935  49.054  31.963  1.00  0.00     0.210 HD
ENDBRANCH  27  33
TORSDOF 2
ENDMDL
MODEL 3
REMARK VINA RESULT:    -5.846      1.671      2.110
REMARK INTER + INTRA:          -6.687
REMARK INTER:                  -6.361
REMARK INTRA:                  -0.326
REMARK UNBOUND:                -0.327
REMARK SMILES C[C@H]1[C@H](C)CC[C@@]2(C(=O)[O-])CC[C@@]3(C)C(=CC[C@@H]4[C@]5(C)CC[C@H](O)C(C)(C)[C@H]5CC[C@@]43C)[C@@H]12
REMARK SMILES IDX 7 1 6 2 11 3 33 4 5 5 12 6 15 7 2 8 3 9 13 10 16 11 1 12
REMARK SMILES IDX 4 13 14 14 31 15 17 16 18 17 30 18 32 19 19 20 29 21 28 22
REMARK SMILES IDX 21 23 20 24 25 25 22 26 23 27 26 28 27 29 8 30 9 31 10 32
REMARK SMILES IDX 24 33
REMARK H PARENT 24 34
REMARK Flexibility Score: inf
ROOT
ATOM      1  C   UNL     1      15.593  49.880  27.318  1.00  0.00     0.017 C 
ATOM      2  C   UNL     1      15.787  48.585  26.468  1.00  0.00     0.014 C 
ATOM      3  C   UNL     1      14.159  50.410  27.051  1.00  0.00     0.014 C 
ATOM      4  C   UNL     1      15.782  49.591  28.854  1.00  0.00     0.030 C 
ATOM      5  C   UNL     1      16.850  47.653  27.072  1.00  0.00     0.004 C 
ATOM      6  C   UNL     1      13.795  51.686  27.807  1.00  0.00     0.013 C 
ATOM      7  C   UNL     1      15.077  50.599  29.801  1.00  0.00    -0.063 C 
ATOM      8  C   UNL     1      15.548  48.082  29.269  1.00  0.00    -0.003 C 
ATOM      9  C   UNL     1      16.351  47.062  28.403  1.00  0.00    -0.011 C 
ATOM     10  C   UNL     1      14.035  51.663  29.372  1.00  0.00    -0.006 C 
ATOM     11  C   UNL     1      15.450  50.575  31.101  1.00  0.00    -0.027 C 
ATOM     12  C   UNL     1      14.071  47.668  29.363  1.00  0.00     0.008 C 
ATOM     13  C   UNL     1      17.536  46.466  29.185  1.00  0.00     0.008 C 
ATOM     14  C   UNL     1      12.663  51.198  29.981  1.00  0.00     0.017 C 
ATOM     15  C   UNL     1      14.510  53.120  29.953  1.00  0.00    -0.020 C 
ATOM     16  C   UNL     1      15.023  51.625  32.079  1.00  0.00     0.032 C 
ATOM     17  C   UNL     1      15.154  53.024  31.437  1.00  0.00     0.006 C 
ATOM     18  C   UNL     1      13.299  54.115  29.841  1.00  0.00     0.008 C 
ATOM     19  C   UNL     1      15.657  53.697  29.049  1.00  0.00     0.012 C 
ATOM     20  C   UNL     1      14.953  54.276  32.440  1.00  0.00    -0.025 C 
ATOM     21  C   UNL     1      13.398  55.353  30.715  1.00  0.00     0.005 C 
ATOM     22  C   UNL     1      13.549  54.932  32.194  1.00  0.00     0.003 C 
ATOM     23  C   UNL     1      15.021  53.828  33.936  1.00  0.00     0.010 C 
ATOM     24  C   UNL     1      16.135  55.279  32.221  1.00  0.00     0.012 C 
ATOM     25  C   UNL     1      13.076  56.026  33.242  1.00  0.00    -0.006 C 
ATOM     26  C   UNL     1      14.657  54.923  34.948  1.00  0.00     0.033 C 
ATOM     27  C   UNL     1      13.245  55.468  34.695  1.00  0.00     0.120 C 
ATOM     28  C   UNL     1      11.561  56.330  33.030  1.00  0.00     0.014 C 
ATOM     29  C   UNL     1      13.815  57.385  33.102  1.00  0.00     0.014 C 
ENDROOT
BRANCH   1  30
ATOM     30  C   UNL     1      16.665  50.883  26.837  1.00  0.00     0.048 C 
ATOM     31  O   UNL     1      17.678  51.129  27.540  1.00  0.00    -0.550 OA
ATOM     32  O   UNL     1      16.567  51.514  25.601  1.00  0.00    -0.550 OA
ENDBRANCH   1  30
BRANCH  27  33
ATOM     33  O   UNL     1      12.326  54.432  34.944  1.00  0.00    -0.393 OA
ATOM     34  H   UNL     1      12.518  54.076  35.852  1.00  0.00     0.210 HD
ENDBRANCH  27  33
TORSDOF 2
ENDMDL
MODEL 4
REMARK VINA RESULT:    -5.710      4.989      7.825
REMARK INTER + INTRA:          -6.538
REMARK INTER:                  -6.469
REMARK INTRA:                  -0.069
REMARK UNBOUND:                -0.327
REMARK SMILES C[C@H]1[C@H](C)CC[C@@]2(C(=O)[O-])CC[C@@]3(C)C(=CC[C@@H]4[C@]5(C)CC[C@H](O)C(C)(C)[C@H]5CC[C@@]43C)[C@@H]12
REMARK SMILES IDX 7 1 6 2 11 3 33 4 5 5 12 6 15 7 2 8 3 9 13 10 16 11 1 12
REMARK SMILES IDX 4 13 14 14 31 15 17 16 18 17 30 18 32 19 19 20 29 21 28 22
REMARK SMILES IDX 21 23 20 24 25 25 22 26 23 27 26 28 27 29 8 30 9 31 10 32
REMARK SMILES IDX 24 33
REMARK H PARENT 24 34
REMARK Flexibility Score: inf
ROOT
ATOM      1  C   UNL     1      12.592  45.412  33.378  1.00  0.00     0.017 C 
ATOM      2  C   UNL     1      12.180  44.376  34.471  1.00  0.00     0.014 C 
ATOM      3  C   UNL     1      13.896  46.106  33.854  1.00  0.00     0.014 C 
ATOM      4  C   UNL     1      12.830  44.714  31.987  1.00  0.00     0.030 C 
ATOM      5  C   UNL     1      11.327  43.236  33.891  1.00  0.00     0.004 C 
ATOM      6  C   UNL     1      14.446  47.163  32.897  1.00  0.00     0.013 C 
ATOM      7  C   UNL     1      13.762  45.490  31.017  1.00  0.00    -0.063 C 
ATOM      8  C   UNL     1      13.177  43.173  32.080  1.00  0.00    -0.003 C 
ATOM      9  C   UNL     1      12.173  42.357  32.953  1.00  0.00    -0.011 C 
ATOM     10  C   UNL     1      14.642  46.709  31.393  1.00  0.00    -0.006 C 
ATOM     11  C   UNL     1      13.758  45.094  29.723  1.00  0.00    -0.027 C 
ATOM     12  C   UNL     1      14.625  42.868  32.493  1.00  0.00     0.008 C 
ATOM     13  C   UNL     1      11.250  41.482  32.084  1.00  0.00     0.008 C 
ATOM     14  C   UNL     1      16.130  46.210  31.316  1.00  0.00     0.017 C 
ATOM     15  C   UNL     1      14.336  47.919  30.330  1.00  0.00    -0.020 C 
ATOM     16  C   UNL     1      14.430  45.880  28.641  1.00  0.00     0.032 C 
ATOM     17  C   UNL     1      14.121  47.383  28.815  1.00  0.00     0.006 C 
ATOM     18  C   UNL     1      15.465  49.001  30.476  1.00  0.00     0.008 C 
ATOM     19  C   UNL     1      12.983  48.620  30.708  1.00  0.00     0.012 C 
ATOM     20  C   UNL     1      14.582  48.338  27.595  1.00  0.00    -0.025 C 
ATOM     21  C   UNL     1      15.602  49.952  29.299  1.00  0.00     0.005 C 
ATOM     22  C   UNL     1      15.862  49.146  28.008  1.00  0.00     0.003 C 
ATOM     23  C   UNL     1      14.927  47.507  26.316  1.00  0.00     0.010 C 
ATOM     24  C   UNL     1      13.381  49.266  27.212  1.00  0.00     0.012 C 
ATOM     25  C   UNL     1      16.597  49.959  26.861  1.00  0.00    -0.006 C 
ATOM     26  C   UNL     1      15.548  48.322  25.173  1.00  0.00     0.033 C 
ATOM     27  C   UNL     1      16.834  49.026  25.626  1.00  0.00     0.120 C 
ATOM     28  C   UNL     1      17.996  50.428  27.368  1.00  0.00     0.014 C 
ATOM     29  C   UNL     1      15.841  51.243  26.422  1.00  0.00     0.014 C 
ENDROOT
BRANCH   1  30
ATOM     30  C   UNL     1      11.424  46.417  33.267  1.00  0.00     0.048 C 
ATOM     31  O   UNL     1      10.960  46.980  34.291  1.00  0.00    -0.550 OA
ATOM     32  O   UNL     1      10.876  46.760  32.035  1.00  0.00    -0.550 OA
ENDBRANCH   1  30
BRANCH  27  33
ATOM     33  O   UNL     1      17.791  48.037  25.921  1.00  0.00    -0.393 OA
ATOM     34  H   UNL     1      17.477  47.551  26.729  1.00  0.00     0.210 HD
ENDBRANCH  27  33
TORSDOF 2
ENDMDL
MODEL 5
REMARK VINA RESULT:    -5.649      1.479      1.988
REMARK INTER + INTRA:          -6.471
REMARK INTER:                  -6.145
REMARK INTRA:                  -0.326
REMARK UNBOUND:                -0.327
REMARK SMILES C[C@H]1[C@H](C)CC[C@@]2(C(=O)[O-])CC[C@@]3(C)C(=CC[C@@H]4[C@]5(C)CC[C@H](O)C(C)(C)[C@H]5CC[C@@]43C)[C@@H]12
REMARK SMILES IDX 7 1 6 2 11 3 33 4 5 5 12 6 15 7 2 8 3 9 13 10 16 11 1 12
REMARK SMILES IDX 4 13 14 14 31 15 17 16 18 17 30 18 32 19 19 20 29 21 28 22
REMARK SMILES IDX 21 23 20 24 25 25 22 26 23 27 26 28 27 29 8 30 9 31 10 32
REMARK SMILES IDX 24 33
REMARK H PARENT 24 34
REMARK Flexibility Score: inf
ROOT
ATOM      1  C   UNL     1      15.324  47.977  29.577  1.00  0.00     0.017 C 
ATOM      2  C   UNL     1      15.274  46.459  29.936  1.00  0.00     0.014 C 
ATOM      3  C   UNL     1      14.282  48.233  28.456  1.00  0.00     0.014 C 
ATOM      4  C   UNL     1      14.996  48.873  30.830  1.00  0.00     0.030 C 
ATOM      5  C   UNL     1      15.755  46.190  31.371  1.00  0.00     0.004 C 
ATOM      6  C   UNL     1      14.196  49.680  27.976  1.00  0.00     0.013 C 
ATOM      7  C   UNL     1      14.461  50.292  30.497  1.00  0.00    -0.063 C 
ATOM      8  C   UNL     1      14.158  48.142  31.955  1.00  0.00    -0.003 C 
ATOM      9  C   UNL     1      14.756  46.768  32.389  1.00  0.00    -0.011 C 
ATOM     10  C   UNL     1      13.999  50.778  29.100  1.00  0.00    -0.006 C 
ATOM     11  C   UNL     1      14.451  51.191  31.509  1.00  0.00    -0.027 C 
ATOM     12  C   UNL     1      12.658  48.007  31.647  1.00  0.00     0.008 C 
ATOM     13  C   UNL     1      15.416  46.852  33.778  1.00  0.00     0.008 C 
ATOM     14  C   UNL     1      12.443  50.972  29.201  1.00  0.00     0.017 C 
ATOM     15  C   UNL     1      14.778  52.177  28.752  1.00  0.00    -0.020 C 
ATOM     16  C   UNL     1      14.174  52.646  31.289  1.00  0.00     0.032 C 
ATOM     17  C   UNL     1      14.941  53.143  30.043  1.00  0.00     0.006 C 
ATOM     18  C   UNL     1      14.057  52.852  27.530  1.00  0.00     0.008 C 
ATOM     19  C   UNL     1      16.246  51.860  28.294  1.00  0.00     0.012 C 
ATOM     20  C   UNL     1      14.930  54.743  29.807  1.00  0.00    -0.025 C 
ATOM     21  C   UNL     1      14.346  54.333  27.349  1.00  0.00     0.005 C 
ATOM     22  C   UNL     1      13.953  55.098  28.632  1.00  0.00     0.003 C 
ATOM     23  C   UNL     1      14.449  55.506  31.084  1.00  0.00     0.010 C 
ATOM     24  C   UNL     1      16.398  55.212  29.535  1.00  0.00     0.012 C 
ATOM     25  C   UNL     1      13.631  56.636  28.409  1.00  0.00    -0.006 C 
ATOM     26  C   UNL     1      14.234  57.013  30.883  1.00  0.00     0.033 C 
ATOM     27  C   UNL     1      13.214  57.287  29.771  1.00  0.00     0.120 C 
ATOM     28  C   UNL     1      12.424  56.780  27.432  1.00  0.00     0.014 C 
ATOM     29  C   UNL     1      14.802  57.434  27.772  1.00  0.00     0.014 C 
ENDROOT
BRANCH   1  30
ATOM     30  C   UNL     1      16.761  48.264  29.090  1.00  0.00     0.048 C 
ATOM     31  O   UNL     1      17.586  48.857  29.830  1.00  0.00    -0.550 OA
ATOM     32  O   UNL     1      17.201  47.843  27.838  1.00  0.00    -0.550 OA
ENDBRANCH   1  30
BRANCH  27  33
ATOM     33  O   UNL     1      11.964  56.802  30.196  1.00  0.00    -0.393 OA
ATOM     34  H   UNL     1      11.496  56.443  29.395  1.00  0.00     0.210 HD
ENDBRANCH  27  33
TORSDOF 2
ENDMDL
MODEL 6
REMARK VINA RESULT:    -5.514      1.667      7.958
REMARK INTER + INTRA:          -6.325
REMARK INTER:                  -6.018
REMARK INTRA:                  -0.307
REMARK UNBOUND:                -0.327
REMARK SMILES C[C@H]1[C@H](C)CC[C@@]2(C(=O)[O-])CC[C@@]3(C)C(=CC[C@@H]4[C@]5(C)CC[C@H](O)C(C)(C)[C@H]5CC[C@@]43C)[C@@H]12
REMARK SMILES IDX 7 1 6 2 11 3 33 4 5 5 12 6 15 7 2 8 3 9 13 10 16 11 1 12
REMARK SMILES IDX 4 13 14 14 31 15 17 16 18 17 30 18 32 19 19 20 29 21 28 22
REMARK SMILES IDX 21 23 20 24 25 25 22 26 23 27 26 28 27 29 8 30 9 31 10 32
REMARK SMILES IDX 24 33
REMARK H PARENT 24 34
REMARK Flexibility Score: inf
ROOT
ATOM      1  C   UNL     1      13.951  56.024  32.817  1.00  0.00     0.017 C 
ATOM      2  C   UNL     1      13.800  57.505  33.289  1.00  0.00     0.014 C 
ATOM      3  C   UNL     1      12.533  55.489  32.480  1.00  0.00     0.014 C 
ATOM      4  C   UNL     1      14.881  55.919  31.550  1.00  0.00     0.030 C 
ATOM      5  C   UNL     1      15.085  58.316  33.060  1.00  0.00     0.004 C 
ATOM      6  C   UNL     1      12.492  54.039  31.999  1.00  0.00     0.013 C 
ATOM      7  C   UNL     1      14.653  54.656  30.676  1.00  0.00    -0.063 C 
ATOM      8  C   UNL     1      14.984  57.250  30.702  1.00  0.00    -0.003 C 
ATOM      9  C   UNL     1      15.337  58.509  31.554  1.00  0.00    -0.011 C 
ATOM     10  C   UNL     1      13.461  53.673  30.802  1.00  0.00    -0.006 C 
ATOM     11  C   UNL     1      15.610  54.367  29.763  1.00  0.00    -0.027 C 
ATOM     12  C   UNL     1      13.771  57.528  29.801  1.00  0.00     0.008 C 
ATOM     13  C   UNL     1      16.791  58.959  31.322  1.00  0.00     0.008 C 
ATOM     14  C   UNL     1      12.594  53.875  29.507  1.00  0.00     0.017 C 
ATOM     15  C   UNL     1      14.054  52.149  30.921  1.00  0.00    -0.020 C 
ATOM     16  C   UNL     1      15.637  53.075  29.009  1.00  0.00     0.032 C 
ATOM     17  C   UNL     1      15.341  51.901  29.969  1.00  0.00     0.006 C 
ATOM     18  C   UNL     1      12.873  51.141  30.682  1.00  0.00     0.008 C 
ATOM     19  C   UNL     1      14.575  51.902  32.381  1.00  0.00     0.012 C 
ATOM     20  C   UNL     1      15.564  50.422  29.354  1.00  0.00    -0.025 C 
ATOM     21  C   UNL     1      13.296  49.728  30.317  1.00  0.00     0.005 C 
ATOM     22  C   UNL     1      14.173  49.762  29.047  1.00  0.00     0.003 C 
ATOM     23  C   UNL     1      16.380  50.472  28.021  1.00  0.00     0.010 C 
ATOM     24  C   UNL     1      16.417  49.589  30.368  1.00  0.00     0.012 C 
ATOM     25  C   UNL     1      14.192  48.406  28.223  1.00  0.00    -0.006 C 
ATOM     26  C   UNL     1      16.475  49.132  27.280  1.00  0.00     0.033 C 
ATOM     27  C   UNL     1      15.083  48.579  26.947  1.00  0.00     0.120 C 
ATOM     28  C   UNL     1      12.747  48.068  27.742  1.00  0.00     0.014 C 
ATOM     29  C   UNL     1      14.672  47.180  29.047  1.00  0.00     0.014 C 
ENDROOT
BRANCH   1  30
ATOM     30  C   UNL     1      14.582  55.252  33.996  1.00  0.00     0.048 C 
ATOM     31  O   UNL     1      15.752  54.799  33.917  1.00  0.00    -0.550 OA
ATOM     32  O   UNL     1      13.896  55.067  35.193  1.00  0.00    -0.550 OA
ENDBRANCH   1  30
BRANCH  27  33
ATOM     33  O   UNL     1      14.475  49.454  26.027  1.00  0.00    -0.393 OA
ATOM     34  H   UNL     1      14.732  50.380  26.282  1.00  0.00     0.210 HD
ENDBRANCH  27  33
TORSDOF 2
ENDMDL
MODEL 7
REMARK VINA RESULT:    -5.476      1.971      3.331
REMARK INTER + INTRA:          -6.283
REMARK INTER:                  -5.970
REMARK INTRA:                  -0.313
REMARK UNBOUND:                -0.327
REMARK SMILES C[C@H]1[C@H](C)CC[C@@]2(C(=O)[O-])CC[C@@]3(C)C(=CC[C@@H]4[C@]5(C)CC[C@H](O)C(C)(C)[C@H]5CC[C@@]43C)[C@@H]12
REMARK SMILES IDX 7 1 6 2 11 3 33 4 5 5 12 6 15 7 2 8 3 9 13 10 16 11 1 12
REMARK SMILES IDX 4 13 14 14 31 15 17 16 18 17 30 18 32 19 19 20 29 21 28 22
REMARK SMILES IDX 21 23 20 24 25 25 22 26 23 27 26 28 27 29 8 30 9 31 10 32
REMARK SMILES IDX 24 33
REMARK H PARENT 24 34
REMARK Flexibility Score: inf
ROOT
ATOM      1  C   UNL     1      14.289  46.960  27.884  1.00  0.00     0.017 C 
ATOM      2  C   UNL     1      14.526  45.509  27.359  1.00  0.00     0.014 C 
ATOM      3  C   UNL     1      12.875  47.008  28.520  1.00  0.00     0.014 C 
ATOM      4  C   UNL     1      15.373  47.366  28.951  1.00  0.00     0.030 C 
ATOM      5  C   UNL     1      16.020  45.159  27.285  1.00  0.00     0.004 C 
ATOM      6  C   UNL     1      12.472  48.368  29.089  1.00  0.00     0.013 C 
ATOM      7  C   UNL     1      14.938  48.491  29.930  1.00  0.00    -0.063 C 
ATOM      8  C   UNL     1      16.065  46.144  29.679  1.00  0.00    -0.003 C 
ATOM      9  C   UNL     1      16.620  45.064  28.699  1.00  0.00    -0.011 C 
ATOM     10  C   UNL     1      13.496  49.033  30.097  1.00  0.00    -0.006 C 
ATOM     11  C   UNL     1      15.917  49.078  30.656  1.00  0.00    -0.027 C 
ATOM     12  C   UNL     1      15.213  45.491  30.779  1.00  0.00     0.008 C 
ATOM     13  C   UNL     1      18.157  45.110  28.618  1.00  0.00     0.008 C 
ATOM     14  C   UNL     1      13.019  48.566  31.519  1.00  0.00     0.017 C 
ATOM     15  C   UNL     1      13.535  50.666  29.960  1.00  0.00    -0.020 C 
ATOM     16  C   UNL     1      15.684  50.312  31.470  1.00  0.00     0.032 C 
ATOM     17  C   UNL     1      14.842  51.323  30.660  1.00  0.00     0.006 C 
ATOM     18  C   UNL     1      12.170  51.238  30.484  1.00  0.00     0.008 C 
ATOM     19  C   UNL     1      13.644  51.064  28.445  1.00  0.00     0.012 C 
ATOM     20  C   UNL     1      14.701  52.797  31.310  1.00  0.00    -0.025 C 
ATOM     21  C   UNL     1      12.185  52.714  30.847  1.00  0.00     0.005 C 
ATOM     22  C   UNL     1      13.266  52.971  31.920  1.00  0.00     0.003 C 
ATOM     23  C   UNL     1      15.743  53.019  32.455  1.00  0.00     0.010 C 
ATOM     24  C   UNL     1      15.021  53.857  30.204  1.00  0.00     0.012 C 
ATOM     25  C   UNL     1      13.018  54.263  32.807  1.00  0.00    -0.006 C 
ATOM     26  C   UNL     1      15.554  54.321  33.245  1.00  0.00     0.033 C 
ATOM     27  C   UNL     1      14.157  54.394  33.874  1.00  0.00     0.120 C 
ATOM     28  C   UNL     1      11.670  54.116  33.577  1.00  0.00     0.014 C 
ATOM     29  C   UNL     1      12.906  55.576  31.983  1.00  0.00     0.014 C 
ENDROOT
BRANCH   1  30
ATOM     30  C   UNL     1      14.389  47.890  26.655  1.00  0.00     0.048 C 
ATOM     31  O   UNL     1      13.463  47.936  25.805  1.00  0.00    -0.550 OA
ATOM     32  O   UNL     1      15.481  48.732  26.468  1.00  0.00    -0.550 OA
ENDBRANCH   1  30
BRANCH  27  33
ATOM     33  O   UNL     1      14.059  53.373  34.838  1.00  0.00    -0.393 OA
ATOM     34  H   UNL     1      13.200  53.502  35.322  1.00  0.00     0.210 HD
ENDBRANCH  27  33
TORSDOF 2
ENDMDL
MODEL 8
REMARK VINA RESULT:    -5.431      3.733      9.849
REMARK INTER + INTRA:          -6.234
REMARK INTER:                  -5.910
REMARK INTRA:                  -0.324
REMARK UNBOUND:                -0.327
REMARK SMILES C[C@H]1[C@H](C)CC[C@@]2(C(=O)[O-])CC[C@@]3(C)C(=CC[C@@H]4[C@]5(C)CC[C@H](O)C(C)(C)[C@H]5CC[C@@]43C)[C@@H]12
REMARK SMILES IDX 7 1 6 2 11 3 33 4 5 5 12 6 15 7 2 8 3 9 13 10 16 11 1 12
REMARK SMILES IDX 4 13 14 14 31 15 17 16 18 17 30 18 32 19 19 20 29 21 28 22
REMARK SMILES IDX 21 23 20 24 25 25 22 26 23 27 26 28 27 29 8 30 9 31 10 32
REMARK SMILES IDX 24 33
REMARK H PARENT 24 34
REMARK Flexibility Score: inf
ROOT
ATOM      1  C   UNL     1      15.542  49.122  27.841  1.00  0.00     0.017 C 
ATOM      2  C   UNL     1      15.882  50.596  27.455  1.00  0.00     0.014 C 
ATOM      3  C   UNL     1      16.874  48.327  27.887  1.00  0.00     0.014 C 
ATOM      4  C   UNL     1      14.823  49.048  29.240  1.00  0.00     0.030 C 
ATOM      5  C   UNL     1      14.819  51.584  27.961  1.00  0.00     0.004 C 
ATOM      6  C   UNL     1      16.728  46.850  28.251  1.00  0.00     0.013 C 
ATOM      7  C   UNL     1      14.954  47.684  29.971  1.00  0.00    -0.063 C 
ATOM      8  C   UNL     1      15.099  50.287  30.184  1.00  0.00    -0.003 C 
ATOM      9  C   UNL     1      14.849  51.665  29.498  1.00  0.00    -0.011 C 
ATOM     10  C   UNL     1      15.912  46.534  29.570  1.00  0.00    -0.006 C 
ATOM     11  C   UNL     1      14.119  47.470  31.014  1.00  0.00    -0.027 C 
ATOM     12  C   UNL     1      16.470  50.267  30.877  1.00  0.00     0.008 C 
ATOM     13  C   UNL     1      13.557  52.327  30.011  1.00  0.00     0.008 C 
ATOM     14  C   UNL     1      16.997  46.458  30.704  1.00  0.00     0.017 C 
ATOM     15  C   UNL     1      15.041  45.150  29.450  1.00  0.00    -0.020 C 
ATOM     16  C   UNL     1      13.978  46.132  31.669  1.00  0.00     0.032 C 
ATOM     17  C   UNL     1      13.899  45.026  30.592  1.00  0.00     0.006 C 
ATOM     18  C   UNL     1      16.042  43.940  29.408  1.00  0.00     0.008 C 
ATOM     19  C   UNL     1      14.258  45.139  28.090  1.00  0.00     0.012 C 
ATOM     20  C   UNL     1      13.513  43.551  31.131  1.00  0.00    -0.025 C 
ATOM     21  C   UNL     1      15.434  42.588  29.741  1.00  0.00     0.005 C 
ATOM     22  C   UNL     1      14.791  42.641  31.144  1.00  0.00     0.003 C 
ATOM     23  C   UNL     1      12.943  43.604  32.586  1.00  0.00     0.010 C 
ATOM     24  C   UNL     1      12.372  42.978  30.226  1.00  0.00     0.012 C 
ATOM     25  C   UNL     1      14.659  41.232  31.862  1.00  0.00    -0.006 C 
ATOM     26  C   UNL     1      12.725  42.231  33.237  1.00  0.00     0.033 C 
ATOM     27  C   UNL     1      14.029  41.424  33.283  1.00  0.00     0.120 C 
ATOM     28  C   UNL     1      16.076  40.612  32.058  1.00  0.00     0.014 C 
ATOM     29  C   UNL     1      13.839  40.192  31.050  1.00  0.00     0.014 C 
ENDROOT
BRANCH   1  30
ATOM     30  C   UNL     1      14.602  48.588  26.739  1.00  0.00     0.048 C 
ATOM     31  O   UNL     1      13.377  48.414  26.965  1.00  0.00    -0.550 OA
ATOM     32  O   UNL     1      15.067  48.319  25.455  1.00  0.00    -0.550 OA
ENDBRANCH   1  30
BRANCH  27  33
ATOM     33  O   UNL     1      14.924  42.089  34.141  1.00  0.00    -0.393 OA
ATOM     34  H   UNL     1      15.598  41.423  34.442  1.00  0.00     0.210 HD
ENDBRANCH  27  33
TORSDOF 2
ENDMDL
MODEL 9
REMARK VINA RESULT:    -5.341      3.938      9.824
REMARK INTER + INTRA:          -6.137
REMARK INTER:                  -5.812
REMARK INTRA:                  -0.325
REMARK UNBOUND:                -0.327
REMARK SMILES C[C@H]1[C@H](C)CC[C@@]2(C(=O)[O-])CC[C@@]3(C)C(=CC[C@@H]4[C@]5(C)CC[C@H](O)C(C)(C)[C@H]5CC[C@@]43C)[C@@H]12
REMARK SMILES IDX 7 1 6 2 11 3 33 4 5 5 12 6 15 7 2 8 3 9 13 10 16 11 1 12
REMARK SMILES IDX 4 13 14 14 31 15 17 16 18 17 30 18 32 19 19 20 29 21 28 22
REMARK SMILES IDX 21 23 20 24 25 25 22 26 23 27 26 28 27 29 8 30 9 31 10 32
REMARK SMILES IDX 24 33
REMARK H PARENT 24 34
REMARK Flexibility Score: inf
ROOT
ATOM      1  C   UNL     1      13.259  49.997  29.546  1.00  0.00     0.017 C 
ATOM      2  C   UNL     1      13.588  51.495  29.259  1.00  0.00     0.014 C 
ATOM      3  C   UNL     1      13.756  49.163  28.335  1.00  0.00     0.014 C 
ATOM      4  C   UNL     1      13.960  49.499  30.865  1.00  0.00     0.030 C 
ATOM      5  C   UNL     1      13.729  52.313  30.553  1.00  0.00     0.004 C 
ATOM      6  C   UNL     1      13.510  47.659  28.446  1.00  0.00     0.013 C 
ATOM      7  C   UNL     1      14.186  47.965  30.946  1.00  0.00    -0.063 C 
ATOM      8  C   UNL     1      15.234  50.337  31.285  1.00  0.00    -0.003 C 
ATOM      9  C   UNL     1      14.984  51.877  31.329  1.00  0.00    -0.011 C 
ATOM     10  C   UNL     1      14.023  46.965  29.773  1.00  0.00    -0.006 C 
ATOM     11  C   UNL     1      14.502  47.460  32.161  1.00  0.00    -0.027 C 
ATOM     12  C   UNL     1      16.503  50.017  30.479  1.00  0.00     0.008 C 
ATOM     13  C   UNL     1      14.909  52.396  32.777  1.00  0.00     0.008 C 
ATOM     14  C   UNL     1      15.470  46.460  29.429  1.00  0.00     0.017 C 
ATOM     15  C   UNL     1      13.040  45.747  30.261  1.00  0.00    -0.020 C 
ATOM     16  C   UNL     1      14.532  45.989  32.437  1.00  0.00     0.032 C 
ATOM     17  C   UNL     1      13.299  45.310  31.800  1.00  0.00     0.006 C 
ATOM     18  C   UNL     1      13.164  44.570  29.229  1.00  0.00     0.008 C 
ATOM     19  C   UNL     1      11.547  46.230  30.223  1.00  0.00     0.012 C 
ATOM     20  C   UNL     1      13.065  43.762  32.205  1.00  0.00    -0.025 C 
ATOM     21  C   UNL     1      12.688  43.218  29.732  1.00  0.00     0.005 C 
ATOM     22  C   UNL     1      13.472  42.835  31.006  1.00  0.00     0.003 C 
ATOM     23  C   UNL     1      13.929  43.358  33.444  1.00  0.00     0.010 C 
ATOM     24  C   UNL     1      11.569  43.582  32.627  1.00  0.00     0.012 C 
ATOM     25  C   UNL     1      13.535  41.276  31.297  1.00  0.00    -0.006 C 
ATOM     26  C   UNL     1      13.905  41.860  33.777  1.00  0.00     0.033 C 
ATOM     27  C   UNL     1      14.383  41.016  32.588  1.00  0.00     0.120 C 
ATOM     28  C   UNL     1      14.249  40.553  30.115  1.00  0.00     0.014 C 
ATOM     29  C   UNL     1      12.138  40.609  31.433  1.00  0.00     0.014 C 
ENDROOT
BRANCH   1  30
ATOM     30  C   UNL     1      11.725  49.909  29.702  1.00  0.00     0.048 C 
ATOM     31  O   UNL     1      11.200  49.758  30.835  1.00  0.00    -0.550 OA
ATOM     32  O   UNL     1      10.875  50.033  28.607  1.00  0.00    -0.550 OA
ENDBRANCH   1  30
BRANCH  27  33
ATOM     33  O   UNL     1      15.740  41.310  32.363  1.00  0.00    -0.393 OA
ATOM     34  H   UNL     1      15.817  41.672  31.440  1.00  0.00     0.210 HD
ENDBRANCH  27  33
TORSDOF 2
ENDMDL
