MODEL 1
REMARK VINA RESULT:    -6.932      0.000      0.000
REMARK INTER + INTRA:          -8.610
REMARK INTER:                  -8.350
REMARK INTRA:                  -0.260
REMARK UNBOUND:                -0.260
REMARK SMILES O=c1c(O)c(-c2ccc(O)c(O)c2)oc2cc(O)cc(O)c12
REMARK SMILES IDX 5 1 3 2 2 3 1 4 22 5 20 6 19 7 17 8 16 9 15 10 14 11 6 12
REMARK SMILES IDX 7 13 8 14 9 15 13 16 11 17 10 18 12 20 4 22 21 24 18 26
REMARK H PARENT 10 19 12 21 4 23 21 25 18 27
REMARK Flexibility Score: inf
ROOT
ATOM      1  C   UNL     1       6.310 -12.039  13.177  1.00  0.00     0.180 A 
ATOM      2  C   UNL     1       6.630 -10.871  12.463  1.00  0.00     0.208 A 
ATOM      3  C   UNL     1       7.532  -9.954  13.026  1.00  0.00     0.238 A 
ATOM      4  O   UNL     1       7.773  -8.885  12.408  1.00  0.00    -0.285 OA
ATOM      5  C   UNL     1       8.116 -10.224  14.287  1.00  0.00     0.111 A 
ATOM      6  C   UNL     1       9.072  -9.385  14.934  1.00  0.00     0.134 A 
ATOM      7  C   UNL     1       9.483  -9.684  16.239  1.00  0.00     0.093 A 
ATOM      8  C   UNL     1       9.024 -10.825  16.895  1.00  0.00     0.123 A 
ATOM      9  C   UNL     1       8.134 -11.685  16.249  1.00  0.00     0.094 A 
ATOM     10  C   UNL     1       7.677 -11.394  14.962  1.00  0.00     0.146 A 
ATOM     11  O   UNL     1       6.822 -12.232  14.387  1.00  0.00    -0.452 OA
ENDROOT
BRANCH   1  12
ATOM     12  C   UNL     1       5.386 -13.064  12.639  1.00  0.00     0.025 A 
ATOM     13  C   UNL     1       5.862 -14.297  12.158  1.00  0.00     0.016 A 
ATOM     14  C   UNL     1       4.970 -15.259  11.678  1.00  0.00     0.051 A 
ATOM     15  C   UNL     1       3.591 -15.009  11.682  1.00  0.00     0.157 A 
ATOM     16  C   UNL     1       4.003 -12.828  12.660  1.00  0.00     0.062 A 
ATOM     17  C   UNL     1       3.106 -13.788  12.179  1.00  0.00     0.158 A 
BRANCH  15  18
ATOM     18  O   UNL     1       2.704 -15.971  11.200  1.00  0.00    -0.504 OA
ATOM     19  H   UNL     1       2.029 -15.755  10.475  1.00  0.00     0.293 HD
ENDBRANCH  15  18
BRANCH  17  20
ATOM     20  O   UNL     1       1.739 -13.513  12.204  1.00  0.00    -0.504 OA
ATOM     21  H   UNL     1       1.273 -13.033  11.444  1.00  0.00     0.293 HD
ENDBRANCH  17  20
ENDBRANCH   1  12
BRANCH   2  22
ATOM     22  O   UNL     1       6.026 -10.614  11.229  1.00  0.00    -0.502 OA
ATOM     23  H   UNL     1       5.631 -11.347  10.654  1.00  0.00     0.293 HD
ENDBRANCH   2  22
BRANCH   6  24
ATOM     24  O   UNL     1       9.665  -8.271  14.334  1.00  0.00    -0.507 OA
ATOM     25  H   UNL     1      10.036  -7.477  14.835  1.00  0.00     0.293 HD
ENDBRANCH   6  24
BRANCH   8  26
ATOM     26  O   UNL     1       9.466 -11.101  18.187  1.00  0.00    -0.508 OA
ATOM     27  H   UNL     1      10.443 -11.011  18.444  1.00  0.00     0.293 HD
ENDBRANCH   8  26
TORSDOF 6
ENDMDL
MODEL 2
REMARK VINA RESULT:    -6.862      5.196      6.868
REMARK INTER + INTRA:          -8.526
REMARK INTER:                  -8.310
REMARK INTRA:                  -0.215
REMARK UNBOUND:                -0.260
REMARK SMILES O=c1c(O)c(-c2ccc(O)c(O)c2)oc2cc(O)cc(O)c12
REMARK SMILES IDX 5 1 3 2 2 3 1 4 22 5 20 6 19 7 17 8 16 9 15 10 14 11 6 12
REMARK SMILES IDX 7 13 8 14 9 15 13 16 11 17 10 18 12 20 4 22 21 24 18 26
REMARK H PARENT 10 19 12 21 4 23 21 25 18 27
REMARK Flexibility Score: inf
ROOT
ATOM      1  C   UNL     1      10.312 -10.332  15.937  1.00  0.00     0.180 A 
ATOM      2  C   UNL     1       9.913  -9.957  14.642  1.00  0.00     0.208 A 
ATOM      3  C   UNL     1      10.766 -10.229  13.561  1.00  0.00     0.238 A 
ATOM      4  O   UNL     1      10.428  -9.843  12.412  1.00  0.00    -0.285 OA
ATOM      5  C   UNL     1      11.999 -10.888  13.785  1.00  0.00     0.111 A 
ATOM      6  C   UNL     1      12.922 -11.249  12.759  1.00  0.00     0.134 A 
ATOM      7  C   UNL     1      14.171 -11.780  13.109  1.00  0.00     0.093 A 
ATOM      8  C   UNL     1      14.503 -12.022  14.441  1.00  0.00     0.123 A 
ATOM      9  C   UNL     1      13.583 -11.727  15.449  1.00  0.00     0.094 A 
ATOM     10  C   UNL     1      12.345 -11.164  15.134  1.00  0.00     0.146 A 
ATOM     11  O   UNL     1      11.503 -10.887  16.124  1.00  0.00    -0.452 OA
ENDROOT
BRANCH   1  12
ATOM     12  C   UNL     1       9.457 -10.099  17.124  1.00  0.00     0.025 A 
ATOM     13  C   UNL     1       9.222  -8.802  17.613  1.00  0.00     0.016 A 
ATOM     14  C   UNL     1       8.391  -8.605  18.719  1.00  0.00     0.051 A 
ATOM     15  C   UNL     1       7.773  -9.697  19.344  1.00  0.00     0.157 A 
ATOM     16  C   UNL     1       8.818 -11.187  17.740  1.00  0.00     0.062 A 
ATOM     17  C   UNL     1       7.986 -10.994  18.849  1.00  0.00     0.158 A 
BRANCH  15  18
ATOM     18  O   UNL     1       6.946  -9.496  20.448  1.00  0.00    -0.504 OA
ATOM     19  H   UNL     1       6.210  -8.800  20.441  1.00  0.00     0.293 HD
ENDBRANCH  15  18
BRANCH  17  20
ATOM     20  O   UNL     1       7.380 -12.100  19.443  1.00  0.00    -0.504 OA
ATOM     21  H   UNL     1       6.493 -12.466  19.120  1.00  0.00     0.293 HD
ENDBRANCH  17  20
ENDBRANCH   1  12
BRANCH   2  22
ATOM     22  O   UNL     1       8.701  -9.289  14.446  1.00  0.00    -0.502 OA
ATOM     23  H   UNL     1       8.539  -8.676  13.657  1.00  0.00     0.293 HD
ENDBRANCH   2  22
BRANCH   6  24
ATOM     24  O   UNL     1      12.654 -11.136  11.392  1.00  0.00    -0.507 OA
ATOM     25  H   UNL     1      12.639 -10.266  10.880  1.00  0.00     0.293 HD
ENDBRANCH   6  24
BRANCH   8  26
ATOM     26  O   UNL     1      15.747 -12.566  14.752  1.00  0.00    -0.508 OA
ATOM     27  H   UNL     1      16.150 -13.317  14.204  1.00  0.00     0.293 HD
ENDBRANCH   8  26
TORSDOF 6
ENDMDL
MODEL 3
REMARK VINA RESULT:    -6.690      2.210      2.821
REMARK INTER + INTRA:          -8.318
REMARK INTER:                  -8.277
REMARK INTRA:                  -0.041
REMARK UNBOUND:                -0.260
REMARK SMILES O=c1c(O)c(-c2ccc(O)c(O)c2)oc2cc(O)cc(O)c12
REMARK SMILES IDX 5 1 3 2 2 3 1 4 22 5 20 6 19 7 17 8 16 9 15 10 14 11 6 12
REMARK SMILES IDX 7 13 8 14 9 15 13 16 11 17 10 18 12 20 4 22 21 24 18 26
REMARK H PARENT 10 19 12 21 4 23 21 25 18 27
REMARK Flexibility Score: inf
ROOT
ATOM      1  C   UNL     1       6.330 -13.762  13.623  1.00  0.00     0.180 A 
ATOM      2  C   UNL     1       6.626 -12.406  13.849  1.00  0.00     0.208 A 
ATOM      3  C   UNL     1       7.651 -12.074  14.748  1.00  0.00     0.238 A 
ATOM      4  O   UNL     1       7.875 -10.859  14.988  1.00  0.00    -0.285 OA
ATOM      5  C   UNL     1       8.379 -13.100  15.398  1.00  0.00     0.111 A 
ATOM      6  C   UNL     1       9.465 -12.878  16.298  1.00  0.00     0.134 A 
ATOM      7  C   UNL     1      10.026 -13.963  16.983  1.00  0.00     0.093 A 
ATOM      8  C   UNL     1       9.587 -15.266  16.753  1.00  0.00     0.123 A 
ATOM      9  C   UNL     1       8.565 -15.500  15.830  1.00  0.00     0.094 A 
ATOM     10  C   UNL     1       7.961 -14.435  15.159  1.00  0.00     0.146 A 
ATOM     11  O   UNL     1       6.985 -14.699  14.297  1.00  0.00    -0.452 OA
ENDROOT
BRANCH   1  12
ATOM     12  C   UNL     1       5.279 -14.192  12.672  1.00  0.00     0.025 A 
ATOM     13  C   UNL     1       5.560 -15.096  11.632  1.00  0.00     0.016 A 
ATOM     14  C   UNL     1       4.547 -15.506  10.762  1.00  0.00     0.051 A 
ATOM     15  C   UNL     1       3.239 -15.031  10.925  1.00  0.00     0.157 A 
ATOM     16  C   UNL     1       3.962 -13.736  12.843  1.00  0.00     0.062 A 
ATOM     17  C   UNL     1       2.945 -14.144  11.973  1.00  0.00     0.158 A 
BRANCH  15  18
ATOM     18  O   UNL     1       2.231 -15.442  10.053  1.00  0.00    -0.504 OA
ATOM     19  H   UNL     1       1.788 -16.349  10.142  1.00  0.00     0.293 HD
ENDBRANCH  15  18
BRANCH  17  20
ATOM     20  O   UNL     1       1.652 -13.660  12.167  1.00  0.00    -0.504 OA
ATOM     21  H   UNL     1       1.320 -13.360  13.076  1.00  0.00     0.293 HD
ENDBRANCH  17  20
ENDBRANCH   1  12
BRANCH   2  22
ATOM     22  O   UNL     1       5.881 -11.409  13.214  1.00  0.00    -0.502 OA
ATOM     23  H   UNL     1       6.117 -11.055  12.296  1.00  0.00     0.293 HD
ENDBRANCH   2  22
BRANCH   6  24
ATOM     24  O   UNL     1      10.043 -11.627  16.531  1.00  0.00    -0.507 OA
ATOM     25  H   UNL     1      10.862 -11.470  17.099  1.00  0.00     0.293 HD
ENDBRANCH   6  24
BRANCH   8  26
ATOM     26  O   UNL     1      10.179 -16.323  17.440  1.00  0.00    -0.508 OA
ATOM     27  H   UNL     1      10.505 -16.219  18.394  1.00  0.00     0.293 HD
ENDBRANCH   8  26
TORSDOF 6
ENDMDL
MODEL 4
REMARK VINA RESULT:    -6.643      1.384      2.999
REMARK INTER + INTRA:          -8.261
REMARK INTER:                  -8.204
REMARK INTRA:                  -0.057
REMARK UNBOUND:                -0.260
REMARK SMILES O=c1c(O)c(-c2ccc(O)c(O)c2)oc2cc(O)cc(O)c12
REMARK SMILES IDX 5 1 3 2 2 3 1 4 22 5 20 6 19 7 17 8 16 9 15 10 14 11 6 12
REMARK SMILES IDX 7 13 8 14 9 15 13 16 11 17 10 18 12 20 4 22 21 24 18 26
REMARK H PARENT 10 19 12 21 4 23 21 25 18 27
REMARK Flexibility Score: inf
ROOT
ATOM      1  C   UNL     1       5.775 -13.085  13.163  1.00  0.00     0.180 A 
ATOM      2  C   UNL     1       6.603 -13.615  14.168  1.00  0.00     0.208 A 
ATOM      3  C   UNL     1       7.605 -12.804  14.723  1.00  0.00     0.238 A 
ATOM      4  O   UNL     1       8.378 -13.300  15.583  1.00  0.00    -0.285 OA
ATOM      5  C   UNL     1       7.755 -11.467  14.280  1.00  0.00     0.111 A 
ATOM      6  C   UNL     1       8.710 -10.543  14.801  1.00  0.00     0.134 A 
ATOM      7  C   UNL     1       8.857  -9.288  14.197  1.00  0.00     0.093 A 
ATOM      8  C   UNL     1       8.042  -8.900  13.135  1.00  0.00     0.123 A 
ATOM      9  C   UNL     1       7.064  -9.773  12.656  1.00  0.00     0.094 A 
ATOM     10  C   UNL     1       6.918 -11.045  13.214  1.00  0.00     0.146 A 
ATOM     11  O   UNL     1       5.983 -11.851  12.722  1.00  0.00    -0.452 OA
ENDROOT
BRANCH   1  12
ATOM     12  C   UNL     1       4.681 -13.872  12.547  1.00  0.00     0.025 A 
ATOM     13  C   UNL     1       4.928 -15.117  11.942  1.00  0.00     0.016 A 
ATOM     14  C   UNL     1       3.878 -15.853  11.389  1.00  0.00     0.051 A 
ATOM     15  C   UNL     1       2.565 -15.364  11.443  1.00  0.00     0.157 A 
ATOM     16  C   UNL     1       3.362 -13.397  12.617  1.00  0.00     0.062 A 
ATOM     17  C   UNL     1       2.307 -14.131  12.064  1.00  0.00     0.158 A 
BRANCH  15  18
ATOM     18  O   UNL     1       1.520 -16.101  10.888  1.00  0.00    -0.504 OA
ATOM     19  H   UNL     1       0.563 -15.769  10.916  1.00  0.00     0.293 HD
ENDBRANCH  15  18
BRANCH  17  20
ATOM     20  O   UNL     1       1.012 -13.620  12.141  1.00  0.00    -0.504 OA
ATOM     21  H   UNL     1       0.492 -13.600  13.011  1.00  0.00     0.293 HD
ENDBRANCH  17  20
ENDBRANCH   1  12
BRANCH   2  22
ATOM     22  O   UNL     1       6.452 -14.944  14.575  1.00  0.00    -0.502 OA
ATOM     23  H   UNL     1       7.203 -15.619  14.518  1.00  0.00     0.293 HD
ENDBRANCH   2  22
BRANCH   6  24
ATOM     24  O   UNL     1       9.511 -10.795  15.918  1.00  0.00    -0.507 OA
ATOM     25  H   UNL     1      10.517 -10.879  15.896  1.00  0.00     0.293 HD
ENDBRANCH   6  24
BRANCH   8  26
ATOM     26  O   UNL     1       8.205  -7.638  12.569  1.00  0.00    -0.508 OA
ATOM     27  H   UNL     1       8.083  -7.482  11.574  1.00  0.00     0.293 HD
ENDBRANCH   8  26
TORSDOF 6
ENDMDL
MODEL 5
REMARK VINA RESULT:    -6.587      5.326      7.207
REMARK INTER + INTRA:          -8.194
REMARK INTER:                  -7.863
REMARK INTRA:                  -0.332
REMARK UNBOUND:                -0.260
REMARK SMILES O=c1c(O)c(-c2ccc(O)c(O)c2)oc2cc(O)cc(O)c12
REMARK SMILES IDX 5 1 3 2 2 3 1 4 22 5 20 6 19 7 17 8 16 9 15 10 14 11 6 12
REMARK SMILES IDX 7 13 8 14 9 15 13 16 11 17 10 18 12 20 4 22 21 24 18 26
REMARK H PARENT 10 19 12 21 4 23 21 25 18 27
REMARK Flexibility Score: inf
ROOT
ATOM      1  C   UNL     1      11.134 -10.903  15.853  1.00  0.00     0.180 A 
ATOM      2  C   UNL     1      11.050 -10.718  14.462  1.00  0.00     0.208 A 
ATOM      3  C   UNL     1      12.169 -11.012  13.667  1.00  0.00     0.238 A 
ATOM      4  O   UNL     1      12.106 -10.793  12.430  1.00  0.00    -0.285 OA
ATOM      5  C   UNL     1      13.352 -11.502  14.270  1.00  0.00     0.111 A 
ATOM      6  C   UNL     1      14.533 -11.870  13.557  1.00  0.00     0.134 A 
ATOM      7  C   UNL     1      15.688 -12.219  14.268  1.00  0.00     0.093 A 
ATOM      8  C   UNL     1      15.688 -12.276  15.661  1.00  0.00     0.123 A 
ATOM      9  C   UNL     1      14.521 -11.976  16.367  1.00  0.00     0.094 A 
ATOM     10  C   UNL     1      13.364 -11.589  15.687  1.00  0.00     0.146 A 
ATOM     11  O   UNL     1      12.278 -11.301  16.396  1.00  0.00    -0.452 OA
ENDROOT
BRANCH   1  12
ATOM     12  C   UNL     1       9.988 -10.638  16.754  1.00  0.00     0.025 A 
ATOM     13  C   UNL     1       9.015 -11.621  17.007  1.00  0.00     0.016 A 
ATOM     14  C   UNL     1       7.956 -11.357  17.880  1.00  0.00     0.051 A 
ATOM     15  C   UNL     1       7.861 -10.115  18.522  1.00  0.00     0.157 A 
ATOM     16  C   UNL     1       9.900  -9.404  17.417  1.00  0.00     0.062 A 
ATOM     17  C   UNL     1       8.841  -9.135  18.291  1.00  0.00     0.158 A 
BRANCH  15  18
ATOM     18  O   UNL     1       6.803  -9.855  19.391  1.00  0.00    -0.504 OA
ATOM     19  H   UNL     1       6.350  -8.949  19.420  1.00  0.00     0.293 HD
ENDBRANCH  15  18
BRANCH  17  20
ATOM     20  O   UNL     1       8.779  -7.892  18.920  1.00  0.00    -0.504 OA
ATOM     21  H   UNL     1       9.287  -7.696  19.774  1.00  0.00     0.293 HD
ENDBRANCH  17  20
ENDBRANCH   1  12
BRANCH   2  22
ATOM     22  O   UNL     1       9.879 -10.213  13.889  1.00  0.00    -0.502 OA
ATOM     23  H   UNL     1       9.021 -10.747  13.846  1.00  0.00     0.293 HD
ENDBRANCH   2  22
BRANCH   6  24
ATOM     24  O   UNL     1      14.614 -11.936  12.164  1.00  0.00    -0.507 OA
ATOM     25  H   UNL     1      15.007 -11.216  11.577  1.00  0.00     0.293 HD
ENDBRANCH   6  24
BRANCH   8  26
ATOM     26  O   UNL     1      16.850 -12.642  16.335  1.00  0.00    -0.508 OA
ATOM     27  H   UNL     1      17.106 -13.615  16.462  1.00  0.00     0.293 HD
ENDBRANCH   8  26
TORSDOF 6
ENDMDL
MODEL 6
REMARK VINA RESULT:    -6.475      5.836      8.237
REMARK INTER + INTRA:          -8.060
REMARK INTER:                  -7.835
REMARK INTRA:                  -0.225
REMARK UNBOUND:                -0.260
REMARK SMILES O=c1c(O)c(-c2ccc(O)c(O)c2)oc2cc(O)cc(O)c12
REMARK SMILES IDX 5 1 3 2 2 3 1 4 22 5 20 6 19 7 17 8 16 9 15 10 14 11 6 12
REMARK SMILES IDX 7 13 8 14 9 15 13 16 11 17 10 18 12 20 4 22 21 24 18 26
REMARK H PARENT 10 19 12 21 4 23 21 25 18 27
REMARK Flexibility Score: inf
ROOT
ATOM      1  C   UNL     1      12.718 -11.904  14.744  1.00  0.00     0.180 A 
ATOM      2  C   UNL     1      13.895 -11.725  15.492  1.00  0.00     0.208 A 
ATOM      3  C   UNL     1      15.113 -12.182  14.966  1.00  0.00     0.238 A 
ATOM      4  O   UNL     1      16.154 -12.068  15.663  1.00  0.00    -0.285 OA
ATOM      5  C   UNL     1      15.143 -12.797  13.691  1.00  0.00     0.111 A 
ATOM      6  C   UNL     1      16.327 -13.262  13.043  1.00  0.00     0.134 A 
ATOM      7  C   UNL     1      16.223 -13.973  11.841  1.00  0.00     0.093 A 
ATOM      8  C   UNL     1      14.987 -14.180  11.231  1.00  0.00     0.123 A 
ATOM      9  C   UNL     1      13.827 -13.678  11.826  1.00  0.00     0.094 A 
ATOM     10  C   UNL     1      13.896 -12.996  13.043  1.00  0.00     0.146 A 
ATOM     11  O   UNL     1      12.769 -12.545  13.582  1.00  0.00    -0.452 OA
ENDROOT
BRANCH   1  12
ATOM     12  C   UNL     1      11.400 -11.428  15.222  1.00  0.00     0.025 A 
ATOM     13  C   UNL     1      10.748 -10.344  14.608  1.00  0.00     0.016 A 
ATOM     14  C   UNL     1       9.493  -9.928  15.059  1.00  0.00     0.051 A 
ATOM     15  C   UNL     1       8.866 -10.595  16.120  1.00  0.00     0.157 A 
ATOM     16  C   UNL     1      10.757 -12.106  16.270  1.00  0.00     0.062 A 
ATOM     17  C   UNL     1       9.501 -11.692  16.726  1.00  0.00     0.158 A 
BRANCH  15  18
ATOM     18  O   UNL     1       7.615 -10.175  16.570  1.00  0.00    -0.504 OA
ATOM     19  H   UNL     1       7.073  -9.484  16.065  1.00  0.00     0.293 HD
ENDBRANCH  15  18
BRANCH  17  20
ATOM     20  O   UNL     1       8.900 -12.381  17.778  1.00  0.00    -0.504 OA
ATOM     21  H   UNL     1       9.163 -13.329  18.021  1.00  0.00     0.293 HD
ENDBRANCH  17  20
ENDBRANCH   1  12
BRANCH   2  22
ATOM     22  O   UNL     1      13.840 -11.134  16.758  1.00  0.00    -0.502 OA
ATOM     23  H   UNL     1      13.087 -10.519  17.038  1.00  0.00     0.293 HD
ENDBRANCH   2  22
BRANCH   6  24
ATOM     24  O   UNL     1      17.620 -13.029  13.519  1.00  0.00    -0.507 OA
ATOM     25  H   UNL     1      18.273 -12.375  13.112  1.00  0.00     0.293 HD
ENDBRANCH   6  24
BRANCH   8  26
ATOM     26  O   UNL     1      14.921 -14.877  10.027  1.00  0.00    -0.508 OA
ATOM     27  H   UNL     1      15.727 -14.958   9.416  1.00  0.00     0.293 HD
ENDBRANCH   8  26
TORSDOF 6
ENDMDL
MODEL 7
REMARK VINA RESULT:    -6.358      5.732      7.927
REMARK INTER + INTRA:          -7.919
REMARK INTER:                  -7.595
REMARK INTRA:                  -0.324
REMARK UNBOUND:                -0.260
REMARK SMILES O=c1c(O)c(-c2ccc(O)c(O)c2)oc2cc(O)cc(O)c12
REMARK SMILES IDX 5 1 3 2 2 3 1 4 22 5 20 6 19 7 17 8 16 9 15 10 14 11 6 12
REMARK SMILES IDX 7 13 8 14 9 15 13 16 11 17 10 18 12 20 4 22 21 24 18 26
REMARK H PARENT 10 19 12 21 4 23 21 25 18 27
REMARK Flexibility Score: inf
ROOT
ATOM      1  C   UNL     1      13.037 -12.175  13.638  1.00  0.00     0.180 A 
ATOM      2  C   UNL     1      12.491 -10.940  13.243  1.00  0.00     0.208 A 
ATOM      3  C   UNL     1      11.377 -10.437  13.933  1.00  0.00     0.238 A 
ATOM      4  O   UNL     1      10.859  -9.359  13.541  1.00  0.00    -0.285 OA
ATOM      5  C   UNL     1      10.834 -11.163  15.020  1.00  0.00     0.111 A 
ATOM      6  C   UNL     1       9.732 -10.728  15.816  1.00  0.00     0.134 A 
ATOM      7  C   UNL     1       9.195 -11.588  16.782  1.00  0.00     0.093 A 
ATOM      8  C   UNL     1       9.759 -12.839  17.025  1.00  0.00     0.123 A 
ATOM      9  C   UNL     1      10.875 -13.251  16.294  1.00  0.00     0.094 A 
ATOM     10  C   UNL     1      11.410 -12.430  15.299  1.00  0.00     0.146 A 
ATOM     11  O   UNL     1      12.464 -12.864  14.617  1.00  0.00    -0.452 OA
ENDROOT
BRANCH   1  12
ATOM     12  C   UNL     1      14.225 -12.759  12.974  1.00  0.00     0.025 A 
ATOM     13  C   UNL     1      15.521 -12.549  13.478  1.00  0.00     0.016 A 
ATOM     14  C   UNL     1      16.625 -13.132  12.850  1.00  0.00     0.051 A 
ATOM     15  C   UNL     1      16.450 -13.941  11.719  1.00  0.00     0.157 A 
ATOM     16  C   UNL     1      14.054 -13.589  11.855  1.00  0.00     0.062 A 
ATOM     17  C   UNL     1      15.157 -14.173  11.222  1.00  0.00     0.158 A 
BRANCH  15  18
ATOM     18  O   UNL     1      17.554 -14.519  11.094  1.00  0.00    -0.504 OA
ATOM     19  H   UNL     1      18.197 -13.969  10.536  1.00  0.00     0.293 HD
ENDBRANCH  15  18
BRANCH  17  20
ATOM     20  O   UNL     1      14.949 -14.980  10.104  1.00  0.00    -0.504 OA
ATOM     21  H   UNL     1      14.788 -14.592   9.182  1.00  0.00     0.293 HD
ENDBRANCH  17  20
ENDBRANCH   1  12
BRANCH   2  22
ATOM     22  O   UNL     1      13.030 -10.250  12.154  1.00  0.00    -0.502 OA
ATOM     23  H   UNL     1      13.788  -9.586  12.252  1.00  0.00     0.293 HD
ENDBRANCH   2  22
BRANCH   6  24
ATOM     24  O   UNL     1       9.151  -9.460  15.718  1.00  0.00    -0.507 OA
ATOM     25  H   UNL     1       8.935  -8.993  14.850  1.00  0.00     0.293 HD
ENDBRANCH   6  24
BRANCH   8  26
ATOM     26  O   UNL     1       9.210 -13.663  18.005  1.00  0.00    -0.508 OA
ATOM     27  H   UNL     1       8.539 -13.311  18.679  1.00  0.00     0.293 HD
ENDBRANCH   8  26
TORSDOF 6
ENDMDL
MODEL 8
REMARK VINA RESULT:    -6.357      5.911      8.137
REMARK INTER + INTRA:          -7.917
REMARK INTER:                  -8.056
REMARK INTRA:                   0.138
REMARK UNBOUND:                -0.260
REMARK SMILES O=c1c(O)c(-c2ccc(O)c(O)c2)oc2cc(O)cc(O)c12
REMARK SMILES IDX 5 1 3 2 2 3 1 4 22 5 20 6 19 7 17 8 16 9 15 10 14 11 6 12
REMARK SMILES IDX 7 13 8 14 9 15 13 16 11 17 10 18 12 20 4 22 21 24 18 26
REMARK H PARENT 10 19 12 21 4 23 21 25 18 27
REMARK Flexibility Score: inf
ROOT
ATOM      1  C   UNL     1      12.756 -13.732  14.419  1.00  0.00     0.180 A 
ATOM      2  C   UNL     1      12.223 -14.573  15.411  1.00  0.00     0.208 A 
ATOM      3  C   UNL     1      11.211 -14.081  16.250  1.00  0.00     0.238 A 
ATOM      4  O   UNL     1      10.777 -14.820  17.172  1.00  0.00    -0.285 OA
ATOM      5  C   UNL     1      10.731 -12.761  16.076  1.00  0.00     0.111 A 
ATOM      6  C   UNL     1       9.681 -12.173  16.842  1.00  0.00     0.134 A 
ATOM      7  C   UNL     1       9.377 -10.816  16.672  1.00  0.00     0.093 A 
ATOM      8  C   UNL     1      10.041 -10.044  15.718  1.00  0.00     0.123 A 
ATOM      9  C   UNL     1      11.029 -10.625  14.921  1.00  0.00     0.094 A 
ATOM     10  C   UNL     1      11.379 -11.966  15.094  1.00  0.00     0.146 A 
ATOM     11  O   UNL     1      12.332 -12.477  14.324  1.00  0.00    -0.452 OA
ENDROOT
BRANCH   1  12
ATOM     12  C   UNL     1      13.808 -14.186  13.481  1.00  0.00     0.025 A 
ATOM     13  C   UNL     1      14.885 -14.978  13.919  1.00  0.00     0.016 A 
ATOM     14  C   UNL     1      15.853 -15.416  13.012  1.00  0.00     0.051 A 
ATOM     15  C   UNL     1      15.753 -15.082  11.655  1.00  0.00     0.157 A 
ATOM     16  C   UNL     1      13.702 -13.873  12.117  1.00  0.00     0.062 A 
ATOM     17  C   UNL     1      14.670 -14.310  11.205  1.00  0.00     0.158 A 
BRANCH  15  18
ATOM     18  O   UNL     1      16.722 -15.520  10.753  1.00  0.00    -0.504 OA
ATOM     19  H   UNL     1      16.610 -15.402   9.753  1.00  0.00     0.293 HD
ENDBRANCH  15  18
BRANCH  17  20
ATOM     20  O   UNL     1      14.538 -13.967   9.860  1.00  0.00    -0.504 OA
ATOM     21  H   UNL     1      15.331 -13.938   9.231  1.00  0.00     0.293 HD
ENDBRANCH  17  20
ENDBRANCH   1  12
BRANCH   2  22
ATOM     22  O   UNL     1      12.727 -15.866  15.580  1.00  0.00    -0.502 OA
ATOM     23  H   UNL     1      12.127 -16.668  15.728  1.00  0.00     0.293 HD
ENDBRANCH   2  22
BRANCH   6  24
ATOM     24  O   UNL     1       8.893 -12.877  17.756  1.00  0.00    -0.507 OA
ATOM     25  H   UNL     1       8.111 -13.465  17.507  1.00  0.00     0.293 HD
ENDBRANCH   6  24
BRANCH   8  26
ATOM     26  O   UNL     1       9.702  -8.702  15.564  1.00  0.00    -0.508 OA
ATOM     27  H   UNL     1       9.795  -8.230  14.671  1.00  0.00     0.293 HD
ENDBRANCH   8  26
TORSDOF 6
ENDMDL
MODEL 9
REMARK VINA RESULT:    -6.296      5.081      7.318
REMARK INTER + INTRA:          -7.844
REMARK INTER:                  -7.638
REMARK INTRA:                  -0.206
REMARK UNBOUND:                -0.260
REMARK SMILES O=c1c(O)c(-c2ccc(O)c(O)c2)oc2cc(O)cc(O)c12
REMARK SMILES IDX 5 1 3 2 2 3 1 4 22 5 20 6 19 7 17 8 16 9 15 10 14 11 6 12
REMARK SMILES IDX 7 13 8 14 9 15 13 16 11 17 10 18 12 20 4 22 21 24 18 26
REMARK H PARENT 10 19 12 21 4 23 21 25 18 27
REMARK Flexibility Score: inf
ROOT
ATOM      1  C   UNL     1      11.011 -13.874  16.542  1.00  0.00     0.180 A 
ATOM      2  C   UNL     1       9.899 -13.127  16.972  1.00  0.00     0.208 A 
ATOM      3  C   UNL     1       9.592 -11.925  16.316  1.00  0.00     0.238 A 
ATOM      4  O   UNL     1       8.630 -11.233  16.739  1.00  0.00    -0.285 OA
ATOM      5  C   UNL     1      10.389 -11.492  15.228  1.00  0.00     0.111 A 
ATOM      6  C   UNL     1      10.146 -10.310  14.465  1.00  0.00     0.134 A 
ATOM      7  C   UNL     1      11.074  -9.911  13.496  1.00  0.00     0.093 A 
ATOM      8  C   UNL     1      12.201 -10.683  13.216  1.00  0.00     0.123 A 
ATOM      9  C   UNL     1      12.418 -11.872  13.916  1.00  0.00     0.094 A 
ATOM     10  C   UNL     1      11.529 -12.277  14.913  1.00  0.00     0.146 A 
ATOM     11  O   UNL     1      11.777 -13.409  15.563  1.00  0.00    -0.452 OA
ENDROOT
BRANCH   1  12
ATOM     12  C   UNL     1      11.384 -15.163  17.169  1.00  0.00     0.025 A 
ATOM     13  C   UNL     1      12.534 -15.281  17.969  1.00  0.00     0.016 A 
ATOM     14  C   UNL     1      12.852 -16.501  18.570  1.00  0.00     0.051 A 
ATOM     15  C   UNL     1      12.022 -17.616  18.393  1.00  0.00     0.157 A 
ATOM     16  C   UNL     1      10.544 -16.277  17.012  1.00  0.00     0.062 A 
ATOM     17  C   UNL     1      10.860 -17.501  17.612  1.00  0.00     0.158 A 
BRANCH  15  18
ATOM     18  O   UNL     1      12.344 -18.832  18.993  1.00  0.00    -0.504 OA
ATOM     19  H   UNL     1      12.194 -18.993  19.982  1.00  0.00     0.293 HD
ENDBRANCH  15  18
BRANCH  17  20
ATOM     20  O   UNL     1      10.009 -18.589  17.423  1.00  0.00    -0.504 OA
ATOM     21  H   UNL     1       9.996 -19.119  16.559  1.00  0.00     0.293 HD
ENDBRANCH  17  20
ENDBRANCH   1  12
BRANCH   2  22
ATOM     22  O   UNL     1       9.139 -13.561  18.061  1.00  0.00    -0.502 OA
ATOM     23  H   UNL     1       8.220 -13.971  17.954  1.00  0.00     0.293 HD
ENDBRANCH   2  22
BRANCH   6  24
ATOM     24  O   UNL     1       9.004  -9.516  14.599  1.00  0.00    -0.507 OA
ATOM     25  H   UNL     1       8.121  -9.837  14.967  1.00  0.00     0.293 HD
ENDBRANCH   6  24
BRANCH   8  26
ATOM     26  O   UNL     1      13.095 -10.264  12.234  1.00  0.00    -0.508 OA
ATOM     27  H   UNL     1      13.818 -10.879  11.877  1.00  0.00     0.293 HD
ENDBRANCH   8  26
TORSDOF 6
ENDMDL
