MODEL 1
REMARK VINA RESULT:    -5.456      0.000      0.000
REMARK INTER + INTRA:         -12.735
REMARK INTER:                  -9.442
REMARK INTRA:                  -3.292
REMARK UNBOUND:                -3.292
REMARK SMILES OC[C@H]1O[C@H](O[C@@H]2[C@@H](O)[C@H](O)[C@H](O[C@H]3[C@@H](O)[C@H](O)[C@@H](O)O[C@@H]3CO)O[C@@H]2CO)[C@H](O)[C@H](O)[C@H]1O
REMARK SMILES IDX 7 1 26 2 25 3 12 4 10 5 8 6 6 7 5 8 3 9 33 10 4 11 31 12
REMARK SMILES IDX 29 13 2 14 1 15 34 17 32 19 30 21 27 23 28 24 9 26 11 28
REMARK SMILES IDX 13 30 14 31 22 32 15 33 21 34 17 35 19 36 23 37 24 38 16 40
REMARK SMILES IDX 18 42 20 44
REMARK H PARENT 1 16 34 18 32 20 30 22 28 25 9 27 11 29 24 39 16 41 18 43
REMARK H PARENT 20 45
REMARK Flexibility Score: inf
ROOT
ATOM      1  C   UNL     1      32.547   8.196  31.172  1.00  0.00     0.184 C 
ATOM      2  C   UNL     1      34.061   8.098  31.534  1.00  0.00     0.178 C 
ATOM      3  O   UNL     1      34.559   9.067  32.463  1.00  0.00    -0.341 OA
ATOM      4  C   UNL     1      33.682  10.148  32.748  1.00  0.00     0.282 C 
ATOM      5  C   UNL     1      32.319   9.620  33.283  1.00  0.00     0.202 C 
ATOM      6  C   UNL     1      31.762   8.412  32.491  1.00  0.00     0.180 C 
ENDROOT
BRANCH   1   7
ATOM      7  O   UNL     1      32.379   9.152  30.112  1.00  0.00    -0.341 OA
BRANCH   7   8
ATOM      8  C   UNL     1      31.071   9.639  29.831  1.00  0.00     0.282 C 
ATOM      9  C   UNL     1      30.061  11.599  28.926  1.00  0.00     0.178 C 
ATOM     10  C   UNL     1      29.701  10.976  27.544  1.00  0.00     0.177 C 
ATOM     11  O   UNL     1      31.232  11.007  29.473  1.00  0.00    -0.341 OA
ATOM     12  C   UNL     1      30.279   9.551  27.373  1.00  0.00     0.179 C 
ATOM     13  C   UNL     1      30.341   8.804  28.719  1.00  0.00     0.202 C 
BRANCH   9  14
ATOM     14  C   UNL     1      28.907  11.656  29.958  1.00  0.00     0.191 C 
BRANCH  14  15
ATOM     15  O   UNL     1      27.989  12.662  29.607  1.00  0.00    -0.394 OA
ATOM     16  H   UNL     1      28.148  12.843  28.641  1.00  0.00     0.210 HD
ENDBRANCH  14  15
ENDBRANCH   9  14
BRANCH  10  17
ATOM     17  O   UNL     1      28.314  11.001  27.296  1.00  0.00    -0.387 OA
ATOM     18  H   UNL     1      27.864  10.496  28.021  1.00  0.00     0.211 HD
ENDBRANCH  10  17
BRANCH  12  19
ATOM     19  O   UNL     1      31.543   9.583  26.751  1.00  0.00    -0.387 OA
ATOM     20  H   UNL     1      31.669   8.736  26.252  1.00  0.00     0.211 HD
ENDBRANCH  12  19
BRANCH  13  21
ATOM     21  O   UNL     1      30.939   7.550  28.518  1.00  0.00    -0.385 OA
ATOM     22  H   UNL     1      31.541   7.392  29.291  1.00  0.00     0.211 HD
ENDBRANCH  13  21
ENDBRANCH   7   8
ENDBRANCH   1   7
BRANCH   2  23
ATOM     23  C   UNL     1      34.969   8.035  30.292  1.00  0.00     0.191 C 
BRANCH  23  24
ATOM     24  O   UNL     1      35.040   9.283  29.658  1.00  0.00    -0.394 OA
ATOM     25  H   UNL     1      34.491   9.209  28.837  1.00  0.00     0.210 HD
ENDBRANCH  23  24
ENDBRANCH   2  23
BRANCH   6  26
ATOM     26  O   UNL     1      31.891   7.257  33.291  1.00  0.00    -0.387 OA
ATOM     27  H   UNL     1      31.040   7.145  33.787  1.00  0.00     0.211 HD
ENDBRANCH   6  26
BRANCH   5  28
ATOM     28  O   UNL     1      31.362  10.647  33.313  1.00  0.00    -0.385 OA
ATOM     29  H   UNL     1      30.501  10.244  33.017  1.00  0.00     0.211 HD
ENDBRANCH   5  28
BRANCH   4  30
ATOM     30  O   UNL     1      33.514  10.959  31.597  1.00  0.00    -0.341 OA
BRANCH  30  31
ATOM     31  C   UNL     1      34.111  12.262  31.583  1.00  0.00     0.184 C 
ATOM     32  C   UNL     1      35.462  12.520  32.361  1.00  0.00     0.178 C 
ATOM     33  C   UNL     1      33.064  13.356  31.930  1.00  0.00     0.180 C 
ATOM     34  O   UNL     1      35.666  13.924  32.449  1.00  0.00    -0.342 OA
ATOM     35  C   UNL     1      33.332  13.952  33.327  1.00  0.00     0.201 C 
ATOM     36  C   UNL     1      34.767  14.534  33.371  1.00  0.00     0.279 C 
BRANCH  32  37
ATOM     37  C   UNL     1      36.692  11.919  31.667  1.00  0.00     0.191 C 
BRANCH  37  38
ATOM     38  O   UNL     1      36.377  11.528  30.357  1.00  0.00    -0.394 OA
ATOM     39  H   UNL     1      37.121  10.945  30.060  1.00  0.00     0.210 HD
ENDBRANCH  37  38
ENDBRANCH  32  37
BRANCH  33  40
ATOM     40  O   UNL     1      31.745  12.889  31.799  1.00  0.00    -0.387 OA
ATOM     41  H   UNL     1      31.785  11.923  31.592  1.00  0.00     0.211 HD
ENDBRANCH  33  40
BRANCH  35  42
ATOM     42  O   UNL     1      32.408  14.970  33.608  1.00  0.00    -0.385 OA
ATOM     43  H   UNL     1      32.871  15.634  34.185  1.00  0.00     0.211 HD
ENDBRANCH  35  42
BRANCH  36  44
ATOM     44  O   UNL     1      35.275  14.463  34.675  1.00  0.00    -0.366 OA
ATOM     45  H   UNL     1      34.495  14.467  35.284  1.00  0.00     0.213 HD
ENDBRANCH  36  44
ENDBRANCH  30  31
ENDBRANCH   4  30
TORSDOF 18
ENDMDL
MODEL 2
REMARK VINA RESULT:    -5.350      1.850      6.300
REMARK INTER + INTRA:         -12.551
REMARK INTER:                  -9.285
REMARK INTRA:                  -3.266
REMARK UNBOUND:                -3.292
REMARK SMILES OC[C@H]1O[C@H](O[C@@H]2[C@@H](O)[C@H](O)[C@H](O[C@H]3[C@@H](O)[C@H](O)[C@@H](O)O[C@@H]3CO)O[C@@H]2CO)[C@H](O)[C@H](O)[C@H]1O
REMARK SMILES IDX 7 1 26 2 25 3 12 4 10 5 8 6 6 7 5 8 3 9 33 10 4 11 31 12
REMARK SMILES IDX 29 13 2 14 1 15 34 17 32 19 30 21 27 23 28 24 9 26 11 28
REMARK SMILES IDX 13 30 14 31 22 32 15 33 21 34 17 35 19 36 23 37 24 38 16 40
REMARK SMILES IDX 18 42 20 44
REMARK H PARENT 1 16 34 18 32 20 30 22 28 25 9 27 11 29 24 39 16 41 18 43
REMARK H PARENT 20 45
REMARK Flexibility Score: inf
ROOT
ATOM      1  C   UNL     1      32.633  10.993  34.104  1.00  0.00     0.184 C 
ATOM      2  C   UNL     1      31.519  12.040  33.791  1.00  0.00     0.178 C 
ATOM      3  O   UNL     1      30.259  11.518  33.353  1.00  0.00    -0.341 OA
ATOM      4  C   UNL     1      30.253  10.137  33.016  1.00  0.00     0.282 C 
ATOM      5  C   UNL     1      30.741   9.278  34.220  1.00  0.00     0.202 C 
ATOM      6  C   UNL     1      31.988   9.854  34.933  1.00  0.00     0.180 C 
ENDROOT
BRANCH   1   7
ATOM      7  O   UNL     1      33.312  10.652  32.884  1.00  0.00    -0.341 OA
BRANCH   7   8
ATOM      8  C   UNL     1      34.378   9.710  32.936  1.00  0.00     0.282 C 
ATOM      9  C   UNL     1      34.778   7.442  32.318  1.00  0.00     0.178 C 
ATOM     10  C   UNL     1      35.644   7.764  31.063  1.00  0.00     0.177 C 
ATOM     11  O   UNL     1      33.814   8.459  32.558  1.00  0.00    -0.341 OA
ATOM     12  C   UNL     1      35.681   9.278  30.747  1.00  0.00     0.179 C 
ATOM     13  C   UNL     1      35.595  10.123  32.033  1.00  0.00     0.202 C 
BRANCH   9  14
ATOM     14  C   UNL     1      35.565   7.080  33.602  1.00  0.00     0.191 C 
BRANCH  14  15
ATOM     15  O   UNL     1      34.769   6.297  34.457  1.00  0.00    -0.394 OA
ATOM     16  H   UNL     1      35.368   5.577  34.794  1.00  0.00     0.210 HD
ENDBRANCH  14  15
ENDBRANCH   9  14
BRANCH  10  17
ATOM     17  O   UNL     1      36.943   7.227  31.164  1.00  0.00    -0.387 OA
ATOM     18  H   UNL     1      37.032   6.513  30.483  1.00  0.00     0.211 HD
ENDBRANCH  10  17
BRANCH  12  19
ATOM     19  O   UNL     1      34.670   9.635  29.835  1.00  0.00    -0.387 OA
ATOM     20  H   UNL     1      33.789   9.503  30.272  1.00  0.00     0.211 HD
ENDBRANCH  12  19
BRANCH  13  21
ATOM     21  O   UNL     1      35.558  11.482  31.684  1.00  0.00    -0.385 OA
ATOM     22  H   UNL     1      34.775  11.877  32.147  1.00  0.00     0.211 HD
ENDBRANCH  13  21
ENDBRANCH   7   8
ENDBRANCH   1   7
BRANCH   2  23
ATOM     23  C   UNL     1      31.994  13.152  32.838  1.00  0.00     0.191 C 
BRANCH  23  24
ATOM     24  O   UNL     1      32.082  12.682  31.521  1.00  0.00    -0.394 OA
ATOM     25  H   UNL     1      32.978  12.271  31.432  1.00  0.00     0.210 HD
ENDBRANCH  23  24
ENDBRANCH   2  23
BRANCH   6  26
ATOM     26  O   UNL     1      31.587  10.373  36.182  1.00  0.00    -0.387 OA
ATOM     27  H   UNL     1      31.943  11.296  36.247  1.00  0.00     0.211 HD
ENDBRANCH   6  26
BRANCH   5  28
ATOM     28  O   UNL     1      30.993   7.957  33.820  1.00  0.00    -0.385 OA
ATOM     29  H   UNL     1      31.982   7.861  33.757  1.00  0.00     0.211 HD
ENDBRANCH   5  28
BRANCH   4  30
ATOM     30  O   UNL     1      31.040   9.911  31.858  1.00  0.00    -0.341 OA
BRANCH  30  31
ATOM     31  C   UNL     1      30.409   9.357  30.697  1.00  0.00     0.184 C 
ATOM     32  C   UNL     1      31.180   8.304  29.806  1.00  0.00     0.178 C 
ATOM     33  C   UNL     1      29.796  10.477  29.811  1.00  0.00     0.180 C 
ATOM     34  O   UNL     1      30.478   8.157  28.579  1.00  0.00    -0.342 OA
ATOM     35  C   UNL     1      30.598  10.647  28.506  1.00  0.00     0.201 C 
ATOM     36  C   UNL     1      30.628   9.300  27.741  1.00  0.00     0.279 C 
BRANCH  32  37
ATOM     37  C   UNL     1      31.279   6.914  30.449  1.00  0.00     0.191 C 
BRANCH  37  38
ATOM     38  O   UNL     1      30.332   6.777  31.474  1.00  0.00    -0.394 OA
ATOM     39  H   UNL     1      30.752   6.196  32.158  1.00  0.00     0.210 HD
ENDBRANCH  37  38
ENDBRANCH  32  37
BRANCH  33  40
ATOM     40  O   UNL     1      29.657  11.689  30.509  1.00  0.00    -0.387 OA
ATOM     41  H   UNL     1      30.357  12.307  30.184  1.00  0.00     0.211 HD
ENDBRANCH  33  40
BRANCH  35  42
ATOM     42  O   UNL     1      30.006  11.628  27.695  1.00  0.00    -0.385 OA
ATOM     43  H   UNL     1      30.537  11.675  26.856  1.00  0.00     0.211 HD
ENDBRANCH  35  42
BRANCH  36  44
ATOM     44  O   UNL     1      31.803   9.204  26.983  1.00  0.00    -0.366 OA
ATOM     45  H   UNL     1      32.247   8.362  27.252  1.00  0.00     0.213 HD
ENDBRANCH  36  44
ENDBRANCH  30  31
ENDBRANCH   4  30
TORSDOF 18
ENDMDL
MODEL 3
REMARK VINA RESULT:    -5.309      1.783      5.827
REMARK INTER + INTRA:         -12.480
REMARK INTER:                  -9.173
REMARK INTRA:                  -3.307
REMARK UNBOUND:                -3.292
REMARK SMILES OC[C@H]1O[C@H](O[C@@H]2[C@@H](O)[C@H](O)[C@H](O[C@H]3[C@@H](O)[C@H](O)[C@@H](O)O[C@@H]3CO)O[C@@H]2CO)[C@H](O)[C@H](O)[C@H]1O
REMARK SMILES IDX 7 1 26 2 25 3 12 4 10 5 8 6 6 7 5 8 3 9 33 10 4 11 31 12
REMARK SMILES IDX 29 13 2 14 1 15 34 17 32 19 30 21 27 23 28 24 9 26 11 28
REMARK SMILES IDX 13 30 14 31 22 32 15 33 21 34 17 35 19 36 23 37 24 38 16 40
REMARK SMILES IDX 18 42 20 44
REMARK H PARENT 1 16 34 18 32 20 30 22 28 25 9 27 11 29 24 39 16 41 18 43
REMARK H PARENT 20 45
REMARK Flexibility Score: inf
ROOT
ATOM      1  C   UNL     1      35.137   9.062  33.413  1.00  0.00     0.184 C 
ATOM      2  C   UNL     1      34.760   7.571  33.147  1.00  0.00     0.178 C 
ATOM      3  O   UNL     1      34.511   7.210  31.783  1.00  0.00    -0.341 OA
ATOM      4  C   UNL     1      34.390   8.297  30.875  1.00  0.00     0.282 C 
ATOM      5  C   UNL     1      35.666   9.188  30.915  1.00  0.00     0.202 C 
ATOM      6  C   UNL     1      36.179   9.481  32.346  1.00  0.00     0.180 C 
ENDROOT
BRANCH   1   7
ATOM      7  O   UNL     1      33.932   9.836  33.533  1.00  0.00    -0.341 OA
BRANCH   7   8
ATOM      8  C   UNL     1      34.033  11.255  33.586  1.00  0.00     0.282 C 
ATOM      9  C   UNL     1      33.223  13.140  32.373  1.00  0.00     0.178 C 
ATOM     10  C   UNL     1      32.158  13.569  33.427  1.00  0.00     0.177 C 
ATOM     11  O   UNL     1      33.432  11.734  32.388  1.00  0.00    -0.341 OA
ATOM     12  C   UNL     1      32.029  12.547  34.581  1.00  0.00     0.179 C 
ATOM     13  C   UNL     1      33.376  11.860  34.877  1.00  0.00     0.202 C 
BRANCH   9  14
ATOM     14  C   UNL     1      34.560  13.922  32.413  1.00  0.00     0.191 C 
BRANCH  14  15
ATOM     15  O   UNL     1      34.359  15.253  32.007  1.00  0.00    -0.394 OA
ATOM     16  H   UNL     1      33.930  15.196  31.109  1.00  0.00     0.210 HD
ENDBRANCH  14  15
ENDBRANCH   9  14
BRANCH  10  17
ATOM     17  O   UNL     1      32.389  14.870  33.915  1.00  0.00    -0.387 OA
ATOM     18  H   UNL     1      31.582  15.414  33.731  1.00  0.00     0.211 HD
ENDBRANCH  10  17
BRANCH  12  19
ATOM     19  O   UNL     1      31.023  11.598  34.314  1.00  0.00    -0.387 OA
ATOM     20  H   UNL     1      30.486  11.469  35.137  1.00  0.00     0.211 HD
ENDBRANCH  12  19
BRANCH  13  21
ATOM     21  O   UNL     1      33.186  10.895  35.878  1.00  0.00    -0.385 OA
ATOM     22  H   UNL     1      34.026  10.370  35.935  1.00  0.00     0.211 HD
ENDBRANCH  13  21
ENDBRANCH   7   8
ENDBRANCH   1   7
BRANCH   2  23
ATOM     23  C   UNL     1      33.614   7.075  34.047  1.00  0.00     0.191 C 
BRANCH  23  24
ATOM     24  O   UNL     1      32.366   7.388  33.491  1.00  0.00    -0.394 OA
ATOM     25  H   UNL     1      31.807   6.578  33.591  1.00  0.00     0.210 HD
ENDBRANCH  23  24
ENDBRANCH   2  23
BRANCH   6  26
ATOM     26  O   UNL     1      37.364   8.743  32.554  1.00  0.00    -0.387 OA
ATOM     27  H   UNL     1      37.572   8.784  33.522  1.00  0.00     0.211 HD
ENDBRANCH   6  26
BRANCH   5  28
ATOM     28  O   UNL     1      35.453  10.396  30.234  1.00  0.00    -0.385 OA
ATOM     29  H   UNL     1      36.352  10.756  30.002  1.00  0.00     0.211 HD
ENDBRANCH   5  28
BRANCH   4  30
ATOM     30  O   UNL     1      33.220   9.046  31.160  1.00  0.00    -0.341 OA
BRANCH  30  31
ATOM     31  C   UNL     1      32.053   8.827  30.358  1.00  0.00     0.184 C 
ATOM     32  C   UNL     1      32.076   9.180  28.817  1.00  0.00     0.178 C 
ATOM     33  C   UNL     1      30.791   9.428  31.036  1.00  0.00     0.180 C 
ATOM     34  O   UNL     1      30.739   9.168  28.335  1.00  0.00    -0.342 OA
ATOM     35  C   UNL     1      30.297  10.673  30.274  1.00  0.00     0.201 C 
ATOM     36  C   UNL     1      29.997  10.291  28.803  1.00  0.00     0.279 C 
BRANCH  32  37
ATOM     37  C   UNL     1      32.879   8.180  27.972  1.00  0.00     0.191 C 
BRANCH  37  38
ATOM     38  O   UNL     1      32.487   8.247  26.627  1.00  0.00    -0.394 OA
ATOM     39  H   UNL     1      32.670   9.176  26.336  1.00  0.00     0.210 HD
ENDBRANCH  37  38
ENDBRANCH  32  37
BRANCH  33  40
ATOM     40  O   UNL     1      30.998   9.691  32.401  1.00  0.00    -0.387 OA
ATOM     41  H   UNL     1      30.851   8.849  32.897  1.00  0.00     0.211 HD
ENDBRANCH  33  40
BRANCH  35  42
ATOM     42  O   UNL     1      29.131  11.178  30.869  1.00  0.00    -0.385 OA
ATOM     43  H   UNL     1      28.477  11.345  30.140  1.00  0.00     0.211 HD
ENDBRANCH  35  42
BRANCH  36  44
ATOM     44  O   UNL     1      30.199  11.397  27.967  1.00  0.00    -0.366 OA
ATOM     45  H   UNL     1      29.890  11.133  27.065  1.00  0.00     0.213 HD
ENDBRANCH  36  44
ENDBRANCH  30  31
ENDBRANCH   4  30
TORSDOF 18
ENDMDL
MODEL 4
REMARK VINA RESULT:    -5.186      1.636      3.627
REMARK INTER + INTRA:         -12.268
REMARK INTER:                  -8.785
REMARK INTRA:                  -3.483
REMARK UNBOUND:                -3.292
REMARK SMILES OC[C@H]1O[C@H](O[C@@H]2[C@@H](O)[C@H](O)[C@H](O[C@H]3[C@@H](O)[C@H](O)[C@@H](O)O[C@@H]3CO)O[C@@H]2CO)[C@H](O)[C@H](O)[C@H]1O
REMARK SMILES IDX 7 1 26 2 25 3 12 4 10 5 8 6 6 7 5 8 3 9 33 10 4 11 31 12
REMARK SMILES IDX 29 13 2 14 1 15 34 17 32 19 30 21 27 23 28 24 9 26 11 28
REMARK SMILES IDX 13 30 14 31 22 32 15 33 21 34 17 35 19 36 23 37 24 38 16 40
REMARK SMILES IDX 18 42 20 44
REMARK H PARENT 1 16 34 18 32 20 30 22 28 25 9 27 11 29 24 39 16 41 18 43
REMARK H PARENT 20 45
REMARK Flexibility Score: inf
ROOT
ATOM      1  C   UNL     1      30.514   9.102  33.384  1.00  0.00     0.184 C 
ATOM      2  C   UNL     1      31.380   8.608  34.584  1.00  0.00     0.178 C 
ATOM      3  O   UNL     1      32.381   9.514  35.064  1.00  0.00    -0.341 OA
ATOM      4  C   UNL     1      32.632  10.642  34.236  1.00  0.00     0.282 C 
ATOM      5  C   UNL     1      31.322  11.448  33.997  1.00  0.00     0.202 C 
ATOM      6  C   UNL     1      30.092  10.564  33.679  1.00  0.00     0.180 C 
ENDROOT
BRANCH   1   7
ATOM      7  O   UNL     1      31.210   8.825  32.158  1.00  0.00    -0.341 OA
BRANCH   7   8
ATOM      8  C   UNL     1      30.564   9.117  30.923  1.00  0.00     0.282 C 
ATOM      9  C   UNL     1      30.775  10.675  29.131  1.00  0.00     0.178 C 
ATOM     10  C   UNL     1      31.402   9.673  28.116  1.00  0.00     0.177 C 
ATOM     11  O   UNL     1      31.123  10.344  30.469  1.00  0.00    -0.341 OA
ATOM     12  C   UNL     1      31.721   8.304  28.761  1.00  0.00     0.179 C 
ATOM     13  C   UNL     1      30.713   7.958  29.874  1.00  0.00     0.202 C 
BRANCH   9  14
ATOM     14  C   UNL     1      29.253  10.923  28.977  1.00  0.00     0.191 C 
BRANCH  14  15
ATOM     15  O   UNL     1      28.983  11.536  27.741  1.00  0.00    -0.394 OA
ATOM     16  H   UNL     1      28.738  10.795  27.123  1.00  0.00     0.210 HD
ENDBRANCH  14  15
ENDBRANCH   9  14
BRANCH  10  17
ATOM     17  O   UNL     1      30.611   9.525  26.959  1.00  0.00    -0.387 OA
ATOM     18  H   UNL     1      29.908  10.224  26.978  1.00  0.00     0.211 HD
ENDBRANCH  10  17
BRANCH  12  19
ATOM     19  O   UNL     1      33.044   8.261  29.243  1.00  0.00    -0.387 OA
ATOM     20  H   UNL     1      33.338   7.314  29.272  1.00  0.00     0.211 HD
ENDBRANCH  12  19
BRANCH  13  21
ATOM     21  O   UNL     1      31.091   6.746  30.472  1.00  0.00    -0.385 OA
ATOM     22  H   UNL     1      30.309   6.424  30.990  1.00  0.00     0.211 HD
ENDBRANCH  13  21
ENDBRANCH   7   8
ENDBRANCH   1   7
BRANCH   2  23
ATOM     23  C   UNL     1      31.993   7.216  34.345  1.00  0.00     0.191 C 
BRANCH  23  24
ATOM     24  O   UNL     1      31.181   6.448  33.500  1.00  0.00    -0.394 OA
ATOM     25  H   UNL     1      31.475   5.509  33.611  1.00  0.00     0.210 HD
ENDBRANCH  23  24
ENDBRANCH   2  23
BRANCH   6  26
ATOM     26  O   UNL     1      29.235  10.572  34.800  1.00  0.00    -0.387 OA
ATOM     27  H   UNL     1      29.771  10.868  35.579  1.00  0.00     0.211 HD
ENDBRANCH   6  26
BRANCH   5  28
ATOM     28  O   UNL     1      31.498  12.397  32.978  1.00  0.00    -0.385 OA
ATOM     29  H   UNL     1      32.480  12.500  32.850  1.00  0.00     0.211 HD
ENDBRANCH   5  28
BRANCH   4  30
ATOM     30  O   UNL     1      33.223  10.230  33.014  1.00  0.00    -0.341 OA
BRANCH  30  31
ATOM     31  C   UNL     1      34.650  10.282  32.891  1.00  0.00     0.184 C 
ATOM     32  C   UNL     1      35.360  11.639  32.502  1.00  0.00     0.178 C 
ATOM     33  C   UNL     1      35.173   9.118  32.004  1.00  0.00     0.180 C 
ATOM     34  O   UNL     1      36.706  11.353  32.146  1.00  0.00    -0.342 OA
ATOM     35  C   UNL     1      35.679   9.645  30.647  1.00  0.00     0.201 C 
ATOM     36  C   UNL     1      36.794  10.695  30.885  1.00  0.00     0.279 C 
BRANCH  32  37
ATOM     37  C   UNL     1      35.395  12.662  33.647  1.00  0.00     0.191 C 
BRANCH  37  38
ATOM     38  O   UNL     1      34.330  13.567  33.530  1.00  0.00    -0.394 OA
ATOM     39  H   UNL     1      33.530  13.021  33.322  1.00  0.00     0.210 HD
ENDBRANCH  37  38
ENDBRANCH  32  37
BRANCH  33  40
ATOM     40  O   UNL     1      34.220   8.097  31.853  1.00  0.00    -0.387 OA
ATOM     41  H   UNL     1      34.583   7.436  31.214  1.00  0.00     0.211 HD
ENDBRANCH  33  40
BRANCH  35  42
ATOM     42  O   UNL     1      36.192   8.591  29.875  1.00  0.00    -0.385 OA
ATOM     43  H   UNL     1      36.578   8.991  29.052  1.00  0.00     0.211 HD
ENDBRANCH  35  42
BRANCH  36  44
ATOM     44  O   UNL     1      36.804  11.630  29.841  1.00  0.00    -0.366 OA
ATOM     45  H   UNL     1      37.146  12.477  30.222  1.00  0.00     0.213 HD
ENDBRANCH  36  44
ENDBRANCH  30  31
ENDBRANCH   4  30
TORSDOF 18
ENDMDL
MODEL 5
REMARK VINA RESULT:    -5.182      2.045      4.671
REMARK INTER + INTRA:         -12.260
REMARK INTER:                  -8.704
REMARK INTRA:                  -3.557
REMARK UNBOUND:                -3.292
REMARK SMILES OC[C@H]1O[C@H](O[C@@H]2[C@@H](O)[C@H](O)[C@H](O[C@H]3[C@@H](O)[C@H](O)[C@@H](O)O[C@@H]3CO)O[C@@H]2CO)[C@H](O)[C@H](O)[C@H]1O
REMARK SMILES IDX 7 1 26 2 25 3 12 4 10 5 8 6 6 7 5 8 3 9 33 10 4 11 31 12
REMARK SMILES IDX 29 13 2 14 1 15 34 17 32 19 30 21 27 23 28 24 9 26 11 28
REMARK SMILES IDX 13 30 14 31 22 32 15 33 21 34 17 35 19 36 23 37 24 38 16 40
REMARK SMILES IDX 18 42 20 44
REMARK H PARENT 1 16 34 18 32 20 30 22 28 25 9 27 11 29 24 39 16 41 18 43
REMARK H PARENT 20 45
REMARK Flexibility Score: inf
ROOT
ATOM      1  C   UNL     1      33.692  10.340  30.575  1.00  0.00     0.184 C 
ATOM      2  C   UNL     1      34.791  10.903  31.529  1.00  0.00     0.178 C 
ATOM      3  O   UNL     1      35.053  10.148  32.717  1.00  0.00    -0.341 OA
ATOM      4  C   UNL     1      34.113   9.123  33.009  1.00  0.00     0.282 C 
ATOM      5  C   UNL     1      34.001   8.127  31.818  1.00  0.00     0.202 C 
ATOM      6  C   UNL     1      33.929   8.815  30.433  1.00  0.00     0.180 C 
ENDROOT
BRANCH   1   7
ATOM      7  O   UNL     1      32.404  10.792  31.026  1.00  0.00    -0.341 OA
BRANCH   7   8
ATOM      8  C   UNL     1      31.410  11.102  30.055  1.00  0.00     0.282 C 
ATOM      9  C   UNL     1      29.450  10.102  29.137  1.00  0.00     0.178 C 
ATOM     10  C   UNL     1      28.433  11.007  29.895  1.00  0.00     0.177 C 
ATOM     11  O   UNL     1      30.641   9.916  29.891  1.00  0.00    -0.341 OA
ATOM     12  C   UNL     1      29.123  11.930  30.927  1.00  0.00     0.179 C 
ATOM     13  C   UNL     1      30.533  12.340  30.461  1.00  0.00     0.202 C 
BRANCH   9  14
ATOM     14  C   UNL     1      29.752  10.511  27.674  1.00  0.00     0.191 C 
BRANCH  14  15
ATOM     15  O   UNL     1      30.672   9.617  27.098  1.00  0.00    -0.394 OA
ATOM     16  H   UNL     1      31.437  10.178  26.796  1.00  0.00     0.210 HD
ENDBRANCH  14  15
ENDBRANCH   9  14
BRANCH  10  17
ATOM     17  O   UNL     1      27.617  11.742  29.012  1.00  0.00    -0.387 OA
ATOM     18  H   UNL     1      28.070  12.603  28.822  1.00  0.00     0.211 HD
ENDBRANCH  10  17
BRANCH  12  19
ATOM     19  O   UNL     1      29.163  11.332  32.202  1.00  0.00    -0.387 OA
ATOM     20  H   UNL     1      28.617  10.504  32.179  1.00  0.00     0.211 HD
ENDBRANCH  12  19
BRANCH  13  21
ATOM     21  O   UNL     1      31.139  13.112  31.465  1.00  0.00    -0.385 OA
ATOM     22  H   UNL     1      31.455  13.948  31.034  1.00  0.00     0.211 HD
ENDBRANCH  13  21
ENDBRANCH   7   8
ENDBRANCH   1   7
BRANCH   2  23
ATOM     23  C   UNL     1      34.577  12.387  31.877  1.00  0.00     0.191 C 
BRANCH  23  24
ATOM     24  O   UNL     1      33.637  12.531  32.906  1.00  0.00    -0.394 OA
ATOM     25  H   UNL     1      33.151  11.671  32.961  1.00  0.00     0.210 HD
ENDBRANCH  23  24
ENDBRANCH   2  23
BRANCH   6  26
ATOM     26  O   UNL     1      35.156   8.607  29.769  1.00  0.00    -0.387 OA
ATOM     27  H   UNL     1      35.263   9.340  29.109  1.00  0.00     0.211 HD
ENDBRANCH   6  26
BRANCH   5  28
ATOM     28  O   UNL     1      32.897   7.277  31.981  1.00  0.00    -0.385 OA
ATOM     29  H   UNL     1      33.203   6.515  32.544  1.00  0.00     0.211 HD
ENDBRANCH   5  28
BRANCH   4  30
ATOM     30  O   UNL     1      32.855   9.690  33.338  1.00  0.00    -0.341 OA
BRANCH  30  31
ATOM     31  C   UNL     1      32.434   9.678  34.707  1.00  0.00     0.184 C 
ATOM     32  C   UNL     1      32.055   8.312  35.405  1.00  0.00     0.178 C 
ATOM     33  C   UNL     1      31.330  10.743  34.958  1.00  0.00     0.180 C 
ATOM     34  O   UNL     1      31.387   8.603  36.626  1.00  0.00    -0.342 OA
ATOM     35  C   UNL     1      29.963  10.072  35.200  1.00  0.00     0.201 C 
ATOM     36  C   UNL     1      30.071   9.103  36.404  1.00  0.00     0.279 C 
BRANCH  32  37
ATOM     37  C   UNL     1      33.273   7.440  35.744  1.00  0.00     0.191 C 
BRANCH  37  38
ATOM     38  O   UNL     1      33.378   6.371  34.842  1.00  0.00    -0.394 OA
ATOM     39  H   UNL     1      33.790   6.746  34.022  1.00  0.00     0.210 HD
ENDBRANCH  37  38
ENDBRANCH  32  37
BRANCH  33  40
ATOM     40  O   UNL     1      31.274  11.701  33.931  1.00  0.00    -0.387 OA
ATOM     41  H   UNL     1      30.379  12.120  33.955  1.00  0.00     0.211 HD
ENDBRANCH  33  40
BRANCH  35  42
ATOM     42  O   UNL     1      28.985  11.042  35.471  1.00  0.00    -0.385 OA
ATOM     43  H   UNL     1      28.366  10.654  36.144  1.00  0.00     0.211 HD
ENDBRANCH  35  42
BRANCH  36  44
ATOM     44  O   UNL     1      29.161   8.048  36.255  1.00  0.00    -0.366 OA
ATOM     45  H   UNL     1      28.555   8.083  37.036  1.00  0.00     0.213 HD
ENDBRANCH  36  44
ENDBRANCH  30  31
ENDBRANCH   4  30
TORSDOF 18
ENDMDL
MODEL 6
REMARK VINA RESULT:    -5.133      2.042      3.787
REMARK INTER + INTRA:         -12.176
REMARK INTER:                  -8.296
REMARK INTRA:                  -3.880
REMARK UNBOUND:                -3.292
REMARK SMILES OC[C@H]1O[C@H](O[C@@H]2[C@@H](O)[C@H](O)[C@H](O[C@H]3[C@@H](O)[C@H](O)[C@@H](O)O[C@@H]3CO)O[C@@H]2CO)[C@H](O)[C@H](O)[C@H]1O
REMARK SMILES IDX 7 1 26 2 25 3 12 4 10 5 8 6 6 7 5 8 3 9 33 10 4 11 31 12
REMARK SMILES IDX 29 13 2 14 1 15 34 17 32 19 30 21 27 23 28 24 9 26 11 28
REMARK SMILES IDX 13 30 14 31 22 32 15 33 21 34 17 35 19 36 23 37 24 38 16 40
REMARK SMILES IDX 18 42 20 44
REMARK H PARENT 1 16 34 18 32 20 30 22 28 25 9 27 11 29 24 39 16 41 18 43
REMARK H PARENT 20 45
REMARK Flexibility Score: inf
ROOT
ATOM      1  C   UNL     1      30.568   9.554  33.383  1.00  0.00     0.184 C 
ATOM      2  C   UNL     1      31.216   8.752  34.553  1.00  0.00     0.178 C 
ATOM      3  O   UNL     1      32.601   9.009  34.812  1.00  0.00    -0.341 OA
ATOM      4  C   UNL     1      33.278   9.769  33.820  1.00  0.00     0.282 C 
ATOM      5  C   UNL     1      32.566  11.135  33.597  1.00  0.00     0.202 C 
ATOM      6  C   UNL     1      31.023  11.030  33.516  1.00  0.00     0.180 C 
ENDROOT
BRANCH   1   7
ATOM      7  O   UNL     1      30.823   8.869  32.146  1.00  0.00    -0.341 OA
BRANCH   7   8
ATOM      8  C   UNL     1      30.227   9.366  30.953  1.00  0.00     0.282 C 
ATOM      9  C   UNL     1      30.774  10.873  29.188  1.00  0.00     0.178 C 
ATOM     10  C   UNL     1      31.065   9.776  28.120  1.00  0.00     0.177 C 
ATOM     11  O   UNL     1      31.077  10.414  30.499  1.00  0.00    -0.341 OA
ATOM     12  C   UNL     1      31.030   8.350  28.718  1.00  0.00     0.179 C 
ATOM     13  C   UNL     1      30.014   8.248  29.871  1.00  0.00     0.202 C 
BRANCH   9  14
ATOM     14  C   UNL     1      29.371  11.525  29.116  1.00  0.00     0.191 C 
BRANCH  14  15
ATOM     15  O   UNL     1      29.318  12.661  29.942  1.00  0.00    -0.394 OA
ATOM     16  H   UNL     1      29.948  12.476  30.691  1.00  0.00     0.210 HD
ENDBRANCH  14  15
ENDBRANCH   9  14
BRANCH  10  17
ATOM     17  O   UNL     1      30.215   9.887  27.002  1.00  0.00    -0.387 OA
ATOM     18  H   UNL     1      30.771  10.117  26.215  1.00  0.00     0.211 HD
ENDBRANCH  10  17
BRANCH  12  19
ATOM     19  O   UNL     1      32.312   7.937  29.131  1.00  0.00    -0.387 OA
ATOM     20  H   UNL     1      32.252   7.611  30.065  1.00  0.00     0.211 HD
ENDBRANCH  12  19
BRANCH  13  21
ATOM     21  O   UNL     1      30.078   6.959  30.422  1.00  0.00    -0.385 OA
ATOM     22  H   UNL     1      30.764   6.985  31.138  1.00  0.00     0.211 HD
ENDBRANCH  13  21
ENDBRANCH   7   8
ENDBRANCH   1   7
BRANCH   2  23
ATOM     23  C   UNL     1      30.966   7.236  34.449  1.00  0.00     0.191 C 
BRANCH  23  24
ATOM     24  O   UNL     1      31.860   6.640  33.550  1.00  0.00    -0.394 OA
ATOM     25  H   UNL     1      31.316   6.058  32.962  1.00  0.00     0.210 HD
ENDBRANCH  23  24
ENDBRANCH   2  23
BRANCH   6  26
ATOM     26  O   UNL     1      30.477  11.569  34.700  1.00  0.00    -0.387 OA
ATOM     27  H   UNL     1      30.668  10.929  35.432  1.00  0.00     0.211 HD
ENDBRANCH   6  26
BRANCH   5  28
ATOM     28  O   UNL     1      33.057  11.773  32.448  1.00  0.00    -0.385 OA
ATOM     29  H   UNL     1      33.732  12.436  32.755  1.00  0.00     0.211 HD
ENDBRANCH   5  28
BRANCH   4  30
ATOM     30  O   UNL     1      33.376   9.027  32.616  1.00  0.00    -0.341 OA
BRANCH  30  31
ATOM     31  C   UNL     1      34.674   8.630  32.158  1.00  0.00     0.184 C 
ATOM     32  C   UNL     1      35.889   8.589  33.168  1.00  0.00     0.178 C 
ATOM     33  C   UNL     1      35.065   9.397  30.864  1.00  0.00     0.180 C 
ATOM     34  O   UNL     1      37.091   8.474  32.417  1.00  0.00    -0.342 OA
ATOM     35  C   UNL     1      36.183  10.420  31.148  1.00  0.00     0.201 C 
ATOM     36  C   UNL     1      37.413   9.687  31.742  1.00  0.00     0.279 C 
BRANCH  32  37
ATOM     37  C   UNL     1      35.838   7.400  34.139  1.00  0.00     0.191 C 
BRANCH  37  38
ATOM     38  O   UNL     1      34.640   6.688  33.982  1.00  0.00    -0.394 OA
ATOM     39  H   UNL     1      33.920   7.295  34.291  1.00  0.00     0.210 HD
ENDBRANCH  37  38
ENDBRANCH  32  37
BRANCH  33  40
ATOM     40  O   UNL     1      33.953   9.988  30.241  1.00  0.00    -0.387 OA
ATOM     41  H   UNL     1      34.252  10.833  29.826  1.00  0.00     0.211 HD
ENDBRANCH  33  40
BRANCH  35  42
ATOM     42  O   UNL     1      36.559  11.071  29.963  1.00  0.00    -0.385 OA
ATOM     43  H   UNL     1      36.665  12.035  30.180  1.00  0.00     0.211 HD
ENDBRANCH  35  42
BRANCH  36  44
ATOM     44  O   UNL     1      38.123  10.549  32.588  1.00  0.00    -0.366 OA
ATOM     45  H   UNL     1      37.723  10.456  33.489  1.00  0.00     0.213 HD
ENDBRANCH  36  44
ENDBRANCH  30  31
ENDBRANCH   4  30
TORSDOF 18
ENDMDL
MODEL 7
REMARK VINA RESULT:    -5.119      1.972      4.642
REMARK INTER + INTRA:         -12.151
REMARK INTER:                  -8.488
REMARK INTRA:                  -3.663
REMARK UNBOUND:                -3.292
REMARK SMILES OC[C@H]1O[C@H](O[C@@H]2[C@@H](O)[C@H](O)[C@H](O[C@H]3[C@@H](O)[C@H](O)[C@@H](O)O[C@@H]3CO)O[C@@H]2CO)[C@H](O)[C@H](O)[C@H]1O
REMARK SMILES IDX 7 1 26 2 25 3 12 4 10 5 8 6 6 7 5 8 3 9 33 10 4 11 31 12
REMARK SMILES IDX 29 13 2 14 1 15 34 17 32 19 30 21 27 23 28 24 9 26 11 28
REMARK SMILES IDX 13 30 14 31 22 32 15 33 21 34 17 35 19 36 23 37 24 38 16 40
REMARK SMILES IDX 18 42 20 44
REMARK H PARENT 1 16 34 18 32 20 30 22 28 25 9 27 11 29 24 39 16 41 18 43
REMARK H PARENT 20 45
REMARK Flexibility Score: inf
ROOT
ATOM      1  C   UNL     1      30.695  11.100  33.029  1.00  0.00     0.184 C 
ATOM      2  C   UNL     1      31.184  10.593  34.421  1.00  0.00     0.178 C 
ATOM      3  O   UNL     1      32.569  10.244  34.523  1.00  0.00    -0.341 OA
ATOM      4  C   UNL     1      33.271  10.162  33.289  1.00  0.00     0.282 C 
ATOM      5  C   UNL     1      33.165  11.504  32.509  1.00  0.00     0.202 C 
ATOM      6  C   UNL     1      31.743  12.114  32.504  1.00  0.00     0.180 C 
ENDROOT
BRANCH   1   7
ATOM      7  O   UNL     1      30.368   9.968  32.206  1.00  0.00    -0.341 OA
BRANCH   7   8
ATOM      8  C   UNL     1      29.471  10.152  31.116  1.00  0.00     0.282 C 
ATOM      9  C   UNL     1      28.735  11.922  29.699  1.00  0.00     0.178 C 
ATOM     10  C   UNL     1      29.548  11.478  28.445  1.00  0.00     0.177 C 
ATOM     11  O   UNL     1      29.397  11.557  30.902  1.00  0.00    -0.341 OA
ATOM     12  C   UNL     1      30.499  10.297  28.750  1.00  0.00     0.179 C 
ATOM     13  C   UNL     1      29.914   9.367  29.829  1.00  0.00     0.202 C 
BRANCH   9  14
ATOM     14  C   UNL     1      27.243  11.506  29.713  1.00  0.00     0.191 C 
BRANCH  14  15
ATOM     15  O   UNL     1      26.555  12.192  30.729  1.00  0.00    -0.394 OA
ATOM     16  H   UNL     1      26.542  11.572  31.508  1.00  0.00     0.210 HD
ENDBRANCH  14  15
ENDBRANCH   9  14
BRANCH  10  17
ATOM     17  O   UNL     1      28.714  11.196  27.345  1.00  0.00    -0.387 OA
ATOM     18  H   UNL     1      28.890  11.876  26.646  1.00  0.00     0.211 HD
ENDBRANCH  10  17
BRANCH  12  19
ATOM     19  O   UNL     1      31.781  10.754  29.114  1.00  0.00    -0.387 OA
ATOM     20  H   UNL     1      31.754  11.742  29.189  1.00  0.00     0.211 HD
ENDBRANCH  12  19
BRANCH  13  21
ATOM     21  O   UNL     1      30.847   8.359  30.119  1.00  0.00    -0.385 OA
ATOM     22  H   UNL     1      31.447   8.288  29.332  1.00  0.00     0.211 HD
ENDBRANCH  13  21
ENDBRANCH   7   8
ENDBRANCH   1   7
BRANCH   2  23
ATOM     23  C   UNL     1      30.307   9.460  34.986  1.00  0.00     0.191 C 
BRANCH  23  24
ATOM     24  O   UNL     1      30.696   8.217  34.468  1.00  0.00    -0.394 OA
ATOM     25  H   UNL     1      30.016   7.974  33.790  1.00  0.00     0.210 HD
ENDBRANCH  23  24
ENDBRANCH   2  23
BRANCH   6  26
ATOM     26  O   UNL     1      31.741  13.246  33.347  1.00  0.00    -0.387 OA
ATOM     27  H   UNL     1      30.843  13.662  33.280  1.00  0.00     0.211 HD
ENDBRANCH   6  26
BRANCH   5  28
ATOM     28  O   UNL     1      33.618  11.352  31.189  1.00  0.00    -0.385 OA
ATOM     29  H   UNL     1      34.028  10.446  31.131  1.00  0.00     0.211 HD
ENDBRANCH   5  28
BRANCH   4  30
ATOM     30  O   UNL     1      32.788   9.071  32.522  1.00  0.00    -0.341 OA
BRANCH  30  31
ATOM     31  C   UNL     1      33.629   7.923  32.355  1.00  0.00     0.184 C 
ATOM     32  C   UNL     1      34.618   7.494  33.511  1.00  0.00     0.178 C 
ATOM     33  C   UNL     1      34.372   7.973  30.992  1.00  0.00     0.180 C 
ATOM     34  O   UNL     1      35.537   6.546  32.985  1.00  0.00    -0.342 OA
ATOM     35  C   UNL     1      35.876   8.249  31.194  1.00  0.00     0.201 C 
ATOM     36  C   UNL     1      36.481   7.153  32.107  1.00  0.00     0.279 C 
BRANCH  32  37
ATOM     37  C   UNL     1      33.914   6.838  34.707  1.00  0.00     0.191 C 
BRANCH  37  38
ATOM     38  O   UNL     1      33.513   7.809  35.635  1.00  0.00    -0.394 OA
ATOM     39  H   UNL     1      32.582   7.579  35.885  1.00  0.00     0.210 HD
ENDBRANCH  37  38
ENDBRANCH  32  37
BRANCH  33  40
ATOM     40  O   UNL     1      33.783   8.886  30.100  1.00  0.00    -0.387 OA
ATOM     41  H   UNL     1      33.697   9.753  30.566  1.00  0.00     0.211 HD
ENDBRANCH  33  40
BRANCH  35  42
ATOM     42  O   UNL     1      36.542   8.245  29.959  1.00  0.00    -0.385 OA
ATOM     43  H   UNL     1      36.646   7.295  29.684  1.00  0.00     0.211 HD
ENDBRANCH  35  42
BRANCH  36  44
ATOM     44  O   UNL     1      37.563   7.673  32.830  1.00  0.00    -0.366 OA
ATOM     45  H   UNL     1      37.313   8.594  33.093  1.00  0.00     0.213 HD
ENDBRANCH  36  44
ENDBRANCH  30  31
ENDBRANCH   4  30
TORSDOF 18
ENDMDL
MODEL 8
REMARK VINA RESULT:    -5.047      1.314      3.093
REMARK INTER + INTRA:         -12.027
REMARK INTER:                  -9.278
REMARK INTRA:                  -2.749
REMARK UNBOUND:                -3.292
REMARK SMILES OC[C@H]1O[C@H](O[C@@H]2[C@@H](O)[C@H](O)[C@H](O[C@H]3[C@@H](O)[C@H](O)[C@@H](O)O[C@@H]3CO)O[C@@H]2CO)[C@H](O)[C@H](O)[C@H]1O
REMARK SMILES IDX 7 1 26 2 25 3 12 4 10 5 8 6 6 7 5 8 3 9 33 10 4 11 31 12
REMARK SMILES IDX 29 13 2 14 1 15 34 17 32 19 30 21 27 23 28 24 9 26 11 28
REMARK SMILES IDX 13 30 14 31 22 32 15 33 21 34 17 35 19 36 23 37 24 38 16 40
REMARK SMILES IDX 18 42 20 44
REMARK H PARENT 1 16 34 18 32 20 30 22 28 25 9 27 11 29 24 39 16 41 18 43
REMARK H PARENT 20 45
REMARK Flexibility Score: inf
ROOT
ATOM      1  C   UNL     1      32.349   8.978  31.067  1.00  0.00     0.184 C 
ATOM      2  C   UNL     1      33.787   8.393  31.219  1.00  0.00     0.178 C 
ATOM      3  O   UNL     1      34.456   8.658  32.457  1.00  0.00    -0.341 OA
ATOM      4  C   UNL     1      33.835   9.626  33.293  1.00  0.00     0.282 C 
ATOM      5  C   UNL     1      32.369   9.213  33.613  1.00  0.00     0.202 C 
ATOM      6  C   UNL     1      31.584   8.692  32.384  1.00  0.00     0.180 C 
ENDROOT
BRANCH   1   7
ATOM      7  O   UNL     1      32.441  10.337  30.611  1.00  0.00    -0.341 OA
BRANCH   7   8
ATOM      8  C   UNL     1      31.376  10.871  29.832  1.00  0.00     0.282 C 
ATOM      9  C   UNL     1      29.215  10.202  29.080  1.00  0.00     0.178 C 
ATOM     10  C   UNL     1      28.411  11.092  30.075  1.00  0.00     0.177 C 
ATOM     11  O   UNL     1      30.461   9.800  29.634  1.00  0.00    -0.341 OA
ATOM     12  C   UNL     1      29.326  11.795  31.105  1.00  0.00     0.179 C 
ATOM     13  C   UNL     1      30.705  12.124  30.502  1.00  0.00     0.202 C 
BRANCH   9  14
ATOM     14  C   UNL     1      29.378  10.773  27.649  1.00  0.00     0.191 C 
BRANCH  14  15
ATOM     15  O   UNL     1      30.275   9.983  26.909  1.00  0.00    -0.394 OA
ATOM     16  H   UNL     1      30.509  10.526  26.107  1.00  0.00     0.210 HD
ENDBRANCH  14  15
ENDBRANCH   9  14
BRANCH  10  17
ATOM     17  O   UNL     1      27.582  12.016  29.409  1.00  0.00    -0.387 OA
ATOM     18  H   UNL     1      27.198  12.628  30.087  1.00  0.00     0.211 HD
ENDBRANCH  10  17
BRANCH  12  19
ATOM     19  O   UNL     1      29.455  11.029  32.281  1.00  0.00    -0.387 OA
ATOM     20  H   UNL     1      29.663  10.094  32.026  1.00  0.00     0.211 HD
ENDBRANCH  12  19
BRANCH  13  21
ATOM     21  O   UNL     1      31.516  12.690  31.497  1.00  0.00    -0.385 OA
ATOM     22  H   UNL     1      32.131  11.977  31.809  1.00  0.00     0.211 HD
ENDBRANCH  13  21
ENDBRANCH   7   8
ENDBRANCH   1   7
BRANCH   2  23
ATOM     23  C   UNL     1      34.704   8.746  30.033  1.00  0.00     0.191 C 
BRANCH  23  24
ATOM     24  O   UNL     1      34.022   8.618  28.815  1.00  0.00    -0.394 OA
ATOM     25  H   UNL     1      34.519   9.167  28.159  1.00  0.00     0.210 HD
ENDBRANCH  23  24
ENDBRANCH   2  23
BRANCH   6  26
ATOM     26  O   UNL     1      31.419   7.297  32.520  1.00  0.00    -0.387 OA
ATOM     27  H   UNL     1      30.737   7.147  33.224  1.00  0.00     0.211 HD
ENDBRANCH   6  26
BRANCH   5  28
ATOM     28  O   UNL     1      31.669  10.275  34.205  1.00  0.00    -0.385 OA
ATOM     29  H   UNL     1      30.818   9.896  34.556  1.00  0.00     0.211 HD
ENDBRANCH   5  28
BRANCH   4  30
ATOM     30  O   UNL     1      33.898  10.908  32.688  1.00  0.00    -0.341 OA
BRANCH  30  31
ATOM     31  C   UNL     1      34.684  11.925  33.319  1.00  0.00     0.184 C 
ATOM     32  C   UNL     1      34.036  13.324  33.665  1.00  0.00     0.178 C 
ATOM     33  C   UNL     1      36.037  12.119  32.580  1.00  0.00     0.180 C 
ATOM     34  O   UNL     1      35.079  14.235  33.984  1.00  0.00    -0.342 OA
ATOM     35  C   UNL     1      36.065  13.464  31.826  1.00  0.00     0.201 C 
ATOM     36  C   UNL     1      35.819  14.620  32.828  1.00  0.00     0.279 C 
BRANCH  32  37
ATOM     37  C   UNL     1      33.083  13.277  34.868  1.00  0.00     0.191 C 
BRANCH  37  38
ATOM     38  O   UNL     1      31.763  13.070  34.443  1.00  0.00    -0.394 OA
ATOM     39  H   UNL     1      31.229  12.933  35.266  1.00  0.00     0.210 HD
ENDBRANCH  37  38
ENDBRANCH  32  37
BRANCH  33  40
ATOM     40  O   UNL     1      36.342  11.035  31.739  1.00  0.00    -0.387 OA
ATOM     41  H   UNL     1      35.529  10.481  31.652  1.00  0.00     0.211 HD
ENDBRANCH  33  40
BRANCH  35  42
ATOM     42  O   UNL     1      37.309  13.648  31.202  1.00  0.00    -0.385 OA
ATOM     43  H   UNL     1      37.952  13.927  31.907  1.00  0.00     0.211 HD
ENDBRANCH  35  42
BRANCH  36  44
ATOM     44  O   UNL     1      35.195  15.694  32.179  1.00  0.00    -0.366 OA
ATOM     45  H   UNL     1      34.398  15.928  32.717  1.00  0.00     0.213 HD
ENDBRANCH  36  44
ENDBRANCH  30  31
ENDBRANCH   4  30
TORSDOF 18
ENDMDL
MODEL 9
REMARK VINA RESULT:    -4.951     11.214     14.697
REMARK INTER + INTRA:         -11.862
REMARK INTER:                  -7.980
REMARK INTRA:                  -3.882
REMARK UNBOUND:                -3.292
REMARK SMILES OC[C@H]1O[C@H](O[C@@H]2[C@@H](O)[C@H](O)[C@H](O[C@H]3[C@@H](O)[C@H](O)[C@@H](O)O[C@@H]3CO)O[C@@H]2CO)[C@H](O)[C@H](O)[C@H]1O
REMARK SMILES IDX 7 1 26 2 25 3 12 4 10 5 8 6 6 7 5 8 3 9 33 10 4 11 31 12
REMARK SMILES IDX 29 13 2 14 1 15 34 17 32 19 30 21 27 23 28 24 9 26 11 28
REMARK SMILES IDX 13 30 14 31 22 32 15 33 21 34 17 35 19 36 23 37 24 38 16 40
REMARK SMILES IDX 18 42 20 44
REMARK H PARENT 1 16 34 18 32 20 30 22 28 25 9 27 11 29 24 39 16 41 18 43
REMARK H PARENT 20 45
REMARK Flexibility Score: inf
ROOT
ATOM      1  C   UNL     1      19.437   2.943  27.429  1.00  0.00     0.184 C 
ATOM      2  C   UNL     1      18.903   2.823  28.890  1.00  0.00     0.178 C 
ATOM      3  O   UNL     1      19.760   3.318  29.925  1.00  0.00    -0.341 OA
ATOM      4  C   UNL     1      21.088   3.625  29.523  1.00  0.00     0.282 C 
ATOM      5  C   UNL     1      21.083   4.662  28.362  1.00  0.00     0.202 C 
ATOM      6  C   UNL     1      20.035   4.363  27.263  1.00  0.00     0.180 C 
ENDROOT
BRANCH   1   7
ATOM      7  O   UNL     1      20.273   1.810  27.140  1.00  0.00    -0.341 OA
BRANCH   7   8
ATOM      8  C   UNL     1      20.383   1.367  25.792  1.00  0.00     0.282 C 
ATOM      9  C   UNL     1      20.185   2.281  23.599  1.00  0.00     0.178 C 
ATOM     10  C   UNL     1      21.714   2.321  23.299  1.00  0.00     0.177 C 
ATOM     11  O   UNL     1      19.924   2.447  24.987  1.00  0.00    -0.341 OA
ATOM     12  C   UNL     1      22.565   1.942  24.533  1.00  0.00     0.179 C 
ATOM     13  C   UNL     1      21.841   0.913  25.422  1.00  0.00     0.202 C 
BRANCH   9  14
ATOM     14  C   UNL     1      19.417   1.072  23.009  1.00  0.00     0.191 C 
BRANCH  14  15
ATOM     15  O   UNL     1      19.450   1.113  21.604  1.00  0.00    -0.394 OA
ATOM     16  H   UNL     1      18.527   0.884  21.308  1.00  0.00     0.210 HD
ENDBRANCH  14  15
ENDBRANCH   9  14
BRANCH  10  17
ATOM     17  O   UNL     1      22.055   1.538  22.178  1.00  0.00    -0.387 OA
ATOM     18  H   UNL     1      21.402   1.733  21.459  1.00  0.00     0.211 HD
ENDBRANCH  10  17
BRANCH  12  19
ATOM     19  O   UNL     1      22.931   3.084  25.273  1.00  0.00    -0.387 OA
ATOM     20  H   UNL     1      22.169   3.718  25.270  1.00  0.00     0.211 HD
ENDBRANCH  12  19
BRANCH  13  21
ATOM     21  O   UNL     1      22.622   0.662  26.560  1.00  0.00    -0.385 OA
ATOM     22  H   UNL     1      23.266  -0.052  26.316  1.00  0.00     0.211 HD
ENDBRANCH  13  21
ENDBRANCH   7   8
ENDBRANCH   1   7
BRANCH   2  23
ATOM     23  C   UNL     1      18.418   1.403  29.234  1.00  0.00     0.191 C 
BRANCH  23  24
ATOM     24  O   UNL     1      19.501   0.527  29.392  1.00  0.00    -0.394 OA
ATOM     25  H   UNL     1      20.286   0.982  28.997  1.00  0.00     0.210 HD
ENDBRANCH  23  24
ENDBRANCH   2  23
BRANCH   6  26
ATOM     26  O   UNL     1      18.995   5.310  27.370  1.00  0.00    -0.387 OA
ATOM     27  H   UNL     1      18.836   5.466  28.336  1.00  0.00     0.211 HD
ENDBRANCH   6  26
BRANCH   5  28
ATOM     28  O   UNL     1      22.357   4.769  27.783  1.00  0.00    -0.385 OA
ATOM     29  H   UNL     1      23.005   4.414  28.451  1.00  0.00     0.211 HD
ENDBRANCH   5  28
BRANCH   4  30
ATOM     30  O   UNL     1      21.779   2.440  29.165  1.00  0.00    -0.341 OA
BRANCH  30  31
ATOM     31  C   UNL     1      22.851   1.990  30.001  1.00  0.00     0.184 C 
ATOM     32  C   UNL     1      22.902   2.421  31.521  1.00  0.00     0.178 C 
ATOM     33  C   UNL     1      24.227   2.233  29.320  1.00  0.00     0.180 C 
ATOM     34  O   UNL     1      24.192   2.114  32.031  1.00  0.00    -0.342 OA
ATOM     35  C   UNL     1      25.001   3.362  30.029  1.00  0.00     0.201 C 
ATOM     36  C   UNL     1      25.188   2.998  31.523  1.00  0.00     0.279 C 
BRANCH  32  37
ATOM     37  C   UNL     1      21.875   1.691  32.399  1.00  0.00     0.191 C 
BRANCH  37  38
ATOM     38  O   UNL     1      21.007   0.925  31.607  1.00  0.00    -0.394 OA
ATOM     39  H   UNL     1      20.160   0.858  32.117  1.00  0.00     0.210 HD
ENDBRANCH  37  38
ENDBRANCH  32  37
BRANCH  33  40
ATOM     40  O   UNL     1      24.101   2.463  27.939  1.00  0.00    -0.387 OA
ATOM     41  H   UNL     1      24.747   1.878  27.474  1.00  0.00     0.211 HD
ENDBRANCH  33  40
BRANCH  35  42
ATOM     42  O   UNL     1      26.259   3.539  29.433  1.00  0.00    -0.385 OA
ATOM     43  H   UNL     1      26.304   4.480  29.116  1.00  0.00     0.211 HD
ENDBRANCH  35  42
BRANCH  36  44
ATOM     44  O   UNL     1      25.252   4.165  32.297  1.00  0.00    -0.366 OA
ATOM     45  H   UNL     1      25.631   3.904  33.173  1.00  0.00     0.213 HD
ENDBRANCH  36  44
ENDBRANCH  30  31
ENDBRANCH   4  30
TORSDOF 18
ENDMDL
