MODEL 1
REMARK VINA RESULT:    -3.587      0.000      0.000
REMARK INTER + INTRA:          -4.535
REMARK INTER:                  -4.321
REMARK INTRA:                  -0.214
REMARK UNBOUND:                -0.214
REMARK SMILES OCC(O)CO
REMARK SMILES IDX 3 1 5 2 6 3 2 5 1 6 4 8
REMARK H PARENT 6 4 1 7 4 9
REMARK Flexibility Score: inf
ROOT
ATOM      1  C   UNL     1     -20.804   7.766 -36.543  1.00  0.00     0.165 C 
ENDROOT
BRANCH   1   2
ATOM      2  C   UNL     1     -20.090   8.126 -35.236  1.00  0.00     0.190 C 
BRANCH   2   3
ATOM      3  O   UNL     1     -19.884   9.510 -35.178  1.00  0.00    -0.394 OA
ATOM      4  H   UNL     1     -19.457   9.762 -36.039  1.00  0.00     0.210 HD
ENDBRANCH   2   3
ENDBRANCH   1   2
BRANCH   1   5
ATOM      5  C   UNL     1     -22.319   8.016 -36.439  1.00  0.00     0.190 C 
BRANCH   5   6
ATOM      6  O   UNL     1     -22.588   9.302 -35.947  1.00  0.00    -0.394 OA
ATOM      7  H   UNL     1     -22.148   9.943 -36.566  1.00  0.00     0.210 HD
ENDBRANCH   5   6
ENDBRANCH   1   5
BRANCH   1   8
ATOM      8  O   UNL     1     -20.259   8.520 -37.596  1.00  0.00    -0.388 OA
ATOM      9  H   UNL     1     -19.279   8.358 -37.585  1.00  0.00     0.211 HD
ENDBRANCH   1   8
TORSDOF 5
ENDMDL
MODEL 2
REMARK VINA RESULT:    -3.564      0.608      2.452
REMARK INTER + INTRA:          -4.506
REMARK INTER:                  -4.337
REMARK INTRA:                  -0.170
REMARK UNBOUND:                -0.214
REMARK SMILES OCC(O)CO
REMARK SMILES IDX 3 1 5 2 6 3 2 5 1 6 4 8
REMARK H PARENT 6 4 1 7 4 9
REMARK Flexibility Score: inf
ROOT
ATOM      1  C   UNL     1     -20.523   8.077 -35.466  1.00  0.00     0.165 C 
ENDROOT
BRANCH   1   2
ATOM      2  C   UNL     1     -22.052   8.007 -35.542  1.00  0.00     0.190 C 
BRANCH   2   3
ATOM      3  O   UNL     1     -22.562   9.258 -35.908  1.00  0.00    -0.394 OA
ATOM      4  H   UNL     1     -21.948   9.614 -36.602  1.00  0.00     0.210 HD
ENDBRANCH   2   3
ENDBRANCH   1   2
BRANCH   1   5
ATOM      5  C   UNL     1     -19.875   7.580 -36.770  1.00  0.00     0.190 C 
BRANCH   5   6
ATOM      6  O   UNL     1     -20.157   8.446 -37.837  1.00  0.00    -0.394 OA
ATOM      7  H   UNL     1     -21.023   8.151 -38.224  1.00  0.00     0.210 HD
ENDBRANCH   5   6
ENDBRANCH   1   5
BRANCH   1   8
ATOM      8  O   UNL     1     -20.129   9.399 -35.201  1.00  0.00    -0.388 OA
ATOM      9  H   UNL     1     -20.518   9.641 -34.319  1.00  0.00     0.211 HD
ENDBRANCH   1   8
TORSDOF 5
ENDMDL
MODEL 3
REMARK VINA RESULT:    -3.511      0.619      2.531
REMARK INTER + INTRA:          -4.443
REMARK INTER:                  -4.220
REMARK INTRA:                  -0.223
REMARK UNBOUND:                -0.214
REMARK SMILES OCC(O)CO
REMARK SMILES IDX 3 1 5 2 6 3 2 5 1 6 4 8
REMARK H PARENT 6 4 1 7 4 9
REMARK Flexibility Score: inf
ROOT
ATOM      1  C   UNL     1     -21.769   8.111 -36.072  1.00  0.00     0.165 C 
ENDROOT
BRANCH   1   2
ATOM      2  C   UNL     1     -21.506   7.958 -37.573  1.00  0.00     0.190 C 
BRANCH   2   3
ATOM      3  O   UNL     1     -20.200   8.370 -37.866  1.00  0.00    -0.394 OA
ATOM      4  H   UNL     1     -20.273   8.993 -38.635  1.00  0.00     0.210 HD
ENDBRANCH   2   3
ENDBRANCH   1   2
BRANCH   1   5
ATOM      5  C   UNL     1     -20.454   8.186 -35.278  1.00  0.00     0.190 C 
BRANCH   5   6
ATOM      6  O   UNL     1     -19.985   9.506 -35.197  1.00  0.00    -0.394 OA
ATOM      7  H   UNL     1     -20.091   9.903 -36.101  1.00  0.00     0.210 HD
ENDBRANCH   5   6
ENDBRANCH   1   5
BRANCH   1   8
ATOM      8  O   UNL     1     -22.538   9.266 -35.848  1.00  0.00    -0.388 OA
ATOM      9  H   UNL     1     -21.897  10.009 -35.693  1.00  0.00     0.211 HD
ENDBRANCH   1   8
TORSDOF 5
ENDMDL
MODEL 4
REMARK VINA RESULT:    -3.502      0.768      2.329
REMARK INTER + INTRA:          -4.432
REMARK INTER:                  -4.209
REMARK INTRA:                  -0.224
REMARK UNBOUND:                -0.214
REMARK SMILES OCC(O)CO
REMARK SMILES IDX 3 1 5 2 6 3 2 5 1 6 4 8
REMARK H PARENT 6 4 1 7 4 9
REMARK Flexibility Score: inf
ROOT
ATOM      1  C   UNL     1     -20.643   8.001 -36.745  1.00  0.00     0.165 C 
ENDROOT
BRANCH   1   2
ATOM      2  C   UNL     1     -22.174   7.972 -36.691  1.00  0.00     0.190 C 
BRANCH   2   3
ATOM      3  O   UNL     1     -22.629   8.901 -35.747  1.00  0.00    -0.394 OA
ATOM      4  H   UNL     1     -23.296   9.466 -36.217  1.00  0.00     0.210 HD
ENDBRANCH   2   3
ENDBRANCH   1   2
BRANCH   1   5
ATOM      5  C   UNL     1     -20.037   8.230 -35.350  1.00  0.00     0.190 C 
BRANCH   5   6
ATOM      6  O   UNL     1     -19.875   9.598 -35.085  1.00  0.00    -0.394 OA
ATOM      7  H   UNL     1     -19.532   9.671 -34.156  1.00  0.00     0.210 HD
ENDBRANCH   5   6
ENDBRANCH   1   5
BRANCH   1   8
ATOM      8  O   UNL     1     -20.172   6.794 -37.287  1.00  0.00    -0.388 OA
ATOM      9  H   UNL     1     -20.957   6.338 -37.693  1.00  0.00     0.211 HD
ENDBRANCH   1   8
TORSDOF 5
ENDMDL
MODEL 5
REMARK VINA RESULT:    -3.468      1.550      2.132
REMARK INTER + INTRA:          -4.391
REMARK INTER:                  -4.202
REMARK INTRA:                  -0.189
REMARK UNBOUND:                -0.214
REMARK SMILES OCC(O)CO
REMARK SMILES IDX 3 1 5 2 6 3 2 5 1 6 4 8
REMARK H PARENT 6 4 1 7 4 9
REMARK Flexibility Score: inf
ROOT
ATOM      1  C   UNL     1     -22.149   8.111 -36.235  1.00  0.00     0.165 C 
ENDROOT
BRANCH   1   2
ATOM      2  C   UNL     1     -20.626   8.264 -36.301  1.00  0.00     0.190 C 
BRANCH   2   3
ATOM      3  O   UNL     1     -20.211   9.234 -35.380  1.00  0.00    -0.394 OA
ATOM      4  H   UNL     1     -20.889   9.958 -35.418  1.00  0.00     0.210 HD
ENDBRANCH   2   3
ENDBRANCH   1   2
BRANCH   1   5
ATOM      5  C   UNL     1     -22.557   6.985 -35.270  1.00  0.00     0.190 C 
BRANCH   5   6
ATOM      6  O   UNL     1     -21.437   6.443 -34.622  1.00  0.00    -0.394 OA
ATOM      7  H   UNL     1     -20.639   6.746 -35.128  1.00  0.00     0.210 HD
ENDBRANCH   5   6
ENDBRANCH   1   5
BRANCH   1   8
ATOM      8  O   UNL     1     -22.723   9.329 -35.832  1.00  0.00    -0.388 OA
ATOM      9  H   UNL     1     -22.893   9.254 -34.856  1.00  0.00     0.211 HD
ENDBRANCH   1   8
TORSDOF 5
ENDMDL
MODEL 6
REMARK VINA RESULT:    -3.411      1.570      2.109
REMARK INTER + INTRA:          -4.322
REMARK INTER:                  -4.107
REMARK INTRA:                  -0.216
REMARK UNBOUND:                -0.214
REMARK SMILES OCC(O)CO
REMARK SMILES IDX 3 1 5 2 6 3 2 5 1 6 4 8
REMARK H PARENT 6 4 1 7 4 9
REMARK Flexibility Score: inf
ROOT
ATOM      1  C   UNL     1     -22.284   7.846 -37.776  1.00  0.00     0.165 C 
ENDROOT
BRANCH   1   2
ATOM      2  C   UNL     1     -20.818   8.012 -38.190  1.00  0.00     0.190 C 
BRANCH   2   3
ATOM      3  O   UNL     1     -20.049   8.352 -37.071  1.00  0.00    -0.394 OA
ATOM      4  H   UNL     1     -19.310   8.924 -37.407  1.00  0.00     0.210 HD
ENDBRANCH   2   3
ENDBRANCH   1   2
BRANCH   1   5
ATOM      5  C   UNL     1     -22.455   7.991 -36.254  1.00  0.00     0.190 C 
BRANCH   5   6
ATOM      6  O   UNL     1     -22.665   9.330 -35.893  1.00  0.00    -0.394 OA
ATOM      7  H   UNL     1     -21.782   9.781 -35.938  1.00  0.00     0.210 HD
ENDBRANCH   5   6
ENDBRANCH   1   5
BRANCH   1   8
ATOM      8  O   UNL     1     -23.069   8.800 -38.446  1.00  0.00    -0.388 OA
ATOM      9  H   UNL     1     -24.015   8.514 -38.342  1.00  0.00     0.211 HD
ENDBRANCH   1   8
TORSDOF 5
ENDMDL
MODEL 7
REMARK VINA RESULT:    -3.387     20.566     21.644
REMARK INTER + INTRA:          -4.293
REMARK INTER:                  -4.086
REMARK INTRA:                  -0.208
REMARK UNBOUND:                -0.214
REMARK SMILES OCC(O)CO
REMARK SMILES IDX 3 1 5 2 6 3 2 5 1 6 4 8
REMARK H PARENT 6 4 1 7 4 9
REMARK Flexibility Score: inf
ROOT
ATOM      1  C   UNL     1     -38.755   6.697 -47.839  1.00  0.00     0.165 C 
ENDROOT
BRANCH   1   2
ATOM      2  C   UNL     1     -37.495   5.845 -47.652  1.00  0.00     0.190 C 
BRANCH   2   3
ATOM      3  O   UNL     1     -37.054   5.378 -48.896  1.00  0.00    -0.394 OA
ATOM      4  H   UNL     1     -37.407   6.014 -49.571  1.00  0.00     0.210 HD
ENDBRANCH   2   3
ENDBRANCH   1   2
BRANCH   1   5
ATOM      5  C   UNL     1     -39.948   5.839 -48.296  1.00  0.00     0.190 C 
BRANCH   5   6
ATOM      6  O   UNL     1     -40.002   5.751 -49.695  1.00  0.00    -0.394 OA
ATOM      7  H   UNL     1     -39.071   5.855 -50.025  1.00  0.00     0.210 HD
ENDBRANCH   5   6
ENDBRANCH   1   5
BRANCH   1   8
ATOM      8  O   UNL     1     -39.060   7.350 -46.633  1.00  0.00    -0.388 OA
ATOM      9  H   UNL     1     -39.014   6.662 -45.917  1.00  0.00     0.211 HD
ENDBRANCH   1   8
TORSDOF 5
ENDMDL
MODEL 8
REMARK VINA RESULT:    -3.308      5.298      6.609
REMARK INTER + INTRA:          -4.199
REMARK INTER:                  -3.975
REMARK INTRA:                  -0.224
REMARK UNBOUND:                -0.214
REMARK SMILES OCC(O)CO
REMARK SMILES IDX 3 1 5 2 6 3 2 5 1 6 4 8
REMARK H PARENT 6 4 1 7 4 9
REMARK Flexibility Score: inf
ROOT
ATOM      1  C   UNL     1     -23.855   7.547 -40.762  1.00  0.00     0.165 C 
ENDROOT
BRANCH   1   2
ATOM      2  C   UNL     1     -24.703   7.926 -41.981  1.00  0.00     0.190 C 
BRANCH   2   3
ATOM      3  O   UNL     1     -24.359   7.109 -43.065  1.00  0.00    -0.394 OA
ATOM      4  H   UNL     1     -24.873   6.268 -42.950  1.00  0.00     0.210 HD
ENDBRANCH   2   3
ENDBRANCH   1   2
BRANCH   1   5
ATOM      5  C   UNL     1     -22.772   6.519 -41.132  1.00  0.00     0.190 C 
BRANCH   5   6
ATOM      6  O   UNL     1     -21.696   7.132 -41.791  1.00  0.00    -0.394 OA
ATOM      7  H   UNL     1     -21.486   6.569 -42.581  1.00  0.00     0.210 HD
ENDBRANCH   5   6
ENDBRANCH   1   5
BRANCH   1   8
ATOM      8  O   UNL     1     -23.264   8.705 -40.228  1.00  0.00    -0.388 OA
ATOM      9  H   UNL     1     -23.062   9.302 -40.995  1.00  0.00     0.211 HD
ENDBRANCH   1   8
TORSDOF 5
ENDMDL
MODEL 9
REMARK VINA RESULT:    -3.282      5.946      6.786
REMARK INTER + INTRA:          -4.167
REMARK INTER:                  -3.947
REMARK INTRA:                  -0.221
REMARK UNBOUND:                -0.214
REMARK SMILES OCC(O)CO
REMARK SMILES IDX 3 1 5 2 6 3 2 5 1 6 4 8
REMARK H PARENT 6 4 1 7 4 9
REMARK Flexibility Score: inf
ROOT
ATOM      1  C   UNL     1     -23.799   5.937 -41.453  1.00  0.00     0.165 C 
ENDROOT
BRANCH   1   2
ATOM      2  C   UNL     1     -22.331   6.093 -41.042  1.00  0.00     0.190 C 
BRANCH   2   3
ATOM      3  O   UNL     1     -21.719   7.066 -41.842  1.00  0.00    -0.394 OA
ATOM      4  H   UNL     1     -21.000   7.466 -41.287  1.00  0.00     0.210 HD
ENDBRANCH   2   3
ENDBRANCH   1   2
BRANCH   1   5
ATOM      5  C   UNL     1     -24.415   7.290 -41.849  1.00  0.00     0.190 C 
BRANCH   5   6
ATOM      6  O   UNL     1     -24.337   7.496 -43.235  1.00  0.00    -0.394 OA
ATOM      7  H   UNL     1     -23.585   8.126 -43.388  1.00  0.00     0.210 HD
ENDBRANCH   5   6
ENDBRANCH   1   5
BRANCH   1   8
ATOM      8  O   UNL     1     -23.889   5.031 -42.523  1.00  0.00    -0.388 OA
ATOM      9  H   UNL     1     -23.694   4.130 -42.151  1.00  0.00     0.211 HD
ENDBRANCH   1   8
TORSDOF 5
ENDMDL
