MODEL 1
REMARK VINA RESULT:    -4.534      0.000      0.000
REMARK INTER + INTRA:          -7.791
REMARK INTER:                  -6.920
REMARK INTRA:                  -0.872
REMARK UNBOUND:                -0.872
REMARK SMILES O=C([O-])CCCCCCCCC(=O)[O-]
REMARK SMILES IDX 7 1 6 2 5 3 4 4 2 5 1 6 3 7 8 8 9 9 10 10 11 11 12 12 13 13
REMARK SMILES IDX 14 14
REMARK H PARENT
REMARK Flexibility Score: inf
ROOT
ATOM      1  C   UNL     1       2.799  43.019   9.710  1.00  0.00     0.000 C 
ENDROOT
BRANCH   1   2
ATOM      2  C   UNL     1       1.640  43.959  10.062  1.00  0.00     0.000 C 
BRANCH   2   3
ATOM      3  C   UNL     1       1.125  44.689   8.815  1.00  0.00     0.006 C 
BRANCH   3   4
ATOM      4  C   UNL     1       0.809  46.155   9.128  1.00  0.00     0.053 C 
BRANCH   4   5
ATOM      5  C   UNL     1       0.765  46.962   7.868  1.00  0.00     0.041 C 
ATOM      6  O   UNL     1       1.723  47.722   7.570  1.00  0.00    -0.550 OA
ATOM      7  O   UNL     1      -0.356  46.912   7.049  1.00  0.00    -0.550 OA
ENDBRANCH   4   5
ENDBRANCH   3   4
ENDBRANCH   2   3
ENDBRANCH   1   2
BRANCH   1   8
ATOM      8  C   UNL     1       4.130  43.561  10.243  1.00  0.00     0.000 C 
BRANCH   8   9
ATOM      9  C   UNL     1       3.895  44.648  11.304  1.00  0.00     0.000 C 
BRANCH   9  10
ATOM     10  C   UNL     1       4.584  45.975  10.954  1.00  0.00     0.006 C 
BRANCH  10  11
ATOM     11  C   UNL     1       4.487  46.315   9.461  1.00  0.00     0.053 C 
BRANCH  11  12
ATOM     12  C   UNL     1       5.358  47.488   9.136  1.00  0.00     0.041 C 
ATOM     13  O   UNL     1       6.481  47.617   9.691  1.00  0.00    -0.550 OA
ATOM     14  O   UNL     1       4.908  48.465   8.257  1.00  0.00    -0.550 OA
ENDBRANCH  11  12
ENDBRANCH  10  11
ENDBRANCH   9  10
ENDBRANCH   8   9
ENDBRANCH   1   8
TORSDOF 9
ENDMDL
MODEL 2
REMARK VINA RESULT:    -4.458      1.953      4.048
REMARK INTER + INTRA:          -7.675
REMARK INTER:                  -6.913
REMARK INTRA:                  -0.763
REMARK UNBOUND:                -0.872
REMARK SMILES O=C([O-])CCCCCCCCC(=O)[O-]
REMARK SMILES IDX 7 1 6 2 5 3 4 4 2 5 1 6 3 7 8 8 9 9 10 10 11 11 12 12 13 13
REMARK SMILES IDX 14 14
REMARK H PARENT
REMARK Flexibility Score: inf
ROOT
ATOM      1  C   UNL     1       4.662  46.346  10.740  1.00  0.00     0.000 C 
ENDROOT
BRANCH   1   2
ATOM      2  C   UNL     1       4.428  46.378   9.225  1.00  0.00     0.000 C 
BRANCH   2   3
ATOM      3  C   UNL     1       3.394  47.447   8.850  1.00  0.00     0.006 C 
BRANCH   3   4
ATOM      4  C   UNL     1       3.965  48.429   7.823  1.00  0.00     0.053 C 
BRANCH   4   5
ATOM      5  C   UNL     1       3.068  49.617   7.678  1.00  0.00     0.041 C 
ATOM      6  O   UNL     1       3.553  50.778   7.663  1.00  0.00    -0.550 OA
ATOM      7  O   UNL     1       1.692  49.444   7.609  1.00  0.00    -0.550 OA
ENDBRANCH   4   5
ENDBRANCH   3   4
ENDBRANCH   2   3
ENDBRANCH   1   2
BRANCH   1   8
ATOM      8  C   UNL     1       4.121  45.048  11.353  1.00  0.00     0.000 C 
BRANCH   8   9
ATOM      9  C   UNL     1       4.069  43.925  10.306  1.00  0.00     0.000 C 
BRANCH   9  10
ATOM     10  C   UNL     1       2.706  43.218  10.265  1.00  0.00     0.006 C 
BRANCH  10  11
ATOM     11  C   UNL     1       1.910  43.543   8.996  1.00  0.00     0.053 C 
BRANCH  11  12
ATOM     12  C   UNL     1       1.011  44.718   9.229  1.00  0.00     0.041 C 
ATOM     13  O   UNL     1       0.536  45.356   8.253  1.00  0.00    -0.550 OA
ATOM     14  O   UNL     1       0.739  45.137  10.525  1.00  0.00    -0.550 OA
ENDBRANCH  11  12
ENDBRANCH  10  11
ENDBRANCH   9  10
ENDBRANCH   8   9
ENDBRANCH   1   8
TORSDOF 9
ENDMDL
MODEL 3
REMARK VINA RESULT:    -4.406      2.340      3.736
REMARK INTER + INTRA:          -7.596
REMARK INTER:                  -6.917
REMARK INTRA:                  -0.679
REMARK UNBOUND:                -0.872
REMARK SMILES O=C([O-])CCCCCCCCC(=O)[O-]
REMARK SMILES IDX 7 1 6 2 5 3 4 4 2 5 1 6 3 7 8 8 9 9 10 10 11 11 12 12 13 13
REMARK SMILES IDX 14 14
REMARK H PARENT
REMARK Flexibility Score: inf
ROOT
ATOM      1  C   UNL     1       3.611  45.942  11.314  1.00  0.00     0.000 C 
ENDROOT
BRANCH   1   2
ATOM      2  C   UNL     1       3.960  44.746  12.207  1.00  0.00     0.000 C 
BRANCH   2   3
ATOM      3  C   UNL     1       3.823  43.426  11.438  1.00  0.00     0.006 C 
BRANCH   3   4
ATOM      4  C   UNL     1       2.429  43.294  10.817  1.00  0.00     0.053 C 
BRANCH   4   5
ATOM      5  C   UNL     1       2.511  43.358   9.325  1.00  0.00     0.041 C 
ATOM      6  O   UNL     1       3.608  43.153   8.742  1.00  0.00    -0.550 OA
ATOM      7  O   UNL     1       1.387  43.693   8.580  1.00  0.00    -0.550 OA
ENDBRANCH   4   5
ENDBRANCH   3   4
ENDBRANCH   2   3
ENDBRANCH   1   2
BRANCH   1   8
ATOM      8  C   UNL     1       4.853  46.468  10.585  1.00  0.00     0.000 C 
BRANCH   8   9
ATOM      9  C   UNL     1       4.512  46.881   9.145  1.00  0.00     0.000 C 
BRANCH   9  10
ATOM     10  C   UNL     1       3.018  47.181   8.954  1.00  0.00     0.006 C 
BRANCH  10  11
ATOM     11  C   UNL     1       2.736  47.991   7.683  1.00  0.00     0.053 C 
BRANCH  11  12
ATOM     12  C   UNL     1       2.650  49.451   8.003  1.00  0.00     0.041 C 
ATOM     13  O   UNL     1       1.628  49.915   8.573  1.00  0.00    -0.550 OA
ATOM     14  O   UNL     1       3.677  50.306   7.626  1.00  0.00    -0.550 OA
ENDBRANCH  11  12
ENDBRANCH  10  11
ENDBRANCH   9  10
ENDBRANCH   8   9
ENDBRANCH   1   8
TORSDOF 9
ENDMDL
MODEL 4
REMARK VINA RESULT:    -4.382      2.394      3.886
REMARK INTER + INTRA:          -7.559
REMARK INTER:                  -6.882
REMARK INTRA:                  -0.677
REMARK UNBOUND:                -0.872
REMARK SMILES O=C([O-])CCCCCCCCC(=O)[O-]
REMARK SMILES IDX 7 1 6 2 5 3 4 4 2 5 1 6 3 7 8 8 9 9 10 10 11 11 12 12 13 13
REMARK SMILES IDX 14 14
REMARK H PARENT
REMARK Flexibility Score: inf
ROOT
ATOM      1  C   UNL     1       4.801  46.639  10.015  1.00  0.00     0.000 C 
ENDROOT
BRANCH   1   2
ATOM      2  C   UNL     1       4.150  47.308   8.799  1.00  0.00     0.000 C 
BRANCH   2   3
ATOM      3  C   UNL     1       2.622  47.187   8.857  1.00  0.00     0.006 C 
BRANCH   3   4
ATOM      4  C   UNL     1       1.964  47.989   7.730  1.00  0.00     0.053 C 
BRANCH   4   5
ATOM      5  C   UNL     1       2.262  49.447   7.882  1.00  0.00     0.041 C 
ATOM      6  O   UNL     1       1.666  50.127   8.758  1.00  0.00    -0.550 OA
ATOM      7  O   UNL     1       3.161  50.066   7.023  1.00  0.00    -0.550 OA
ENDBRANCH   4   5
ENDBRANCH   3   4
ENDBRANCH   2   3
ENDBRANCH   1   2
BRANCH   1   8
ATOM      8  C   UNL     1       3.767  46.371  11.116  1.00  0.00     0.000 C 
BRANCH   8   9
ATOM      9  C   UNL     1       4.060  45.044  11.834  1.00  0.00     0.000 C 
BRANCH   9  10
ATOM     10  C   UNL     1       2.810  44.163  11.981  1.00  0.00     0.006 C 
BRANCH  10  11
ATOM     11  C   UNL     1       2.837  42.941  11.056  1.00  0.00     0.053 C 
BRANCH  11  12
ATOM     12  C   UNL     1       2.849  43.370   9.622  1.00  0.00     0.041 C 
ATOM     13  O   UNL     1       1.789  43.767   9.070  1.00  0.00    -0.550 OA
ATOM     14  O   UNL     1       4.021  43.287   8.882  1.00  0.00    -0.550 OA
ENDBRANCH  11  12
ENDBRANCH  10  11
ENDBRANCH   9  10
ENDBRANCH   8   9
ENDBRANCH   1   8
TORSDOF 9
ENDMDL
MODEL 5
REMARK VINA RESULT:    -4.376      2.175      3.577
REMARK INTER + INTRA:          -7.550
REMARK INTER:                  -6.641
REMARK INTRA:                  -0.909
REMARK UNBOUND:                -0.872
REMARK SMILES O=C([O-])CCCCCCCCC(=O)[O-]
REMARK SMILES IDX 7 1 6 2 5 3 4 4 2 5 1 6 3 7 8 8 9 9 10 10 11 11 12 12 13 13
REMARK SMILES IDX 14 14
REMARK H PARENT
REMARK Flexibility Score: inf
ROOT
ATOM      1  C   UNL     1       3.754  46.348  11.008  1.00  0.00     0.000 C 
ENDROOT
BRANCH   1   2
ATOM      2  C   UNL     1       4.434  46.681   9.675  1.00  0.00     0.000 C 
BRANCH   2   3
ATOM      3  C   UNL     1       3.406  47.123   8.626  1.00  0.00     0.006 C 
BRANCH   3   4
ATOM      4  C   UNL     1       2.110  47.596   9.292  1.00  0.00     0.053 C 
BRANCH   4   5
ATOM      5  C   UNL     1       0.922  46.975   8.627  1.00  0.00     0.041 C 
ATOM      6  O   UNL     1       0.751  47.105   7.387  1.00  0.00    -0.550 OA
ATOM      7  O   UNL     1      -0.022  46.295   9.386  1.00  0.00    -0.550 OA
ENDBRANCH   4   5
ENDBRANCH   3   4
ENDBRANCH   2   3
ENDBRANCH   1   2
BRANCH   1   8
ATOM      8  C   UNL     1       4.506  45.235  11.747  1.00  0.00     0.000 C 
BRANCH   8   9
ATOM      9  C   UNL     1       3.532  44.332  12.519  1.00  0.00     0.000 C 
BRANCH   9  10
ATOM     10  C   UNL     1       2.308  43.931  11.682  1.00  0.00     0.006 C 
BRANCH  10  11
ATOM     11  C   UNL     1       2.594  42.755  10.741  1.00  0.00     0.053 C 
BRANCH  11  12
ATOM     12  C   UNL     1       2.764  43.239   9.335  1.00  0.00     0.041 C 
ATOM     13  O   UNL     1       1.759  43.575   8.655  1.00  0.00    -0.550 OA
ATOM     14  O   UNL     1       4.028  43.273   8.759  1.00  0.00    -0.550 OA
ENDBRANCH  11  12
ENDBRANCH  10  11
ENDBRANCH   9  10
ENDBRANCH   8   9
ENDBRANCH   1   8
TORSDOF 9
ENDMDL
MODEL 6
REMARK VINA RESULT:    -4.369      0.817      4.143
REMARK INTER + INTRA:          -7.540
REMARK INTER:                  -6.687
REMARK INTRA:                  -0.853
REMARK UNBOUND:                -0.872
REMARK SMILES O=C([O-])CCCCCCCCC(=O)[O-]
REMARK SMILES IDX 7 1 6 2 5 3 4 4 2 5 1 6 3 7 8 8 9 9 10 10 11 11 12 12 13 13
REMARK SMILES IDX 14 14
REMARK H PARENT
REMARK Flexibility Score: inf
ROOT
ATOM      1  C   UNL     1       4.042  43.739  10.631  1.00  0.00     0.000 C 
ENDROOT
BRANCH   1   2
ATOM      2  C   UNL     1       4.104  44.845  11.691  1.00  0.00     0.000 C 
BRANCH   2   3
ATOM      3  C   UNL     1       4.173  46.231  11.038  1.00  0.00     0.006 C 
BRANCH   3   4
ATOM      4  C   UNL     1       4.590  46.126   9.568  1.00  0.00     0.053 C 
BRANCH   4   5
ATOM      5  C   UNL     1       5.265  47.386   9.124  1.00  0.00     0.041 C 
ATOM      6  O   UNL     1       6.440  47.639   9.498  1.00  0.00    -0.550 OA
ATOM      7  O   UNL     1       4.579  48.302   8.338  1.00  0.00    -0.550 OA
ENDBRANCH   4   5
ENDBRANCH   3   4
ENDBRANCH   2   3
ENDBRANCH   1   2
BRANCH   1   8
ATOM      8  C   UNL     1       2.651  43.096  10.586  1.00  0.00     0.000 C 
BRANCH   8   9
ATOM      9  C   UNL     1       1.881  43.536   9.332  1.00  0.00     0.000 C 
BRANCH   9  10
ATOM     10  C   UNL     1       1.038  44.798   9.568  1.00  0.00     0.006 C 
BRANCH  10  11
ATOM     11  C   UNL     1       0.585  45.459   8.260  1.00  0.00     0.053 C 
BRANCH  11  12
ATOM     12  C   UNL     1       0.859  46.930   8.297  1.00  0.00     0.041 C 
ATOM     13  O   UNL     1       0.607  47.647   7.292  1.00  0.00    -0.550 OA
ATOM     14  O   UNL     1       1.439  47.502   9.422  1.00  0.00    -0.550 OA
ENDBRANCH  11  12
ENDBRANCH  10  11
ENDBRANCH   9  10
ENDBRANCH   8   9
ENDBRANCH   1   8
TORSDOF 9
ENDMDL
MODEL 7
REMARK VINA RESULT:    -4.327      2.430      3.947
REMARK INTER + INTRA:          -7.475
REMARK INTER:                  -6.656
REMARK INTRA:                  -0.818
REMARK UNBOUND:                -0.872
REMARK SMILES O=C([O-])CCCCCCCCC(=O)[O-]
REMARK SMILES IDX 7 1 6 2 5 3 4 4 2 5 1 6 3 7 8 8 9 9 10 10 11 11 12 12 13 13
REMARK SMILES IDX 14 14
REMARK H PARENT
REMARK Flexibility Score: inf
ROOT
ATOM      1  C   UNL     1       4.907  48.499   8.391  1.00  0.00     0.000 C 
ENDROOT
BRANCH   1   2
ATOM      2  C   UNL     1       3.633  48.062   7.657  1.00  0.00     0.000 C 
BRANCH   2   3
ATOM      3  C   UNL     1       2.559  49.155   7.722  1.00  0.00     0.006 C 
BRANCH   3   4
ATOM      4  C   UNL     1       1.488  48.812   8.762  1.00  0.00     0.053 C 
BRANCH   4   5
ATOM      5  C   UNL     1       0.818  47.519   8.419  1.00  0.00     0.041 C 
ATOM      6  O   UNL     1       0.258  47.373   7.301  1.00  0.00    -0.550 OA
ATOM      7  O   UNL     1       0.771  46.492   9.353  1.00  0.00    -0.550 OA
ENDBRANCH   4   5
ENDBRANCH   3   4
ENDBRANCH   2   3
ENDBRANCH   1   2
BRANCH   1   8
ATOM      8  C   UNL     1       5.431  47.379   9.297  1.00  0.00     0.000 C 
BRANCH   8   9
ATOM      9  C   UNL     1       4.356  46.304   9.522  1.00  0.00     0.000 C 
BRANCH   9  10
ATOM     10  C   UNL     1       3.835  46.283  10.967  1.00  0.00     0.006 C 
BRANCH  10  11
ATOM     11  C   UNL     1       4.141  44.964  11.686  1.00  0.00     0.053 C 
BRANCH  11  12
ATOM     12  C   UNL     1       3.527  43.813  10.951  1.00  0.00     0.041 C 
ATOM     13  O   UNL     1       4.259  42.919  10.450  1.00  0.00    -0.550 OA
ATOM     14  O   UNL     1       2.151  43.755  10.778  1.00  0.00    -0.550 OA
ENDBRANCH  11  12
ENDBRANCH  10  11
ENDBRANCH   9  10
ENDBRANCH   8   9
ENDBRANCH   1   8
TORSDOF 9
ENDMDL
MODEL 8
REMARK VINA RESULT:    -4.302      2.466      4.783
REMARK INTER + INTRA:          -7.437
REMARK INTER:                  -6.599
REMARK INTRA:                  -0.838
REMARK UNBOUND:                -0.872
REMARK SMILES O=C([O-])CCCCCCCCC(=O)[O-]
REMARK SMILES IDX 7 1 6 2 5 3 4 4 2 5 1 6 3 7 8 8 9 9 10 10 11 11 12 12 13 13
REMARK SMILES IDX 14 14
REMARK H PARENT
REMARK Flexibility Score: inf
ROOT
ATOM      1  C   UNL     1       1.494  47.361   9.029  1.00  0.00     0.000 C 
ENDROOT
BRANCH   1   2
ATOM      2  C   UNL     1       2.239  48.058   7.885  1.00  0.00     0.000 C 
BRANCH   2   3
ATOM      3  C   UNL     1       3.744  48.131   8.171  1.00  0.00     0.006 C 
BRANCH   3   4
ATOM      4  C   UNL     1       4.260  46.807   8.745  1.00  0.00     0.053 C 
BRANCH   4   5
ATOM      5  C   UNL     1       5.164  47.058   9.910  1.00  0.00     0.041 C 
ATOM      6  O   UNL     1       4.798  46.749  11.074  1.00  0.00    -0.550 OA
ATOM      7  O   UNL     1       6.392  47.679   9.716  1.00  0.00    -0.550 OA
ENDBRANCH   4   5
ENDBRANCH   3   4
ENDBRANCH   2   3
ENDBRANCH   1   2
BRANCH   1   8
ATOM      8  C   UNL     1       0.680  46.170   8.512  1.00  0.00     0.000 C 
BRANCH   8   9
ATOM      9  C   UNL     1       1.145  44.860   9.166  1.00  0.00     0.000 C 
BRANCH   9  10
ATOM     10  C   UNL     1       1.502  45.035  10.650  1.00  0.00     0.006 C 
BRANCH  10  11
ATOM     11  C   UNL     1       1.891  43.713  11.324  1.00  0.00     0.053 C 
BRANCH  11  12
ATOM     12  C   UNL     1       3.376  43.632  11.494  1.00  0.00     0.041 C 
ATOM     13  O   UNL     1       3.899  43.864  12.616  1.00  0.00    -0.550 OA
ATOM     14  O   UNL     1       4.186  43.347  10.402  1.00  0.00    -0.550 OA
ENDBRANCH  11  12
ENDBRANCH  10  11
ENDBRANCH   9  10
ENDBRANCH   8   9
ENDBRANCH   1   8
TORSDOF 9
ENDMDL
MODEL 9
REMARK VINA RESULT:    -4.260      2.418      4.597
REMARK INTER + INTRA:          -7.373
REMARK INTER:                  -6.631
REMARK INTRA:                  -0.743
REMARK UNBOUND:                -0.872
REMARK SMILES O=C([O-])CCCCCCCCC(=O)[O-]
REMARK SMILES IDX 7 1 6 2 5 3 4 4 2 5 1 6 3 7 8 8 9 9 10 10 11 11 12 12 13 13
REMARK SMILES IDX 14 14
REMARK H PARENT
REMARK Flexibility Score: inf
ROOT
ATOM      1  C   UNL     1       4.983  47.004   9.946  1.00  0.00     0.000 C 
ENDROOT
BRANCH   1   2
ATOM      2  C   UNL     1       4.476  45.970  10.958  1.00  0.00     0.000 C 
BRANCH   2   3
ATOM      3  C   UNL     1       2.943  45.944  10.997  1.00  0.00     0.006 C 
BRANCH   3   4
ATOM      4  C   UNL     1       2.425  44.535  11.303  1.00  0.00     0.053 C 
BRANCH   4   5
ATOM      5  C   UNL     1       2.235  43.760  10.038  1.00  0.00     0.041 C 
ATOM      6  O   UNL     1       1.444  44.178   9.152  1.00  0.00    -0.550 OA
ATOM      7  O   UNL     1       2.893  42.550   9.859  1.00  0.00    -0.550 OA
ENDBRANCH   4   5
ENDBRANCH   3   4
ENDBRANCH   2   3
ENDBRANCH   1   2
BRANCH   1   8
ATOM      8  C   UNL     1       4.033  47.114   8.747  1.00  0.00     0.000 C 
BRANCH   8   9
ATOM      9  C   UNL     1       4.217  48.455   8.020  1.00  0.00     0.000 C 
BRANCH   9  10
ATOM     10  C   UNL     1       2.882  49.145   7.706  1.00  0.00     0.006 C 
BRANCH  10  11
ATOM     11  C   UNL     1       1.777  48.779   8.704  1.00  0.00     0.053 C 
BRANCH  11  12
ATOM     12  C   UNL     1       0.579  48.242   7.984  1.00  0.00     0.041 C 
ATOM     13  O   UNL     1       0.662  47.168   7.331  1.00  0.00    -0.550 OA
ATOM     14  O   UNL     1      -0.613  48.953   7.993  1.00  0.00    -0.550 OA
ENDBRANCH  11  12
ENDBRANCH  10  11
ENDBRANCH   9  10
ENDBRANCH   8   9
ENDBRANCH   1   8
TORSDOF 9
ENDMDL
