MODEL 1
REMARK VINA RESULT:    -2.598      0.000      0.000
REMARK INTER + INTRA:          -4.242
REMARK INTER:                  -3.661
REMARK INTRA:                  -0.581
REMARK UNBOUND:                -0.581
REMARK SMILES CCCCCCCCC(=O)[O-]
REMARK SMILES IDX 6 1 7 2 8 3 9 4 10 5 11 6 5 7 4 8 3 9 2 10 1 11
REMARK H PARENT
REMARK Flexibility Score: inf
ROOT
ATOM      1  C   UNL     1     -24.773  28.780 -21.374  1.00  0.00     0.000 C 
ENDROOT
BRANCH   1   2
ATOM      2  C   UNL     1     -23.709  28.867 -22.481  1.00  0.00     0.006 C 
BRANCH   2   3
ATOM      3  C   UNL     1     -23.155  27.487 -22.859  1.00  0.00     0.053 C 
BRANCH   3   4
ATOM      4  C   UNL     1     -23.390  27.174 -24.306  1.00  0.00     0.041 C 
ATOM      5  O   UNL     1     -22.731  26.260 -24.870  1.00  0.00    -0.550 OA
ATOM      6  O   UNL     1     -24.360  27.864 -25.020  1.00  0.00    -0.550 OA
ENDBRANCH   3   4
ENDBRANCH   2   3
ENDBRANCH   1   2
BRANCH   1   7
ATOM      7  C   UNL     1     -24.846  30.056 -20.518  1.00  0.00     0.000 C 
BRANCH   7   8
ATOM      8  C   UNL     1     -24.403  29.872 -19.054  1.00  0.00    -0.000 C 
BRANCH   8   9
ATOM      9  C   UNL     1     -24.381  28.396 -18.593  1.00  0.00    -0.000 C 
BRANCH   9  10
ATOM     10  C   UNL     1     -22.973  27.886 -18.240  1.00  0.00    -0.003 C 
ATOM     11  C   UNL     1     -21.869  28.795 -18.781  1.00  0.00     0.004 C 
ENDBRANCH   9  10
ENDBRANCH   8   9
ENDBRANCH   7   8
ENDBRANCH   1   7
TORSDOF 7
ENDMDL
MODEL 2
REMARK VINA RESULT:    -2.532     13.103     14.726
REMARK INTER + INTRA:          -4.148
REMARK INTER:                  -3.453
REMARK INTRA:                  -0.695
REMARK UNBOUND:                -0.581
REMARK SMILES CCCCCCCCC(=O)[O-]
REMARK SMILES IDX 6 1 7 2 8 3 9 4 10 5 11 6 5 7 4 8 3 9 2 10 1 11
REMARK H PARENT
REMARK Flexibility Score: inf
ROOT
ATOM      1  C   UNL     1     -21.257  13.422 -24.880  1.00  0.00     0.000 C 
ENDROOT
BRANCH   1   2
ATOM      2  C   UNL     1     -22.145  13.542 -23.630  1.00  0.00     0.006 C 
BRANCH   2   3
ATOM      3  C   UNL     1     -22.266  14.992 -23.145  1.00  0.00     0.053 C 
BRANCH   3   4
ATOM      4  C   UNL     1     -23.668  15.506 -23.278  1.00  0.00     0.041 C 
ATOM      5  O   UNL     1     -24.014  16.561 -22.683  1.00  0.00    -0.550 OA
ATOM      6  O   UNL     1     -24.580  14.841 -24.086  1.00  0.00    -0.550 OA
ENDBRANCH   3   4
ENDBRANCH   2   3
ENDBRANCH   1   2
BRANCH   1   7
ATOM      7  C   UNL     1     -19.799  13.071 -24.542  1.00  0.00     0.000 C 
BRANCH   7   8
ATOM      8  C   UNL     1     -18.796  14.222 -24.753  1.00  0.00    -0.000 C 
BRANCH   8   9
ATOM      9  C   UNL     1     -17.992  14.586 -23.483  1.00  0.00    -0.000 C 
BRANCH   9  10
ATOM     10  C   UNL     1     -18.613  14.036 -22.187  1.00  0.00    -0.003 C 
ATOM     11  C   UNL     1     -19.065  15.146 -21.239  1.00  0.00     0.004 C 
ENDBRANCH   9  10
ENDBRANCH   8   9
ENDBRANCH   7   8
ENDBRANCH   1   7
TORSDOF 7
ENDMDL
MODEL 3
REMARK VINA RESULT:    -2.528      3.706      5.196
REMARK INTER + INTRA:          -4.143
REMARK INTER:                  -3.459
REMARK INTRA:                  -0.684
REMARK UNBOUND:                -0.581
REMARK SMILES CCCCCCCCC(=O)[O-]
REMARK SMILES IDX 6 1 7 2 8 3 9 4 10 5 11 6 5 7 4 8 3 9 2 10 1 11
REMARK H PARENT
REMARK Flexibility Score: inf
ROOT
ATOM      1  C   UNL     1     -24.339  30.195 -18.222  1.00  0.00     0.000 C 
ENDROOT
BRANCH   1   2
ATOM      2  C   UNL     1     -23.462  29.470 -17.188  1.00  0.00     0.006 C 
BRANCH   2   3
ATOM      3  C   UNL     1     -22.437  28.540 -17.850  1.00  0.00     0.053 C 
BRANCH   3   4
ATOM      4  C   UNL     1     -21.044  29.080 -17.736  1.00  0.00     0.041 C 
ATOM      5  O   UNL     1     -20.254  29.003 -18.715  1.00  0.00    -0.550 OA
ATOM      6  O   UNL     1     -20.630  29.700 -16.565  1.00  0.00    -0.550 OA
ENDBRANCH   3   4
ENDBRANCH   2   3
ENDBRANCH   1   2
BRANCH   1   7
ATOM      7  C   UNL     1     -24.794  29.273 -19.366  1.00  0.00     0.000 C 
BRANCH   7   8
ATOM      8  C   UNL     1     -24.872  29.953 -20.746  1.00  0.00    -0.000 C 
BRANCH   8   9
ATOM      9  C   UNL     1     -24.023  29.253 -21.832  1.00  0.00    -0.000 C 
BRANCH   9  10
ATOM     10  C   UNL     1     -22.537  29.120 -21.456  1.00  0.00    -0.003 C 
ATOM     11  C   UNL     1     -22.052  27.671 -21.493  1.00  0.00     0.004 C 
ENDBRANCH   9  10
ENDBRANCH   8   9
ENDBRANCH   7   8
ENDBRANCH   1   7
TORSDOF 7
ENDMDL
MODEL 4
REMARK VINA RESULT:    -2.522     14.579     15.846
REMARK INTER + INTRA:          -4.135
REMARK INTER:                  -3.411
REMARK INTRA:                  -0.724
REMARK UNBOUND:                -0.581
REMARK SMILES CCCCCCCCC(=O)[O-]
REMARK SMILES IDX 6 1 7 2 8 3 9 4 10 5 11 6 5 7 4 8 3 9 2 10 1 11
REMARK H PARENT
REMARK Flexibility Score: inf
ROOT
ATOM      1  C   UNL     1     -18.606  15.073 -22.950  1.00  0.00     0.000 C 
ENDROOT
BRANCH   1   2
ATOM      2  C   UNL     1     -18.659  14.069 -21.786  1.00  0.00     0.006 C 
BRANCH   2   3
ATOM      3  C   UNL     1     -19.734  14.437 -20.755  1.00  0.00     0.053 C 
BRANCH   3   4
ATOM      4  C   UNL     1     -19.429  13.857 -19.407  1.00  0.00     0.041 C 
ATOM      5  O   UNL     1     -20.212  14.059 -18.440  1.00  0.00    -0.550 OA
ATOM      6  O   UNL     1     -18.304  13.065 -19.226  1.00  0.00    -0.550 OA
ENDBRANCH   3   4
ENDBRANCH   2   3
ENDBRANCH   1   2
BRANCH   1   7
ATOM      7  C   UNL     1     -18.634  14.389 -24.327  1.00  0.00     0.000 C 
BRANCH   7   8
ATOM      8  C   UNL     1     -19.294  12.997 -24.338  1.00  0.00    -0.000 C 
BRANCH   8   9
ATOM      9  C   UNL     1     -20.752  13.005 -24.851  1.00  0.00    -0.000 C 
BRANCH   9  10
ATOM     10  C   UNL     1     -21.793  13.194 -23.734  1.00  0.00    -0.003 C 
ATOM     11  C   UNL     1     -22.359  14.614 -23.696  1.00  0.00     0.004 C 
ENDBRANCH   9  10
ENDBRANCH   8   9
ENDBRANCH   7   8
ENDBRANCH   1   7
TORSDOF 7
ENDMDL
MODEL 5
REMARK VINA RESULT:    -2.521      2.928      3.477
REMARK INTER + INTRA:          -4.133
REMARK INTER:                  -3.374
REMARK INTRA:                  -0.759
REMARK UNBOUND:                -0.581
REMARK SMILES CCCCCCCCC(=O)[O-]
REMARK SMILES IDX 6 1 7 2 8 3 9 4 10 5 11 6 5 7 4 8 3 9 2 10 1 11
REMARK H PARENT
REMARK Flexibility Score: inf
ROOT
ATOM      1  C   UNL     1     -23.901  28.492 -21.853  1.00  0.00     0.000 C 
ENDROOT
BRANCH   1   2
ATOM      2  C   UNL     1     -22.519  29.047 -21.472  1.00  0.00     0.006 C 
BRANCH   2   3
ATOM      3  C   UNL     1     -21.573  27.947 -20.973  1.00  0.00     0.053 C 
BRANCH   3   4
ATOM      4  C   UNL     1     -20.295  28.516 -20.436  1.00  0.00     0.041 C 
ATOM      5  O   UNL     1     -20.211  28.852 -19.225  1.00  0.00    -0.550 OA
ATOM      6  O   UNL     1     -19.186  28.642 -21.263  1.00  0.00    -0.550 OA
ENDBRANCH   3   4
ENDBRANCH   2   3
ENDBRANCH   1   2
BRANCH   1   7
ATOM      7  C   UNL     1     -24.968  28.768 -20.780  1.00  0.00     0.000 C 
BRANCH   7   8
ATOM      8  C   UNL     1     -24.648  29.950 -19.846  1.00  0.00    -0.000 C 
BRANCH   8   9
ATOM      9  C   UNL     1     -24.690  29.584 -18.344  1.00  0.00    -0.000 C 
BRANCH   9  10
ATOM     10  C   UNL     1     -23.313  29.215 -17.765  1.00  0.00    -0.003 C 
ATOM     11  C   UNL     1     -23.142  27.707 -17.580  1.00  0.00     0.004 C 
ENDBRANCH   9  10
ENDBRANCH   8   9
ENDBRANCH   7   8
ENDBRANCH   1   7
TORSDOF 7
ENDMDL
MODEL 6
REMARK VINA RESULT:    -2.521      3.801      5.189
REMARK INTER + INTRA:          -4.132
REMARK INTER:                  -3.479
REMARK INTRA:                  -0.653
REMARK UNBOUND:                -0.581
REMARK SMILES CCCCCCCCC(=O)[O-]
REMARK SMILES IDX 6 1 7 2 8 3 9 4 10 5 11 6 5 7 4 8 3 9 2 10 1 11
REMARK H PARENT
REMARK Flexibility Score: inf
ROOT
ATOM      1  C   UNL     1     -24.356  30.035 -18.509  1.00  0.00     0.000 C 
ENDROOT
BRANCH   1   2
ATOM      2  C   UNL     1     -23.446  29.181 -17.610  1.00  0.00     0.006 C 
BRANCH   2   3
ATOM      3  C   UNL     1     -23.352  27.729 -18.097  1.00  0.00     0.053 C 
BRANCH   3   4
ATOM      4  C   UNL     1     -23.737  26.758 -17.023  1.00  0.00     0.041 C 
ATOM      5  O   UNL     1     -22.870  25.991 -16.523  1.00  0.00    -0.550 OA
ATOM      6  O   UNL     1     -25.041  26.725 -16.547  1.00  0.00    -0.550 OA
ENDBRANCH   3   4
ENDBRANCH   2   3
ENDBRANCH   1   2
BRANCH   1   7
ATOM      7  C   UNL     1     -24.908  29.251 -19.712  1.00  0.00     0.000 C 
BRANCH   7   8
ATOM      8  C   UNL     1     -24.814  29.992 -21.059  1.00  0.00    -0.000 C 
BRANCH   8   9
ATOM      9  C   UNL     1     -23.544  29.645 -21.870  1.00  0.00    -0.000 C 
BRANCH   9  10
ATOM     10  C   UNL     1     -23.358  28.135 -22.100  1.00  0.00    -0.003 C 
ATOM     11  C   UNL     1     -22.003  27.631 -21.602  1.00  0.00     0.004 C 
ENDBRANCH   9  10
ENDBRANCH   8   9
ENDBRANCH   7   8
ENDBRANCH   1   7
TORSDOF 7
ENDMDL
MODEL 7
REMARK VINA RESULT:    -2.515     14.273     15.511
REMARK INTER + INTRA:          -4.125
REMARK INTER:                  -3.327
REMARK INTRA:                  -0.798
REMARK UNBOUND:                -0.581
REMARK SMILES CCCCCCCCC(=O)[O-]
REMARK SMILES IDX 6 1 7 2 8 3 9 4 10 5 11 6 5 7 4 8 3 9 2 10 1 11
REMARK H PARENT
REMARK Flexibility Score: inf
ROOT
ATOM      1  C   UNL     1     -21.578  13.805 -22.797  1.00  0.00     0.000 C 
ENDROOT
BRANCH   1   2
ATOM      2  C   UNL     1     -21.339  14.813 -21.660  1.00  0.00     0.006 C 
BRANCH   2   3
ATOM      3  C   UNL     1     -19.865  15.223 -21.552  1.00  0.00     0.053 C 
BRANCH   3   4
ATOM      4  C   UNL     1     -19.094  14.291 -20.667  1.00  0.00     0.041 C 
ATOM      5  O   UNL     1     -19.614  13.851 -19.606  1.00  0.00    -0.550 OA
ATOM      6  O   UNL     1     -17.819  13.878 -21.031  1.00  0.00    -0.550 OA
ENDBRANCH   3   4
ENDBRANCH   2   3
ENDBRANCH   1   2
BRANCH   1   7
ATOM      7  C   UNL     1     -21.577  14.465 -24.186  1.00  0.00     0.000 C 
BRANCH   7   8
ATOM      8  C   UNL     1     -20.452  13.986 -25.123  1.00  0.00    -0.000 C 
BRANCH   8   9
ATOM      9  C   UNL     1     -19.573  12.868 -24.516  1.00  0.00    -0.000 C 
BRANCH   9  10
ATOM     10  C   UNL     1     -18.085  13.246 -24.415  1.00  0.00    -0.003 C 
ATOM     11  C   UNL     1     -17.819  14.691 -24.836  1.00  0.00     0.004 C 
ENDBRANCH   9  10
ENDBRANCH   8   9
ENDBRANCH   7   8
ENDBRANCH   1   7
TORSDOF 7
ENDMDL
MODEL 8
REMARK VINA RESULT:    -2.493     13.875     15.634
REMARK INTER + INTRA:          -4.093
REMARK INTER:                  -3.382
REMARK INTRA:                  -0.711
REMARK UNBOUND:                -0.581
REMARK SMILES CCCCCCCCC(=O)[O-]
REMARK SMILES IDX 6 1 7 2 8 3 9 4 10 5 11 6 5 7 4 8 3 9 2 10 1 11
REMARK H PARENT
REMARK Flexibility Score: inf
ROOT
ATOM      1  C   UNL     1     -18.449  12.712 -24.382  1.00  0.00     0.000 C 
ENDROOT
BRANCH   1   2
ATOM      2  C   UNL     1     -17.381  13.424 -23.534  1.00  0.00     0.006 C 
BRANCH   2   3
ATOM      3  C   UNL     1     -17.864  14.787 -23.024  1.00  0.00     0.053 C 
BRANCH   3   4
ATOM      4  C   UNL     1     -17.829  14.863 -21.528  1.00  0.00     0.041 C 
ATOM      5  O   UNL     1     -17.524  15.944 -20.956  1.00  0.00    -0.550 OA
ATOM      6  O   UNL     1     -18.170  13.754 -20.765  1.00  0.00    -0.550 OA
ENDBRANCH   3   4
ENDBRANCH   2   3
ENDBRANCH   1   2
BRANCH   1   7
ATOM      7  C   UNL     1     -19.666  13.605 -24.677  1.00  0.00     0.000 C 
BRANCH   7   8
ATOM      8  C   UNL     1     -21.013  12.859 -24.723  1.00  0.00    -0.000 C 
BRANCH   8   9
ATOM      9  C   UNL     1     -22.019  13.327 -23.647  1.00  0.00    -0.000 C 
BRANCH   9  10
ATOM     10  C   UNL     1     -21.349  13.791 -22.342  1.00  0.00    -0.003 C 
ATOM     11  C   UNL     1     -21.639  15.258 -22.025  1.00  0.00     0.004 C 
ENDBRANCH   9  10
ENDBRANCH   8   9
ENDBRANCH   7   8
ENDBRANCH   1   7
TORSDOF 7
ENDMDL
MODEL 9
REMARK VINA RESULT:    -2.470     13.881     15.038
REMARK INTER + INTRA:          -4.061
REMARK INTER:                  -3.545
REMARK INTRA:                  -0.517
REMARK UNBOUND:                -0.581
REMARK SMILES CCCCCCCCC(=O)[O-]
REMARK SMILES IDX 6 1 7 2 8 3 9 4 10 5 11 6 5 7 4 8 3 9 2 10 1 11
REMARK H PARENT
REMARK Flexibility Score: inf
ROOT
ATOM      1  C   UNL     1     -19.941  13.830 -25.049  1.00  0.00     0.000 C 
ENDROOT
BRANCH   1   2
ATOM      2  C   UNL     1     -21.297  13.134 -24.842  1.00  0.00     0.006 C 
BRANCH   2   3
ATOM      3  C   UNL     1     -21.780  13.229 -23.389  1.00  0.00     0.053 C 
BRANCH   3   4
ATOM      4  C   UNL     1     -22.117  14.639 -23.009  1.00  0.00     0.041 C 
ATOM      5  O   UNL     1     -21.373  15.276 -22.216  1.00  0.00    -0.550 OA
ATOM      6  O   UNL     1     -23.230  15.262 -23.557  1.00  0.00    -0.550 OA
ENDBRANCH   3   4
ENDBRANCH   2   3
ENDBRANCH   1   2
BRANCH   1   7
ATOM      7  C   UNL     1     -18.772  13.054 -24.418  1.00  0.00     0.000 C 
BRANCH   7   8
ATOM      8  C   UNL     1     -18.157  13.721 -23.173  1.00  0.00    -0.000 C 
BRANCH   8   9
ATOM      9  C   UNL     1     -18.027  15.257 -23.292  1.00  0.00    -0.000 C 
BRANCH   9  10
ATOM     10  C   UNL     1     -16.898  15.705 -24.235  1.00  0.00    -0.003 C 
ATOM     11  C   UNL     1     -16.203  16.978 -23.752  1.00  0.00     0.004 C 
ENDBRANCH   9  10
ENDBRANCH   8   9
ENDBRANCH   7   8
ENDBRANCH   1   7
TORSDOF 7
ENDMDL
