MODEL 1
REMARK VINA RESULT:    -5.145      0.000      0.000
REMARK INTER + INTRA:         -10.696
REMARK INTER:                  -8.754
REMARK INTRA:                  -1.942
REMARK UNBOUND:                -1.942
REMARK SMILES CCCCCCCCCCCCCC(=O)[O-]
REMARK SMILES IDX 8 1 9 2 10 3 11 4 12 5 13 6 14 7 15 8 16 9 7 10 6 11 5 12
REMARK SMILES IDX 4 13 3 14 2 15 1 16
REMARK H PARENT
REMARK Flexibility Score: inf
ROOT
ATOM      1  C   UNL     1      19.173  -7.095  33.861  1.00  0.00     0.000 C 
ENDROOT
BRANCH   1   2
ATOM      2  C   UNL     1      19.965  -6.172  32.922  1.00  0.00     0.000 C 
BRANCH   2   3
ATOM      3  C   UNL     1      19.479  -4.715  32.978  1.00  0.00     0.000 C 
BRANCH   3   4
ATOM      4  C   UNL     1      20.586  -3.785  33.493  1.00  0.00     0.000 C 
BRANCH   4   5
ATOM      5  C   UNL     1      20.238  -3.122  34.839  1.00  0.00     0.006 C 
BRANCH   5   6
ATOM      6  C   UNL     1      18.994  -2.218  34.787  1.00  0.00     0.053 C 
BRANCH   6   7
ATOM      7  C   UNL     1      19.040  -1.109  35.793  1.00  0.00     0.041 C 
ATOM      8  O   UNL     1      19.906  -0.198  35.697  1.00  0.00    -0.550 OA
ATOM      9  O   UNL     1      18.107  -1.062  36.821  1.00  0.00    -0.550 OA
ENDBRANCH   6   7
ENDBRANCH   5   6
ENDBRANCH   4   5
ENDBRANCH   3   4
ENDBRANCH   2   3
ENDBRANCH   1   2
BRANCH   1  10
ATOM     10  C   UNL     1      19.423  -6.782  35.347  1.00  0.00     0.000 C 
BRANCH  10  11
ATOM     11  C   UNL     1      18.121  -6.691  36.159  1.00  0.00    -0.000 C 
BRANCH  11  12
ATOM     12  C   UNL     1      17.496  -5.287  36.118  1.00  0.00    -0.000 C 
BRANCH  12  13
ATOM     13  C   UNL     1      16.112  -5.321  35.459  1.00  0.00    -0.000 C 
BRANCH  13  14
ATOM     14  C   UNL     1      16.187  -4.853  33.999  1.00  0.00    -0.000 C 
BRANCH  14  15
ATOM     15  C   UNL     1      15.904  -5.986  33.001  1.00  0.00    -0.003 C 
ATOM     16  C   UNL     1      15.468  -7.282  33.684  1.00  0.00     0.004 C 
ENDBRANCH  14  15
ENDBRANCH  13  14
ENDBRANCH  12  13
ENDBRANCH  11  12
ENDBRANCH  10  11
ENDBRANCH   1  10
TORSDOF 12
ENDMDL
MODEL 2
REMARK VINA RESULT:    -5.137      3.765      5.931
REMARK INTER + INTRA:         -10.682
REMARK INTER:                  -8.544
REMARK INTRA:                  -2.139
REMARK UNBOUND:                -1.942
REMARK SMILES CCCCCCCCCCCCCC(=O)[O-]
REMARK SMILES IDX 8 1 9 2 10 3 11 4 12 5 13 6 14 7 15 8 16 9 7 10 6 11 5 12
REMARK SMILES IDX 4 13 3 14 2 15 1 16
REMARK H PARENT
REMARK Flexibility Score: inf
ROOT
ATOM      1  C   UNL     1      17.600  -5.907  36.426  1.00  0.00     0.000 C 
ENDROOT
BRANCH   1   2
ATOM      2  C   UNL     1      16.617  -5.032  35.633  1.00  0.00     0.000 C 
BRANCH   2   3
ATOM      3  C   UNL     1      15.879  -5.818  34.539  1.00  0.00     0.000 C 
BRANCH   3   4
ATOM      4  C   UNL     1      16.210  -5.264  33.146  1.00  0.00     0.000 C 
BRANCH   4   5
ATOM      5  C   UNL     1      16.145  -6.335  32.041  1.00  0.00     0.006 C 
BRANCH   5   6
ATOM      6  C   UNL     1      16.253  -7.779  32.562  1.00  0.00     0.053 C 
BRANCH   6   7
ATOM      7  C   UNL     1      16.499  -8.774  31.468  1.00  0.00     0.041 C 
ATOM      8  O   UNL     1      17.559  -9.454  31.455  1.00  0.00    -0.550 OA
ATOM      9  O   UNL     1      15.543  -8.973  30.480  1.00  0.00    -0.550 OA
ENDBRANCH   6   7
ENDBRANCH   5   6
ENDBRANCH   4   5
ENDBRANCH   3   4
ENDBRANCH   2   3
ENDBRANCH   1   2
BRANCH   1  10
ATOM     10  C   UNL     1      18.309  -6.950  35.543  1.00  0.00     0.000 C 
BRANCH  10  11
ATOM     11  C   UNL     1      19.606  -6.412  34.919  1.00  0.00    -0.000 C 
BRANCH  11  12
ATOM     12  C   UNL     1      19.620  -6.536  33.387  1.00  0.00    -0.000 C 
BRANCH  12  13
ATOM     13  C   UNL     1      19.775  -5.160  32.726  1.00  0.00    -0.000 C 
BRANCH  13  14
ATOM     14  C   UNL     1      20.043  -4.073  33.777  1.00  0.00    -0.000 C 
BRANCH  14  15
ATOM     15  C   UNL     1      18.970  -2.974  33.776  1.00  0.00    -0.003 C 
ATOM     16  C   UNL     1      18.901  -2.211  35.099  1.00  0.00     0.004 C 
ENDBRANCH  14  15
ENDBRANCH  13  14
ENDBRANCH  12  13
ENDBRANCH  11  12
ENDBRANCH  10  11
ENDBRANCH   1  10
TORSDOF 12
ENDMDL
MODEL 3
REMARK VINA RESULT:    -5.039     18.857     20.136
REMARK INTER + INTRA:         -10.516
REMARK INTER:                  -8.444
REMARK INTRA:                  -2.072
REMARK UNBOUND:                -1.942
REMARK SMILES CCCCCCCCCCCCCC(=O)[O-]
REMARK SMILES IDX 8 1 9 2 10 3 11 4 12 5 13 6 14 7 15 8 16 9 7 10 6 11 5 12
REMARK SMILES IDX 4 13 3 14 2 15 1 16
REMARK H PARENT
REMARK Flexibility Score: inf
ROOT
ATOM      1  C   UNL     1      10.472   3.332  19.721  1.00  0.00     0.000 C 
ENDROOT
BRANCH   1   2
ATOM      2  C   UNL     1      10.653   4.383  20.828  1.00  0.00     0.000 C 
BRANCH   2   3
ATOM      3  C   UNL     1       9.413   5.272  21.004  1.00  0.00     0.000 C 
BRANCH   3   4
ATOM      4  C   UNL     1       9.813   6.702  21.394  1.00  0.00     0.000 C 
BRANCH   4   5
ATOM      5  C   UNL     1      11.334   6.938  21.341  1.00  0.00     0.006 C 
BRANCH   5   6
ATOM      6  C   UNL     1      11.734   8.422  21.267  1.00  0.00     0.053 C 
BRANCH   6   7
ATOM      7  C   UNL     1      13.219   8.621  21.211  1.00  0.00     0.041 C 
ATOM      8  O   UNL     1      13.887   8.725  22.275  1.00  0.00    -0.550 OA
ATOM      9  O   UNL     1      13.870   8.660  19.985  1.00  0.00    -0.550 OA
ENDBRANCH   6   7
ENDBRANCH   5   6
ENDBRANCH   4   5
ENDBRANCH   3   4
ENDBRANCH   2   3
ENDBRANCH   1   2
BRANCH   1  10
ATOM     10  C   UNL     1      11.163   3.734  18.405  1.00  0.00     0.000 C 
BRANCH  10  11
ATOM     11  C   UNL     1      12.438   4.561  18.636  1.00  0.00    -0.000 C 
BRANCH  11  12
ATOM     12  C   UNL     1      12.258   6.040  18.260  1.00  0.00    -0.000 C 
BRANCH  12  13
ATOM     13  C   UNL     1      10.991   6.244  17.422  1.00  0.00    -0.000 C 
BRANCH  13  14
ATOM     14  C   UNL     1      10.319   7.583  17.757  1.00  0.00    -0.000 C 
BRANCH  14  15
ATOM     15  C   UNL     1       8.785   7.501  17.717  1.00  0.00    -0.003 C 
ATOM     16  C   UNL     1       8.270   6.062  17.676  1.00  0.00     0.004 C 
ENDBRANCH  14  15
ENDBRANCH  13  14
ENDBRANCH  12  13
ENDBRANCH  11  12
ENDBRANCH  10  11
ENDBRANCH   1  10
TORSDOF 12
ENDMDL
MODEL 4
REMARK VINA RESULT:    -5.030      3.817      5.833
REMARK INTER + INTRA:         -10.501
REMARK INTER:                  -8.575
REMARK INTRA:                  -1.925
REMARK UNBOUND:                -1.942
REMARK SMILES CCCCCCCCCCCCCC(=O)[O-]
REMARK SMILES IDX 8 1 9 2 10 3 11 4 12 5 13 6 14 7 15 8 16 9 7 10 6 11 5 12
REMARK SMILES IDX 4 13 3 14 2 15 1 16
REMARK H PARENT
REMARK Flexibility Score: inf
ROOT
ATOM      1  C   UNL     1      17.668  -3.457  34.144  1.00  0.00     0.000 C 
ENDROOT
BRANCH   1   2
ATOM      2  C   UNL     1      16.588  -4.442  33.668  1.00  0.00     0.000 C 
BRANCH   2   3
ATOM      3  C   UNL     1      16.730  -4.798  32.180  1.00  0.00     0.000 C 
BRANCH   3   4
ATOM      4  C   UNL     1      16.158  -6.193  31.891  1.00  0.00     0.000 C 
BRANCH   4   5
ATOM      5  C   UNL     1      15.852  -6.995  33.170  1.00  0.00     0.006 C 
BRANCH   5   6
ATOM      6  C   UNL     1      15.606  -8.494  32.924  1.00  0.00     0.053 C 
BRANCH   6   7
ATOM      7  C   UNL     1      16.173  -8.970  31.621  1.00  0.00     0.041 C 
ATOM      8  O   UNL     1      17.380  -9.327  31.546  1.00  0.00    -0.550 OA
ATOM      9  O   UNL     1      15.363  -9.050  30.496  1.00  0.00    -0.550 OA
ENDBRANCH   6   7
ENDBRANCH   5   6
ENDBRANCH   4   5
ENDBRANCH   3   4
ENDBRANCH   2   3
ENDBRANCH   1   2
BRANCH   1  10
ATOM     10  C   UNL     1      18.116  -3.726  35.591  1.00  0.00     0.000 C 
BRANCH  10  11
ATOM     11  C   UNL     1      17.456  -4.977  36.192  1.00  0.00    -0.000 C 
BRANCH  11  12
ATOM     12  C   UNL     1      18.481  -5.962  36.777  1.00  0.00    -0.000 C 
BRANCH  12  13
ATOM     13  C   UNL     1      19.503  -6.386  35.716  1.00  0.00    -0.000 C 
BRANCH  13  14
ATOM     14  C   UNL     1      18.886  -7.384  34.725  1.00  0.00    -0.000 C 
BRANCH  14  15
ATOM     15  C   UNL     1      19.420  -7.205  33.297  1.00  0.00    -0.003 C 
ATOM     16  C   UNL     1      20.049  -5.831  33.068  1.00  0.00     0.004 C 
ENDBRANCH  14  15
ENDBRANCH  13  14
ENDBRANCH  12  13
ENDBRANCH  11  12
ENDBRANCH  10  11
ENDBRANCH   1  10
TORSDOF 12
ENDMDL
MODEL 5
REMARK VINA RESULT:    -5.010      1.542      3.024
REMARK INTER + INTRA:         -10.467
REMARK INTER:                  -8.636
REMARK INTRA:                  -1.831
REMARK UNBOUND:                -1.942
REMARK SMILES CCCCCCCCCCCCCC(=O)[O-]
REMARK SMILES IDX 8 1 9 2 10 3 11 4 12 5 13 6 14 7 15 8 16 9 7 10 6 11 5 12
REMARK SMILES IDX 4 13 3 14 2 15 1 16
REMARK H PARENT
REMARK Flexibility Score: inf
ROOT
ATOM      1  C   UNL     1      18.327  -6.455  36.589  1.00  0.00     0.000 C 
ENDROOT
BRANCH   1   2
ATOM      2  C   UNL     1      19.517  -6.718  35.652  1.00  0.00     0.000 C 
BRANCH   2   3
ATOM      3  C   UNL     1      19.196  -7.762  34.572  1.00  0.00     0.000 C 
BRANCH   3   4
ATOM      4  C   UNL     1      19.087  -7.105  33.188  1.00  0.00     0.000 C 
BRANCH   4   5
ATOM      5  C   UNL     1      20.113  -5.977  32.974  1.00  0.00     0.006 C 
BRANCH   5   6
ATOM      6  C   UNL     1      19.499  -4.567  32.959  1.00  0.00     0.053 C 
BRANCH   6   7
ATOM      7  C   UNL     1      20.329  -3.563  33.701  1.00  0.00     0.041 C 
ATOM      8  O   UNL     1      21.498  -3.295  33.314  1.00  0.00    -0.550 OA
ATOM      9  O   UNL     1      19.802  -2.901  34.802  1.00  0.00    -0.550 OA
ENDBRANCH   6   7
ENDBRANCH   5   6
ENDBRANCH   4   5
ENDBRANCH   3   4
ENDBRANCH   2   3
ENDBRANCH   1   2
BRANCH   1  10
ATOM     10  C   UNL     1      17.574  -5.160  36.239  1.00  0.00     0.000 C 
BRANCH  10  11
ATOM     11  C   UNL     1      16.216  -5.429  35.569  1.00  0.00    -0.000 C 
BRANCH  11  12
ATOM     12  C   UNL     1      16.156  -4.904  34.126  1.00  0.00    -0.000 C 
BRANCH  12  13
ATOM     13  C   UNL     1      15.937  -6.052  33.133  1.00  0.00    -0.000 C 
BRANCH  13  14
ATOM     14  C   UNL     1      15.414  -7.306  33.848  1.00  0.00    -0.000 C 
BRANCH  14  15
ATOM     15  C   UNL     1      15.606  -8.583  33.017  1.00  0.00    -0.003 C 
ATOM     16  C   UNL     1      16.172  -8.304  31.625  1.00  0.00     0.004 C 
ENDBRANCH  14  15
ENDBRANCH  13  14
ENDBRANCH  12  13
ENDBRANCH  11  12
ENDBRANCH  10  11
ENDBRANCH   1  10
TORSDOF 12
ENDMDL
MODEL 6
REMARK VINA RESULT:    -5.010      0.977      2.156
REMARK INTER + INTRA:         -10.466
REMARK INTER:                  -8.449
REMARK INTRA:                  -2.017
REMARK UNBOUND:                -1.942
REMARK SMILES CCCCCCCCCCCCCC(=O)[O-]
REMARK SMILES IDX 8 1 9 2 10 3 11 4 12 5 13 6 14 7 15 8 16 9 7 10 6 11 5 12
REMARK SMILES IDX 4 13 3 14 2 15 1 16
REMARK H PARENT
REMARK Flexibility Score: inf
ROOT
ATOM      1  C   UNL     1      18.858  -7.559  34.204  1.00  0.00     0.000 C 
ENDROOT
BRANCH   1   2
ATOM      2  C   UNL     1      19.585  -6.226  34.440  1.00  0.00     0.000 C 
BRANCH   2   3
ATOM      3  C   UNL     1      20.126  -5.611  33.141  1.00  0.00     0.000 C 
BRANCH   3   4
ATOM      4  C   UNL     1      19.969  -4.084  33.148  1.00  0.00     0.000 C 
BRANCH   4   5
ATOM      5  C   UNL     1      19.802  -3.502  34.564  1.00  0.00     0.006 C 
BRANCH   5   6
ATOM      6  C   UNL     1      18.855  -2.291  34.636  1.00  0.00     0.053 C 
BRANCH   6   7
ATOM      7  C   UNL     1      19.244  -1.311  35.701  1.00  0.00     0.041 C 
ATOM      8  O   UNL     1      20.408  -0.830  35.726  1.00  0.00    -0.550 OA
ATOM      9  O   UNL     1      18.312  -0.906  36.648  1.00  0.00    -0.550 OA
ENDBRANCH   6   7
ENDBRANCH   5   6
ENDBRANCH   4   5
ENDBRANCH   3   4
ENDBRANCH   2   3
ENDBRANCH   1   2
BRANCH   1  10
ATOM     10  C   UNL     1      18.594  -7.832  32.712  1.00  0.00     0.000 C 
BRANCH  10  11
ATOM     11  C   UNL     1      17.140  -8.248  32.436  1.00  0.00    -0.000 C 
BRANCH  11  12
ATOM     12  C   UNL     1      16.129  -7.164  32.840  1.00  0.00    -0.000 C 
BRANCH  12  13
ATOM     13  C   UNL     1      16.510  -5.806  32.239  1.00  0.00    -0.000 C 
BRANCH  13  14
ATOM     14  C   UNL     1      16.441  -4.696  33.298  1.00  0.00    -0.000 C 
BRANCH  14  15
ATOM     15  C   UNL     1      15.759  -5.160  34.595  1.00  0.00    -0.003 C 
ATOM     16  C   UNL     1      16.608  -4.894  35.838  1.00  0.00     0.004 C 
ENDBRANCH  14  15
ENDBRANCH  13  14
ENDBRANCH  12  13
ENDBRANCH  11  12
ENDBRANCH  10  11
ENDBRANCH   1  10
TORSDOF 12
ENDMDL
MODEL 7
REMARK VINA RESULT:    -4.965      1.235      2.675
REMARK INTER + INTRA:         -10.390
REMARK INTER:                  -8.388
REMARK INTRA:                  -2.002
REMARK UNBOUND:                -1.942
REMARK SMILES CCCCCCCCCCCCCC(=O)[O-]
REMARK SMILES IDX 8 1 9 2 10 3 11 4 12 5 13 6 14 7 15 8 16 9 7 10 6 11 5 12
REMARK SMILES IDX 4 13 3 14 2 15 1 16
REMARK H PARENT
REMARK Flexibility Score: inf
ROOT
ATOM      1  C   UNL     1      16.239  -5.340  33.350  1.00  0.00     0.000 C 
ENDROOT
BRANCH   1   2
ATOM      2  C   UNL     1      17.146  -4.380  32.565  1.00  0.00     0.000 C 
BRANCH   2   3
ATOM      3  C   UNL     1      17.757  -3.286  33.455  1.00  0.00     0.000 C 
BRANCH   3   4
ATOM      4  C   UNL     1      19.267  -3.500  33.631  1.00  0.00     0.000 C 
BRANCH   4   5
ATOM      5  C   UNL     1      19.826  -2.830  34.900  1.00  0.00     0.006 C 
BRANCH   5   6
ATOM      6  C   UNL     1      18.818  -1.922  35.624  1.00  0.00     0.053 C 
BRANCH   6   7
ATOM      7  C   UNL     1      19.291  -0.505  35.740  1.00  0.00     0.041 C 
ATOM      8  O   UNL     1      18.712   0.413  35.100  1.00  0.00    -0.550 OA
ATOM      9  O   UNL     1      20.354  -0.192  36.578  1.00  0.00    -0.550 OA
ENDBRANCH   6   7
ENDBRANCH   5   6
ENDBRANCH   4   5
ENDBRANCH   3   4
ENDBRANCH   2   3
ENDBRANCH   1   2
BRANCH   1  10
ATOM     10  C   UNL     1      15.990  -4.871  34.794  1.00  0.00     0.000 C 
BRANCH  10  11
ATOM     11  C   UNL     1      16.550  -5.849  35.839  1.00  0.00    -0.000 C 
BRANCH  11  12
ATOM     12  C   UNL     1      17.756  -5.274  36.598  1.00  0.00    -0.000 C 
BRANCH  12  13
ATOM     13  C   UNL     1      18.821  -6.352  36.836  1.00  0.00    -0.000 C 
BRANCH  13  14
ATOM     14  C   UNL     1      18.741  -7.449  35.764  1.00  0.00    -0.000 C 
BRANCH  14  15
ATOM     15  C   UNL     1      19.524  -7.091  34.492  1.00  0.00    -0.003 C 
ATOM     16  C   UNL     1      18.895  -7.670  33.226  1.00  0.00     0.004 C 
ENDBRANCH  14  15
ENDBRANCH  13  14
ENDBRANCH  12  13
ENDBRANCH  11  12
ENDBRANCH  10  11
ENDBRANCH   1  10
TORSDOF 12
ENDMDL
MODEL 8
REMARK VINA RESULT:    -4.948      3.302      5.432
REMARK INTER + INTRA:         -10.362
REMARK INTER:                  -8.254
REMARK INTRA:                  -2.108
REMARK UNBOUND:                -1.942
REMARK SMILES CCCCCCCCCCCCCC(=O)[O-]
REMARK SMILES IDX 8 1 9 2 10 3 11 4 12 5 13 6 14 7 15 8 16 9 7 10 6 11 5 12
REMARK SMILES IDX 4 13 3 14 2 15 1 16
REMARK H PARENT
REMARK Flexibility Score: inf
ROOT
ATOM      1  C   UNL     1      18.365  -5.719  36.749  1.00  0.00     0.000 C 
ENDROOT
BRANCH   1   2
ATOM      2  C   UNL     1      19.489  -6.425  35.973  1.00  0.00     0.000 C 
BRANCH   2   3
ATOM      3  C   UNL     1      18.965  -7.558  35.077  1.00  0.00     0.000 C 
BRANCH   3   4
ATOM      4  C   UNL     1      19.232  -7.255  33.596  1.00  0.00     0.000 C 
BRANCH   4   5
ATOM      5  C   UNL     1      18.326  -8.059  32.644  1.00  0.00     0.006 C 
BRANCH   5   6
ATOM      6  C   UNL     1      16.957  -7.407  32.385  1.00  0.00     0.053 C 
BRANCH   6   7
ATOM      7  C   UNL     1      15.816  -8.225  32.910  1.00  0.00     0.041 C 
ATOM      8  O   UNL     1      15.480  -9.292  32.331  1.00  0.00    -0.550 OA
ATOM      9  O   UNL     1      15.142  -7.824  34.057  1.00  0.00    -0.550 OA
ENDBRANCH   6   7
ENDBRANCH   5   6
ENDBRANCH   4   5
ENDBRANCH   3   4
ENDBRANCH   2   3
ENDBRANCH   1   2
BRANCH   1  10
ATOM     10  C   UNL     1      17.016  -5.767  36.009  1.00  0.00     0.000 C 
BRANCH  10  11
ATOM     11  C   UNL     1      16.607  -4.400  35.437  1.00  0.00    -0.000 C 
BRANCH  11  12
ATOM     12  C   UNL     1      16.647  -4.368  33.900  1.00  0.00    -0.000 C 
BRANCH  12  13
ATOM     13  C   UNL     1      17.924  -3.685  33.398  1.00  0.00    -0.000 C 
BRANCH  13  14
ATOM     14  C   UNL     1      18.509  -2.755  34.471  1.00  0.00    -0.000 C 
BRANCH  14  15
ATOM     15  C   UNL     1      20.025  -2.935  34.645  1.00  0.00    -0.003 C 
ATOM     16  C   UNL     1      20.650  -3.791  33.544  1.00  0.00     0.004 C 
ENDBRANCH  14  15
ENDBRANCH  13  14
ENDBRANCH  12  13
ENDBRANCH  11  12
ENDBRANCH  10  11
ENDBRANCH   1  10
TORSDOF 12
ENDMDL
MODEL 9
REMARK VINA RESULT:    -4.912      3.791      5.639
REMARK INTER + INTRA:         -10.300
REMARK INTER:                  -8.379
REMARK INTRA:                  -1.921
REMARK UNBOUND:                -1.942
REMARK SMILES CCCCCCCCCCCCCC(=O)[O-]
REMARK SMILES IDX 8 1 9 2 10 3 11 4 12 5 13 6 14 7 15 8 16 9 7 10 6 11 5 12
REMARK SMILES IDX 4 13 3 14 2 15 1 16
REMARK H PARENT
REMARK Flexibility Score: inf
ROOT
ATOM      1  C   UNL     1      20.031  -4.852  32.765  1.00  0.00     0.000 C 
ENDROOT
BRANCH   1   2
ATOM      2  C   UNL     1      18.854  -5.832  32.889  1.00  0.00     0.000 C 
BRANCH   2   3
ATOM      3  C   UNL     1      17.562  -5.286  32.263  1.00  0.00     0.000 C 
BRANCH   3   4
ATOM      4  C   UNL     1      16.324  -5.885  32.945  1.00  0.00     0.000 C 
BRANCH   4   5
ATOM      5  C   UNL     1      16.576  -7.289  33.526  1.00  0.00     0.006 C 
BRANCH   5   6
ATOM      6  C   UNL     1      15.718  -8.394  32.887  1.00  0.00     0.053 C 
BRANCH   6   7
ATOM      7  C   UNL     1      16.279  -8.888  31.588  1.00  0.00     0.041 C 
ATOM      8  O   UNL     1      15.569  -8.884  30.547  1.00  0.00    -0.550 OA
ATOM      9  O   UNL     1      17.596  -9.323  31.519  1.00  0.00    -0.550 OA
ENDBRANCH   6   7
ENDBRANCH   5   6
ENDBRANCH   4   5
ENDBRANCH   3   4
ENDBRANCH   2   3
ENDBRANCH   1   2
BRANCH   1  10
ATOM     10  C   UNL     1      19.921  -3.669  33.743  1.00  0.00     0.000 C 
BRANCH  10  11
ATOM     11  C   UNL     1      19.543  -4.113  35.166  1.00  0.00    -0.000 C 
BRANCH  11  12
ATOM     12  C   UNL     1      18.130  -3.662  35.568  1.00  0.00    -0.000 C 
BRANCH  12  13
ATOM     13  C   UNL     1      17.410  -4.757  36.365  1.00  0.00    -0.000 C 
BRANCH  13  14
ATOM     14  C   UNL     1      18.416  -5.649  37.107  1.00  0.00    -0.000 C 
BRANCH  14  15
ATOM     15  C   UNL     1      18.194  -7.143  36.834  1.00  0.00    -0.003 C 
ATOM     16  C   UNL     1      19.290  -7.755  35.961  1.00  0.00     0.004 C 
ENDBRANCH  14  15
ENDBRANCH  13  14
ENDBRANCH  12  13
ENDBRANCH  11  12
ENDBRANCH  10  11
ENDBRANCH   1  10
TORSDOF 12
ENDMDL
