MODEL 1
REMARK VINA RESULT:    -5.189      0.000      0.000
REMARK INTER + INTRA:          -6.401
REMARK INTER:                  -6.099
REMARK INTRA:                  -0.302
REMARK UNBOUND:                -0.302
REMARK SMILES O=c1cc(-c2ccc(O)c(O)c2)oc2cc(O)cc(O)c12
REMARK SMILES IDX 4 1 3 2 2 3 1 4 21 5 19 6 18 7 16 8 15 9 14 10 13 11 5 12
REMARK SMILES IDX 6 13 7 14 8 15 12 16 10 17 9 18 11 20 20 22 17 24
REMARK H PARENT 9 19 11 21 20 23 17 25
REMARK Flexibility Score: inf
ROOT
ATOM      1  C   UNL     1     -22.390  23.508  13.995  1.00  0.00     0.138 A 
ATOM      2  C   UNL     1     -23.441  23.282  14.894  1.00  0.00     0.100 A 
ATOM      3  C   UNL     1     -23.170  23.167  16.258  1.00  0.00     0.197 A 
ATOM      4  O   UNL     1     -24.125  22.903  17.033  1.00  0.00    -0.289 OA
ATOM      5  C   UNL     1     -21.842  23.312  16.726  1.00  0.00     0.107 A 
ATOM      6  C   UNL     1     -21.453  23.255  18.097  1.00  0.00     0.134 A 
ATOM      7  C   UNL     1     -20.094  23.295  18.431  1.00  0.00     0.093 A 
ATOM      8  C   UNL     1     -19.114  23.451  17.447  1.00  0.00     0.123 A 
ATOM      9  C   UNL     1     -19.487  23.562  16.110  1.00  0.00     0.094 A 
ATOM     10  C   UNL     1     -20.833  23.490  15.742  1.00  0.00     0.146 A 
ATOM     11  O   UNL     1     -21.145  23.585  14.454  1.00  0.00    -0.456 OA
ENDROOT
BRANCH   1  12
ATOM     12  C   UNL     1     -22.623  23.639  12.534  1.00  0.00     0.021 A 
ATOM     13  C   UNL     1     -23.632  22.875  11.924  1.00  0.00     0.016 A 
ATOM     14  C   UNL     1     -23.865  22.975  10.550  1.00  0.00     0.051 A 
ATOM     15  C   UNL     1     -23.092  23.830   9.761  1.00  0.00     0.157 A 
ATOM     16  C   UNL     1     -21.837  24.490  11.733  1.00  0.00     0.062 A 
ATOM     17  C   UNL     1     -22.070  24.590  10.353  1.00  0.00     0.158 A 
BRANCH  15  18
ATOM     18  O   UNL     1     -23.351  23.910   8.393  1.00  0.00    -0.504 OA
ATOM     19  H   UNL     1     -24.025  24.563   8.011  1.00  0.00     0.293 HD
ENDBRANCH  15  18
BRANCH  17  20
ATOM     20  O   UNL     1     -21.287  25.437   9.570  1.00  0.00    -0.504 OA
ATOM     21  H   UNL     1     -21.309  26.443   9.690  1.00  0.00     0.293 HD
ENDBRANCH  17  20
ENDBRANCH   1  12
BRANCH   6  22
ATOM     22  O   UNL     1     -22.355  23.185  19.163  1.00  0.00    -0.507 OA
ATOM     23  H   UNL     1     -22.255  22.583  19.965  1.00  0.00     0.293 HD
ENDBRANCH   6  22
BRANCH   8  24
ATOM     24  O   UNL     1     -17.764  23.506  17.790  1.00  0.00    -0.508 OA
ATOM     25  H   UNL     1     -17.054  23.747  17.108  1.00  0.00     0.293 HD
ENDBRANCH   8  24
TORSDOF 5
ENDMDL
MODEL 2
REMARK VINA RESULT:    -4.751      9.274     11.802
REMARK INTER + INTRA:          -5.886
REMARK INTER:                  -5.568
REMARK INTRA:                  -0.318
REMARK UNBOUND:                -0.302
REMARK SMILES O=c1cc(-c2ccc(O)c(O)c2)oc2cc(O)cc(O)c12
REMARK SMILES IDX 4 1 3 2 2 3 1 4 21 5 19 6 18 7 16 8 15 9 14 10 13 11 5 12
REMARK SMILES IDX 6 13 7 14 8 15 12 16 10 17 9 18 11 20 20 22 17 24
REMARK H PARENT 9 19 11 21 20 23 17 25
REMARK Flexibility Score: inf
ROOT
ATOM      1  C   UNL     1     -20.674  31.720  22.108  1.00  0.00     0.138 A 
ATOM      2  C   UNL     1     -19.729  31.482  23.115  1.00  0.00     0.100 A 
ATOM      3  C   UNL     1     -19.054  30.261  23.154  1.00  0.00     0.197 A 
ATOM      4  O   UNL     1     -18.257  30.053  24.105  1.00  0.00    -0.289 OA
ATOM      5  C   UNL     1     -19.305  29.287  22.159  1.00  0.00     0.107 A 
ATOM      6  C   UNL     1     -18.648  28.023  22.074  1.00  0.00     0.134 A 
ATOM      7  C   UNL     1     -19.063  27.092  21.114  1.00  0.00     0.093 A 
ATOM      8  C   UNL     1     -20.070  27.403  20.197  1.00  0.00     0.123 A 
ATOM      9  C   UNL     1     -20.681  28.654  20.237  1.00  0.00     0.094 A 
ATOM     10  C   UNL     1     -20.313  29.591  21.206  1.00  0.00     0.146 A 
ATOM     11  O   UNL     1     -20.932  30.768  21.218  1.00  0.00    -0.456 OA
ENDROOT
BRANCH   1  12
ATOM     12  C   UNL     1     -21.419  33.001  22.019  1.00  0.00     0.021 A 
ATOM     13  C   UNL     1     -21.135  34.031  22.932  1.00  0.00     0.016 A 
ATOM     14  C   UNL     1     -21.827  35.243  22.874  1.00  0.00     0.051 A 
ATOM     15  C   UNL     1     -22.820  35.445  21.913  1.00  0.00     0.157 A 
ATOM     16  C   UNL     1     -22.430  33.205  21.060  1.00  0.00     0.062 A 
ATOM     17  C   UNL     1     -23.127  34.421  21.002  1.00  0.00     0.158 A 
BRANCH  15  18
ATOM     18  O   UNL     1     -23.492  36.667  21.878  1.00  0.00    -0.504 OA
ATOM     19  H   UNL     1     -22.998  37.552  21.867  1.00  0.00     0.293 HD
ENDBRANCH  15  18
BRANCH  17  20
ATOM     20  O   UNL     1     -24.125  34.612  20.047  1.00  0.00    -0.504 OA
ATOM     21  H   UNL     1     -24.344  35.533  19.684  1.00  0.00     0.293 HD
ENDBRANCH  17  20
ENDBRANCH   1  12
BRANCH   6  22
ATOM     22  O   UNL     1     -17.573  27.646  22.886  1.00  0.00    -0.507 OA
ATOM     23  H   UNL     1     -16.614  27.914  22.733  1.00  0.00     0.293 HD
ENDBRANCH   6  22
BRANCH   8  24
ATOM     24  O   UNL     1     -20.466  26.476  19.235  1.00  0.00    -0.508 OA
ATOM     25  H   UNL     1     -20.991  25.645  19.484  1.00  0.00     0.293 HD
ENDBRANCH   8  24
TORSDOF 5
ENDMDL
MODEL 3
REMARK VINA RESULT:    -4.606      7.733     10.992
REMARK INTER + INTRA:          -5.716
REMARK INTER:                  -5.399
REMARK INTRA:                  -0.317
REMARK UNBOUND:                -0.302
REMARK SMILES O=c1cc(-c2ccc(O)c(O)c2)oc2cc(O)cc(O)c12
REMARK SMILES IDX 4 1 3 2 2 3 1 4 21 5 19 6 18 7 16 8 15 9 14 10 13 11 5 12
REMARK SMILES IDX 6 13 7 14 8 15 12 16 10 17 9 18 11 20 20 22 17 24
REMARK H PARENT 9 19 11 21 20 23 17 25
REMARK Flexibility Score: inf
ROOT
ATOM      1  C   UNL     1     -19.685  29.777  22.111  1.00  0.00     0.138 A 
ATOM      2  C   UNL     1     -18.655  29.318  22.944  1.00  0.00     0.100 A 
ATOM      3  C   UNL     1     -18.158  28.025  22.779  1.00  0.00     0.197 A 
ATOM      4  O   UNL     1     -17.277  27.621  23.582  1.00  0.00    -0.289 OA
ATOM      5  C   UNL     1     -18.673  27.199  21.753  1.00  0.00     0.107 A 
ATOM      6  C   UNL     1     -18.215  25.879  21.465  1.00  0.00     0.134 A 
ATOM      7  C   UNL     1     -18.881  25.112  20.501  1.00  0.00     0.093 A 
ATOM      8  C   UNL     1     -19.949  25.640  19.771  1.00  0.00     0.123 A 
ATOM      9  C   UNL     1     -20.370  26.947  20.007  1.00  0.00     0.094 A 
ATOM     10  C   UNL     1     -19.748  27.725  20.988  1.00  0.00     0.146 A 
ATOM     11  O   UNL     1     -20.190  28.962  21.191  1.00  0.00    -0.456 OA
ENDROOT
BRANCH   1  12
ATOM     12  C   UNL     1     -20.250  31.144  22.243  1.00  0.00     0.021 A 
ATOM     13  C   UNL     1     -19.639  32.063  23.112  1.00  0.00     0.016 A 
ATOM     14  C   UNL     1     -20.156  33.353  23.259  1.00  0.00     0.051 A 
ATOM     15  C   UNL     1     -21.294  33.744  22.550  1.00  0.00     0.157 A 
ATOM     16  C   UNL     1     -21.405  31.538  21.540  1.00  0.00     0.062 A 
ATOM     17  C   UNL     1     -21.925  32.833  21.687  1.00  0.00     0.158 A 
BRANCH  15  18
ATOM     18  O   UNL     1     -21.785  35.039  22.715  1.00  0.00    -0.504 OA
ATOM     19  H   UNL     1     -22.718  35.220  23.066  1.00  0.00     0.293 HD
ENDBRANCH  15  18
BRANCH  17  20
ATOM     20  O   UNL     1     -23.068  33.213  20.985  1.00  0.00    -0.504 OA
ATOM     21  H   UNL     1     -23.847  32.578  20.855  1.00  0.00     0.293 HD
ENDBRANCH  17  20
ENDBRANCH   1  12
BRANCH   6  22
ATOM     22  O   UNL     1     -17.104  25.287  22.075  1.00  0.00    -0.507 OA
ATOM     23  H   UNL     1     -16.870  24.309  22.019  1.00  0.00     0.293 HD
ENDBRANCH   6  22
BRANCH   8  24
ATOM     24  O   UNL     1     -20.596  24.875  18.803  1.00  0.00    -0.508 OA
ATOM     25  H   UNL     1     -21.408  25.225  18.307  1.00  0.00     0.293 HD
ENDBRANCH   8  24
TORSDOF 5
ENDMDL
MODEL 4
REMARK VINA RESULT:    -4.574      9.385     12.113
REMARK INTER + INTRA:          -5.678
REMARK INTER:                  -5.376
REMARK INTRA:                  -0.302
REMARK UNBOUND:                -0.302
REMARK SMILES O=c1cc(-c2ccc(O)c(O)c2)oc2cc(O)cc(O)c12
REMARK SMILES IDX 4 1 3 2 2 3 1 4 21 5 19 6 18 7 16 8 15 9 14 10 13 11 5 12
REMARK SMILES IDX 6 13 7 14 8 15 12 16 10 17 9 18 11 20 20 22 17 24
REMARK H PARENT 9 19 11 21 20 23 17 25
REMARK Flexibility Score: inf
ROOT
ATOM      1  C   UNL     1     -20.848  31.700  22.095  1.00  0.00     0.138 A 
ATOM      2  C   UNL     1     -19.752  31.052  22.683  1.00  0.00     0.100 A 
ATOM      3  C   UNL     1     -19.464  29.731  22.338  1.00  0.00     0.197 A 
ATOM      4  O   UNL     1     -18.513  29.158  22.927  1.00  0.00    -0.289 OA
ATOM      5  C   UNL     1     -20.260  29.067  21.375  1.00  0.00     0.107 A 
ATOM      6  C   UNL     1     -20.037  27.734  20.916  1.00  0.00     0.134 A 
ATOM      7  C   UNL     1     -20.959  27.140  20.046  1.00  0.00     0.093 A 
ATOM      8  C   UNL     1     -22.065  27.852  19.572  1.00  0.00     0.123 A 
ATOM      9  C   UNL     1     -22.263  29.171  19.973  1.00  0.00     0.094 A 
ATOM     10  C   UNL     1     -21.379  29.779  20.867  1.00  0.00     0.146 A 
ATOM     11  O   UNL     1     -21.612  31.035  21.235  1.00  0.00    -0.456 OA
ENDROOT
BRANCH   1  12
ATOM     12  C   UNL     1     -21.198  33.105  22.425  1.00  0.00     0.021 A 
ATOM     13  C   UNL     1     -20.995  33.578  23.733  1.00  0.00     0.016 A 
ATOM     14  C   UNL     1     -21.324  34.893  24.070  1.00  0.00     0.051 A 
ATOM     15  C   UNL     1     -21.868  35.755  23.114  1.00  0.00     0.157 A 
ATOM     16  C   UNL     1     -21.758  33.972  21.468  1.00  0.00     0.062 A 
ATOM     17  C   UNL     1     -22.089  35.293  21.807  1.00  0.00     0.158 A 
BRANCH  15  18
ATOM     18  O   UNL     1     -22.182  37.063  23.481  1.00  0.00    -0.504 OA
ATOM     19  H   UNL     1     -22.321  37.332  24.448  1.00  0.00     0.293 HD
ENDBRANCH  15  18
BRANCH  17  20
ATOM     20  O   UNL     1     -22.643  36.144  20.850  1.00  0.00    -0.504 OA
ATOM     21  H   UNL     1     -23.641  36.315  20.805  1.00  0.00     0.293 HD
ENDBRANCH  17  20
ENDBRANCH   1  12
BRANCH   6  22
ATOM     22  O   UNL     1     -18.920  26.967  21.259  1.00  0.00    -0.507 OA
ATOM     23  H   UNL     1     -18.938  26.162  21.866  1.00  0.00     0.293 HD
ENDBRANCH   6  22
BRANCH   8  24
ATOM     24  O   UNL     1     -22.970  27.257  18.695  1.00  0.00    -0.508 OA
ATOM     25  H   UNL     1     -23.185  26.268  18.746  1.00  0.00     0.293 HD
ENDBRANCH   8  24
TORSDOF 5
ENDMDL
MODEL 5
REMARK VINA RESULT:    -4.558      7.417     10.225
REMARK INTER + INTRA:          -5.660
REMARK INTER:                  -5.347
REMARK INTRA:                  -0.313
REMARK UNBOUND:                -0.302
REMARK SMILES O=c1cc(-c2ccc(O)c(O)c2)oc2cc(O)cc(O)c12
REMARK SMILES IDX 4 1 3 2 2 3 1 4 21 5 19 6 18 7 16 8 15 9 14 10 13 11 5 12
REMARK SMILES IDX 6 13 7 14 8 15 12 16 10 17 9 18 11 20 20 22 17 24
REMARK H PARENT 9 19 11 21 20 23 17 25
REMARK Flexibility Score: inf
ROOT
ATOM      1  C   UNL     1     -19.969  27.156  21.092  1.00  0.00     0.138 A 
ATOM      2  C   UNL     1     -21.021  26.665  20.308  1.00  0.00     0.100 A 
ATOM      3  C   UNL     1     -22.080  27.507  19.967  1.00  0.00     0.197 A 
ATOM      4  O   UNL     1     -23.039  27.021  19.314  1.00  0.00    -0.289 OA
ATOM      5  C   UNL     1     -22.067  28.858  20.387  1.00  0.00     0.107 A 
ATOM      6  C   UNL     1     -23.071  29.819  20.066  1.00  0.00     0.134 A 
ATOM      7  C   UNL     1     -23.012  31.097  20.636  1.00  0.00     0.093 A 
ATOM      8  C   UNL     1     -21.952  31.466  21.468  1.00  0.00     0.123 A 
ATOM      9  C   UNL     1     -20.939  30.552  21.746  1.00  0.00     0.094 A 
ATOM     10  C   UNL     1     -20.988  29.259  21.220  1.00  0.00     0.146 A 
ATOM     11  O   UNL     1     -20.008  28.413  21.521  1.00  0.00    -0.456 OA
ENDROOT
BRANCH   1  12
ATOM     12  C   UNL     1     -18.817  26.303  21.483  1.00  0.00     0.021 A 
ATOM     13  C   UNL     1     -18.547  25.132  20.755  1.00  0.00     0.016 A 
ATOM     14  C   UNL     1     -17.474  24.309  21.108  1.00  0.00     0.051 A 
ATOM     15  C   UNL     1     -16.660  24.634  22.195  1.00  0.00     0.157 A 
ATOM     16  C   UNL     1     -18.002  26.620  22.587  1.00  0.00     0.062 A 
ATOM     17  C   UNL     1     -16.926  25.793  22.942  1.00  0.00     0.158 A 
BRANCH  15  18
ATOM     18  O   UNL     1     -15.595  23.794  22.520  1.00  0.00    -0.504 OA
ATOM     19  H   UNL     1     -14.745  23.768  21.970  1.00  0.00     0.293 HD
ENDBRANCH  15  18
BRANCH  17  20
ATOM     20  O   UNL     1     -16.125  26.118  24.036  1.00  0.00    -0.504 OA
ATOM     21  H   UNL     1     -16.313  26.931  24.610  1.00  0.00     0.293 HD
ENDBRANCH  17  20
ENDBRANCH   1  12
BRANCH   6  22
ATOM     22  O   UNL     1     -24.125  29.580  19.178  1.00  0.00    -0.507 OA
ATOM     23  H   UNL     1     -25.061  29.939  19.285  1.00  0.00     0.293 HD
ENDBRANCH   6  22
BRANCH   8  24
ATOM     24  O   UNL     1     -21.894  32.745  22.019  1.00  0.00    -0.508 OA
ATOM     25  H   UNL     1     -21.626  32.893  22.986  1.00  0.00     0.293 HD
ENDBRANCH   8  24
TORSDOF 5
ENDMDL
MODEL 6
REMARK VINA RESULT:    -4.551      2.876      5.279
REMARK INTER + INTRA:          -5.651
REMARK INTER:                  -5.385
REMARK INTRA:                  -0.265
REMARK UNBOUND:                -0.302
REMARK SMILES O=c1cc(-c2ccc(O)c(O)c2)oc2cc(O)cc(O)c12
REMARK SMILES IDX 4 1 3 2 2 3 1 4 21 5 19 6 18 7 16 8 15 9 14 10 13 11 5 12
REMARK SMILES IDX 6 13 7 14 8 15 12 16 10 17 9 18 11 20 20 22 17 24
REMARK H PARENT 9 19 11 21 20 23 17 25
REMARK Flexibility Score: inf
ROOT
ATOM      1  C   UNL     1     -19.555  23.844  17.819  1.00  0.00     0.138 A 
ATOM      2  C   UNL     1     -18.344  23.202  18.116  1.00  0.00     0.100 A 
ATOM      3  C   UNL     1     -17.733  23.417  19.352  1.00  0.00     0.197 A 
ATOM      4  O   UNL     1     -16.618  22.877  19.564  1.00  0.00    -0.289 OA
ATOM      5  C   UNL     1     -18.357  24.254  20.308  1.00  0.00     0.107 A 
ATOM      6  C   UNL     1     -17.847  24.514  21.615  1.00  0.00     0.134 A 
ATOM      7  C   UNL     1     -18.490  25.451  22.433  1.00  0.00     0.093 A 
ATOM      8  C   UNL     1     -19.658  26.094  22.012  1.00  0.00     0.123 A 
ATOM      9  C   UNL     1     -20.193  25.807  20.759  1.00  0.00     0.094 A 
ATOM     10  C   UNL     1     -19.555  24.902  19.907  1.00  0.00     0.146 A 
ATOM     11  O   UNL     1     -20.091  24.668  18.713  1.00  0.00    -0.456 OA
ENDROOT
BRANCH   1  12
ATOM     12  C   UNL     1     -20.248  23.649  16.520  1.00  0.00     0.021 A 
ATOM     13  C   UNL     1     -21.530  23.075  16.500  1.00  0.00     0.016 A 
ATOM     14  C   UNL     1     -22.199  22.875  15.291  1.00  0.00     0.051 A 
ATOM     15  C   UNL     1     -21.599  23.235  14.082  1.00  0.00     0.157 A 
ATOM     16  C   UNL     1     -19.641  23.999  15.298  1.00  0.00     0.062 A 
ATOM     17  C   UNL     1     -20.313  23.797  14.083  1.00  0.00     0.158 A 
BRANCH  15  18
ATOM     18  O   UNL     1     -22.295  23.026  12.891  1.00  0.00    -0.504 OA
ATOM     19  H   UNL     1     -22.474  23.776  12.234  1.00  0.00     0.293 HD
ENDBRANCH  15  18
BRANCH  17  20
ATOM     20  O   UNL     1     -19.703  24.148  12.879  1.00  0.00    -0.504 OA
ATOM     21  H   UNL     1     -20.192  24.074  11.995  1.00  0.00     0.293 HD
ENDBRANCH  17  20
ENDBRANCH   1  12
BRANCH   6  22
ATOM     22  O   UNL     1     -16.737  23.864  22.164  1.00  0.00    -0.507 OA
ATOM     23  H   UNL     1     -16.678  23.527  23.113  1.00  0.00     0.293 HD
ENDBRANCH   6  22
BRANCH   8  24
ATOM     24  O   UNL     1     -20.299  27.014  22.839  1.00  0.00    -0.508 OA
ATOM     25  H   UNL     1     -20.576  26.775  23.784  1.00  0.00     0.293 HD
ENDBRANCH   8  24
TORSDOF 5
ENDMDL
MODEL 7
REMARK VINA RESULT:    -4.507     13.246     14.909
REMARK INTER + INTRA:          -5.599
REMARK INTER:                  -5.314
REMARK INTRA:                  -0.285
REMARK UNBOUND:                -0.302
REMARK SMILES O=c1cc(-c2ccc(O)c(O)c2)oc2cc(O)cc(O)c12
REMARK SMILES IDX 4 1 3 2 2 3 1 4 21 5 19 6 18 7 16 8 15 9 14 10 13 11 5 12
REMARK SMILES IDX 6 13 7 14 8 15 12 16 10 17 9 18 11 20 20 22 17 24
REMARK H PARENT 9 19 11 21 20 23 17 25
REMARK Flexibility Score: inf
ROOT
ATOM      1  C   UNL     1     -22.236  35.864  21.902  1.00  0.00     0.138 A 
ATOM      2  C   UNL     1     -23.132  35.211  21.045  1.00  0.00     0.100 A 
ATOM      3  C   UNL     1     -23.050  33.827  20.884  1.00  0.00     0.197 A 
ATOM      4  O   UNL     1     -23.827  33.278  20.061  1.00  0.00    -0.289 OA
ATOM      5  C   UNL     1     -22.085  33.091  21.611  1.00  0.00     0.107 A 
ATOM      6  C   UNL     1     -21.934  31.673  21.557  1.00  0.00     0.134 A 
ATOM      7  C   UNL     1     -20.868  31.066  22.231  1.00  0.00     0.093 A 
ATOM      8  C   UNL     1     -19.981  31.820  23.005  1.00  0.00     0.123 A 
ATOM      9  C   UNL     1     -20.151  33.199  23.107  1.00  0.00     0.094 A 
ATOM     10  C   UNL     1     -21.185  33.837  22.418  1.00  0.00     0.146 A 
ATOM     11  O   UNL     1     -21.303  35.157  22.531  1.00  0.00    -0.456 OA
ENDROOT
BRANCH   1  12
ATOM     12  C   UNL     1     -22.281  37.333  22.111  1.00  0.00     0.021 A 
ATOM     13  C   UNL     1     -21.939  37.863  23.367  1.00  0.00     0.016 A 
ATOM     14  C   UNL     1     -21.980  39.241  23.591  1.00  0.00     0.051 A 
ATOM     15  C   UNL     1     -22.371  40.113  22.572  1.00  0.00     0.157 A 
ATOM     16  C   UNL     1     -22.687  38.215  21.090  1.00  0.00     0.062 A 
ATOM     17  C   UNL     1     -22.729  39.599  21.315  1.00  0.00     0.158 A 
BRANCH  15  18
ATOM     18  O   UNL     1     -22.399  41.484  22.825  1.00  0.00    -0.504 OA
ATOM     19  H   UNL     1     -23.192  41.933  23.269  1.00  0.00     0.293 HD
ENDBRANCH  15  18
BRANCH  17  20
ATOM     20  O   UNL     1     -23.131  40.462  20.297  1.00  0.00    -0.504 OA
ATOM     21  H   UNL     1     -23.759  40.160  19.561  1.00  0.00     0.293 HD
ENDBRANCH  17  20
ENDBRANCH   1  12
BRANCH   6  22
ATOM     22  O   UNL     1     -22.813  30.819  20.884  1.00  0.00    -0.507 OA
ATOM     23  H   UNL     1     -22.553  30.199  20.133  1.00  0.00     0.293 HD
ENDBRANCH   6  22
BRANCH   8  24
ATOM     24  O   UNL     1     -18.931  31.206  23.685  1.00  0.00    -0.508 OA
ATOM     25  H   UNL     1     -18.361  30.492  23.245  1.00  0.00     0.293 HD
ENDBRANCH   8  24
TORSDOF 5
ENDMDL
MODEL 8
REMARK VINA RESULT:    -4.488      8.204     11.056
REMARK INTER + INTRA:          -5.577
REMARK INTER:                  -5.281
REMARK INTRA:                  -0.295
REMARK UNBOUND:                -0.302
REMARK SMILES O=c1cc(-c2ccc(O)c(O)c2)oc2cc(O)cc(O)c12
REMARK SMILES IDX 4 1 3 2 2 3 1 4 21 5 19 6 18 7 16 8 15 9 14 10 13 11 5 12
REMARK SMILES IDX 6 13 7 14 8 15 12 16 10 17 9 18 11 20 20 22 17 24
REMARK H PARENT 9 19 11 21 20 23 17 25
REMARK Flexibility Score: inf
ROOT
ATOM      1  C   UNL     1     -19.906  29.769  21.909  1.00  0.00     0.138 A 
ATOM      2  C   UNL     1     -20.421  29.023  20.840  1.00  0.00     0.100 A 
ATOM      3  C   UNL     1     -19.969  27.720  20.627  1.00  0.00     0.197 A 
ATOM      4  O   UNL     1     -20.404  27.098  19.624  1.00  0.00    -0.289 OA
ATOM      5  C   UNL     1     -19.020  27.152  21.509  1.00  0.00     0.107 A 
ATOM      6  C   UNL     1     -18.517  25.820  21.413  1.00  0.00     0.134 A 
ATOM      7  C   UNL     1     -17.493  25.405  22.272  1.00  0.00     0.093 A 
ATOM      8  C   UNL     1     -16.995  26.255  23.264  1.00  0.00     0.123 A 
ATOM      9  C   UNL     1     -17.516  27.539  23.400  1.00  0.00     0.094 A 
ATOM     10  C   UNL     1     -18.515  27.994  22.535  1.00  0.00     0.146 A 
ATOM     11  O   UNL     1     -18.974  29.232  22.690  1.00  0.00    -0.456 OA
ENDROOT
BRANCH   1  12
ATOM     12  C   UNL     1     -20.352  31.159  22.183  1.00  0.00     0.021 A 
ATOM     13  C   UNL     1     -19.632  31.949  23.094  1.00  0.00     0.016 A 
ATOM     14  C   UNL     1     -20.035  33.257  23.374  1.00  0.00     0.051 A 
ATOM     15  C   UNL     1     -21.168  33.795  22.759  1.00  0.00     0.157 A 
ATOM     16  C   UNL     1     -21.501  31.700  21.575  1.00  0.00     0.062 A 
ATOM     17  C   UNL     1     -21.908  33.013  21.857  1.00  0.00     0.158 A 
BRANCH  15  18
ATOM     18  O   UNL     1     -21.544  35.104  23.057  1.00  0.00    -0.504 OA
ATOM     19  H   UNL     1     -22.424  35.321  23.511  1.00  0.00     0.293 HD
ENDBRANCH  15  18
BRANCH  17  20
ATOM     20  O   UNL     1     -23.046  33.540  21.248  1.00  0.00    -0.504 OA
ATOM     21  H   UNL     1     -23.802  33.942  21.791  1.00  0.00     0.293 HD
ENDBRANCH  17  20
ENDBRANCH   1  12
BRANCH   6  22
ATOM     22  O   UNL     1     -19.004  24.864  20.516  1.00  0.00    -0.507 OA
ATOM     23  H   UNL     1     -19.231  23.911  20.755  1.00  0.00     0.293 HD
ENDBRANCH   6  22
BRANCH   8  24
ATOM     24  O   UNL     1     -15.986  25.829  24.125  1.00  0.00    -0.508 OA
ATOM     25  H   UNL     1     -15.115  25.448  23.773  1.00  0.00     0.293 HD
ENDBRANCH   8  24
TORSDOF 5
ENDMDL
MODEL 9
REMARK VINA RESULT:    -4.482      2.432      7.742
REMARK INTER + INTRA:          -5.570
REMARK INTER:                  -5.290
REMARK INTRA:                  -0.280
REMARK UNBOUND:                -0.302
REMARK SMILES O=c1cc(-c2ccc(O)c(O)c2)oc2cc(O)cc(O)c12
REMARK SMILES IDX 4 1 3 2 2 3 1 4 21 5 19 6 18 7 16 8 15 9 14 10 13 11 5 12
REMARK SMILES IDX 6 13 7 14 8 15 12 16 10 17 9 18 11 20 20 22 17 24
REMARK H PARENT 9 19 11 21 20 23 17 25
REMARK Flexibility Score: inf
ROOT
ATOM      1  C   UNL     1     -19.995  23.445  18.082  1.00  0.00     0.138 A 
ATOM      2  C   UNL     1     -21.343  23.192  18.375  1.00  0.00     0.100 A 
ATOM      3  C   UNL     1     -22.278  23.151  17.340  1.00  0.00     0.197 A 
ATOM      4  O   UNL     1     -23.488  22.983  17.641  1.00  0.00    -0.289 OA
ATOM      5  C   UNL     1     -21.856  23.334  16.002  1.00  0.00     0.107 A 
ATOM      6  C   UNL     1     -22.714  23.274  14.864  1.00  0.00     0.134 A 
ATOM      7  C   UNL     1     -22.204  23.586  13.598  1.00  0.00     0.093 A 
ATOM      8  C   UNL     1     -20.853  23.899  13.422  1.00  0.00     0.123 A 
ATOM      9  C   UNL     1     -19.996  23.908  14.519  1.00  0.00     0.094 A 
ATOM     10  C   UNL     1     -20.483  23.634  15.800  1.00  0.00     0.146 A 
ATOM     11  O   UNL     1     -19.633  23.668  16.823  1.00  0.00    -0.456 OA
ENDROOT
BRANCH   1  12
ATOM     12  C   UNL     1     -18.958  23.498  19.143  1.00  0.00     0.021 A 
ATOM     13  C   UNL     1     -17.709  22.895  18.919  1.00  0.00     0.016 A 
ATOM     14  C   UNL     1     -16.720  22.924  19.905  1.00  0.00     0.051 A 
ATOM     15  C   UNL     1     -16.961  23.546  21.132  1.00  0.00     0.157 A 
ATOM     16  C   UNL     1     -19.203  24.112  20.387  1.00  0.00     0.062 A 
ATOM     17  C   UNL     1     -18.209  24.141  21.377  1.00  0.00     0.158 A 
BRANCH  15  18
ATOM     18  O   UNL     1     -15.952  23.562  22.095  1.00  0.00    -0.504 OA
ATOM     19  H   UNL     1     -15.006  23.265  21.887  1.00  0.00     0.293 HD
ENDBRANCH  15  18
BRANCH  17  20
ATOM     20  O   UNL     1     -18.462  24.753  22.605  1.00  0.00    -0.504 OA
ATOM     21  H   UNL     1     -18.932  25.649  22.665  1.00  0.00     0.293 HD
ENDBRANCH  17  20
ENDBRANCH   1  12
BRANCH   6  22
ATOM     22  O   UNL     1     -24.057  22.889  14.917  1.00  0.00    -0.507 OA
ATOM     23  H   UNL     1     -24.835  23.476  14.660  1.00  0.00     0.293 HD
ENDBRANCH   6  22
BRANCH   8  24
ATOM     24  O   UNL     1     -20.351  24.194  12.156  1.00  0.00    -0.508 OA
ATOM     25  H   UNL     1     -20.116  25.143  11.887  1.00  0.00     0.293 HD
ENDBRANCH   8  24
TORSDOF 5
ENDMDL
