MODEL 1
REMARK VINA RESULT:    23.473      0.000      0.000
REMARK INTER + INTRA:          57.879
REMARK INTER:                  59.150
REMARK INTRA:                  -1.272
REMARK UNBOUND:                -1.272
REMARK SMILES CCCCCCCCCCCCCCCCCCCCCCCCCCCC(=O)[O-]
REMARK SMILES IDX 15 1 16 2 17 3 18 4 19 5 20 6 21 7 22 8 23 9 24 10 25 11
REMARK SMILES IDX 26 12 27 13 28 14 29 15 30 16 14 17 13 18 12 19 11 20 10 21
REMARK SMILES IDX 9 22 8 23 7 24 6 25 5 26 4 27 3 28 2 29 1 30
REMARK H PARENT
REMARK Flexibility Score: inf
ROOT
ATOM      1  C   UNL     1       2.470  44.441  17.548  1.00  0.00     0.000 C 
ENDROOT
BRANCH   1   2
ATOM      2  C   UNL     1       3.389  44.906  16.402  1.00  0.00     0.000 C 
BRANCH   2   3
ATOM      3  C   UNL     1       3.297  46.426  16.146  1.00  0.00     0.000 C 
BRANCH   3   4
ATOM      4  C   UNL     1       2.908  46.796  14.702  1.00  0.00     0.000 C 
BRANCH   4   5
ATOM      5  C   UNL     1       3.408  48.169  14.223  1.00  0.00     0.000 C 
BRANCH   5   6
ATOM      6  C   UNL     1       4.573  48.063  13.226  1.00  0.00     0.000 C 
BRANCH   6   7
ATOM      7  C   UNL     1       4.079  47.584  11.852  1.00  0.00     0.000 C 
BRANCH   7   8
ATOM      8  C   UNL     1       3.782  48.747  10.887  1.00  0.00     0.000 C 
BRANCH   8   9
ATOM      9  C   UNL     1       4.410  48.611   9.486  1.00  0.00     0.000 C 
BRANCH   9  10
ATOM     10  C   UNL     1       5.383  49.739   9.098  1.00  0.00     0.000 C 
BRANCH  10  11
ATOM     11  C   UNL     1       6.727  49.644   9.840  1.00  0.00     0.000 C 
BRANCH  11  12
ATOM     12  C   UNL     1       7.854  49.104   8.945  1.00  0.00     0.006 C 
BRANCH  12  13
ATOM     13  C   UNL     1       8.821  48.188   9.706  1.00  0.00     0.053 C 
BRANCH  13  14
ATOM     14  C   UNL     1       8.118  47.520  10.846  1.00  0.00     0.041 C 
ATOM     15  O   UNL     1       8.479  47.741  12.031  1.00  0.00    -0.550 OA
ATOM     16  O   UNL     1       7.030  46.690  10.602  1.00  0.00    -0.550 OA
ENDBRANCH  13  14
ENDBRANCH  12  13
ENDBRANCH  11  12
ENDBRANCH  10  11
ENDBRANCH   9  10
ENDBRANCH   8   9
ENDBRANCH   7   8
ENDBRANCH   6   7
ENDBRANCH   5   6
ENDBRANCH   4   5
ENDBRANCH   3   4
ENDBRANCH   2   3
ENDBRANCH   1   2
BRANCH   1  17
ATOM     17  C   UNL     1       2.821  45.100  18.891  1.00  0.00     0.000 C 
BRANCH  17  18
ATOM     18  C   UNL     1       1.574  45.565  19.666  1.00  0.00     0.000 C 
BRANCH  18  19
ATOM     19  C   UNL     1       1.498  44.979  21.087  1.00  0.00     0.000 C 
BRANCH  19  20
ATOM     20  C   UNL     1       1.937  43.509  21.214  1.00  0.00     0.000 C 
BRANCH  20  21
ATOM     21  C   UNL     1       2.478  43.160  22.612  1.00  0.00     0.000 C 
BRANCH  21  22
ATOM     22  C   UNL     1       3.271  41.842  22.635  1.00  0.00    -0.000 C 
BRANCH  22  23
ATOM     23  C   UNL     1       4.307  41.714  23.772  1.00  0.00    -0.000 C 
BRANCH  23  24
ATOM     24  C   UNL     1       5.731  41.340  23.319  1.00  0.00    -0.000 C 
BRANCH  24  25
ATOM     25  C   UNL     1       6.782  42.452  23.495  1.00  0.00    -0.000 C 
BRANCH  25  26
ATOM     26  C   UNL     1       7.859  42.471  22.389  1.00  0.00    -0.000 C 
BRANCH  26  27
ATOM     27  C   UNL     1       9.290  42.469  22.957  1.00  0.00    -0.000 C 
BRANCH  27  28
ATOM     28  C   UNL     1       9.345  42.061  24.441  1.00  0.00    -0.000 C 
BRANCH  28  29
ATOM     29  C   UNL     1      10.487  42.705  25.247  1.00  0.00    -0.003 C 
ATOM     30  C   UNL     1      10.932  44.054  24.683  1.00  0.00     0.004 C 
ENDBRANCH  28  29
ENDBRANCH  27  28
ENDBRANCH  26  27
ENDBRANCH  25  26
ENDBRANCH  24  25
ENDBRANCH  23  24
ENDBRANCH  22  23
ENDBRANCH  21  22
ENDBRANCH  20  21
ENDBRANCH  19  20
ENDBRANCH  18  19
ENDBRANCH  17  18
ENDBRANCH   1  17
TORSDOF 26
ENDMDL
MODEL 2
REMARK VINA RESULT:    23.849      2.203      3.427
REMARK INTER + INTRA:          58.828
REMARK INTER:                  60.049
REMARK INTRA:                  -1.221
REMARK UNBOUND:                -1.272
REMARK SMILES CCCCCCCCCCCCCCCCCCCCCCCCCCCC(=O)[O-]
REMARK SMILES IDX 15 1 16 2 17 3 18 4 19 5 20 6 21 7 22 8 23 9 24 10 25 11
REMARK SMILES IDX 26 12 27 13 28 14 29 15 30 16 14 17 13 18 12 19 11 20 10 21
REMARK SMILES IDX 9 22 8 23 7 24 6 25 5 26 4 27 3 28 2 29 1 30
REMARK H PARENT
REMARK Flexibility Score: inf
ROOT
ATOM      1  C   UNL     1       1.831  45.449  19.558  1.00  0.00     0.000 C 
ENDROOT
BRANCH   1   2
ATOM      2  C   UNL     1       2.957  44.815  18.720  1.00  0.00     0.000 C 
BRANCH   2   3
ATOM      3  C   UNL     1       2.645  44.817  17.208  1.00  0.00     0.000 C 
BRANCH   3   4
ATOM      4  C   UNL     1       3.546  45.756  16.383  1.00  0.00     0.000 C 
BRANCH   4   5
ATOM      5  C   UNL     1       2.916  46.291  15.086  1.00  0.00     0.000 C 
BRANCH   5   6
ATOM      6  C   UNL     1       3.132  47.800  14.897  1.00  0.00     0.000 C 
BRANCH   6   7
ATOM      7  C   UNL     1       4.275  48.074  13.907  1.00  0.00     0.000 C 
BRANCH   7   8
ATOM      8  C   UNL     1       3.920  47.674  12.463  1.00  0.00     0.000 C 
BRANCH   8   9
ATOM      9  C   UNL     1       4.152  48.772  11.405  1.00  0.00     0.000 C 
BRANCH   9  10
ATOM     10  C   UNL     1       4.318  48.260   9.963  1.00  0.00     0.000 C 
BRANCH  10  11
ATOM     11  C   UNL     1       5.217  47.015   9.876  1.00  0.00     0.000 C 
BRANCH  11  12
ATOM     12  C   UNL     1       6.651  47.356   9.440  1.00  0.00     0.006 C 
BRANCH  12  13
ATOM     13  C   UNL     1       6.828  48.846   9.120  1.00  0.00     0.053 C 
BRANCH  13  14
ATOM     14  C   UNL     1       8.150  49.335   9.625  1.00  0.00     0.041 C 
ATOM     15  O   UNL     1       8.883  50.051   8.894  1.00  0.00    -0.550 OA
ATOM     16  O   UNL     1       8.551  49.040  10.922  1.00  0.00    -0.550 OA
ENDBRANCH  13  14
ENDBRANCH  12  13
ENDBRANCH  11  12
ENDBRANCH  10  11
ENDBRANCH   9  10
ENDBRANCH   8   9
ENDBRANCH   7   8
ENDBRANCH   6   7
ENDBRANCH   5   6
ENDBRANCH   4   5
ENDBRANCH   3   4
ENDBRANCH   2   3
ENDBRANCH   1   2
BRANCH   1  17
ATOM     17  C   UNL     1       1.517  44.646  20.831  1.00  0.00     0.000 C 
BRANCH  17  18
ATOM     18  C   UNL     1       2.486  43.468  21.042  1.00  0.00     0.000 C 
BRANCH  18  19
ATOM     19  C   UNL     1       2.493  42.949  22.491  1.00  0.00     0.000 C 
BRANCH  19  20
ATOM     20  C   UNL     1       3.216  41.606  22.702  1.00  0.00     0.000 C 
BRANCH  20  21
ATOM     21  C   UNL     1       4.414  41.712  23.661  1.00  0.00     0.000 C 
BRANCH  21  22
ATOM     22  C   UNL     1       5.749  41.332  22.996  1.00  0.00    -0.000 C 
BRANCH  22  23
ATOM     23  C   UNL     1       6.824  42.439  22.992  1.00  0.00    -0.000 C 
BRANCH  23  24
ATOM     24  C   UNL     1       8.159  42.052  22.328  1.00  0.00    -0.000 C 
BRANCH  24  25
ATOM     25  C   UNL     1       8.989  43.237  21.802  1.00  0.00    -0.000 C 
BRANCH  25  26
ATOM     26  C   UNL     1       9.654  42.971  20.433  1.00  0.00    -0.000 C 
BRANCH  26  27
ATOM     27  C   UNL     1       9.153  41.672  19.774  1.00  0.00    -0.000 C 
BRANCH  27  28
ATOM     28  C   UNL     1       9.521  41.577  18.282  1.00  0.00    -0.000 C 
BRANCH  28  29
ATOM     29  C   UNL     1       9.559  40.147  17.715  1.00  0.00    -0.003 C 
ATOM     30  C   UNL     1      10.895  39.799  17.059  1.00  0.00     0.004 C 
ENDBRANCH  28  29
ENDBRANCH  27  28
ENDBRANCH  26  27
ENDBRANCH  25  26
ENDBRANCH  24  25
ENDBRANCH  23  24
ENDBRANCH  22  23
ENDBRANCH  21  22
ENDBRANCH  20  21
ENDBRANCH  19  20
ENDBRANCH  18  19
ENDBRANCH  17  18
ENDBRANCH   1  17
TORSDOF 26
ENDMDL
MODEL 3
REMARK VINA RESULT:    24.042      3.515      4.657
REMARK INTER + INTRA:          59.314
REMARK INTER:                  60.175
REMARK INTRA:                  -0.861
REMARK UNBOUND:                -1.272
REMARK SMILES CCCCCCCCCCCCCCCCCCCCCCCCCCCC(=O)[O-]
REMARK SMILES IDX 15 1 16 2 17 3 18 4 19 5 20 6 21 7 22 8 23 9 24 10 25 11
REMARK SMILES IDX 26 12 27 13 28 14 29 15 30 16 14 17 13 18 12 19 11 20 10 21
REMARK SMILES IDX 9 22 8 23 7 24 6 25 5 26 4 27 3 28 2 29 1 30
REMARK H PARENT
REMARK Flexibility Score: inf
ROOT
ATOM      1  C   UNL     1       2.340  45.682  20.102  1.00  0.00     0.000 C 
ENDROOT
BRANCH   1   2
ATOM      2  C   UNL     1       1.629  46.142  18.815  1.00  0.00     0.000 C 
BRANCH   2   3
ATOM      3  C   UNL     1       2.495  45.938  17.553  1.00  0.00     0.000 C 
BRANCH   3   4
ATOM      4  C   UNL     1       2.752  47.229  16.753  1.00  0.00     0.000 C 
BRANCH   4   5
ATOM      5  C   UNL     1       3.045  47.024  15.258  1.00  0.00     0.000 C 
BRANCH   5   6
ATOM      6  C   UNL     1       3.411  48.331  14.537  1.00  0.00     0.000 C 
BRANCH   6   7
ATOM      7  C   UNL     1       4.488  48.087  13.468  1.00  0.00     0.000 C 
BRANCH   7   8
ATOM      8  C   UNL     1       3.928  47.418  12.200  1.00  0.00     0.000 C 
BRANCH   8   9
ATOM      9  C   UNL     1       4.524  47.930  10.873  1.00  0.00     0.000 C 
BRANCH   9  10
ATOM     10  C   UNL     1       3.939  49.260  10.367  1.00  0.00     0.000 C 
BRANCH  10  11
ATOM     11  C   UNL     1       4.805  49.913   9.278  1.00  0.00     0.000 C 
BRANCH  11  12
ATOM     12  C   UNL     1       6.008  49.041   8.884  1.00  0.00     0.006 C 
BRANCH  12  13
ATOM     13  C   UNL     1       7.146  49.110   9.911  1.00  0.00     0.053 C 
BRANCH  13  14
ATOM     14  C   UNL     1       7.815  47.778  10.039  1.00  0.00     0.041 C 
ATOM     15  O   UNL     1       8.762  47.620  10.853  1.00  0.00    -0.550 OA
ATOM     16  O   UNL     1       7.360  46.697   9.295  1.00  0.00    -0.550 OA
ENDBRANCH  13  14
ENDBRANCH  12  13
ENDBRANCH  11  12
ENDBRANCH  10  11
ENDBRANCH   9  10
ENDBRANCH   8   9
ENDBRANCH   7   8
ENDBRANCH   6   7
ENDBRANCH   5   6
ENDBRANCH   4   5
ENDBRANCH   3   4
ENDBRANCH   2   3
ENDBRANCH   1   2
BRANCH   1  17
ATOM     17  C   UNL     1       3.868  45.817  20.014  1.00  0.00     0.000 C 
BRANCH  17  18
ATOM     18  C   UNL     1       4.364  47.218  20.417  1.00  0.00     0.000 C 
BRANCH  18  19
ATOM     19  C   UNL     1       5.835  47.227  20.869  1.00  0.00     0.000 C 
BRANCH  19  20
ATOM     20  C   UNL     1       6.590  45.901  20.670  1.00  0.00     0.000 C 
BRANCH  20  21
ATOM     21  C   UNL     1       7.969  46.085  20.012  1.00  0.00     0.000 C 
BRANCH  21  22
ATOM     22  C   UNL     1       8.520  44.784  19.403  1.00  0.00    -0.000 C 
BRANCH  22  23
ATOM     23  C   UNL     1       9.559  44.039  20.267  1.00  0.00    -0.000 C 
BRANCH  23  24
ATOM     24  C   UNL     1       9.727  42.543  19.943  1.00  0.00    -0.000 C 
BRANCH  24  25
ATOM     25  C   UNL     1       9.636  42.189  18.447  1.00  0.00    -0.000 C 
BRANCH  25  26
ATOM     26  C   UNL     1       9.224  40.725  18.178  1.00  0.00    -0.000 C 
BRANCH  26  27
ATOM     27  C   UNL     1      10.393  39.866  17.662  1.00  0.00    -0.000 C 
BRANCH  27  28
ATOM     28  C   UNL     1      11.387  40.665  16.799  1.00  0.00    -0.000 C 
BRANCH  28  29
ATOM     29  C   UNL     1      12.566  39.846  16.244  1.00  0.00    -0.003 C 
ATOM     30  C   UNL     1      12.222  38.371  16.032  1.00  0.00     0.004 C 
ENDBRANCH  28  29
ENDBRANCH  27  28
ENDBRANCH  26  27
ENDBRANCH  25  26
ENDBRANCH  24  25
ENDBRANCH  23  24
ENDBRANCH  22  23
ENDBRANCH  21  22
ENDBRANCH  20  21
ENDBRANCH  19  20
ENDBRANCH  18  19
ENDBRANCH  17  18
ENDBRANCH   1  17
TORSDOF 26
ENDMDL
MODEL 4
REMARK VINA RESULT:    24.090      1.779      2.768
REMARK INTER + INTRA:          59.435
REMARK INTER:                  60.340
REMARK INTRA:                  -0.905
REMARK UNBOUND:                -1.272
REMARK SMILES CCCCCCCCCCCCCCCCCCCCCCCCCCCC(=O)[O-]
REMARK SMILES IDX 15 1 16 2 17 3 18 4 19 5 20 6 21 7 22 8 23 9 24 10 25 11
REMARK SMILES IDX 26 12 27 13 28 14 29 15 30 16 14 17 13 18 12 19 11 20 10 21
REMARK SMILES IDX 9 22 8 23 7 24 6 25 5 26 4 27 3 28 2 29 1 30
REMARK H PARENT
REMARK Flexibility Score: inf
ROOT
ATOM      1  C   UNL     1       1.698  46.302  19.496  1.00  0.00     0.000 C 
ENDROOT
BRANCH   1   2
ATOM      2  C   UNL     1       2.492  45.743  18.301  1.00  0.00     0.000 C 
BRANCH   2   3
ATOM      3  C   UNL     1       2.932  46.844  17.312  1.00  0.00     0.000 C 
BRANCH   3   4
ATOM      4  C   UNL     1       3.082  46.359  15.858  1.00  0.00     0.000 C 
BRANCH   4   5
ATOM      5  C   UNL     1       3.275  47.472  14.814  1.00  0.00     0.000 C 
BRANCH   5   6
ATOM      6  C   UNL     1       3.285  46.941  13.373  1.00  0.00     0.000 C 
BRANCH   6   7
ATOM      7  C   UNL     1       3.948  47.948  12.420  1.00  0.00     0.000 C 
BRANCH   7   8
ATOM      8  C   UNL     1       3.313  47.950  11.018  1.00  0.00     0.000 C 
BRANCH   8   9
ATOM      9  C   UNL     1       4.212  48.500   9.893  1.00  0.00     0.000 C 
BRANCH   9  10
ATOM     10  C   UNL     1       5.242  49.553  10.340  1.00  0.00     0.000 C 
BRANCH  10  11
ATOM     11  C   UNL     1       6.208  49.954   9.213  1.00  0.00     0.000 C 
BRANCH  11  12
ATOM     12  C   UNL     1       7.212  48.840   8.877  1.00  0.00     0.006 C 
BRANCH  12  13
ATOM     13  C   UNL     1       8.367  48.766   9.885  1.00  0.00     0.053 C 
BRANCH  13  14
ATOM     14  C   UNL     1       8.038  47.807  10.986  1.00  0.00     0.041 C 
ATOM     15  O   UNL     1       7.091  46.988  10.852  1.00  0.00    -0.550 OA
ATOM     16  O   UNL     1       8.809  47.784  12.141  1.00  0.00    -0.550 OA
ENDBRANCH  13  14
ENDBRANCH  12  13
ENDBRANCH  11  12
ENDBRANCH  10  11
ENDBRANCH   9  10
ENDBRANCH   8   9
ENDBRANCH   7   8
ENDBRANCH   6   7
ENDBRANCH   5   6
ENDBRANCH   4   5
ENDBRANCH   3   4
ENDBRANCH   2   3
ENDBRANCH   1   2
BRANCH   1  17
ATOM     17  C   UNL     1       1.256  45.205  20.478  1.00  0.00     0.000 C 
BRANCH  17  18
ATOM     18  C   UNL     1       2.254  44.034  20.546  1.00  0.00     0.000 C 
BRANCH  18  19
ATOM     19  C   UNL     1       2.178  43.259  21.874  1.00  0.00     0.000 C 
BRANCH  19  20
ATOM     20  C   UNL     1       2.964  41.935  21.904  1.00  0.00     0.000 C 
BRANCH  20  21
ATOM     21  C   UNL     1       3.721  41.714  23.225  1.00  0.00     0.000 C 
BRANCH  21  22
ATOM     22  C   UNL     1       5.217  41.423  23.017  1.00  0.00    -0.000 C 
BRANCH  22  23
ATOM     23  C   UNL     1       6.120  42.668  22.893  1.00  0.00    -0.000 C 
BRANCH  23  24
ATOM     24  C   UNL     1       7.459  42.582  23.651  1.00  0.00    -0.000 C 
BRANCH  24  25
ATOM     25  C   UNL     1       8.692  43.025  22.841  1.00  0.00    -0.000 C 
BRANCH  25  26
ATOM     26  C   UNL     1       9.003  42.114  21.633  1.00  0.00    -0.000 C 
BRANCH  26  27
ATOM     27  C   UNL     1       9.220  42.910  20.333  1.00  0.00    -0.000 C 
BRANCH  27  28
ATOM     28  C   UNL     1      10.109  42.167  19.318  1.00  0.00    -0.000 C 
BRANCH  28  29
ATOM     29  C   UNL     1       9.348  41.274  18.322  1.00  0.00    -0.003 C 
ATOM     30  C   UNL     1      10.172  40.919  17.085  1.00  0.00     0.004 C 
ENDBRANCH  28  29
ENDBRANCH  27  28
ENDBRANCH  26  27
ENDBRANCH  25  26
ENDBRANCH  24  25
ENDBRANCH  23  24
ENDBRANCH  22  23
ENDBRANCH  21  22
ENDBRANCH  20  21
ENDBRANCH  19  20
ENDBRANCH  18  19
ENDBRANCH  17  18
ENDBRANCH   1  17
TORSDOF 26
ENDMDL
MODEL 5
REMARK VINA RESULT:    24.969      3.895     12.660
REMARK INTER + INTRA:          61.649
REMARK INTER:                  62.656
REMARK INTRA:                  -1.007
REMARK UNBOUND:                -1.272
REMARK SMILES CCCCCCCCCCCCCCCCCCCCCCCCCCCC(=O)[O-]
REMARK SMILES IDX 15 1 16 2 17 3 18 4 19 5 20 6 21 7 22 8 23 9 24 10 25 11
REMARK SMILES IDX 26 12 27 13 28 14 29 15 30 16 14 17 13 18 12 19 11 20 10 21
REMARK SMILES IDX 9 22 8 23 7 24 6 25 5 26 4 27 3 28 2 29 1 30
REMARK H PARENT
REMARK Flexibility Score: inf
ROOT
ATOM      1  C   UNL     1       3.299  45.915  17.626  1.00  0.00     0.000 C 
ENDROOT
BRANCH   1   2
ATOM      2  C   UNL     1       2.161  46.007  18.660  1.00  0.00     0.000 C 
BRANCH   2   3
ATOM      3  C   UNL     1       2.611  45.590  20.077  1.00  0.00     0.000 C 
BRANCH   3   4
ATOM      4  C   UNL     1       2.131  44.189  20.501  1.00  0.00     0.000 C 
BRANCH   4   5
ATOM      5  C   UNL     1       2.663  43.700  21.858  1.00  0.00     0.000 C 
BRANCH   5   6
ATOM      6  C   UNL     1       2.078  42.340  22.272  1.00  0.00     0.000 C 
BRANCH   6   7
ATOM      7  C   UNL     1       3.188  41.289  22.431  1.00  0.00     0.000 C 
BRANCH   7   8
ATOM      8  C   UNL     1       4.326  41.760  23.355  1.00  0.00     0.000 C 
BRANCH   8   9
ATOM      9  C   UNL     1       5.746  41.381  22.888  1.00  0.00     0.000 C 
BRANCH   9  10
ATOM     10  C   UNL     1       6.789  42.509  22.997  1.00  0.00     0.000 C 
BRANCH  10  11
ATOM     11  C   UNL     1       8.116  42.158  22.304  1.00  0.00     0.000 C 
BRANCH  11  12
ATOM     12  C   UNL     1       9.339  42.568  23.139  1.00  0.00     0.006 C 
BRANCH  12  13
ATOM     13  C   UNL     1       9.059  42.536  24.647  1.00  0.00     0.053 C 
BRANCH  13  14
ATOM     14  C   UNL     1      10.246  43.036  25.410  1.00  0.00     0.041 C 
ATOM     15  O   UNL     1      10.257  42.991  26.668  1.00  0.00    -0.550 OA
ATOM     16  O   UNL     1      11.362  43.505  24.728  1.00  0.00    -0.550 OA
ENDBRANCH  13  14
ENDBRANCH  12  13
ENDBRANCH  11  12
ENDBRANCH  10  11
ENDBRANCH   9  10
ENDBRANCH   8   9
ENDBRANCH   7   8
ENDBRANCH   6   7
ENDBRANCH   5   6
ENDBRANCH   4   5
ENDBRANCH   3   4
ENDBRANCH   2   3
ENDBRANCH   1   2
BRANCH   1  17
ATOM     17  C   UNL     1       2.886  45.152  16.358  1.00  0.00     0.000 C 
BRANCH  17  18
ATOM     18  C   UNL     1       3.241  45.912  15.067  1.00  0.00     0.000 C 
BRANCH  18  19
ATOM     19  C   UNL     1       3.412  47.426  15.289  1.00  0.00     0.000 C 
BRANCH  19  20
ATOM     20  C   UNL     1       4.054  48.191  14.118  1.00  0.00     0.000 C 
BRANCH  20  21
ATOM     21  C   UNL     1       3.741  47.567  12.747  1.00  0.00     0.000 C 
BRANCH  21  22
ATOM     22  C   UNL     1       4.455  48.282  11.586  1.00  0.00    -0.000 C 
BRANCH  22  23
ATOM     23  C   UNL     1       3.543  48.729  10.425  1.00  0.00    -0.000 C 
BRANCH  23  24
ATOM     24  C   UNL     1       4.256  48.931   9.074  1.00  0.00    -0.000 C 
BRANCH  24  25
ATOM     25  C   UNL     1       5.794  48.861   9.136  1.00  0.00    -0.000 C 
BRANCH  25  26
ATOM     26  C   UNL     1       6.359  47.437   8.934  1.00  0.00    -0.000 C 
BRANCH  26  27
ATOM     27  C   UNL     1       7.860  47.345   9.267  1.00  0.00    -0.000 C 
BRANCH  27  28
ATOM     28  C   UNL     1       8.138  47.343  10.781  1.00  0.00    -0.000 C 
BRANCH  28  29
ATOM     29  C   UNL     1       8.069  48.726  11.454  1.00  0.00    -0.003 C 
ATOM     30  C   UNL     1       8.521  49.861  10.535  1.00  0.00     0.004 C 
ENDBRANCH  28  29
ENDBRANCH  27  28
ENDBRANCH  26  27
ENDBRANCH  25  26
ENDBRANCH  24  25
ENDBRANCH  23  24
ENDBRANCH  22  23
ENDBRANCH  21  22
ENDBRANCH  20  21
ENDBRANCH  19  20
ENDBRANCH  18  19
ENDBRANCH  17  18
ENDBRANCH   1  17
TORSDOF 26
ENDMDL
MODEL 6
REMARK VINA RESULT:    25.148      2.755     11.480
REMARK INTER + INTRA:          62.101
REMARK INTER:                  63.649
REMARK INTRA:                  -1.548
REMARK UNBOUND:                -1.272
REMARK SMILES CCCCCCCCCCCCCCCCCCCCCCCCCCCC(=O)[O-]
REMARK SMILES IDX 15 1 16 2 17 3 18 4 19 5 20 6 21 7 22 8 23 9 24 10 25 11
REMARK SMILES IDX 26 12 27 13 28 14 29 15 30 16 14 17 13 18 12 19 11 20 10 21
REMARK SMILES IDX 9 22 8 23 7 24 6 25 5 26 4 27 3 28 2 29 1 30
REMARK H PARENT
REMARK Flexibility Score: inf
ROOT
ATOM      1  C   UNL     1       2.782  45.706  19.971  1.00  0.00     0.000 C 
ENDROOT
BRANCH   1   2
ATOM      2  C   UNL     1       1.503  44.895  20.249  1.00  0.00     0.000 C 
BRANCH   2   3
ATOM      3  C   UNL     1       1.423  44.392  21.706  1.00  0.00     0.000 C 
BRANCH   3   4
ATOM      4  C   UNL     1       1.941  42.954  21.903  1.00  0.00     0.000 C 
BRANCH   4   5
ATOM      5  C   UNL     1       3.033  42.794  22.973  1.00  0.00     0.000 C 
BRANCH   5   6
ATOM      6  C   UNL     1       3.804  41.471  22.845  1.00  0.00     0.000 C 
BRANCH   6   7
ATOM      7  C   UNL     1       5.197  41.581  23.484  1.00  0.00     0.000 C 
BRANCH   7   8
ATOM      8  C   UNL     1       6.155  42.474  22.675  1.00  0.00     0.000 C 
BRANCH   8   9
ATOM      9  C   UNL     1       7.637  42.389  23.091  1.00  0.00     0.000 C 
BRANCH   9  10
ATOM     10  C   UNL     1       8.598  41.925  21.982  1.00  0.00     0.000 C 
BRANCH  10  11
ATOM     11  C   UNL     1       9.389  43.086  21.358  1.00  0.00     0.000 C 
BRANCH  11  12
ATOM     12  C   UNL     1       9.351  43.063  19.822  1.00  0.00     0.006 C 
BRANCH  12  13
ATOM     13  C   UNL     1      10.273  41.989  19.228  1.00  0.00     0.053 C 
BRANCH  13  14
ATOM     14  C   UNL     1       9.575  41.253  18.128  1.00  0.00     0.041 C 
ATOM     15  O   UNL     1       9.413  41.796  17.004  1.00  0.00    -0.550 OA
ATOM     16  O   UNL     1       9.147  39.947  18.328  1.00  0.00    -0.550 OA
ENDBRANCH  13  14
ENDBRANCH  12  13
ENDBRANCH  11  12
ENDBRANCH  10  11
ENDBRANCH   9  10
ENDBRANCH   8   9
ENDBRANCH   7   8
ENDBRANCH   6   7
ENDBRANCH   5   6
ENDBRANCH   4   5
ENDBRANCH   3   4
ENDBRANCH   2   3
ENDBRANCH   1   2
BRANCH   1  17
ATOM     17  C   UNL     1       3.574  45.168  18.768  1.00  0.00     0.000 C 
BRANCH  17  18
ATOM     18  C   UNL     1       2.678  44.881  17.550  1.00  0.00     0.000 C 
BRANCH  18  19
ATOM     19  C   UNL     1       3.262  45.424  16.233  1.00  0.00     0.000 C 
BRANCH  19  20
ATOM     20  C   UNL     1       3.220  46.956  16.081  1.00  0.00     0.000 C 
BRANCH  20  21
ATOM     21  C   UNL     1       2.443  47.417  14.837  1.00  0.00     0.000 C 
BRANCH  21  22
ATOM     22  C   UNL     1       3.170  47.090  13.521  1.00  0.00    -0.000 C 
BRANCH  22  23
ATOM     23  C   UNL     1       4.482  47.866  13.281  1.00  0.00    -0.000 C 
BRANCH  23  24
ATOM     24  C   UNL     1       4.573  48.592  11.926  1.00  0.00    -0.000 C 
BRANCH  24  25
ATOM     25  C   UNL     1       4.076  47.777  10.718  1.00  0.00    -0.000 C 
BRANCH  25  26
ATOM     26  C   UNL     1       4.752  48.165   9.384  1.00  0.00    -0.000 C 
BRANCH  26  27
ATOM     27  C   UNL     1       5.398  49.561   9.433  1.00  0.00    -0.000 C 
BRANCH  27  28
ATOM     28  C   UNL     1       6.912  49.510   9.711  1.00  0.00    -0.000 C 
BRANCH  28  29
ATOM     29  C   UNL     1       7.519  48.096   9.731  1.00  0.00    -0.003 C 
ATOM     30  C   UNL     1       8.041  47.688  11.108  1.00  0.00     0.004 C 
ENDBRANCH  28  29
ENDBRANCH  27  28
ENDBRANCH  26  27
ENDBRANCH  25  26
ENDBRANCH  24  25
ENDBRANCH  23  24
ENDBRANCH  22  23
ENDBRANCH  21  22
ENDBRANCH  20  21
ENDBRANCH  19  20
ENDBRANCH  18  19
ENDBRANCH  17  18
ENDBRANCH   1  17
TORSDOF 26
ENDMDL
MODEL 7
REMARK VINA RESULT:    25.377      1.960      2.996
REMARK INTER + INTRA:          62.677
REMARK INTER:                  64.360
REMARK INTRA:                  -1.684
REMARK UNBOUND:                -1.272
REMARK SMILES CCCCCCCCCCCCCCCCCCCCCCCCCCCC(=O)[O-]
REMARK SMILES IDX 15 1 16 2 17 3 18 4 19 5 20 6 21 7 22 8 23 9 24 10 25 11
REMARK SMILES IDX 26 12 27 13 28 14 29 15 30 16 14 17 13 18 12 19 11 20 10 21
REMARK SMILES IDX 9 22 8 23 7 24 6 25 5 26 4 27 3 28 2 29 1 30
REMARK H PARENT
REMARK Flexibility Score: inf
ROOT
ATOM      1  C   UNL     1       2.270  45.318  18.595  1.00  0.00     0.000 C 
ENDROOT
BRANCH   1   2
ATOM      2  C   UNL     1       3.444  45.166  17.609  1.00  0.00     0.000 C 
BRANCH   2   3
ATOM      3  C   UNL     1       3.102  45.683  16.195  1.00  0.00     0.000 C 
BRANCH   3   4
ATOM      4  C   UNL     1       2.667  47.161  16.155  1.00  0.00     0.000 C 
BRANCH   4   5
ATOM      5  C   UNL     1       3.024  47.911  14.861  1.00  0.00     0.000 C 
BRANCH   5   6
ATOM      6  C   UNL     1       3.650  46.998  13.796  1.00  0.00     0.000 C 
BRANCH   6   7
ATOM      7  C   UNL     1       2.658  46.721  12.656  1.00  0.00     0.000 C 
BRANCH   7   8
ATOM      8  C   UNL     1       2.993  47.501  11.372  1.00  0.00     0.000 C 
BRANCH   8   9
ATOM      9  C   UNL     1       4.322  48.282  11.408  1.00  0.00     0.000 C 
BRANCH   9  10
ATOM     10  C   UNL     1       4.698  48.987  10.093  1.00  0.00     0.000 C 
BRANCH  10  11
ATOM     11  C   UNL     1       5.223  48.012   9.026  1.00  0.00     0.000 C 
BRANCH  11  12
ATOM     12  C   UNL     1       6.449  47.220   9.508  1.00  0.00     0.006 C 
BRANCH  12  13
ATOM     13  C   UNL     1       7.747  48.031   9.411  1.00  0.00     0.053 C 
BRANCH  13  14
ATOM     14  C   UNL     1       8.165  48.512  10.765  1.00  0.00     0.041 C 
ATOM     15  O   UNL     1       8.368  49.738  10.968  1.00  0.00    -0.550 OA
ATOM     16  O   UNL     1       8.281  47.613  11.817  1.00  0.00    -0.550 OA
ENDBRANCH  13  14
ENDBRANCH  12  13
ENDBRANCH  11  12
ENDBRANCH  10  11
ENDBRANCH   9  10
ENDBRANCH   8   9
ENDBRANCH   7   8
ENDBRANCH   6   7
ENDBRANCH   5   6
ENDBRANCH   4   5
ENDBRANCH   3   4
ENDBRANCH   2   3
ENDBRANCH   1   2
BRANCH   1  17
ATOM     17  C   UNL     1       2.517  46.413  19.644  1.00  0.00     0.000 C 
BRANCH  17  18
ATOM     18  C   UNL     1       3.579  46.010  20.683  1.00  0.00     0.000 C 
BRANCH  18  19
ATOM     19  C   UNL     1       4.901  46.780  20.520  1.00  0.00     0.000 C 
BRANCH  19  20
ATOM     20  C   UNL     1       6.132  46.111  21.157  1.00  0.00     0.000 C 
BRANCH  20  21
ATOM     21  C   UNL     1       6.945  45.269  20.157  1.00  0.00     0.000 C 
BRANCH  21  22
ATOM     22  C   UNL     1       8.406  45.733  20.032  1.00  0.00    -0.000 C 
BRANCH  22  23
ATOM     23  C   UNL     1       9.441  44.608  19.821  1.00  0.00    -0.000 C 
BRANCH  23  24
ATOM     24  C   UNL     1       9.839  43.839  21.095  1.00  0.00    -0.000 C 
BRANCH  24  25
ATOM     25  C   UNL     1       8.945  42.630  21.430  1.00  0.00    -0.000 C 
BRANCH  25  26
ATOM     26  C   UNL     1       8.356  42.668  22.857  1.00  0.00    -0.000 C 
BRANCH  26  27
ATOM     27  C   UNL     1       9.319  42.088  23.910  1.00  0.00    -0.000 C 
BRANCH  27  28
ATOM     28  C   UNL     1      10.346  43.119  24.414  1.00  0.00    -0.000 C 
BRANCH  28  29
ATOM     29  C   UNL     1      10.748  42.961  25.891  1.00  0.00    -0.003 C 
ATOM     30  C   UNL     1       9.553  42.734  26.816  1.00  0.00     0.004 C 
ENDBRANCH  28  29
ENDBRANCH  27  28
ENDBRANCH  26  27
ENDBRANCH  25  26
ENDBRANCH  24  25
ENDBRANCH  23  24
ENDBRANCH  22  23
ENDBRANCH  21  22
ENDBRANCH  20  21
ENDBRANCH  19  20
ENDBRANCH  18  19
ENDBRANCH  17  18
ENDBRANCH   1  17
TORSDOF 26
ENDMDL
MODEL 8
REMARK VINA RESULT:    25.458      2.686     12.114
REMARK INTER + INTRA:          62.881
REMARK INTER:                  63.550
REMARK INTRA:                  -0.670
REMARK UNBOUND:                -1.272
REMARK SMILES CCCCCCCCCCCCCCCCCCCCCCCCCCCC(=O)[O-]
REMARK SMILES IDX 15 1 16 2 17 3 18 4 19 5 20 6 21 7 22 8 23 9 24 10 25 11
REMARK SMILES IDX 26 12 27 13 28 14 29 15 30 16 14 17 13 18 12 19 11 20 10 21
REMARK SMILES IDX 9 22 8 23 7 24 6 25 5 26 4 27 3 28 2 29 1 30
REMARK H PARENT
REMARK Flexibility Score: inf
ROOT
ATOM      1  C   UNL     1       3.009  44.661  18.067  1.00  0.00     0.000 C 
ENDROOT
BRANCH   1   2
ATOM      2  C   UNL     1       2.694  45.716  19.143  1.00  0.00     0.000 C 
BRANCH   2   3
ATOM      3  C   UNL     1       2.124  45.095  20.437  1.00  0.00     0.000 C 
BRANCH   3   4
ATOM      4  C   UNL     1       2.629  43.668  20.723  1.00  0.00     0.000 C 
BRANCH   4   5
ATOM      5  C   UNL     1       2.263  43.111  22.109  1.00  0.00     0.000 C 
BRANCH   5   6
ATOM      6  C   UNL     1       2.826  41.702  22.352  1.00  0.00     0.000 C 
BRANCH   6   7
ATOM      7  C   UNL     1       3.903  41.721  23.448  1.00  0.00     0.000 C 
BRANCH   7   8
ATOM      8  C   UNL     1       5.333  41.679  22.879  1.00  0.00     0.000 C 
BRANCH   8   9
ATOM      9  C   UNL     1       6.139  42.983  23.038  1.00  0.00     0.000 C 
BRANCH   9  10
ATOM     10  C   UNL     1       7.352  42.887  23.980  1.00  0.00     0.000 C 
BRANCH  10  11
ATOM     11  C   UNL     1       8.511  42.078  23.375  1.00  0.00     0.000 C 
BRANCH  11  12
ATOM     12  C   UNL     1       9.100  42.746  22.121  1.00  0.00     0.006 C 
BRANCH  12  13
ATOM     13  C   UNL     1       8.675  42.042  20.826  1.00  0.00     0.053 C 
BRANCH  13  14
ATOM     14  C   UNL     1       9.569  42.445  19.696  1.00  0.00     0.041 C 
ATOM     15  O   UNL     1      10.238  43.509  19.765  1.00  0.00    -0.550 OA
ATOM     16  O   UNL     1       9.702  41.620  18.586  1.00  0.00    -0.550 OA
ENDBRANCH  13  14
ENDBRANCH  12  13
ENDBRANCH  11  12
ENDBRANCH  10  11
ENDBRANCH   9  10
ENDBRANCH   8   9
ENDBRANCH   7   8
ENDBRANCH   6   7
ENDBRANCH   5   6
ENDBRANCH   4   5
ENDBRANCH   3   4
ENDBRANCH   2   3
ENDBRANCH   1   2
BRANCH   1  17
ATOM     17  C   UNL     1       3.647  45.270  16.809  1.00  0.00     0.000 C 
BRANCH  17  18
ATOM     18  C   UNL     1       2.759  46.344  16.154  1.00  0.00     0.000 C 
BRANCH  18  19
ATOM     19  C   UNL     1       3.563  47.532  15.598  1.00  0.00     0.000 C 
BRANCH  19  20
ATOM     20  C   UNL     1       3.124  48.028  14.209  1.00  0.00     0.000 C 
BRANCH  20  21
ATOM     21  C   UNL     1       4.242  48.764  13.450  1.00  0.00     0.000 C 
BRANCH  21  22
ATOM     22  C   UNL     1       4.927  47.884  12.390  1.00  0.00    -0.000 C 
BRANCH  22  23
ATOM     23  C   UNL     1       4.125  47.673  11.089  1.00  0.00    -0.000 C 
BRANCH  23  24
ATOM     24  C   UNL     1       4.967  47.653   9.799  1.00  0.00    -0.000 C 
BRANCH  24  25
ATOM     25  C   UNL     1       4.993  48.982   9.020  1.00  0.00    -0.000 C 
BRANCH  25  26
ATOM     26  C   UNL     1       5.748  50.115   9.749  1.00  0.00    -0.000 C 
BRANCH  26  27
ATOM     27  C   UNL     1       7.277  49.944   9.684  1.00  0.00    -0.000 C 
BRANCH  27  28
ATOM     28  C   UNL     1       7.706  48.706   8.875  1.00  0.00    -0.000 C 
BRANCH  28  29
ATOM     29  C   UNL     1       7.955  47.439   9.714  1.00  0.00    -0.003 C 
ATOM     30  C   UNL     1       7.980  46.162   8.875  1.00  0.00     0.004 C 
ENDBRANCH  28  29
ENDBRANCH  27  28
ENDBRANCH  26  27
ENDBRANCH  25  26
ENDBRANCH  24  25
ENDBRANCH  23  24
ENDBRANCH  22  23
ENDBRANCH  21  22
ENDBRANCH  20  21
ENDBRANCH  19  20
ENDBRANCH  18  19
ENDBRANCH  17  18
ENDBRANCH   1  17
TORSDOF 26
ENDMDL
MODEL 9
REMARK VINA RESULT:    25.627      4.658     11.263
REMARK INTER + INTRA:          63.308
REMARK INTER:                  64.446
REMARK INTRA:                  -1.137
REMARK UNBOUND:                -1.272
REMARK SMILES CCCCCCCCCCCCCCCCCCCCCCCCCCCC(=O)[O-]
REMARK SMILES IDX 15 1 16 2 17 3 18 4 19 5 20 6 21 7 22 8 23 9 24 10 25 11
REMARK SMILES IDX 26 12 27 13 28 14 29 15 30 16 14 17 13 18 12 19 11 20 10 21
REMARK SMILES IDX 9 22 8 23 7 24 6 25 5 26 4 27 3 28 2 29 1 30
REMARK H PARENT
REMARK Flexibility Score: inf
ROOT
ATOM      1  C   UNL     1       3.121  46.126  20.273  1.00  0.00     0.000 C 
ENDROOT
BRANCH   1   2
ATOM      2  C   UNL     1       4.569  45.751  19.905  1.00  0.00     0.000 C 
BRANCH   2   3
ATOM      3  C   UNL     1       5.600  46.307  20.911  1.00  0.00     0.000 C 
BRANCH   3   4
ATOM      4  C   UNL     1       6.894  45.476  21.009  1.00  0.00     0.000 C 
BRANCH   4   5
ATOM      5  C   UNL     1       8.046  45.952  20.110  1.00  0.00     0.000 C 
BRANCH   5   6
ATOM      6  C   UNL     1       8.634  44.824  19.248  1.00  0.00     0.000 C 
BRANCH   6   7
ATOM      7  C   UNL     1       9.714  44.048  20.018  1.00  0.00     0.000 C 
BRANCH   7   8
ATOM      8  C   UNL     1       9.408  42.543  20.120  1.00  0.00     0.000 C 
BRANCH   8   9
ATOM      9  C   UNL     1       9.181  41.829  18.773  1.00  0.00     0.000 C 
BRANCH   9  10
ATOM     10  C   UNL     1      10.326  40.900  18.329  1.00  0.00     0.000 C 
BRANCH  10  11
ATOM     11  C   UNL     1      10.590  40.967  16.815  1.00  0.00     0.000 C 
BRANCH  11  12
ATOM     12  C   UNL     1      11.881  40.237  16.412  1.00  0.00     0.006 C 
BRANCH  12  13
ATOM     13  C   UNL     1      12.033  38.881  17.115  1.00  0.00     0.053 C 
BRANCH  13  14
ATOM     14  C   UNL     1      13.454  38.666  17.531  1.00  0.00     0.041 C 
ATOM     15  O   UNL     1      14.364  39.417  17.093  1.00  0.00    -0.550 OA
ATOM     16  O   UNL     1      13.767  37.666  18.444  1.00  0.00    -0.550 OA
ENDBRANCH  13  14
ENDBRANCH  12  13
ENDBRANCH  11  12
ENDBRANCH  10  11
ENDBRANCH   9  10
ENDBRANCH   8   9
ENDBRANCH   7   8
ENDBRANCH   6   7
ENDBRANCH   5   6
ENDBRANCH   4   5
ENDBRANCH   3   4
ENDBRANCH   2   3
ENDBRANCH   1   2
BRANCH   1  17
ATOM     17  C   UNL     1       2.083  45.377  19.423  1.00  0.00     0.000 C 
BRANCH  17  18
ATOM     18  C   UNL     1       2.294  45.583  17.912  1.00  0.00     0.000 C 
BRANCH  18  19
ATOM     19  C   UNL     1       2.812  46.990  17.564  1.00  0.00     0.000 C 
BRANCH  19  20
ATOM     20  C   UNL     1       2.445  47.494  16.156  1.00  0.00     0.000 C 
BRANCH  20  21
ATOM     21  C   UNL     1       3.131  46.698  15.033  1.00  0.00     0.000 C 
BRANCH  21  22
ATOM     22  C   UNL     1       4.026  47.574  14.139  1.00  0.00    -0.000 C 
BRANCH  22  23
ATOM     23  C   UNL     1       3.757  47.461  12.623  1.00  0.00    -0.000 C 
BRANCH  23  24
ATOM     24  C   UNL     1       4.526  48.467  11.746  1.00  0.00    -0.000 C 
BRANCH  24  25
ATOM     25  C   UNL     1       3.986  48.623  10.312  1.00  0.00    -0.000 C 
BRANCH  25  26
ATOM     26  C   UNL     1       4.891  49.477   9.397  1.00  0.00    -0.000 C 
BRANCH  26  27
ATOM     27  C   UNL     1       6.112  48.695   8.877  1.00  0.00    -0.000 C 
BRANCH  27  28
ATOM     28  C   UNL     1       7.427  49.119   9.557  1.00  0.00    -0.000 C 
BRANCH  28  29
ATOM     29  C   UNL     1       8.226  47.968  10.194  1.00  0.00    -0.003 C 
ATOM     30  C   UNL     1       7.712  46.586   9.788  1.00  0.00     0.004 C 
ENDBRANCH  28  29
ENDBRANCH  27  28
ENDBRANCH  26  27
ENDBRANCH  25  26
ENDBRANCH  24  25
ENDBRANCH  23  24
ENDBRANCH  22  23
ENDBRANCH  21  22
ENDBRANCH  20  21
ENDBRANCH  19  20
ENDBRANCH  18  19
ENDBRANCH  17  18
ENDBRANCH   1  17
TORSDOF 26
ENDMDL
