MODEL 1
REMARK VINA RESULT:    -6.072      0.000      0.000
REMARK INTER + INTRA:          -7.503
REMARK INTER:                  -7.315
REMARK INTRA:                  -0.188
REMARK UNBOUND:                -0.188
REMARK SMILES C=CCc1ccc(O)c(OC)c1
REMARK SMILES IDX 9 1 7 2 6 3 5 4 4 5 12 6 10 7 11 8 8 9 3 11 2 12 1 13
REMARK H PARENT 8 10
REMARK Flexibility Score: inf
ROOT
ATOM      1  C   UNL     1       2.961  44.186  -2.553  1.00  0.00     0.160 A 
ATOM      2  C   UNL     1       1.809  44.423  -3.327  1.00  0.00     0.157 A 
ATOM      3  C   UNL     1       0.588  44.690  -2.701  1.00  0.00     0.050 A 
ATOM      4  C   UNL     1       0.500  44.728  -1.309  1.00  0.00     0.008 A 
ATOM      5  C   UNL     1       1.639  44.505  -0.523  1.00  0.00    -0.040 A 
ATOM      6  C   UNL     1       2.865  44.226  -1.148  1.00  0.00     0.054 A 
ENDROOT
BRANCH   1   7
ATOM      7  O   UNL     1       4.173  43.915  -3.208  1.00  0.00    -0.493 OA
ATOM      8  C   UNL     1       5.261  43.200  -2.631  1.00  0.00     0.278 C 
ENDBRANCH   1   7
BRANCH   2   9
ATOM      9  O   UNL     1       1.859  44.394  -4.721  1.00  0.00    -0.504 OA
ATOM     10  H   UNL     1       1.733  45.228  -5.283  1.00  0.00     0.293 HD
ENDBRANCH   2   9
BRANCH   5  11
ATOM     11  C   UNL     1       1.541  44.517   0.980  1.00  0.00     0.062 C 
BRANCH  11  12
ATOM     12  C   UNL     1       2.849  44.927   1.596  1.00  0.00    -0.030 C 
ATOM     13  C   UNL     1       2.900  45.730   2.663  1.00  0.00     0.004 C 
ENDBRANCH  11  12
ENDBRANCH   5  11
TORSDOF 4
ENDMDL
MODEL 2
REMARK VINA RESULT:    -5.813      1.076      1.717
REMARK INTER + INTRA:          -7.190
REMARK INTER:                  -6.976
REMARK INTRA:                  -0.214
REMARK UNBOUND:                -0.188
REMARK SMILES C=CCc1ccc(O)c(OC)c1
REMARK SMILES IDX 9 1 7 2 6 3 5 4 4 5 12 6 10 7 11 8 8 9 3 11 2 12 1 13
REMARK H PARENT 8 10
REMARK Flexibility Score: inf
ROOT
ATOM      1  C   UNL     1       2.832  44.195  -2.586  1.00  0.00     0.160 A 
ATOM      2  C   UNL     1       1.787  44.464  -3.489  1.00  0.00     0.157 A 
ATOM      3  C   UNL     1       0.507  44.761  -3.011  1.00  0.00     0.050 A 
ATOM      4  C   UNL     1       0.255  44.796  -1.639  1.00  0.00     0.008 A 
ATOM      5  C   UNL     1       1.287  44.540  -0.724  1.00  0.00    -0.040 A 
ATOM      6  C   UNL     1       2.571  44.233  -1.201  1.00  0.00     0.054 A 
ENDROOT
BRANCH   1   7
ATOM      7  O   UNL     1       4.106  43.896  -3.094  1.00  0.00    -0.493 OA
ATOM      8  C   UNL     1       5.140  43.255  -2.354  1.00  0.00     0.278 C 
ENDBRANCH   1   7
BRANCH   2   9
ATOM      9  O   UNL     1       2.001  44.439  -4.867  1.00  0.00    -0.504 OA
ATOM     10  H   UNL     1       2.257  45.270  -5.389  1.00  0.00     0.293 HD
ENDBRANCH   2   9
BRANCH   5  11
ATOM     11  C   UNL     1       1.010  44.549   0.756  1.00  0.00     0.062 C 
BRANCH  11  12
ATOM     12  C   UNL     1      -0.469  44.529   1.022  1.00  0.00    -0.030 C 
ATOM     13  C   UNL     1      -1.094  43.419   1.426  1.00  0.00     0.004 C 
ENDBRANCH  11  12
ENDBRANCH   5  11
TORSDOF 4
ENDMDL
MODEL 3
REMARK VINA RESULT:    -5.798      2.485      3.880
REMARK INTER + INTRA:          -7.173
REMARK INTER:                  -6.984
REMARK INTRA:                  -0.189
REMARK UNBOUND:                -0.188
REMARK SMILES C=CCc1ccc(O)c(OC)c1
REMARK SMILES IDX 9 1 7 2 6 3 5 4 4 5 12 6 10 7 11 8 8 9 3 11 2 12 1 13
REMARK H PARENT 8 10
REMARK Flexibility Score: inf
ROOT
ATOM      1  C   UNL     1      -0.938  45.046  -1.068  1.00  0.00     0.160 A 
ATOM      2  C   UNL     1      -0.636  44.984  -2.442  1.00  0.00     0.157 A 
ATOM      3  C   UNL     1       0.677  44.747  -2.860  1.00  0.00     0.050 A 
ATOM      4  C   UNL     1       1.696  44.567  -1.924  1.00  0.00     0.008 A 
ATOM      5  C   UNL     1       1.411  44.616  -0.552  1.00  0.00    -0.040 A 
ATOM      6  C   UNL     1       0.096  44.863  -0.128  1.00  0.00     0.054 A 
ENDROOT
BRANCH   1   7
ATOM      7  O   UNL     1      -2.264  45.290  -0.676  1.00  0.00    -0.493 OA
ATOM      8  C   UNL     1      -2.896  44.694   0.452  1.00  0.00     0.278 C 
ENDBRANCH   1   7
BRANCH   2   9
ATOM      9  O   UNL     1      -1.629  45.158  -3.406  1.00  0.00    -0.504 OA
ATOM     10  H   UNL     1      -1.470  45.690  -4.254  1.00  0.00     0.293 HD
ENDBRANCH   2   9
BRANCH   5  11
ATOM     11  C   UNL     1       2.515  44.451   0.460  1.00  0.00     0.062 C 
BRANCH  11  12
ATOM     12  C   UNL     1       2.092  44.983   1.800  1.00  0.00    -0.030 C 
ATOM     13  C   UNL     1       2.985  45.399   2.703  1.00  0.00     0.004 C 
ENDBRANCH  11  12
ENDBRANCH   5  11
TORSDOF 4
ENDMDL
MODEL 4
REMARK VINA RESULT:    -5.757      1.788      2.831
REMARK INTER + INTRA:          -7.124
REMARK INTER:                  -6.926
REMARK INTRA:                  -0.198
REMARK UNBOUND:                -0.188
REMARK SMILES C=CCc1ccc(O)c(OC)c1
REMARK SMILES IDX 9 1 7 2 6 3 5 4 4 5 12 6 10 7 11 8 8 9 3 11 2 12 1 13
REMARK H PARENT 8 10
REMARK Flexibility Score: inf
ROOT
ATOM      1  C   UNL     1       0.750  44.567  -1.323  1.00  0.00     0.160 A 
ATOM      2  C   UNL     1      -0.521  44.786  -0.759  1.00  0.00     0.157 A 
ATOM      3  C   UNL     1      -0.653  44.964   0.622  1.00  0.00     0.050 A 
ATOM      4  C   UNL     1       0.469  44.929   1.449  1.00  0.00     0.008 A 
ATOM      5  C   UNL     1       1.744  44.722   0.903  1.00  0.00    -0.040 A 
ATOM      6  C   UNL     1       1.879  44.533  -0.481  1.00  0.00     0.054 A 
ENDROOT
BRANCH   1   7
ATOM      7  O   UNL     1       0.852  44.387  -2.712  1.00  0.00    -0.493 OA
ATOM      8  C   UNL     1       2.074  44.423  -3.443  1.00  0.00     0.278 C 
ENDBRANCH   1   7
BRANCH   2   9
ATOM      9  O   UNL     1      -1.666  44.829  -1.555  1.00  0.00    -0.504 OA
ATOM     10  H   UNL     1      -1.723  44.348  -2.445  1.00  0.00     0.293 HD
ENDBRANCH   2   9
BRANCH   5  11
ATOM     11  C   UNL     1       2.953  44.655   1.798  1.00  0.00     0.062 C 
BRANCH  11  12
ATOM     12  C   UNL     1       2.892  45.720   2.857  1.00  0.00    -0.030 C 
ATOM     13  C   UNL     1       3.787  45.777   3.847  1.00  0.00     0.004 C 
ENDBRANCH  11  12
ENDBRANCH   5  11
TORSDOF 4
ENDMDL
MODEL 5
REMARK VINA RESULT:    -5.695      2.210      3.591
REMARK INTER + INTRA:          -7.048
REMARK INTER:                  -6.811
REMARK INTRA:                  -0.238
REMARK UNBOUND:                -0.188
REMARK SMILES C=CCc1ccc(O)c(OC)c1
REMARK SMILES IDX 9 1 7 2 6 3 5 4 4 5 12 6 10 7 11 8 8 9 3 11 2 12 1 13
REMARK H PARENT 8 10
REMARK Flexibility Score: inf
ROOT
ATOM      1  C   UNL     1       0.986  44.870  -1.772  1.00  0.00     0.160 A 
ATOM      2  C   UNL     1       2.136  44.675  -0.984  1.00  0.00     0.157 A 
ATOM      3  C   UNL     1       2.014  44.443   0.389  1.00  0.00     0.050 A 
ATOM      4  C   UNL     1       0.755  44.400   0.989  1.00  0.00     0.008 A 
ATOM      5  C   UNL     1      -0.402  44.582   0.218  1.00  0.00    -0.040 A 
ATOM      6  C   UNL     1      -0.282  44.825  -1.159  1.00  0.00     0.054 A 
ENDROOT
BRANCH   1   7
ATOM      7  O   UNL     1       1.139  45.106  -3.147  1.00  0.00    -0.493 OA
ATOM      8  C   UNL     1       1.007  44.111  -4.157  1.00  0.00     0.278 C 
ENDBRANCH   1   7
BRANCH   2   9
ATOM      9  O   UNL     1       3.411  44.710  -1.549  1.00  0.00    -0.504 OA
ATOM     10  H   UNL     1       3.572  45.020  -2.500  1.00  0.00     0.293 HD
ENDBRANCH   2   9
BRANCH   5  11
ATOM     11  C   UNL     1      -1.760  44.565   0.869  1.00  0.00     0.062 C 
BRANCH  11  12
ATOM     12  C   UNL     1      -1.864  43.435   1.855  1.00  0.00    -0.030 C 
ATOM     13  C   UNL     1      -2.344  43.622   3.088  1.00  0.00     0.004 C 
ENDBRANCH  11  12
ENDBRANCH   5  11
TORSDOF 4
ENDMDL
MODEL 6
REMARK VINA RESULT:    -5.643      3.525      5.360
REMARK INTER + INTRA:          -6.985
REMARK INTER:                  -6.738
REMARK INTRA:                  -0.247
REMARK UNBOUND:                -0.188
REMARK SMILES C=CCc1ccc(O)c(OC)c1
REMARK SMILES IDX 9 1 7 2 6 3 5 4 4 5 12 6 10 7 11 8 8 9 3 11 2 12 1 13
REMARK H PARENT 8 10
REMARK Flexibility Score: inf
ROOT
ATOM      1  C   UNL     1       0.106  45.487   2.271  1.00  0.00     0.160 A 
ATOM      2  C   UNL     1       0.401  44.726   1.125  1.00  0.00     0.157 A 
ATOM      3  C   UNL     1       1.728  44.417   0.811  1.00  0.00     0.050 A 
ATOM      4  C   UNL     1       2.769  44.857   1.630  1.00  0.00     0.008 A 
ATOM      5  C   UNL     1       2.493  45.608   2.781  1.00  0.00    -0.040 A 
ATOM      6  C   UNL     1       1.163  45.928   3.094  1.00  0.00     0.054 A 
ENDROOT
BRANCH   1   7
ATOM      7  O   UNL     1      -1.234  45.786   2.560  1.00  0.00    -0.493 OA
ATOM      8  C   UNL     1      -2.062  45.025   3.433  1.00  0.00     0.278 C 
ENDBRANCH   1   7
BRANCH   2   9
ATOM      9  O   UNL     1      -0.613  44.268   0.283  1.00  0.00    -0.504 OA
ATOM     10  H   UNL     1      -1.536  44.033   0.628  1.00  0.00     0.293 HD
ENDBRANCH   2   9
BRANCH   5  11
ATOM     11  C   UNL     1       3.617  46.108   3.650  1.00  0.00     0.062 C 
BRANCH  11  12
ATOM     12  C   UNL     1       4.402  44.959   4.219  1.00  0.00    -0.030 C 
ATOM     13  C   UNL     1       4.337  44.638   5.514  1.00  0.00     0.004 C 
ENDBRANCH  11  12
ENDBRANCH   5  11
TORSDOF 4
ENDMDL
MODEL 7
REMARK VINA RESULT:    -5.599      4.854      6.232
REMARK INTER + INTRA:          -6.932
REMARK INTER:                  -6.761
REMARK INTRA:                  -0.172
REMARK UNBOUND:                -0.188
REMARK SMILES C=CCc1ccc(O)c(OC)c1
REMARK SMILES IDX 9 1 7 2 6 3 5 4 4 5 12 6 10 7 11 8 8 9 3 11 2 12 1 13
REMARK H PARENT 8 10
REMARK Flexibility Score: inf
ROOT
ATOM      1  C   UNL     1      -2.445  44.247   2.183  1.00  0.00     0.160 A 
ATOM      2  C   UNL     1      -3.330  45.027   1.415  1.00  0.00     0.157 A 
ATOM      3  C   UNL     1      -2.885  45.633   0.235  1.00  0.00     0.050 A 
ATOM      4  C   UNL     1      -1.567  45.467  -0.191  1.00  0.00     0.008 A 
ATOM      5  C   UNL     1      -0.675  44.685   0.556  1.00  0.00    -0.040 A 
ATOM      6  C   UNL     1      -1.115  44.084   1.746  1.00  0.00     0.054 A 
ENDROOT
BRANCH   1   7
ATOM      7  O   UNL     1      -2.917  43.655   3.365  1.00  0.00    -0.493 OA
ATOM      8  C   UNL     1      -2.983  44.312   4.627  1.00  0.00     0.278 C 
ENDBRANCH   1   7
BRANCH   2   9
ATOM      9  O   UNL     1      -4.655  45.214   1.809  1.00  0.00    -0.504 OA
ATOM     10  H   UNL     1      -5.138  46.094   1.676  1.00  0.00     0.293 HD
ENDBRANCH   2   9
BRANCH   5  11
ATOM     11  C   UNL     1       0.755  44.529   0.113  1.00  0.00     0.062 C 
BRANCH  11  12
ATOM     12  C   UNL     1       1.670  44.400   1.298  1.00  0.00    -0.030 C 
ATOM     13  C   UNL     1       2.889  44.945   1.306  1.00  0.00     0.004 C 
ENDBRANCH  11  12
ENDBRANCH   5  11
TORSDOF 4
ENDMDL
MODEL 8
REMARK VINA RESULT:    -5.543      7.316      9.384
REMARK INTER + INTRA:          -6.865
REMARK INTER:                  -6.627
REMARK INTRA:                  -0.238
REMARK UNBOUND:                -0.188
REMARK SMILES C=CCc1ccc(O)c(OC)c1
REMARK SMILES IDX 9 1 7 2 6 3 5 4 4 5 12 6 10 7 11 8 8 9 3 11 2 12 1 13
REMARK H PARENT 8 10
REMARK Flexibility Score: inf
ROOT
ATOM      1  C   UNL     1      -1.408  46.487   6.732  1.00  0.00     0.160 A 
ATOM      2  C   UNL     1      -2.536  45.790   7.205  1.00  0.00     0.157 A 
ATOM      3  C   UNL     1      -3.299  45.014   6.327  1.00  0.00     0.050 A 
ATOM      4  C   UNL     1      -2.950  44.923   4.979  1.00  0.00     0.008 A 
ATOM      5  C   UNL     1      -1.825  45.602   4.492  1.00  0.00    -0.040 A 
ATOM      6  C   UNL     1      -1.062  46.390   5.369  1.00  0.00     0.054 A 
ENDROOT
BRANCH   1   7
ATOM      7  O   UNL     1      -0.663  47.262   7.635  1.00  0.00    -0.493 OA
ATOM      8  C   UNL     1       0.753  47.205   7.770  1.00  0.00     0.278 C 
ENDBRANCH   1   7
BRANCH   2   9
ATOM      9  O   UNL     1      -2.915  45.857   8.546  1.00  0.00    -0.504 OA
ATOM     10  H   UNL     1      -2.587  45.189   9.233  1.00  0.00     0.293 HD
ENDBRANCH   2   9
BRANCH   5  11
ATOM     11  C   UNL     1      -1.463  45.528   3.032  1.00  0.00     0.062 C 
BRANCH  11  12
ATOM     12  C   UNL     1      -2.244  44.443   2.345  1.00  0.00    -0.030 C 
ATOM     13  C   UNL     1      -1.636  43.431   1.718  1.00  0.00     0.004 C 
ENDBRANCH  11  12
ENDBRANCH   5  11
TORSDOF 4
ENDMDL
MODEL 9
REMARK VINA RESULT:    -5.517      2.654      4.205
REMARK INTER + INTRA:          -6.834
REMARK INTER:                  -6.600
REMARK INTRA:                  -0.234
REMARK UNBOUND:                -0.188
REMARK SMILES C=CCc1ccc(O)c(OC)c1
REMARK SMILES IDX 9 1 7 2 6 3 5 4 4 5 12 6 10 7 11 8 8 9 3 11 2 12 1 13
REMARK H PARENT 8 10
REMARK Flexibility Score: inf
ROOT
ATOM      1  C   UNL     1       0.182  44.875  -1.677  1.00  0.00     0.160 A 
ATOM      2  C   UNL     1      -0.174  44.818  -3.038  1.00  0.00     0.157 A 
ATOM      3  C   UNL     1       0.787  44.495  -4.001  1.00  0.00     0.050 A 
ATOM      4  C   UNL     1       2.103  44.224  -3.623  1.00  0.00     0.008 A 
ATOM      5  C   UNL     1       2.473  44.267  -2.271  1.00  0.00    -0.040 A 
ATOM      6  C   UNL     1       1.512  44.601  -1.303  1.00  0.00     0.054 A 
ENDROOT
BRANCH   1   7
ATOM      7  O   UNL     1      -0.803  45.207  -0.733  1.00  0.00    -0.493 OA
ATOM      8  C   UNL     1      -1.000  44.526   0.502  1.00  0.00     0.278 C 
ENDBRANCH   1   7
BRANCH   2   9
ATOM      9  O   UNL     1      -1.480  45.081  -3.453  1.00  0.00    -0.504 OA
ATOM     10  H   UNL     1      -1.942  44.528  -4.165  1.00  0.00     0.293 HD
ENDBRANCH   2   9
BRANCH   5  11
ATOM     11  C   UNL     1       3.898  44.004  -1.864  1.00  0.00     0.062 C 
BRANCH  11  12
ATOM     12  C   UNL     1       4.760  43.755  -3.070  1.00  0.00    -0.030 C 
ATOM     13  C   UNL     1       5.822  44.519  -3.343  1.00  0.00     0.004 C 
ENDBRANCH  11  12
ENDBRANCH   5  11
TORSDOF 4
ENDMDL
