MODEL 1
REMARK VINA RESULT:    -6.731      0.000      0.000
REMARK INTER + INTRA:          -7.907
REMARK INTER:                  -8.108
REMARK INTRA:                   0.200
REMARK UNBOUND:                 0.200
REMARK SMILES O=c1c(O)c(-c2ccc(O)c(O)c2)oc2cc(O)cc(O)c12
REMARK SMILES IDX 5 1 3 2 2 3 1 4 22 5 20 6 19 7 17 8 16 9 15 10 14 11 6 12
REMARK SMILES IDX 7 13 8 14 9 15 13 16 11 17 10 18 12 20 4 22 21 24 18 26
REMARK H PARENT 10 19 12 21 4 23 21 25 18 27
REMARK Flexibility Score: inf
ROOT
ATOM      1  C   UNL     1     118.369 119.075 110.994  1.00  0.00     0.180 A 
ATOM      2  C   UNL     1     119.223 120.179 111.158  1.00  0.00     0.208 A 
ATOM      3  C   UNL     1     119.415 120.707 112.445  1.00  0.00     0.238 A 
ATOM      4  O   UNL     1     120.222 121.661 112.593  1.00  0.00    -0.285 OA
ATOM      5  C   UNL     1     118.738 120.136 113.549  1.00  0.00     0.111 A 
ATOM      6  C   UNL     1     118.827 120.615 114.891  1.00  0.00     0.134 A 
ATOM      7  C   UNL     1     118.217 119.892 115.924  1.00  0.00     0.093 A 
ATOM      8  C   UNL     1     117.467 118.745 115.655  1.00  0.00     0.123 A 
ATOM      9  C   UNL     1     117.325 118.302 114.342  1.00  0.00     0.094 A 
ATOM     10  C   UNL     1     117.952 118.981 113.294  1.00  0.00     0.146 A 
ATOM     11  O   UNL     1     117.801 118.520 112.058  1.00  0.00    -0.452 OA
ENDROOT
BRANCH   1  12
ATOM     12  C   UNL     1     118.098 118.478 109.667  1.00  0.00     0.025 A 
ATOM     13  C   UNL     1     118.006 117.088 109.496  1.00  0.00     0.016 A 
ATOM     14  C   UNL     1     117.772 116.546 108.230  1.00  0.00     0.051 A 
ATOM     15  C   UNL     1     117.640 117.377 107.112  1.00  0.00     0.157 A 
ATOM     16  C   UNL     1     117.987 119.311 108.543  1.00  0.00     0.062 A 
ATOM     17  C   UNL     1     117.753 118.778 107.270  1.00  0.00     0.158 A 
BRANCH  15  18
ATOM     18  O   UNL     1     117.403 116.772 105.875  1.00  0.00    -0.504 OA
ATOM     19  H   UNL     1     116.490 116.485 105.553  1.00  0.00     0.293 HD
ENDBRANCH  15  18
BRANCH  17  20
ATOM     20  O   UNL     1     117.642 119.669 106.200  1.00  0.00    -0.504 OA
ATOM     21  H   UNL     1     118.050 119.511 105.289  1.00  0.00     0.293 HD
ENDBRANCH  17  20
ENDBRANCH   1  12
BRANCH   2  22
ATOM     22  O   UNL     1     119.899 120.714 110.058  1.00  0.00    -0.502 OA
ATOM     23  H   UNL     1     119.421 121.006 109.214  1.00  0.00     0.293 HD
ENDBRANCH   2  22
BRANCH   6  24
ATOM     24  O   UNL     1     119.472 121.800 115.255  1.00  0.00    -0.507 OA
ATOM     25  H   UNL     1     119.003 122.646 115.542  1.00  0.00     0.293 HD
ENDBRANCH   6  24
BRANCH   8  26
ATOM     26  O   UNL     1     116.851 118.041 116.687  1.00  0.00    -0.508 OA
ATOM     27  H   UNL     1     115.966 118.341 117.080  1.00  0.00     0.293 HD
ENDBRANCH   8  26
TORSDOF 6
ENDMDL
MODEL 2
REMARK VINA RESULT:    -6.629      1.327      2.928
REMARK INTER + INTRA:          -7.785
REMARK INTER:                  -7.650
REMARK INTRA:                  -0.135
REMARK UNBOUND:                 0.200
REMARK SMILES O=c1c(O)c(-c2ccc(O)c(O)c2)oc2cc(O)cc(O)c12
REMARK SMILES IDX 5 1 3 2 2 3 1 4 22 5 20 6 19 7 17 8 16 9 15 10 14 11 6 12
REMARK SMILES IDX 7 13 8 14 9 15 13 16 11 17 10 18 12 20 4 22 21 24 18 26
REMARK H PARENT 10 19 12 21 4 23 21 25 18 27
REMARK Flexibility Score: inf
ROOT
ATOM      1  C   UNL     1     117.814 118.038 111.149  1.00  0.00     0.180 A 
ATOM      2  C   UNL     1     116.820 117.621 112.052  1.00  0.00     0.208 A 
ATOM      3  C   UNL     1     116.804 118.168 113.346  1.00  0.00     0.238 A 
ATOM      4  O   UNL     1     115.880 117.832 114.132  1.00  0.00    -0.285 OA
ATOM      5  C   UNL     1     117.789 119.110 113.725  1.00  0.00     0.111 A 
ATOM      6  C   UNL     1     117.891 119.698 115.022  1.00  0.00     0.134 A 
ATOM      7  C   UNL     1     118.826 120.717 115.247  1.00  0.00     0.093 A 
ATOM      8  C   UNL     1     119.705 121.122 114.239  1.00  0.00     0.123 A 
ATOM      9  C   UNL     1     119.653 120.513 112.989  1.00  0.00     0.094 A 
ATOM     10  C   UNL     1     118.707 119.520 112.723  1.00  0.00     0.146 A 
ATOM     11  O   UNL     1     118.684 118.972 111.513  1.00  0.00    -0.452 OA
ENDROOT
BRANCH   1  12
ATOM     12  C   UNL     1     117.912 117.489 109.777  1.00  0.00     0.025 A 
ATOM     13  C   UNL     1     118.093 116.116 109.551  1.00  0.00     0.016 A 
ATOM     14  C   UNL     1     118.206 115.625 108.249  1.00  0.00     0.051 A 
ATOM     15  C   UNL     1     118.155 116.491 107.151  1.00  0.00     0.157 A 
ATOM     16  C   UNL     1     117.882 118.363 108.679  1.00  0.00     0.062 A 
ATOM     17  C   UNL     1     117.994 117.880 107.370  1.00  0.00     0.158 A 
BRANCH  15  18
ATOM     18  O   UNL     1     118.270 115.935 105.875  1.00  0.00    -0.504 OA
ATOM     19  H   UNL     1     117.680 116.186 105.095  1.00  0.00     0.293 HD
ENDBRANCH  15  18
BRANCH  17  20
ATOM     20  O   UNL     1     117.944 118.807 106.326  1.00  0.00    -0.504 OA
ATOM     21  H   UNL     1     118.302 119.749 106.390  1.00  0.00     0.293 HD
ENDBRANCH  17  20
ENDBRANCH   1  12
BRANCH   2  22
ATOM     22  O   UNL     1     115.844 116.706 111.650  1.00  0.00    -0.502 OA
ATOM     23  H   UNL     1     115.063 116.448 112.241  1.00  0.00     0.293 HD
ENDBRANCH   2  22
BRANCH   6  24
ATOM     24  O   UNL     1     117.125 119.302 116.121  1.00  0.00    -0.507 OA
ATOM     25  H   UNL     1     116.134 119.464 116.220  1.00  0.00     0.293 HD
ENDBRANCH   6  24
BRANCH   8  26
ATOM     26  O   UNL     1     120.643 122.125 114.476  1.00  0.00    -0.508 OA
ATOM     27  H   UNL     1     121.091 122.230 115.379  1.00  0.00     0.293 HD
ENDBRANCH   8  26
TORSDOF 6
ENDMDL
MODEL 3
REMARK VINA RESULT:    -6.596     15.228     17.375
REMARK INTER + INTRA:          -7.745
REMARK INTER:                  -7.905
REMARK INTRA:                   0.160
REMARK UNBOUND:                 0.200
REMARK SMILES O=c1c(O)c(-c2ccc(O)c(O)c2)oc2cc(O)cc(O)c12
REMARK SMILES IDX 5 1 3 2 2 3 1 4 22 5 20 6 19 7 17 8 16 9 15 10 14 11 6 12
REMARK SMILES IDX 7 13 8 14 9 15 13 16 11 17 10 18 12 20 4 22 21 24 18 26
REMARK H PARENT 10 19 12 21 4 23 21 25 18 27
REMARK Flexibility Score: inf
ROOT
ATOM      1  C   UNL     1     114.980 103.288 111.051  1.00  0.00     0.180 A 
ATOM      2  C   UNL     1     115.893 102.679 110.174  1.00  0.00     0.208 A 
ATOM      3  C   UNL     1     115.700 102.814 108.789  1.00  0.00     0.238 A 
ATOM      4  O   UNL     1     116.550 102.313 108.008  1.00  0.00    -0.285 OA
ATOM      5  C   UNL     1     114.589 103.542 108.300  1.00  0.00     0.111 A 
ATOM      6  C   UNL     1     114.274 103.709 106.918  1.00  0.00     0.134 A 
ATOM      7  C   UNL     1     113.224 104.558 106.546  1.00  0.00     0.093 A 
ATOM      8  C   UNL     1     112.437 105.194 107.510  1.00  0.00     0.123 A 
ATOM      9  C   UNL     1     112.699 104.990 108.862  1.00  0.00     0.094 A 
ATOM     10  C   UNL     1     113.763 104.178 109.264  1.00  0.00     0.146 A 
ATOM     11  O   UNL     1     113.985 104.019 110.563  1.00  0.00    -0.452 OA
ENDROOT
BRANCH   1  12
ATOM     12  C   UNL     1     115.102 103.169 112.523  1.00  0.00     0.025 A 
ATOM     13  C   UNL     1     115.555 101.985 113.125  1.00  0.00     0.016 A 
ATOM     14  C   UNL     1     115.641 101.888 114.515  1.00  0.00     0.051 A 
ATOM     15  C   UNL     1     115.264 102.962 115.330  1.00  0.00     0.157 A 
ATOM     16  C   UNL     1     114.704 104.239 113.338  1.00  0.00     0.062 A 
ATOM     17  C   UNL     1     114.786 104.152 114.733  1.00  0.00     0.158 A 
BRANCH  15  18
ATOM     18  O   UNL     1     115.377 102.802 116.713  1.00  0.00    -0.504 OA
ATOM     19  H   UNL     1     116.210 102.466 117.176  1.00  0.00     0.293 HD
ENDBRANCH  15  18
BRANCH  17  20
ATOM     20  O   UNL     1     114.383 105.261 115.481  1.00  0.00    -0.504 OA
ATOM     21  H   UNL     1     113.520 105.306 116.004  1.00  0.00     0.293 HD
ENDBRANCH  17  20
ENDBRANCH   1  12
BRANCH   2  22
ATOM     22  O   UNL     1     116.996 101.984 110.676  1.00  0.00    -0.502 OA
ATOM     23  H   UNL     1     117.820 102.453 111.033  1.00  0.00     0.293 HD
ENDBRANCH   2  22
BRANCH   6  24
ATOM     24  O   UNL     1     114.937 103.048 105.881  1.00  0.00    -0.507 OA
ATOM     25  H   UNL     1     115.372 102.141 105.962  1.00  0.00     0.293 HD
ENDBRANCH   6  24
BRANCH   8  26
ATOM     26  O   UNL     1     111.384 106.024 107.133  1.00  0.00    -0.508 OA
ATOM     27  H   UNL     1     111.497 107.029 107.070  1.00  0.00     0.293 HD
ENDBRANCH   8  26
TORSDOF 6
ENDMDL
MODEL 4
REMARK VINA RESULT:    -6.580      1.169      6.680
REMARK INTER + INTRA:          -7.726
REMARK INTER:                  -8.040
REMARK INTRA:                   0.314
REMARK UNBOUND:                 0.200
REMARK SMILES O=c1c(O)c(-c2ccc(O)c(O)c2)oc2cc(O)cc(O)c12
REMARK SMILES IDX 5 1 3 2 2 3 1 4 22 5 20 6 19 7 17 8 16 9 15 10 14 11 6 12
REMARK SMILES IDX 7 13 8 14 9 15 13 16 11 17 10 18 12 20 4 22 21 24 18 26
REMARK H PARENT 10 19 12 21 4 23 21 25 18 27
REMARK Flexibility Score: inf
ROOT
ATOM      1  C   UNL     1     118.208 119.525 112.200  1.00  0.00     0.180 A 
ATOM      2  C   UNL     1     118.778 120.694 111.670  1.00  0.00     0.208 A 
ATOM      3  C   UNL     1     118.979 120.785 110.283  1.00  0.00     0.238 A 
ATOM      4  O   UNL     1     119.440 121.856 109.808  1.00  0.00    -0.285 OA
ATOM      5  C   UNL     1     118.623 119.700 109.447  1.00  0.00     0.111 A 
ATOM      6  C   UNL     1     118.818 119.668 108.033  1.00  0.00     0.134 A 
ATOM      7  C   UNL     1     118.307 118.597 107.289  1.00  0.00     0.093 A 
ATOM      8  C   UNL     1     117.667 117.526 107.916  1.00  0.00     0.123 A 
ATOM      9  C   UNL     1     117.523 117.519 109.301  1.00  0.00     0.094 A 
ATOM     10  C   UNL     1     117.989 118.592 110.067  1.00  0.00     0.146 A 
ATOM     11  O   UNL     1     117.823 118.551 111.384  1.00  0.00    -0.452 OA
ENDROOT
BRANCH   1  12
ATOM     12  C   UNL     1     117.988 119.344 113.654  1.00  0.00     0.025 A 
ATOM     13  C   UNL     1     118.741 120.056 114.600  1.00  0.00     0.016 A 
ATOM     14  C   UNL     1     118.532 119.852 115.966  1.00  0.00     0.051 A 
ATOM     15  C   UNL     1     117.582 118.928 116.413  1.00  0.00     0.157 A 
ATOM     16  C   UNL     1     117.049 118.401 114.100  1.00  0.00     0.062 A 
ATOM     17  C   UNL     1     116.833 118.189 115.467  1.00  0.00     0.158 A 
BRANCH  15  18
ATOM     18  O   UNL     1     117.419 118.774 117.792  1.00  0.00    -0.504 OA
ATOM     19  H   UNL     1     116.550 118.505 118.231  1.00  0.00     0.293 HD
ENDBRANCH  15  18
BRANCH  17  20
ATOM     20  O   UNL     1     115.874 117.243 115.836  1.00  0.00    -0.504 OA
ATOM     21  H   UNL     1     115.007 117.094 115.340  1.00  0.00     0.293 HD
ENDBRANCH  17  20
ENDBRANCH   1  12
BRANCH   2  22
ATOM     22  O   UNL     1     119.103 121.762 112.510  1.00  0.00    -0.502 OA
ATOM     23  H   UNL     1     118.897 122.725 112.273  1.00  0.00     0.293 HD
ENDBRANCH   2  22
BRANCH   6  24
ATOM     24  O   UNL     1     119.525 120.641 107.321  1.00  0.00    -0.507 OA
ATOM     25  H   UNL     1     119.378 121.635 107.405  1.00  0.00     0.293 HD
ENDBRANCH   6  24
BRANCH   8  26
ATOM     26  O   UNL     1     117.176 116.457 107.171  1.00  0.00    -0.508 OA
ATOM     27  H   UNL     1     116.181 116.279 107.088  1.00  0.00     0.293 HD
ENDBRANCH   8  26
TORSDOF 6
ENDMDL
MODEL 5
REMARK VINA RESULT:    -6.472      1.714      6.404
REMARK INTER + INTRA:          -7.596
REMARK INTER:                  -7.299
REMARK INTRA:                  -0.297
REMARK UNBOUND:                 0.200
REMARK SMILES O=c1c(O)c(-c2ccc(O)c(O)c2)oc2cc(O)cc(O)c12
REMARK SMILES IDX 5 1 3 2 2 3 1 4 22 5 20 6 19 7 17 8 16 9 15 10 14 11 6 12
REMARK SMILES IDX 7 13 8 14 9 15 13 16 11 17 10 18 12 20 4 22 21 24 18 26
REMARK H PARENT 10 19 12 21 4 23 21 25 18 27
REMARK Flexibility Score: inf
ROOT
ATOM      1  C   UNL     1     117.568 118.750 113.420  1.00  0.00     0.180 A 
ATOM      2  C   UNL     1     118.460 119.781 113.764  1.00  0.00     0.208 A 
ATOM      3  C   UNL     1     119.125 120.475 112.739  1.00  0.00     0.238 A 
ATOM      4  O   UNL     1     119.881 121.432 113.050  1.00  0.00    -0.285 OA
ATOM      5  C   UNL     1     118.902 120.120 111.388  1.00  0.00     0.111 A 
ATOM      6  C   UNL     1     119.551 120.730 110.272  1.00  0.00     0.134 A 
ATOM      7  C   UNL     1     119.156 120.389 108.972  1.00  0.00     0.093 A 
ATOM      8  C   UNL     1     118.182 119.412 108.748  1.00  0.00     0.123 A 
ATOM      9  C   UNL     1     117.585 118.770 109.829  1.00  0.00     0.094 A 
ATOM     10  C   UNL     1     117.931 119.115 111.139  1.00  0.00     0.146 A 
ATOM     11  O   UNL     1     117.330 118.485 112.141  1.00  0.00    -0.452 OA
ENDROOT
BRANCH   1  12
ATOM     12  C   UNL     1     116.849 117.956 114.443  1.00  0.00     0.025 A 
ATOM     13  C   UNL     1     117.281 116.671 114.806  1.00  0.00     0.016 A 
ATOM     14  C   UNL     1     116.574 115.931 115.756  1.00  0.00     0.051 A 
ATOM     15  C   UNL     1     115.419 116.451 116.352  1.00  0.00     0.157 A 
ATOM     16  C   UNL     1     115.680 118.471 115.023  1.00  0.00     0.062 A 
ATOM     17  C   UNL     1     114.964 117.737 115.977  1.00  0.00     0.158 A 
BRANCH  15  18
ATOM     18  O   UNL     1     114.761 115.662 117.297  1.00  0.00    -0.504 OA
ATOM     19  H   UNL     1     114.907 115.737 118.294  1.00  0.00     0.293 HD
ENDBRANCH  15  18
BRANCH  17  20
ATOM     20  O   UNL     1     113.816 118.319 116.520  1.00  0.00    -0.504 OA
ATOM     21  H   UNL     1     113.809 119.200 117.014  1.00  0.00     0.293 HD
ENDBRANCH  17  20
ENDBRANCH   1  12
BRANCH   2  22
ATOM     22  O   UNL     1     118.649 120.130 115.103  1.00  0.00    -0.502 OA
ATOM     23  H   UNL     1     119.529 119.989 115.584  1.00  0.00     0.293 HD
ENDBRANCH   2  22
BRANCH   6  24
ATOM     24  O   UNL     1     120.599 121.647 110.385  1.00  0.00    -0.507 OA
ATOM     25  H   UNL     1     121.576 121.420 110.273  1.00  0.00     0.293 HD
ENDBRANCH   6  24
BRANCH   8  26
ATOM     26  O   UNL     1     117.807 119.068 107.452  1.00  0.00    -0.508 OA
ATOM     27  H   UNL     1     118.491 118.787 106.759  1.00  0.00     0.293 HD
ENDBRANCH   8  26
TORSDOF 6
ENDMDL
MODEL 6
REMARK VINA RESULT:    -6.361      3.286      6.772
REMARK INTER + INTRA:          -7.462
REMARK INTER:                  -7.256
REMARK INTRA:                  -0.206
REMARK UNBOUND:                 0.200
REMARK SMILES O=c1c(O)c(-c2ccc(O)c(O)c2)oc2cc(O)cc(O)c12
REMARK SMILES IDX 5 1 3 2 2 3 1 4 22 5 20 6 19 7 17 8 16 9 15 10 14 11 6 12
REMARK SMILES IDX 7 13 8 14 9 15 13 16 11 17 10 18 12 20 4 22 21 24 18 26
REMARK H PARENT 10 19 12 21 4 23 21 25 18 27
REMARK Flexibility Score: inf
ROOT
ATOM      1  C   UNL     1     115.649 118.032 110.598  1.00  0.00     0.180 A 
ATOM      2  C   UNL     1     115.779 117.196 109.476  1.00  0.00     0.208 A 
ATOM      3  C   UNL     1     116.700 117.541 108.473  1.00  0.00     0.238 A 
ATOM      4  O   UNL     1     116.851 116.760 107.497  1.00  0.00    -0.285 OA
ATOM      5  C   UNL     1     117.466 118.724 108.597  1.00  0.00     0.111 A 
ATOM      6  C   UNL     1     118.400 119.191 107.623  1.00  0.00     0.134 A 
ATOM      7  C   UNL     1     119.199 120.305 107.910  1.00  0.00     0.093 A 
ATOM      8  C   UNL     1     119.050 121.008 109.108  1.00  0.00     0.123 A 
ATOM      9  C   UNL     1     118.101 120.596 110.039  1.00  0.00     0.094 A 
ATOM     10  C   UNL     1     117.315 119.466 109.798  1.00  0.00     0.146 A 
ATOM     11  O   UNL     1     116.429 119.100 110.717  1.00  0.00    -0.452 OA
ENDROOT
BRANCH   1  12
ATOM     12  C   UNL     1     114.683 117.750 111.684  1.00  0.00     0.025 A 
ATOM     13  C   UNL     1     114.856 116.658 112.550  1.00  0.00     0.016 A 
ATOM     14  C   UNL     1     113.920 116.398 113.552  1.00  0.00     0.051 A 
ATOM     15  C   UNL     1     112.789 117.209 113.702  1.00  0.00     0.157 A 
ATOM     16  C   UNL     1     113.539 118.551 111.819  1.00  0.00     0.062 A 
ATOM     17  C   UNL     1     112.594 118.298 112.821  1.00  0.00     0.158 A 
BRANCH  15  18
ATOM     18  O   UNL     1     111.893 116.896 114.727  1.00  0.00    -0.504 OA
ATOM     19  H   UNL     1     111.332 117.580 115.214  1.00  0.00     0.293 HD
ENDBRANCH  15  18
BRANCH  17  20
ATOM     20  O   UNL     1     111.487 119.145 112.902  1.00  0.00    -0.504 OA
ATOM     21  H   UNL     1     111.413 120.026 112.414  1.00  0.00     0.293 HD
ENDBRANCH  17  20
ENDBRANCH   1  12
BRANCH   2  22
ATOM     22  O   UNL     1     115.029 116.021 109.384  1.00  0.00    -0.502 OA
ATOM     23  H   UNL     1     114.477 115.665 110.155  1.00  0.00     0.293 HD
ENDBRANCH   2  22
BRANCH   6  24
ATOM     24  O   UNL     1     118.560 118.618 106.359  1.00  0.00    -0.507 OA
ATOM     25  H   UNL     1     119.011 117.732 106.181  1.00  0.00     0.293 HD
ENDBRANCH   6  24
BRANCH   8  26
ATOM     26  O   UNL     1     119.837 122.125 109.378  1.00  0.00    -0.508 OA
ATOM     27  H   UNL     1     120.790 122.034 109.712  1.00  0.00     0.293 HD
ENDBRANCH   8  26
TORSDOF 6
ENDMDL
MODEL 7
REMARK VINA RESULT:    -6.348      2.530      5.942
REMARK INTER + INTRA:          -7.447
REMARK INTER:                  -7.114
REMARK INTRA:                  -0.333
REMARK UNBOUND:                 0.200
REMARK SMILES O=c1c(O)c(-c2ccc(O)c(O)c2)oc2cc(O)cc(O)c12
REMARK SMILES IDX 5 1 3 2 2 3 1 4 22 5 20 6 19 7 17 8 16 9 15 10 14 11 6 12
REMARK SMILES IDX 7 13 8 14 9 15 13 16 11 17 10 18 12 20 4 22 21 24 18 26
REMARK H PARENT 10 19 12 21 4 23 21 25 18 27
REMARK Flexibility Score: inf
ROOT
ATOM      1  C   UNL     1     117.003 118.397 112.144  1.00  0.00     0.180 A 
ATOM      2  C   UNL     1     118.005 119.082 112.852  1.00  0.00     0.208 A 
ATOM      3  C   UNL     1     118.846 119.967 112.157  1.00  0.00     0.238 A 
ATOM      4  O   UNL     1     119.706 120.618 112.806  1.00  0.00    -0.285 OA
ATOM      5  C   UNL     1     118.686 120.143 110.762  1.00  0.00     0.111 A 
ATOM      6  C   UNL     1     119.507 120.983 109.951  1.00  0.00     0.134 A 
ATOM      7  C   UNL     1     119.175 121.183 108.605  1.00  0.00     0.093 A 
ATOM      8  C   UNL     1     118.090 120.520 108.026  1.00  0.00     0.123 A 
ATOM      9  C   UNL     1     117.318 119.652 108.794  1.00  0.00     0.094 A 
ATOM     10  C   UNL     1     117.602 119.461 110.149  1.00  0.00     0.146 A 
ATOM     11  O   UNL     1     116.834 118.634 110.848  1.00  0.00    -0.452 OA
ENDROOT
BRANCH   1  12
ATOM     12  C   UNL     1     116.094 117.430 112.801  1.00  0.00     0.025 A 
ATOM     13  C   UNL     1     116.445 116.079 112.944  1.00  0.00     0.016 A 
ATOM     14  C   UNL     1     115.562 115.180 113.546  1.00  0.00     0.051 A 
ATOM     15  C   UNL     1     114.310 115.607 114.003  1.00  0.00     0.157 A 
ATOM     16  C   UNL     1     114.830 117.856 113.238  1.00  0.00     0.062 A 
ATOM     17  C   UNL     1     113.938 116.962 113.843  1.00  0.00     0.158 A 
BRANCH  15  18
ATOM     18  O   UNL     1     113.476 114.659 114.599  1.00  0.00    -0.504 OA
ATOM     19  H   UNL     1     113.317 114.594 115.595  1.00  0.00     0.293 HD
ENDBRANCH  15  18
BRANCH  17  20
ATOM     20  O   UNL     1     112.703 117.460 114.265  1.00  0.00    -0.504 OA
ATOM     21  H   UNL     1     111.922 116.878 114.535  1.00  0.00     0.293 HD
ENDBRANCH  17  20
ENDBRANCH   1  12
BRANCH   2  22
ATOM     22  O   UNL     1     118.132 118.911 114.233  1.00  0.00    -0.502 OA
ATOM     23  H   UNL     1     117.819 119.607 114.899  1.00  0.00     0.293 HD
ENDBRANCH   2  22
BRANCH   6  24
ATOM     24  O   UNL     1     120.665 121.617 110.408  1.00  0.00    -0.507 OA
ATOM     25  H   UNL     1     120.894 122.586 110.243  1.00  0.00     0.293 HD
ENDBRANCH   6  24
BRANCH   8  26
ATOM     26  O   UNL     1     117.777 120.711 106.682  1.00  0.00    -0.508 OA
ATOM     27  H   UNL     1     118.449 121.100 106.031  1.00  0.00     0.293 HD
ENDBRANCH   8  26
TORSDOF 6
ENDMDL
MODEL 8
REMARK VINA RESULT:    -6.131     14.112     16.101
REMARK INTER + INTRA:          -7.185
REMARK INTER:                  -6.875
REMARK INTRA:                  -0.311
REMARK UNBOUND:                 0.200
REMARK SMILES O=c1c(O)c(-c2ccc(O)c(O)c2)oc2cc(O)cc(O)c12
REMARK SMILES IDX 5 1 3 2 2 3 1 4 22 5 20 6 19 7 17 8 16 9 15 10 14 11 6 12
REMARK SMILES IDX 7 13 8 14 9 15 13 16 11 17 10 18 12 20 4 22 21 24 18 26
REMARK H PARENT 10 19 12 21 4 23 21 25 18 27
REMARK Flexibility Score: inf
ROOT
ATOM      1  C   UNL     1     111.776 106.040 110.379  1.00  0.00     0.180 A 
ATOM      2  C   UNL     1     112.797 105.952 111.341  1.00  0.00     0.208 A 
ATOM      3  C   UNL     1     113.955 105.216 111.039  1.00  0.00     0.238 A 
ATOM      4  O   UNL     1     114.888 105.185 111.883  1.00  0.00    -0.285 OA
ATOM      5  C   UNL     1     114.069 104.564 109.788  1.00  0.00     0.111 A 
ATOM      6  C   UNL     1     115.180 103.760 109.392  1.00  0.00     0.134 A 
ATOM      7  C   UNL     1     115.247 103.271 108.081  1.00  0.00     0.093 A 
ATOM      8  C   UNL     1     114.211 103.504 107.172  1.00  0.00     0.123 A 
ATOM      9  C   UNL     1     113.096 104.238 107.567  1.00  0.00     0.094 A 
ATOM     10  C   UNL     1     113.017 104.770 108.857  1.00  0.00     0.146 A 
ATOM     11  O   UNL     1     111.941 105.473 109.189  1.00  0.00    -0.452 OA
ENDROOT
BRANCH   1  12
ATOM     12  C   UNL     1     110.516 106.776 110.632  1.00  0.00     0.025 A 
ATOM     13  C   UNL     1     110.431 108.164 110.443  1.00  0.00     0.016 A 
ATOM     14  C   UNL     1     109.239 108.840 110.711  1.00  0.00     0.051 A 
ATOM     15  C   UNL     1     108.116 108.151 111.183  1.00  0.00     0.157 A 
ATOM     16  C   UNL     1     109.398 106.085 111.126  1.00  0.00     0.062 A 
ATOM     17  C   UNL     1     108.199 106.755 111.397  1.00  0.00     0.158 A 
BRANCH  15  18
ATOM     18  O   UNL     1     106.954 108.886 111.427  1.00  0.00    -0.504 OA
ATOM     19  H   UNL     1     106.856 109.554 112.178  1.00  0.00     0.293 HD
ENDBRANCH  15  18
BRANCH  17  20
ATOM     20  O   UNL     1     107.125 106.000 111.875  1.00  0.00    -0.504 OA
ATOM     21  H   UNL     1     106.164 106.311 111.857  1.00  0.00     0.293 HD
ENDBRANCH  17  20
ENDBRANCH   1  12
BRANCH   2  22
ATOM     22  O   UNL     1     112.673 106.620 112.561  1.00  0.00    -0.502 OA
ATOM     23  H   UNL     1     112.351 107.578 112.627  1.00  0.00     0.293 HD
ENDBRANCH   2  22
BRANCH   6  24
ATOM     24  O   UNL     1     116.221 103.390 110.248  1.00  0.00    -0.507 OA
ATOM     25  H   UNL     1     116.735 104.029 110.836  1.00  0.00     0.293 HD
ENDBRANCH   6  24
BRANCH   8  26
ATOM     26  O   UNL     1     114.278 103.001 105.875  1.00  0.00    -0.508 OA
ATOM     27  H   UNL     1     114.889 103.410 105.178  1.00  0.00     0.293 HD
ENDBRANCH   8  26
TORSDOF 6
ENDMDL
MODEL 9
REMARK VINA RESULT:    -4.330      1.251      6.791
REMARK INTER + INTRA:          -5.016
REMARK INTER:                  -5.210
REMARK INTRA:                   0.194
REMARK UNBOUND:                 0.200
REMARK SMILES O=c1c(O)c(-c2ccc(O)c(O)c2)oc2cc(O)cc(O)c12
REMARK SMILES IDX 5 1 3 2 2 3 1 4 22 5 20 6 19 7 17 8 16 9 15 10 14 11 6 12
REMARK SMILES IDX 7 13 8 14 9 15 13 16 11 17 10 18 12 20 4 22 21 24 18 26
REMARK H PARENT 10 19 12 21 4 23 21 25 18 27
REMARK Flexibility Score: inf
ROOT
ATOM      1  C   UNL     1     118.065 118.971 111.049  1.00  0.00     0.180 A 
ATOM      2  C   UNL     1     118.022 120.076 110.182  1.00  0.00     0.208 A 
ATOM      3  C   UNL     1     117.954 119.853 108.797  1.00  0.00     0.238 A 
ATOM      4  O   UNL     1     117.861 120.845 108.029  1.00  0.00    -0.285 OA
ATOM      5  C   UNL     1     117.948 118.529 108.297  1.00  0.00     0.111 A 
ATOM      6  C   UNL     1     117.922 118.186 106.911  1.00  0.00     0.134 A 
ATOM      7  C   UNL     1     117.785 116.845 106.533  1.00  0.00     0.093 A 
ATOM      8  C   UNL     1     117.741 115.828 107.491  1.00  0.00     0.123 A 
ATOM      9  C   UNL     1     117.825 116.147 108.843  1.00  0.00     0.094 A 
ATOM     10  C   UNL     1     117.924 117.480 109.253  1.00  0.00     0.146 A 
ATOM     11  O   UNL     1     117.991 117.741 110.553  1.00  0.00    -0.452 OA
ENDROOT
BRANCH   1  12
ATOM     12  C   UNL     1     118.162 119.125 112.519  1.00  0.00     0.025 A 
ATOM     13  C   UNL     1     117.428 118.305 113.389  1.00  0.00     0.016 A 
ATOM     14  C   UNL     1     117.518 118.484 114.771  1.00  0.00     0.051 A 
ATOM     15  C   UNL     1     118.327 119.490 115.310  1.00  0.00     0.157 A 
ATOM     16  C   UNL     1     118.958 120.149 113.056  1.00  0.00     0.062 A 
ATOM     17  C   UNL     1     119.054 120.336 114.440  1.00  0.00     0.158 A 
BRANCH  15  18
ATOM     18  O   UNL     1     118.375 119.613 116.700  1.00  0.00    -0.504 OA
ATOM     19  H   UNL     1     119.212 119.843 117.218  1.00  0.00     0.293 HD
ENDBRANCH  15  18
BRANCH  17  20
ATOM     20  O   UNL     1     119.874 121.368 114.903  1.00  0.00    -0.504 OA
ATOM     21  H   UNL     1     120.535 121.267 115.661  1.00  0.00     0.293 HD
ENDBRANCH  17  20
ENDBRANCH   1  12
BRANCH   2  22
ATOM     22  O   UNL     1     118.006 121.374 110.698  1.00  0.00    -0.502 OA
ATOM     23  H   UNL     1     118.638 122.097 110.374  1.00  0.00     0.293 HD
ENDBRANCH   2  22
BRANCH   6  24
ATOM     24  O   UNL     1     118.054 119.115 105.875  1.00  0.00    -0.507 OA
ATOM     25  H   UNL     1     118.037 120.117 105.995  1.00  0.00     0.293 HD
ENDBRANCH   6  24
BRANCH   8  26
ATOM     26  O   UNL     1     117.621 114.495 107.106  1.00  0.00    -0.508 OA
ATOM     27  H   UNL     1     117.273 113.788 107.743  1.00  0.00     0.293 HD
ENDBRANCH   8  26
TORSDOF 6
ENDMDL
