MODEL 1
REMARK VINA RESULT:    -4.864      0.000      0.000
REMARK INTER + INTRA:          -7.907
REMARK INTER:                  -7.423
REMARK INTRA:                  -0.483
REMARK UNBOUND:                -0.483
REMARK SMILES O=C([O-])CCCCCCCCC(=O)[O-]
REMARK SMILES IDX 7 1 6 2 5 3 4 4 2 5 1 6 3 7 8 8 9 9 10 10 11 11 12 12 13 13
REMARK SMILES IDX 14 14
REMARK H PARENT
REMARK Flexibility Score: inf
ROOT
ATOM      1  C   UNL     1    -143.198 102.380  33.063  1.00  0.00     0.000 C 
ENDROOT
BRANCH   1   2
ATOM      2  C   UNL     1    -143.353 103.788  32.461  1.00  0.00     0.000 C 
BRANCH   2   3
ATOM      3  C   UNL     1    -142.776 104.932  33.317  1.00  0.00     0.006 C 
BRANCH   3   4
ATOM      4  C   UNL     1    -142.209 104.449  34.658  1.00  0.00     0.053 C 
BRANCH   4   5
ATOM      5  C   UNL     1    -142.179 105.572  35.645  1.00  0.00     0.041 C 
ATOM      6  O   UNL     1    -141.771 106.711  35.297  1.00  0.00    -0.550 OA
ATOM      7  O   UNL     1    -142.555 105.349  36.965  1.00  0.00    -0.550 OA
ENDBRANCH   4   5
ENDBRANCH   3   4
ENDBRANCH   2   3
ENDBRANCH   1   2
BRANCH   1   8
ATOM      8  C   UNL     1    -143.217 101.270  31.997  1.00  0.00     0.000 C 
BRANCH   8   9
ATOM      9  C   UNL     1    -142.913  99.882  32.587  1.00  0.00     0.000 C 
BRANCH   9  10
ATOM     10  C   UNL     1    -142.135  99.956  33.909  1.00  0.00     0.006 C 
BRANCH  10  11
ATOM     11  C   UNL     1    -142.610  98.875  34.885  1.00  0.00     0.053 C 
BRANCH  11  12
ATOM     12  C   UNL     1    -143.306  99.493  36.056  1.00  0.00     0.041 C 
ATOM     13  O   UNL     1    -143.357  98.883  37.156  1.00  0.00    -0.550 OA
ATOM     14  O   UNL     1    -143.854 100.765  35.947  1.00  0.00    -0.550 OA
ENDBRANCH  11  12
ENDBRANCH  10  11
ENDBRANCH   9  10
ENDBRANCH   8   9
ENDBRANCH   1   8
TORSDOF 9
ENDMDL
MODEL 2
REMARK VINA RESULT:    -4.856      0.205      5.361
REMARK INTER + INTRA:          -7.894
REMARK INTER:                  -7.410
REMARK INTRA:                  -0.484
REMARK UNBOUND:                -0.483
REMARK SMILES O=C([O-])CCCCCCCCC(=O)[O-]
REMARK SMILES IDX 7 1 6 2 5 3 4 4 2 5 1 6 3 7 8 8 9 9 10 10 11 11 12 12 13 13
REMARK SMILES IDX 14 14
REMARK H PARENT
REMARK Flexibility Score: inf
ROOT
ATOM      1  C   UNL     1    -143.484 101.219  31.962  1.00  0.00     0.000 C 
ENDROOT
BRANCH   1   2
ATOM      2  C   UNL     1    -142.861  99.885  32.411  1.00  0.00     0.000 C 
BRANCH   2   3
ATOM      3  C   UNL     1    -142.171  99.915  33.787  1.00  0.00     0.006 C 
BRANCH   3   4
ATOM      4  C   UNL     1    -142.738  98.875  34.763  1.00  0.00     0.053 C 
BRANCH   4   5
ATOM      5  C   UNL     1    -143.321  99.551  35.963  1.00  0.00     0.041 C 
ATOM      6  O   UNL     1    -143.494  98.907  37.032  1.00  0.00    -0.550 OA
ATOM      7  O   UNL     1    -143.719 100.881  35.889  1.00  0.00    -0.550 OA
ENDBRANCH   4   5
ENDBRANCH   3   4
ENDBRANCH   2   3
ENDBRANCH   1   2
BRANCH   1   8
ATOM      8  C   UNL     1    -143.265 102.353  32.979  1.00  0.00     0.000 C 
BRANCH   8   9
ATOM      9  C   UNL     1    -143.406 103.747  32.345  1.00  0.00     0.000 C 
BRANCH   9  10
ATOM     10  C   UNL     1    -142.801 104.859  33.214  1.00  0.00     0.006 C 
BRANCH  10  11
ATOM     11  C   UNL     1    -142.516 104.354  34.632  1.00  0.00     0.053 C 
BRANCH  11  12
ATOM     12  C   UNL     1    -142.168 105.493  35.536  1.00  0.00     0.041 C 
ATOM     13  O   UNL     1    -141.537 106.486  35.089  1.00  0.00    -0.550 OA
ATOM     14  O   UNL     1    -142.585 105.481  36.861  1.00  0.00    -0.550 OA
ENDBRANCH  11  12
ENDBRANCH  10  11
ENDBRANCH   9  10
ENDBRANCH   8   9
ENDBRANCH   1   8
TORSDOF 9
ENDMDL
MODEL 3
REMARK VINA RESULT:    -4.546     14.048     16.191
REMARK INTER + INTRA:          -7.420
REMARK INTER:                  -6.721
REMARK INTRA:                  -0.699
REMARK UNBOUND:                -0.483
REMARK SMILES O=C([O-])CCCCCCCCC(=O)[O-]
REMARK SMILES IDX 7 1 6 2 5 3 4 4 2 5 1 6 3 7 8 8 9 9 10 10 11 11 12 12 13 13
REMARK SMILES IDX 14 14
REMARK H PARENT
REMARK Flexibility Score: inf
ROOT
ATOM      1  C   UNL     1    -127.960 106.982  41.915  1.00  0.00     0.000 C 
ENDROOT
BRANCH   1   2
ATOM      2  C   UNL     1    -128.003 108.381  42.556  1.00  0.00     0.000 C 
BRANCH   2   3
ATOM      3  C   UNL     1    -129.390 109.049  42.576  1.00  0.00     0.006 C 
BRANCH   3   4
ATOM      4  C   UNL     1    -129.754 109.630  43.949  1.00  0.00     0.053 C 
BRANCH   4   5
ATOM      5  C   UNL     1    -130.707 108.723  44.662  1.00  0.00     0.041 C 
ATOM      6  O   UNL     1    -131.516 108.013  44.007  1.00  0.00    -0.550 OA
ATOM      7  O   UNL     1    -130.737 108.698  46.051  1.00  0.00    -0.550 OA
ENDBRANCH   4   5
ENDBRANCH   3   4
ENDBRANCH   2   3
ENDBRANCH   1   2
BRANCH   1   8
ATOM      8  C   UNL     1    -129.313 106.556  41.319  1.00  0.00     0.000 C 
BRANCH   8   9
ATOM      9  C   UNL     1    -129.178 105.995  39.893  1.00  0.00     0.000 C 
BRANCH   9  10
ATOM     10  C   UNL     1    -129.984 106.796  38.860  1.00  0.00     0.006 C 
BRANCH  10  11
ATOM     11  C   UNL     1    -129.875 108.300  39.127  1.00  0.00     0.053 C 
BRANCH  11  12
ATOM     12  C   UNL     1    -131.230 108.935  39.119  1.00  0.00     0.041 C 
ATOM     13  O   UNL     1    -131.430 110.006  39.750  1.00  0.00    -0.550 OA
ATOM     14  O   UNL     1    -132.257 108.371  38.374  1.00  0.00    -0.550 OA
ENDBRANCH  11  12
ENDBRANCH  10  11
ENDBRANCH   9  10
ENDBRANCH   8   9
ENDBRANCH   1   8
TORSDOF 9
ENDMDL
MODEL 4
REMARK VINA RESULT:    -4.477      1.325      1.566
REMARK INTER + INTRA:          -7.317
REMARK INTER:                  -6.905
REMARK INTRA:                  -0.411
REMARK UNBOUND:                -0.483
REMARK SMILES O=C([O-])CCCCCCCCC(=O)[O-]
REMARK SMILES IDX 7 1 6 2 5 3 4 4 2 5 1 6 3 7 8 8 9 9 10 10 11 11 12 12 13 13
REMARK SMILES IDX 14 14
REMARK H PARENT
REMARK Flexibility Score: inf
ROOT
ATOM      1  C   UNL     1    -142.932 102.650  33.637  1.00  0.00     0.000 C 
ENDROOT
BRANCH   1   2
ATOM      2  C   UNL     1    -143.003 103.961  32.834  1.00  0.00     0.000 C 
BRANCH   2   3
ATOM      3  C   UNL     1    -142.543 105.219  33.594  1.00  0.00     0.006 C 
BRANCH   3   4
ATOM      4  C   UNL     1    -141.835 104.894  34.915  1.00  0.00     0.053 C 
BRANCH   4   5
ATOM      5  C   UNL     1    -142.257 105.854  35.982  1.00  0.00     0.041 C 
ATOM      6  O   UNL     1    -142.246 107.094  35.761  1.00  0.00    -0.550 OA
ATOM      7  O   UNL     1    -142.619 105.382  37.239  1.00  0.00    -0.550 OA
ENDBRANCH   4   5
ENDBRANCH   3   4
ENDBRANCH   2   3
ENDBRANCH   1   2
BRANCH   1   8
ATOM      8  C   UNL     1    -143.857 101.555  33.076  1.00  0.00     0.000 C 
BRANCH   8   9
ATOM      9  C   UNL     1    -143.258 100.850  31.847  1.00  0.00     0.000 C 
BRANCH   9  10
ATOM     10  C   UNL     1    -142.522  99.552  32.207  1.00  0.00     0.006 C 
BRANCH  10  11
ATOM     11  C   UNL     1    -143.088  98.937  33.489  1.00  0.00     0.053 C 
BRANCH  11  12
ATOM     12  C   UNL     1    -142.049  98.912  34.564  1.00  0.00     0.041 C 
ATOM     13  O   UNL     1    -142.392  98.875  35.775  1.00  0.00    -0.550 OA
ATOM     14  O   UNL     1    -140.702  98.878  34.228  1.00  0.00    -0.550 OA
ENDBRANCH  11  12
ENDBRANCH  10  11
ENDBRANCH   9  10
ENDBRANCH   8   9
ENDBRANCH   1   8
TORSDOF 9
ENDMDL
MODEL 5
REMARK VINA RESULT:    -4.459     14.180     16.133
REMARK INTER + INTRA:          -7.288
REMARK INTER:                  -6.724
REMARK INTRA:                  -0.565
REMARK UNBOUND:                -0.483
REMARK SMILES O=C([O-])CCCCCCCCC(=O)[O-]
REMARK SMILES IDX 7 1 6 2 5 3 4 4 2 5 1 6 3 7 8 8 9 9 10 10 11 11 12 12 13 13
REMARK SMILES IDX 14 14
REMARK H PARENT
REMARK Flexibility Score: inf
ROOT
ATOM      1  C   UNL     1    -131.194 109.355  39.481  1.00  0.00     0.000 C 
ENDROOT
BRANCH   1   2
ATOM      2  C   UNL     1    -131.223 107.975  38.800  1.00  0.00     0.000 C 
BRANCH   2   3
ATOM      3  C   UNL     1    -129.924 107.157  38.921  1.00  0.00     0.006 C 
BRANCH   3   4
ATOM      4  C   UNL     1    -130.174 105.646  39.014  1.00  0.00     0.053 C 
BRANCH   4   5
ATOM      5  C   UNL     1    -129.209 105.016  39.968  1.00  0.00     0.041 C 
ATOM      6  O   UNL     1    -129.155 103.763  40.079  1.00  0.00    -0.550 OA
ATOM      7  O   UNL     1    -128.402 105.814  40.771  1.00  0.00    -0.550 OA
ENDBRANCH   4   5
ENDBRANCH   3   4
ENDBRANCH   2   3
ENDBRANCH   1   2
BRANCH   1   8
ATOM      8  C   UNL     1    -129.775 109.791  39.887  1.00  0.00     0.000 C 
BRANCH   8   9
ATOM      9  C   UNL     1    -129.631 109.989  41.405  1.00  0.00     0.000 C 
BRANCH   9  10
ATOM     10  C   UNL     1    -129.831 108.688  42.196  1.00  0.00     0.006 C 
BRANCH  10  11
ATOM     11  C   UNL     1    -129.479 108.885  43.673  1.00  0.00     0.053 C 
BRANCH  11  12
ATOM     12  C   UNL     1    -130.694 108.722  44.529  1.00  0.00     0.041 C 
ATOM     13  O   UNL     1    -131.687 108.077  44.103  1.00  0.00    -0.550 OA
ATOM     14  O   UNL     1    -130.711 109.240  45.818  1.00  0.00    -0.550 OA
ENDBRANCH  11  12
ENDBRANCH  10  11
ENDBRANCH   9  10
ENDBRANCH   8   9
ENDBRANCH   1   8
TORSDOF 9
ENDMDL
MODEL 6
REMARK VINA RESULT:    -4.449     14.342     15.967
REMARK INTER + INTRA:          -7.274
REMARK INTER:                  -6.658
REMARK INTRA:                  -0.615
REMARK UNBOUND:                -0.483
REMARK SMILES O=C([O-])CCCCCCCCC(=O)[O-]
REMARK SMILES IDX 7 1 6 2 5 3 4 4 2 5 1 6 3 7 8 8 9 9 10 10 11 11 12 12 13 13
REMARK SMILES IDX 14 14
REMARK H PARENT
REMARK Flexibility Score: inf
ROOT
ATOM      1  C   UNL     1    -129.020 109.167  40.700  1.00  0.00     0.000 C 
ENDROOT
BRANCH   1   2
ATOM      2  C   UNL     1    -128.875 108.650  42.142  1.00  0.00     0.000 C 
BRANCH   2   3
ATOM      3  C   UNL     1    -130.184 108.593  42.952  1.00  0.00     0.006 C 
BRANCH   3   4
ATOM      4  C   UNL     1    -130.042 109.186  44.360  1.00  0.00     0.053 C 
BRANCH   4   5
ATOM      5  C   UNL     1    -131.144 108.696  45.245  1.00  0.00     0.041 C 
ATOM      6  O   UNL     1    -130.945 108.542  46.479  1.00  0.00    -0.550 OA
ATOM      7  O   UNL     1    -132.378 108.362  44.700  1.00  0.00    -0.550 OA
ENDBRANCH   4   5
ENDBRANCH   3   4
ENDBRANCH   2   3
ENDBRANCH   1   2
BRANCH   1   8
ATOM      8  C   UNL     1    -130.487 109.297  40.256  1.00  0.00     0.000 C 
BRANCH   8   9
ATOM      9  C   UNL     1    -130.856 108.303  39.142  1.00  0.00     0.000 C 
BRANCH   9  10
ATOM     10  C   UNL     1    -129.718 107.324  38.818  1.00  0.00     0.006 C 
BRANCH  10  11
ATOM     11  C   UNL     1    -130.188 105.873  38.949  1.00  0.00     0.053 C 
BRANCH  11  12
ATOM     12  C   UNL     1    -129.231 105.083  39.784  1.00  0.00     0.041 C 
ATOM     13  O   UNL     1    -128.563 105.650  40.687  1.00  0.00    -0.550 OA
ATOM     14  O   UNL     1    -129.115 103.712  39.598  1.00  0.00    -0.550 OA
ENDBRANCH  11  12
ENDBRANCH  10  11
ENDBRANCH   9  10
ENDBRANCH   8   9
ENDBRANCH   1   8
TORSDOF 9
ENDMDL
MODEL 7
REMARK VINA RESULT:    -4.429     14.028     16.148
REMARK INTER + INTRA:          -7.242
REMARK INTER:                  -6.696
REMARK INTRA:                  -0.546
REMARK UNBOUND:                -0.483
REMARK SMILES O=C([O-])CCCCCCCCC(=O)[O-]
REMARK SMILES IDX 7 1 6 2 5 3 4 4 2 5 1 6 3 7 8 8 9 9 10 10 11 11 12 12 13 13
REMARK SMILES IDX 14 14
REMARK H PARENT
REMARK Flexibility Score: inf
ROOT
ATOM      1  C   UNL     1    -129.343 106.442  41.283  1.00  0.00     0.000 C 
ENDROOT
BRANCH   1   2
ATOM      2  C   UNL     1    -129.338 105.928  39.832  1.00  0.00     0.000 C 
BRANCH   2   3
ATOM      3  C   UNL     1    -129.969 106.880  38.798  1.00  0.00     0.006 C 
BRANCH   3   4
ATOM      4  C   UNL     1    -129.933 108.349  39.238  1.00  0.00     0.053 C 
BRANCH   4   5
ATOM      5  C   UNL     1    -131.285 108.971  39.088  1.00  0.00     0.041 C 
ATOM      6  O   UNL     1    -131.534 110.084  39.623  1.00  0.00    -0.550 OA
ATOM      7  O   UNL     1    -132.287 108.300  38.398  1.00  0.00    -0.550 OA
ENDBRANCH   4   5
ENDBRANCH   3   4
ENDBRANCH   2   3
ENDBRANCH   1   2
BRANCH   1   8
ATOM      8  C   UNL     1    -127.974 106.986  41.728  1.00  0.00     0.000 C 
BRANCH   8   9
ATOM      9  C   UNL     1    -128.095 108.269  42.566  1.00  0.00     0.000 C 
BRANCH   9  10
ATOM     10  C   UNL     1    -129.547 108.749  42.713  1.00  0.00     0.006 C 
BRANCH  10  11
ATOM     11  C   UNL     1    -129.774 109.399  44.081  1.00  0.00     0.053 C 
BRANCH  11  12
ATOM     12  C   UNL     1    -130.892 108.720  44.807  1.00  0.00     0.041 C 
ATOM     13  O   UNL     1    -131.617 107.882  44.209  1.00  0.00    -0.550 OA
ATOM     14  O   UNL     1    -131.101 108.974  46.156  1.00  0.00    -0.550 OA
ENDBRANCH  11  12
ENDBRANCH  10  11
ENDBRANCH   9  10
ENDBRANCH   8   9
ENDBRANCH   1   8
TORSDOF 9
ENDMDL
MODEL 8
REMARK VINA RESULT:    -4.219     16.669     20.059
REMARK INTER + INTRA:          -6.921
REMARK INTER:                  -6.669
REMARK INTRA:                  -0.252
REMARK UNBOUND:                -0.483
REMARK SMILES O=C([O-])CCCCCCCCC(=O)[O-]
REMARK SMILES IDX 7 1 6 2 5 3 4 4 2 5 1 6 3 7 8 8 9 9 10 10 11 11 12 12 13 13
REMARK SMILES IDX 14 14
REMARK H PARENT
REMARK Flexibility Score: inf
ROOT
ATOM      1  C   UNL     1    -129.376 111.578  44.030  1.00  0.00     0.000 C 
ENDROOT
BRANCH   1   2
ATOM      2  C   UNL     1    -129.335 110.627  42.820  1.00  0.00     0.000 C 
BRANCH   2   3
ATOM      3  C   UNL     1    -129.371 109.126  43.165  1.00  0.00     0.006 C 
BRANCH   3   4
ATOM      4  C   UNL     1    -128.361 108.303  42.356  1.00  0.00     0.053 C 
BRANCH   4   5
ATOM      5  C   UNL     1    -129.052 107.571  41.250  1.00  0.00     0.041 C 
ATOM      6  O   UNL     1    -129.014 106.313  41.202  1.00  0.00    -0.550 OA
ATOM      7  O   UNL     1    -129.700 108.279  40.245  1.00  0.00    -0.550 OA
ENDBRANCH   4   5
ENDBRANCH   3   4
ENDBRANCH   2   3
ENDBRANCH   1   2
BRANCH   1   8
ATOM      8  C   UNL     1    -128.886 112.997  43.692  1.00  0.00     0.000 C 
BRANCH   8   9
ATOM      9  C   UNL     1    -130.006 113.888  43.130  1.00  0.00     0.000 C 
BRANCH   9  10
ATOM     10  C   UNL     1    -129.727 115.386  43.323  1.00  0.00     0.006 C 
BRANCH  10  11
ATOM     11  C   UNL     1    -129.622 115.738  44.810  1.00  0.00     0.053 C 
BRANCH  11  12
ATOM     12  C   UNL     1    -129.839 117.202  45.021  1.00  0.00     0.041 C 
ATOM     13  O   UNL     1    -129.304 118.039  44.247  1.00  0.00    -0.550 OA
ATOM     14  O   UNL     1    -130.673 117.642  46.040  1.00  0.00    -0.550 OA
ENDBRANCH  11  12
ENDBRANCH  10  11
ENDBRANCH   9  10
ENDBRANCH   8   9
ENDBRANCH   1   8
TORSDOF 9
ENDMDL
MODEL 9
REMARK VINA RESULT:    -4.211     16.849     19.423
REMARK INTER + INTRA:          -6.909
REMARK INTER:                  -6.498
REMARK INTRA:                  -0.411
REMARK UNBOUND:                -0.483
REMARK SMILES O=C([O-])CCCCCCCCC(=O)[O-]
REMARK SMILES IDX 7 1 6 2 5 3 4 4 2 5 1 6 3 7 8 8 9 9 10 10 11 11 12 12 13 13
REMARK SMILES IDX 14 14
REMARK H PARENT
REMARK Flexibility Score: inf
ROOT
ATOM      1  C   UNL     1    -129.902 113.902  42.785  1.00  0.00     0.000 C 
ENDROOT
BRANCH   1   2
ATOM      2  C   UNL     1    -129.426 115.315  42.407  1.00  0.00     0.000 C 
BRANCH   2   3
ATOM      3  C   UNL     1    -130.211 116.468  43.062  1.00  0.00     0.006 C 
BRANCH   3   4
ATOM      4  C   UNL     1    -129.432 117.155  44.191  1.00  0.00     0.053 C 
BRANCH   4   5
ATOM      5  C   UNL     1    -130.087 116.893  45.510  1.00  0.00     0.041 C 
ATOM      6  O   UNL     1    -130.550 117.848  46.189  1.00  0.00    -0.550 OA
ATOM      7  O   UNL     1    -130.146 115.599  46.013  1.00  0.00    -0.550 OA
ENDBRANCH   4   5
ENDBRANCH   3   4
ENDBRANCH   2   3
ENDBRANCH   1   2
BRANCH   1   8
ATOM      8  C   UNL     1    -128.985 113.217  43.813  1.00  0.00     0.000 C 
BRANCH   8   9
ATOM      9  C   UNL     1    -129.321 111.728  44.002  1.00  0.00     0.000 C 
BRANCH   9  10
ATOM     10  C   UNL     1    -129.336 110.949  42.679  1.00  0.00     0.006 C 
BRANCH  10  11
ATOM     11  C   UNL     1    -129.328 109.439  42.931  1.00  0.00     0.053 C 
BRANCH  11  12
ATOM     12  C   UNL     1    -129.342 108.689  41.637  1.00  0.00     0.041 C 
ATOM     13  O   UNL     1    -129.335 109.314  40.544  1.00  0.00    -0.550 OA
ATOM     14  O   UNL     1    -129.312 107.301  41.637  1.00  0.00    -0.550 OA
ENDBRANCH  11  12
ENDBRANCH  10  11
ENDBRANCH   9  10
ENDBRANCH   8   9
ENDBRANCH   1   8
TORSDOF 9
ENDMDL
