MODEL 1
REMARK VINA RESULT:    -3.135      0.000      0.000
REMARK INTER + INTRA:          -4.641
REMARK INTER:                  -4.327
REMARK INTRA:                  -0.314
REMARK UNBOUND:                -0.314
REMARK SMILES CCCCCCCCO
REMARK SMILES IDX 5 1 4 2 3 3 2 4 1 5 6 6 7 7 8 8 9 9
REMARK H PARENT 9 10
REMARK Flexibility Score: inf
ROOT
ATOM      1  C   UNL     1     116.688 118.029 113.165  1.00  0.00     0.000 C 
ENDROOT
BRANCH   1   2
ATOM      2  C   UNL     1     117.660 118.518 114.253  1.00  0.00    -0.000 C 
BRANCH   2   3
ATOM      3  C   UNL     1     119.035 117.828 114.180  1.00  0.00    -0.000 C 
BRANCH   3   4
ATOM      4  C   UNL     1     120.050 118.499 113.237  1.00  0.00    -0.003 C 
ATOM      5  C   UNL     1     120.147 117.812 111.875  1.00  0.00     0.004 C 
ENDBRANCH   3   4
ENDBRANCH   2   3
ENDBRANCH   1   2
BRANCH   1   6
ATOM      6  C   UNL     1     116.618 118.986 111.965  1.00  0.00     0.002 C 
BRANCH   6   7
ATOM      7  C   UNL     1     115.462 119.993 112.075  1.00  0.00     0.028 C 
BRANCH   7   8
ATOM      8  C   UNL     1     114.405 119.533 113.086  1.00  0.00     0.156 C 
BRANCH   8   9
ATOM      9  O   UNL     1     114.284 120.450 114.138  1.00  0.00    -0.396 OA
ATOM     10  H   UNL     1     115.206 120.687 114.418  1.00  0.00     0.210 HD
ENDBRANCH   8   9
ENDBRANCH   7   8
ENDBRANCH   6   7
ENDBRANCH   1   6
TORSDOF 7
ENDMDL
MODEL 2
REMARK VINA RESULT:    -3.031      1.084      2.015
REMARK INTER + INTRA:          -4.498
REMARK INTER:                  -4.204
REMARK INTRA:                  -0.294
REMARK UNBOUND:                -0.314
REMARK SMILES CCCCCCCCO
REMARK SMILES IDX 5 1 4 2 3 3 2 4 1 5 6 6 7 7 8 8 9 9
REMARK H PARENT 9 10
REMARK Flexibility Score: inf
ROOT
ATOM      1  C   UNL     1     117.990 117.611 112.042  1.00  0.00     0.000 C 
ENDROOT
BRANCH   1   2
ATOM      2  C   UNL     1     119.479 117.997 112.040  1.00  0.00    -0.000 C 
BRANCH   2   3
ATOM      3  C   UNL     1     119.943 118.598 113.379  1.00  0.00    -0.000 C 
BRANCH   3   4
ATOM      4  C   UNL     1     119.615 117.749 114.621  1.00  0.00    -0.003 C 
ATOM      5  C   UNL     1     120.400 118.175 115.862  1.00  0.00     0.004 C 
ENDBRANCH   3   4
ENDBRANCH   2   3
ENDBRANCH   1   2
BRANCH   1   6
ATOM      6  C   UNL     1     117.064 118.834 112.140  1.00  0.00     0.002 C 
BRANCH   6   7
ATOM      7  C   UNL     1     116.067 118.732 113.305  1.00  0.00     0.028 C 
BRANCH   7   8
ATOM      8  C   UNL     1     114.671 119.216 112.899  1.00  0.00     0.156 C 
BRANCH   8   9
ATOM      9  O   UNL     1     114.204 120.200 113.782  1.00  0.00    -0.396 OA
ATOM     10  H   UNL     1     114.235 121.062 113.289  1.00  0.00     0.210 HD
ENDBRANCH   8   9
ENDBRANCH   7   8
ENDBRANCH   6   7
ENDBRANCH   1   6
TORSDOF 7
ENDMDL
MODEL 3
REMARK VINA RESULT:    -3.000      2.129      4.307
REMARK INTER + INTRA:          -4.454
REMARK INTER:                  -3.890
REMARK INTRA:                  -0.564
REMARK UNBOUND:                -0.314
REMARK SMILES CCCCCCCCO
REMARK SMILES IDX 5 1 4 2 3 3 2 4 1 5 6 6 7 7 8 8 9 9
REMARK H PARENT 9 10
REMARK Flexibility Score: inf
ROOT
ATOM      1  C   UNL     1     116.221 119.270 115.404  1.00  0.00     0.000 C 
ENDROOT
BRANCH   1   2
ATOM      2  C   UNL     1     114.910 119.051 114.630  1.00  0.00    -0.000 C 
BRANCH   2   3
ATOM      3  C   UNL     1     114.818 119.907 113.354  1.00  0.00    -0.000 C 
BRANCH   3   4
ATOM      4  C   UNL     1     114.867 119.115 112.035  1.00  0.00    -0.003 C 
ATOM      5  C   UNL     1     114.607 117.620 112.224  1.00  0.00     0.004 C 
ENDBRANCH   3   4
ENDBRANCH   2   3
ENDBRANCH   1   2
BRANCH   1   6
ATOM      6  C   UNL     1     117.189 118.083 115.271  1.00  0.00     0.002 C 
BRANCH   6   7
ATOM      7  C   UNL     1     118.413 118.409 114.400  1.00  0.00     0.028 C 
BRANCH   7   8
ATOM      8  C   UNL     1     118.239 117.895 112.966  1.00  0.00     0.156 C 
BRANCH   8   9
ATOM      9  O   UNL     1     118.417 118.930 112.037  1.00  0.00    -0.396 OA
ATOM     10  H   UNL     1     117.538 119.070 111.596  1.00  0.00     0.210 HD
ENDBRANCH   8   9
ENDBRANCH   7   8
ENDBRANCH   6   7
ENDBRANCH   1   6
TORSDOF 7
ENDMDL
MODEL 4
REMARK VINA RESULT:    -2.995      5.046      6.686
REMARK INTER + INTRA:          -4.447
REMARK INTER:                  -4.168
REMARK INTRA:                  -0.279
REMARK UNBOUND:                -0.314
REMARK SMILES CCCCCCCCO
REMARK SMILES IDX 5 1 4 2 3 3 2 4 1 5 6 6 7 7 8 8 9 9
REMARK H PARENT 9 10
REMARK Flexibility Score: inf
ROOT
ATOM      1  C   UNL     1     115.145 115.553 111.989  1.00  0.00     0.000 C 
ENDROOT
BRANCH   1   2
ATOM      2  C   UNL     1     113.669 115.127 112.054  1.00  0.00    -0.000 C 
BRANCH   2   3
ATOM      3  C   UNL     1     113.293 114.475 113.397  1.00  0.00    -0.000 C 
BRANCH   3   4
ATOM      4  C   UNL     1     113.757 115.244 114.646  1.00  0.00    -0.003 C 
ATOM      5  C   UNL     1     112.853 115.020 115.858  1.00  0.00     0.004 C 
ENDBRANCH   3   4
ENDBRANCH   2   3
ENDBRANCH   1   2
BRANCH   1   6
ATOM      6  C   UNL     1     116.104 114.352 111.961  1.00  0.00     0.002 C 
BRANCH   6   7
ATOM      7  C   UNL     1     117.191 114.434 113.044  1.00  0.00     0.028 C 
BRANCH   7   8
ATOM      8  C   UNL     1     118.478 113.725 112.609  1.00  0.00     0.156 C 
BRANCH   8   9
ATOM      9  O   UNL     1     118.972 112.906 113.634  1.00  0.00    -0.396 OA
ATOM     10  H   UNL     1     118.795 111.968 113.358  1.00  0.00     0.210 HD
ENDBRANCH   8   9
ENDBRANCH   7   8
ENDBRANCH   6   7
ENDBRANCH   1   6
TORSDOF 7
ENDMDL
MODEL 5
REMARK VINA RESULT:    -2.969      3.823      4.928
REMARK INTER + INTRA:          -4.412
REMARK INTER:                  -4.048
REMARK INTRA:                  -0.363
REMARK UNBOUND:                -0.314
REMARK SMILES CCCCCCCCO
REMARK SMILES IDX 5 1 4 2 3 3 2 4 1 5 6 6 7 7 8 8 9 9
REMARK H PARENT 9 10
REMARK Flexibility Score: inf
ROOT
ATOM      1  C   UNL     1     117.900 117.034 111.914  1.00  0.00     0.000 C 
ENDROOT
BRANCH   1   2
ATOM      2  C   UNL     1     119.389 117.374 112.089  1.00  0.00    -0.000 C 
BRANCH   2   3
ATOM      3  C   UNL     1     119.625 118.555 113.047  1.00  0.00    -0.000 C 
BRANCH   3   4
ATOM      4  C   UNL     1     119.824 118.165 114.523  1.00  0.00    -0.003 C 
ATOM      5  C   UNL     1     118.548 118.297 115.355  1.00  0.00     0.004 C 
ENDBRANCH   3   4
ENDBRANCH   2   3
ENDBRANCH   1   2
BRANCH   1   6
ATOM      6  C   UNL     1     117.545 115.642 112.462  1.00  0.00     0.002 C 
BRANCH   6   7
ATOM      7  C   UNL     1     118.687 114.628 112.292  1.00  0.00     0.028 C 
BRANCH   7   8
ATOM      8  C   UNL     1     118.250 113.212 112.684  1.00  0.00     0.156 C 
BRANCH   8   9
ATOM      9  O   UNL     1     118.911 112.786 113.845  1.00  0.00    -0.396 OA
ATOM     10  H   UNL     1     119.810 112.472 113.561  1.00  0.00     0.210 HD
ENDBRANCH   8   9
ENDBRANCH   7   8
ENDBRANCH   6   7
ENDBRANCH   1   6
TORSDOF 7
ENDMDL
MODEL 6
REMARK VINA RESULT:    -2.957      3.496      4.743
REMARK INTER + INTRA:          -4.394
REMARK INTER:                  -4.145
REMARK INTRA:                  -0.249
REMARK UNBOUND:                -0.314
REMARK SMILES CCCCCCCCO
REMARK SMILES IDX 5 1 4 2 3 3 2 4 1 5 6 6 7 7 8 8 9 9
REMARK H PARENT 9 10
REMARK Flexibility Score: inf
ROOT
ATOM      1  C   UNL     1     119.480 117.145 112.095  1.00  0.00     0.000 C 
ENDROOT
BRANCH   1   2
ATOM      2  C   UNL     1     118.550 116.105 112.742  1.00  0.00    -0.000 C 
BRANCH   2   3
ATOM      3  C   UNL     1     118.565 114.752 112.009  1.00  0.00    -0.000 C 
BRANCH   3   4
ATOM      4  C   UNL     1     118.599 113.516 112.926  1.00  0.00    -0.003 C 
ATOM      5  C   UNL     1     118.247 113.839 114.379  1.00  0.00     0.004 C 
ENDBRANCH   3   4
ENDBRANCH   2   3
ENDBRANCH   1   2
BRANCH   1   6
ATOM      6  C   UNL     1     119.641 118.408 112.957  1.00  0.00     0.002 C 
BRANCH   6   7
ATOM      7  C   UNL     1     119.176 118.200 114.407  1.00  0.00     0.028 C 
BRANCH   7   8
ATOM      8  C   UNL     1     120.356 118.200 115.385  1.00  0.00     0.156 C 
BRANCH   8   9
ATOM      9  O   UNL     1     120.091 119.018 116.493  1.00  0.00    -0.396 OA
ATOM     10  H   UNL     1     119.135 118.884 116.723  1.00  0.00     0.210 HD
ENDBRANCH   8   9
ENDBRANCH   7   8
ENDBRANCH   6   7
ENDBRANCH   1   6
TORSDOF 7
ENDMDL
MODEL 7
REMARK VINA RESULT:    -2.953      1.460      2.321
REMARK INTER + INTRA:          -4.389
REMARK INTER:                  -4.076
REMARK INTRA:                  -0.314
REMARK UNBOUND:                -0.314
REMARK SMILES CCCCCCCCO
REMARK SMILES IDX 5 1 4 2 3 3 2 4 1 5 6 6 7 7 8 8 9 9
REMARK H PARENT 9 10
REMARK Flexibility Score: inf
ROOT
ATOM      1  C   UNL     1     115.513 119.526 112.132  1.00  0.00     0.000 C 
ENDROOT
BRANCH   1   2
ATOM      2  C   UNL     1     116.427 118.327 112.435  1.00  0.00    -0.000 C 
BRANCH   2   3
ATOM      3  C   UNL     1     117.850 118.504 111.875  1.00  0.00    -0.000 C 
BRANCH   3   4
ATOM      4  C   UNL     1     118.943 118.726 112.936  1.00  0.00    -0.003 C 
ATOM      5  C   UNL     1     119.105 117.540 113.886  1.00  0.00     0.004 C 
ENDBRANCH   3   4
ENDBRANCH   2   3
ENDBRANCH   1   2
BRANCH   1   6
ATOM      6  C   UNL     1     114.684 119.959 113.353  1.00  0.00     0.002 C 
BRANCH   6   7
ATOM      7  C   UNL     1     115.230 119.390 114.672  1.00  0.00     0.028 C 
BRANCH   7   8
ATOM      8  C   UNL     1     115.038 120.371 115.833  1.00  0.00     0.156 C 
BRANCH   8   9
ATOM      9  O   UNL     1     114.029 121.300 115.544  1.00  0.00    -0.396 OA
ATOM     10  H   UNL     1     113.211 120.777 115.338  1.00  0.00     0.210 HD
ENDBRANCH   8   9
ENDBRANCH   7   8
ENDBRANCH   6   7
ENDBRANCH   1   6
TORSDOF 7
ENDMDL
MODEL 8
REMARK VINA RESULT:    -2.949      4.701      5.791
REMARK INTER + INTRA:          -4.384
REMARK INTER:                  -4.166
REMARK INTRA:                  -0.218
REMARK UNBOUND:                -0.314
REMARK SMILES CCCCCCCCO
REMARK SMILES IDX 5 1 4 2 3 3 2 4 1 5 6 6 7 7 8 8 9 9
REMARK H PARENT 9 10
REMARK Flexibility Score: inf
ROOT
ATOM      1  C   UNL     1     118.373 114.016 112.022  1.00  0.00     0.000 C 
ENDROOT
BRANCH   1   2
ATOM      2  C   UNL     1     117.817 115.404 112.385  1.00  0.00    -0.000 C 
BRANCH   2   3
ATOM      3  C   UNL     1     118.860 116.525 112.231  1.00  0.00    -0.000 C 
BRANCH   3   4
ATOM      4  C   UNL     1     118.753 117.659 113.266  1.00  0.00    -0.003 C 
ATOM      5  C   UNL     1     119.997 118.547 113.312  1.00  0.00     0.004 C 
ENDBRANCH   3   4
ENDBRANCH   2   3
ENDBRANCH   1   2
BRANCH   1   6
ATOM      6  C   UNL     1     118.607 113.134 113.259  1.00  0.00     0.002 C 
BRANCH   6   7
ATOM      7  C   UNL     1     118.152 113.808 114.563  1.00  0.00     0.028 C 
BRANCH   7   8
ATOM      8  C   UNL     1     118.198 112.836 115.748  1.00  0.00     0.156 C 
BRANCH   8   9
ATOM      9  O   UNL     1     119.179 111.853 115.553  1.00  0.00    -0.396 OA
ATOM     10  H   UNL     1     118.702 110.985 115.481  1.00  0.00     0.210 HD
ENDBRANCH   8   9
ENDBRANCH   7   8
ENDBRANCH   6   7
ENDBRANCH   1   6
TORSDOF 7
ENDMDL
MODEL 9
REMARK VINA RESULT:    -2.940      4.067      5.419
REMARK INTER + INTRA:          -4.372
REMARK INTER:                  -4.021
REMARK INTRA:                  -0.351
REMARK UNBOUND:                -0.314
REMARK SMILES CCCCCCCCO
REMARK SMILES IDX 5 1 4 2 3 3 2 4 1 5 6 6 7 7 8 8 9 9
REMARK H PARENT 9 10
REMARK Flexibility Score: inf
ROOT
ATOM      1  C   UNL     1     113.828 115.689 112.151  1.00  0.00     0.000 C 
ENDROOT
BRANCH   1   2
ATOM      2  C   UNL     1     114.777 116.743 112.748  1.00  0.00    -0.000 C 
BRANCH   2   3
ATOM      3  C   UNL     1     114.448 118.174 112.285  1.00  0.00    -0.000 C 
BRANCH   3   4
ATOM      4  C   UNL     1     114.687 119.269 113.340  1.00  0.00    -0.003 C 
ATOM      5  C   UNL     1     114.917 118.709 114.744  1.00  0.00     0.004 C 
ENDBRANCH   3   4
ENDBRANCH   2   3
ENDBRANCH   1   2
BRANCH   1   6
ATOM      6  C   UNL     1     113.242 114.753 113.220  1.00  0.00     0.002 C 
BRANCH   6   7
ATOM      7  C   UNL     1     113.867 114.970 114.607  1.00  0.00     0.028 C 
BRANCH   7   8
ATOM      8  C   UNL     1     112.813 114.914 115.718  1.00  0.00     0.156 C 
BRANCH   8   9
ATOM      9  O   UNL     1     111.806 113.989 115.408  1.00  0.00    -0.396 OA
ATOM     10  H   UNL     1     111.786 113.910 114.418  1.00  0.00     0.210 HD
ENDBRANCH   8   9
ENDBRANCH   7   8
ENDBRANCH   6   7
ENDBRANCH   1   6
TORSDOF 7
ENDMDL
