MODEL 1
REMARK VINA RESULT:    -3.930      0.000      0.000
REMARK INTER + INTRA:          -6.744
REMARK INTER:                  -5.998
REMARK INTRA:                  -0.746
REMARK UNBOUND:                -0.746
REMARK SMILES CCCCCCCCCCC(=O)[O-]
REMARK SMILES IDX 7 1 8 2 9 3 10 4 11 5 12 6 13 7 6 8 5 9 4 10 3 11 2 12 1 13
REMARK H PARENT
REMARK Flexibility Score: inf
ROOT
ATOM      1  C   UNL     1       9.630  16.170  32.473  1.00  0.00     0.000 C 
ENDROOT
BRANCH   1   2
ATOM      2  C   UNL     1       8.913  14.837  32.718  1.00  0.00     0.000 C 
BRANCH   2   3
ATOM      3  C   UNL     1       9.646  13.681  32.021  1.00  0.00     0.006 C 
BRANCH   3   4
ATOM      4  C   UNL     1       9.040  13.353  30.650  1.00  0.00     0.053 C 
BRANCH   4   5
ATOM      5  C   UNL     1       7.626  12.872  30.768  1.00  0.00     0.041 C 
ATOM      6  O   UNL     1       7.368  11.808  31.392  1.00  0.00    -0.550 OA
ATOM      7  O   UNL     1       6.590  13.616  30.218  1.00  0.00    -0.550 OA
ENDBRANCH   4   5
ENDBRANCH   3   4
ENDBRANCH   2   3
ENDBRANCH   1   2
BRANCH   1   8
ATOM      8  C   UNL     1      11.148  15.971  32.382  1.00  0.00     0.000 C 
BRANCH   8   9
ATOM      9  C   UNL     1      11.730  16.719  31.173  1.00  0.00    -0.000 C 
BRANCH   9  10
ATOM     10  C   UNL     1      11.773  15.858  29.898  1.00  0.00    -0.000 C 
BRANCH  10  11
ATOM     11  C   UNL     1      11.363  16.589  28.607  1.00  0.00    -0.000 C 
BRANCH  11  12
ATOM     12  C   UNL     1      12.229  16.202  27.398  1.00  0.00    -0.003 C 
ATOM     13  C   UNL     1      13.243  17.295  27.076  1.00  0.00     0.004 C 
ENDBRANCH  11  12
ENDBRANCH  10  11
ENDBRANCH   9  10
ENDBRANCH   8   9
ENDBRANCH   1   8
TORSDOF 9
ENDMDL
MODEL 2
REMARK VINA RESULT:    -3.874      1.177      2.026
REMARK INTER + INTRA:          -6.658
REMARK INTER:                  -6.124
REMARK INTRA:                  -0.534
REMARK UNBOUND:                -0.746
REMARK SMILES CCCCCCCCCCC(=O)[O-]
REMARK SMILES IDX 7 1 8 2 9 3 10 4 11 5 12 6 13 7 6 8 5 9 4 10 3 11 2 12 1 13
REMARK H PARENT
REMARK Flexibility Score: inf
ROOT
ATOM      1  C   UNL     1      11.505  16.698  31.589  1.00  0.00     0.000 C 
ENDROOT
BRANCH   1   2
ATOM      2  C   UNL     1      10.248  16.318  32.378  1.00  0.00     0.000 C 
BRANCH   2   3
ATOM      3  C   UNL     1      10.023  14.798  32.360  1.00  0.00     0.006 C 
BRANCH   3   4
ATOM      4  C   UNL     1       8.550  14.432  32.139  1.00  0.00     0.053 C 
BRANCH   4   5
ATOM      5  C   UNL     1       8.359  13.636  30.883  1.00  0.00     0.041 C 
ATOM      6  O   UNL     1       7.210  13.504  30.385  1.00  0.00    -0.550 OA
ATOM      7  O   UNL     1       9.455  13.068  30.247  1.00  0.00    -0.550 OA
ENDBRANCH   4   5
ENDBRANCH   3   4
ENDBRANCH   2   3
ENDBRANCH   1   2
BRANCH   1   8
ATOM      8  C   UNL     1      11.869  15.608  30.573  1.00  0.00     0.000 C 
BRANCH   8   9
ATOM      9  C   UNL     1      11.278  15.923  29.191  1.00  0.00    -0.000 C 
BRANCH   9  10
ATOM     10  C   UNL     1      11.902  17.171  28.541  1.00  0.00    -0.000 C 
BRANCH  10  11
ATOM     11  C   UNL     1      12.855  16.884  27.366  1.00  0.00    -0.000 C 
BRANCH  11  12
ATOM     12  C   UNL     1      13.734  18.089  26.999  1.00  0.00    -0.003 C 
ATOM     13  C   UNL     1      15.094  17.639  26.475  1.00  0.00     0.004 C 
ENDBRANCH  11  12
ENDBRANCH  10  11
ENDBRANCH   9  10
ENDBRANCH   8   9
ENDBRANCH   1   8
TORSDOF 9
ENDMDL
MODEL 3
REMARK VINA RESULT:    -3.848     11.522     12.759
REMARK INTER + INTRA:          -6.618
REMARK INTER:                  -5.760
REMARK INTRA:                  -0.859
REMARK UNBOUND:                -0.746
REMARK SMILES CCCCCCCCCCC(=O)[O-]
REMARK SMILES IDX 7 1 8 2 9 3 10 4 11 5 12 6 13 7 6 8 5 9 4 10 3 11 2 12 1 13
REMARK H PARENT
REMARK Flexibility Score: inf
ROOT
ATOM      1  C   UNL     1      15.687  22.005  23.787  1.00  0.00     0.000 C 
ENDROOT
BRANCH   1   2
ATOM      2  C   UNL     1      17.196  21.911  23.538  1.00  0.00     0.000 C 
BRANCH   2   3
ATOM      3  C   UNL     1      17.621  20.460  23.266  1.00  0.00     0.006 C 
BRANCH   3   4
ATOM      4  C   UNL     1      17.570  20.109  21.774  1.00  0.00     0.053 C 
BRANCH   4   5
ATOM      5  C   UNL     1      16.680  18.932  21.511  1.00  0.00     0.041 C 
ATOM      6  O   UNL     1      17.129  17.920  20.910  1.00  0.00    -0.550 OA
ATOM      7  O   UNL     1      15.365  18.941  21.959  1.00  0.00    -0.550 OA
ENDBRANCH   4   5
ENDBRANCH   3   4
ENDBRANCH   2   3
ENDBRANCH   1   2
BRANCH   1   8
ATOM      8  C   UNL     1      15.030  23.003  22.825  1.00  0.00     0.000 C 
BRANCH   8   9
ATOM      9  C   UNL     1      14.123  22.282  21.817  1.00  0.00    -0.000 C 
BRANCH   9  10
ATOM     10  C   UNL     1      14.763  22.145  20.424  1.00  0.00    -0.000 C 
BRANCH  10  11
ATOM     11  C   UNL     1      14.235  23.132  19.367  1.00  0.00    -0.000 C 
BRANCH  11  12
ATOM     12  C   UNL     1      12.740  23.443  19.532  1.00  0.00    -0.003 C 
ATOM     13  C   UNL     1      11.879  22.346  18.912  1.00  0.00     0.004 C 
ENDBRANCH  11  12
ENDBRANCH  10  11
ENDBRANCH   9  10
ENDBRANCH   8   9
ENDBRANCH   1   8
TORSDOF 9
ENDMDL
MODEL 4
REMARK VINA RESULT:    -3.820      6.465      9.714
REMARK INTER + INTRA:          -6.576
REMARK INTER:                  -5.558
REMARK INTRA:                  -1.018
REMARK UNBOUND:                -0.746
REMARK SMILES CCCCCCCCCCC(=O)[O-]
REMARK SMILES IDX 7 1 8 2 9 3 10 4 11 5 12 6 13 7 6 8 5 9 4 10 3 11 2 12 1 13
REMARK H PARENT
REMARK Flexibility Score: inf
ROOT
ATOM      1  C   UNL     1      14.454  18.491  22.550  1.00  0.00     0.000 C 
ENDROOT
BRANCH   1   2
ATOM      2  C   UNL     1      14.086  18.119  23.990  1.00  0.00     0.000 C 
BRANCH   2   3
ATOM      3  C   UNL     1      15.150  18.623  24.978  1.00  0.00     0.006 C 
BRANCH   3   4
ATOM      4  C   UNL     1      15.141  17.834  26.294  1.00  0.00     0.053 C 
BRANCH   4   5
ATOM      5  C   UNL     1      13.786  17.839  26.935  1.00  0.00     0.041 C 
ATOM      6  O   UNL     1      13.275  18.921  27.327  1.00  0.00    -0.550 OA
ATOM      7  O   UNL     1      13.076  16.653  27.070  1.00  0.00    -0.550 OA
ENDBRANCH   4   5
ENDBRANCH   3   4
ENDBRANCH   2   3
ENDBRANCH   1   2
BRANCH   1   8
ATOM      8  C   UNL     1      15.510  17.533  21.985  1.00  0.00     0.000 C 
BRANCH   8   9
ATOM      9  C   UNL     1      16.653  18.307  21.313  1.00  0.00    -0.000 C 
BRANCH   9  10
ATOM     10  C   UNL     1      16.680  19.797  21.700  1.00  0.00    -0.000 C 
BRANCH  10  11
ATOM     11  C   UNL     1      17.768  20.185  22.718  1.00  0.00    -0.000 C 
BRANCH  11  12
ATOM     12  C   UNL     1      17.567  21.591  23.303  1.00  0.00    -0.003 C 
ATOM     13  C   UNL     1      16.088  21.880  23.544  1.00  0.00     0.004 C 
ENDBRANCH  11  12
ENDBRANCH  10  11
ENDBRANCH   9  10
ENDBRANCH   8   9
ENDBRANCH   1   8
TORSDOF 9
ENDMDL
MODEL 5
REMARK VINA RESULT:    -3.808      1.204      1.957
REMARK INTER + INTRA:          -6.558
REMARK INTER:                  -5.889
REMARK INTRA:                  -0.670
REMARK UNBOUND:                -0.746
REMARK SMILES CCCCCCCCCCC(=O)[O-]
REMARK SMILES IDX 7 1 8 2 9 3 10 4 11 5 12 6 13 7 6 8 5 9 4 10 3 11 2 12 1 13
REMARK H PARENT
REMARK Flexibility Score: inf
ROOT
ATOM      1  C   UNL     1       8.671  14.785  32.623  1.00  0.00     0.000 C 
ENDROOT
BRANCH   1   2
ATOM      2  C   UNL     1       9.439  13.661  31.918  1.00  0.00     0.000 C 
BRANCH   2   3
ATOM      3  C   UNL     1       8.529  12.901  30.940  1.00  0.00     0.006 C 
BRANCH   3   4
ATOM      4  C   UNL     1       7.045  13.041  31.301  1.00  0.00     0.053 C 
BRANCH   4   5
ATOM      5  C   UNL     1       6.523  11.815  31.987  1.00  0.00     0.041 C 
ATOM      6  O   UNL     1       7.006  10.684  31.719  1.00  0.00    -0.550 OA
ATOM      7  O   UNL     1       5.524  11.928  32.946  1.00  0.00    -0.550 OA
ENDBRANCH   4   5
ENDBRANCH   3   4
ENDBRANCH   2   3
ENDBRANCH   1   2
BRANCH   1   8
ATOM      8  C   UNL     1       9.530  16.049  32.740  1.00  0.00     0.000 C 
BRANCH   8   9
ATOM      9  C   UNL     1      11.005  15.744  32.438  1.00  0.00    -0.000 C 
BRANCH   9  10
ATOM     10  C   UNL     1      11.732  16.913  31.749  1.00  0.00    -0.000 C 
BRANCH  10  11
ATOM     11  C   UNL     1      11.343  17.143  30.277  1.00  0.00    -0.000 C 
BRANCH  11  12
ATOM     12  C   UNL     1      11.768  15.988  29.358  1.00  0.00    -0.003 C 
ATOM     13  C   UNL     1      12.067  16.489  27.948  1.00  0.00     0.004 C 
ENDBRANCH  11  12
ENDBRANCH  10  11
ENDBRANCH   9  10
ENDBRANCH   8   9
ENDBRANCH   1   8
TORSDOF 9
ENDMDL
MODEL 6
REMARK VINA RESULT:    -3.784      2.624      5.856
REMARK INTER + INTRA:          -6.520
REMARK INTER:                  -5.826
REMARK INTRA:                  -0.694
REMARK UNBOUND:                -0.746
REMARK SMILES CCCCCCCCCCC(=O)[O-]
REMARK SMILES IDX 7 1 8 2 9 3 10 4 11 5 12 6 13 7 6 8 5 9 4 10 3 11 2 12 1 13
REMARK H PARENT
REMARK Flexibility Score: inf
ROOT
ATOM      1  C   UNL     1       9.110  15.990  32.474  1.00  0.00     0.000 C 
ENDROOT
BRANCH   1   2
ATOM      2  C   UNL     1      10.606  15.861  32.781  1.00  0.00     0.000 C 
BRANCH   2   3
ATOM      3  C   UNL     1      11.453  16.536  31.692  1.00  0.00     0.006 C 
BRANCH   3   4
ATOM      4  C   UNL     1      11.838  15.564  30.569  1.00  0.00     0.053 C 
BRANCH   4   5
ATOM      5  C   UNL     1      11.358  16.042  29.232  1.00  0.00     0.041 C 
ATOM      6  O   UNL     1      10.133  16.260  29.039  1.00  0.00    -0.550 OA
ATOM      7  O   UNL     1      12.270  16.278  28.211  1.00  0.00    -0.550 OA
ENDBRANCH   4   5
ENDBRANCH   3   4
ENDBRANCH   2   3
ENDBRANCH   1   2
BRANCH   1   8
ATOM      8  C   UNL     1       8.402  14.636  32.601  1.00  0.00     0.000 C 
BRANCH   8   9
ATOM      9  C   UNL     1       8.797  13.698  31.451  1.00  0.00    -0.000 C 
BRANCH   9  10
ATOM     10  C   UNL     1       7.790  12.553  31.236  1.00  0.00    -0.000 C 
BRANCH  10  11
ATOM     11  C   UNL     1       6.490  12.670  32.053  1.00  0.00    -0.000 C 
BRANCH  11  12
ATOM     12  C   UNL     1       5.861  11.306  32.375  1.00  0.00    -0.003 C 
ATOM     13  C   UNL     1       6.917  10.204  32.389  1.00  0.00     0.004 C 
ENDBRANCH  11  12
ENDBRANCH  10  11
ENDBRANCH   9  10
ENDBRANCH   8   9
ENDBRANCH   1   8
TORSDOF 9
ENDMDL
MODEL 7
REMARK VINA RESULT:    -3.712      9.185     11.742
REMARK INTER + INTRA:          -6.411
REMARK INTER:                  -5.107
REMARK INTRA:                  -1.304
REMARK UNBOUND:                -0.746
REMARK SMILES CCCCCCCCCCC(=O)[O-]
REMARK SMILES IDX 7 1 8 2 9 3 10 4 11 5 12 6 13 7 6 8 5 9 4 10 3 11 2 12 1 13
REMARK H PARENT
REMARK Flexibility Score: inf
ROOT
ATOM      1  C   UNL     1      16.889  19.988  21.617  1.00  0.00     0.000 C 
ENDROOT
BRANCH   1   2
ATOM      2  C   UNL     1      17.668  20.671  22.746  1.00  0.00     0.000 C 
BRANCH   2   3
ATOM      3  C   UNL     1      16.758  21.607  23.555  1.00  0.00     0.006 C 
BRANCH   3   4
ATOM      4  C   UNL     1      15.424  21.875  22.847  1.00  0.00     0.053 C 
BRANCH   4   5
ATOM      5  C   UNL     1      14.457  22.594  23.739  1.00  0.00     0.041 C 
ATOM      6  O   UNL     1      13.962  23.695  23.380  1.00  0.00    -0.550 OA
ATOM      7  O   UNL     1      14.079  22.030  24.951  1.00  0.00    -0.550 OA
ENDBRANCH   4   5
ENDBRANCH   3   4
ENDBRANCH   2   3
ENDBRANCH   1   2
BRANCH   1   8
ATOM      8  C   UNL     1      17.415  18.570  21.363  1.00  0.00     0.000 C 
BRANCH   8   9
ATOM      9  C   UNL     1      16.257  17.579  21.172  1.00  0.00    -0.000 C 
BRANCH   9  10
ATOM     10  C   UNL     1      14.902  18.141  21.637  1.00  0.00    -0.000 C 
BRANCH  10  11
ATOM     11  C   UNL     1      14.362  17.534  22.945  1.00  0.00    -0.000 C 
BRANCH  11  12
ATOM     12  C   UNL     1      14.068  18.592  24.020  1.00  0.00    -0.003 C 
ATOM     13  C   UNL     1      15.157  18.604  25.090  1.00  0.00     0.004 C 
ENDBRANCH  11  12
ENDBRANCH  10  11
ENDBRANCH   9  10
ENDBRANCH   8   9
ENDBRANCH   1   8
TORSDOF 9
ENDMDL
MODEL 8
REMARK VINA RESULT:    -3.707      9.037     11.790
REMARK INTER + INTRA:          -6.404
REMARK INTER:                  -5.585
REMARK INTRA:                  -0.819
REMARK UNBOUND:                -0.746
REMARK SMILES CCCCCCCCCCC(=O)[O-]
REMARK SMILES IDX 7 1 8 2 9 3 10 4 11 5 12 6 13 7 6 8 5 9 4 10 3 11 2 12 1 13
REMARK H PARENT
REMARK Flexibility Score: inf
ROOT
ATOM      1  C   UNL     1      17.633  21.843  23.406  1.00  0.00     0.000 C 
ENDROOT
BRANCH   1   2
ATOM      2  C   UNL     1      16.195  22.373  23.403  1.00  0.00     0.000 C 
BRANCH   2   3
ATOM      3  C   UNL     1      15.967  23.353  24.565  1.00  0.00     0.006 C 
BRANCH   3   4
ATOM      4  C   UNL     1      14.505  23.375  25.028  1.00  0.00     0.053 C 
BRANCH   4   5
ATOM      5  C   UNL     1      14.200  24.592  25.848  1.00  0.00     0.041 C 
ATOM      6  O   UNL     1      14.413  24.589  27.089  1.00  0.00    -0.550 OA
ATOM      7  O   UNL     1      13.713  25.739  25.235  1.00  0.00    -0.550 OA
ENDBRANCH   4   5
ENDBRANCH   3   4
ENDBRANCH   2   3
ENDBRANCH   1   2
BRANCH   1   8
ATOM      8  C   UNL     1      17.709  20.454  22.761  1.00  0.00     0.000 C 
BRANCH   8   9
ATOM      9  C   UNL     1      16.388  20.096  22.065  1.00  0.00    -0.000 C 
BRANCH   9  10
ATOM     10  C   UNL     1      15.820  18.737  22.513  1.00  0.00    -0.000 C 
BRANCH  10  11
ATOM     11  C   UNL     1      14.564  18.819  23.400  1.00  0.00    -0.000 C 
BRANCH  11  12
ATOM     12  C   UNL     1      14.871  19.286  24.832  1.00  0.00    -0.003 C 
ATOM     13  C   UNL     1      15.088  18.096  25.763  1.00  0.00     0.004 C 
ENDBRANCH  11  12
ENDBRANCH  10  11
ENDBRANCH   9  10
ENDBRANCH   8   9
ENDBRANCH   1   8
TORSDOF 9
ENDMDL
MODEL 9
REMARK VINA RESULT:    -3.707      2.234      3.214
REMARK INTER + INTRA:          -6.403
REMARK INTER:                  -5.285
REMARK INTRA:                  -1.118
REMARK UNBOUND:                -0.746
REMARK SMILES CCCCCCCCCCC(=O)[O-]
REMARK SMILES IDX 7 1 8 2 9 3 10 4 11 5 12 6 13 7 6 8 5 9 4 10 3 11 2 12 1 13
REMARK H PARENT
REMARK Flexibility Score: inf
ROOT
ATOM      1  C   UNL     1      10.475  17.889  30.437  1.00  0.00     0.000 C 
ENDROOT
BRANCH   1   2
ATOM      2  C   UNL     1      11.682  17.449  31.273  1.00  0.00     0.000 C 
BRANCH   2   3
ATOM      3  C   UNL     1      11.879  15.927  31.198  1.00  0.00     0.006 C 
BRANCH   3   4
ATOM      4  C   UNL     1      10.865  15.256  30.262  1.00  0.00     0.053 C 
BRANCH   4   5
ATOM      5  C   UNL     1      10.029  14.244  30.984  1.00  0.00     0.041 C 
ATOM      6  O   UNL     1       9.899  14.305  32.235  1.00  0.00    -0.550 OA
ATOM      7  O   UNL     1       9.367  13.253  30.270  1.00  0.00    -0.550 OA
ENDBRANCH   4   5
ENDBRANCH   3   4
ENDBRANCH   2   3
ENDBRANCH   1   2
BRANCH   1   8
ATOM      8  C   UNL     1      10.685  19.296  29.864  1.00  0.00     0.000 C 
BRANCH   8   9
ATOM      9  C   UNL     1      12.131  19.768  30.078  1.00  0.00    -0.000 C 
BRANCH   9  10
ATOM     10  C   UNL     1      12.874  20.047  28.759  1.00  0.00    -0.000 C 
BRANCH  10  11
ATOM     11  C   UNL     1      12.361  19.253  27.544  1.00  0.00    -0.000 C 
BRANCH  11  12
ATOM     12  C   UNL     1      13.315  18.128  27.117  1.00  0.00    -0.003 C 
ATOM     13  C   UNL     1      12.710  16.756  27.404  1.00  0.00     0.004 C 
ENDBRANCH  11  12
ENDBRANCH  10  11
ENDBRANCH   9  10
ENDBRANCH   8   9
ENDBRANCH   1   8
TORSDOF 9
ENDMDL
