MODEL 1
REMARK VINA RESULT:    -4.697      0.000      0.000
REMARK INTER + INTRA:          -9.128
REMARK INTER:                  -8.267
REMARK INTRA:                  -0.862
REMARK UNBOUND:                -0.862
REMARK SMILES CCCCCCCCCCCCCCC(=O)[O-]
REMARK SMILES IDX 9 1 10 2 11 3 12 4 13 5 14 6 15 7 16 8 17 9 8 10 7 11 6 12
REMARK SMILES IDX 5 13 4 14 3 15 2 16 1 17
REMARK H PARENT
REMARK Flexibility Score: inf
ROOT
ATOM      1  C   UNL     1      96.667  85.949  79.993  1.00  0.00     0.000 C 
ENDROOT
BRANCH   1   2
ATOM      2  C   UNL     1      97.910  85.524  80.785  1.00  0.00     0.000 C 
BRANCH   2   3
ATOM      3  C   UNL     1      97.536  84.569  81.926  1.00  0.00     0.000 C 
BRANCH   3   4
ATOM      4  C   UNL     1      98.463  83.346  81.944  1.00  0.00     0.000 C 
BRANCH   4   5
ATOM      5  C   UNL     1      99.950  83.727  81.855  1.00  0.00     0.006 C 
BRANCH   5   6
ATOM      6  C   UNL     1     100.577  83.983  83.232  1.00  0.00     0.053 C 
BRANCH   6   7
ATOM      7  C   UNL     1     101.312  85.286  83.237  1.00  0.00     0.041 C 
ATOM      8  O   UNL     1     100.708  86.355  82.959  1.00  0.00    -0.550 OA
ATOM      9  O   UNL     1     102.653  85.326  83.597  1.00  0.00    -0.550 OA
ENDBRANCH   6   7
ENDBRANCH   5   6
ENDBRANCH   4   5
ENDBRANCH   3   4
ENDBRANCH   2   3
ENDBRANCH   1   2
BRANCH   1  10
ATOM     10  C   UNL     1      95.417  85.209  80.493  1.00  0.00     0.000 C 
BRANCH  10  11
ATOM     11  C   UNL     1      94.729  84.395  79.388  1.00  0.00    -0.000 C 
BRANCH  11  12
ATOM     12  C   UNL     1      93.616  83.484  79.927  1.00  0.00    -0.000 C 
BRANCH  12  13
ATOM     13  C   UNL     1      92.342  84.291  80.223  1.00  0.00    -0.000 C 
BRANCH  13  14
ATOM     14  C   UNL     1      91.808  85.031  78.987  1.00  0.00    -0.000 C 
BRANCH  14  15
ATOM     15  C   UNL     1      90.395  85.596  79.200  1.00  0.00    -0.000 C 
BRANCH  15  16
ATOM     16  C   UNL     1      89.360  84.468  79.269  1.00  0.00    -0.003 C 
ATOM     17  C   UNL     1      88.769  84.343  80.671  1.00  0.00     0.004 C 
ENDBRANCH  15  16
ENDBRANCH  14  15
ENDBRANCH  13  14
ENDBRANCH  12  13
ENDBRANCH  11  12
ENDBRANCH  10  11
ENDBRANCH   1  10
TORSDOF 13
ENDMDL
MODEL 2
REMARK VINA RESULT:    -4.662      1.784      2.595
REMARK INTER + INTRA:          -9.066
REMARK INTER:                  -7.781
REMARK INTRA:                  -1.285
REMARK UNBOUND:                -0.862
REMARK SMILES CCCCCCCCCCCCCCC(=O)[O-]
REMARK SMILES IDX 9 1 10 2 11 3 12 4 13 5 14 6 15 7 16 8 17 9 8 10 7 11 6 12
REMARK SMILES IDX 5 13 4 14 3 15 2 16 1 17
REMARK H PARENT
REMARK Flexibility Score: inf
ROOT
ATOM      1  C   UNL     1      95.376  85.514  79.446  1.00  0.00     0.000 C 
ENDROOT
BRANCH   1   2
ATOM      2  C   UNL     1      96.373  86.083  80.462  1.00  0.00     0.000 C 
BRANCH   2   3
ATOM      3  C   UNL     1      97.019  84.963  81.286  1.00  0.00     0.000 C 
BRANCH   3   4
ATOM      4  C   UNL     1      98.551  85.041  81.212  1.00  0.00     0.000 C 
BRANCH   4   5
ATOM      5  C   UNL     1      99.236  83.773  81.748  1.00  0.00     0.006 C 
BRANCH   5   6
ATOM      6  C   UNL     1      99.885  83.989  83.122  1.00  0.00     0.053 C 
BRANCH   6   7
ATOM      7  C   UNL     1     101.344  84.277  82.970  1.00  0.00     0.041 C 
ATOM      8  O   UNL     1     101.912  85.096  83.740  1.00  0.00    -0.550 OA
ATOM      9  O   UNL     1     102.089  83.605  82.010  1.00  0.00    -0.550 OA
ENDBRANCH   6   7
ENDBRANCH   5   6
ENDBRANCH   4   5
ENDBRANCH   3   4
ENDBRANCH   2   3
ENDBRANCH   1   2
BRANCH   1  10
ATOM     10  C   UNL     1      94.771  84.194  79.949  1.00  0.00     0.000 C 
BRANCH  10  11
ATOM     11  C   UNL     1      93.483  83.811  79.204  1.00  0.00    -0.000 C 
BRANCH  11  12
ATOM     12  C   UNL     1      92.293  84.707  79.578  1.00  0.00    -0.000 C 
BRANCH  12  13
ATOM     13  C   UNL     1      91.472  84.082  80.717  1.00  0.00    -0.000 C 
BRANCH  13  14
ATOM     14  C   UNL     1      91.406  84.979  81.963  1.00  0.00    -0.000 C 
BRANCH  14  15
ATOM     15  C   UNL     1      92.274  86.240  81.830  1.00  0.00    -0.000 C 
BRANCH  15  16
ATOM     16  C   UNL     1      93.478  86.178  82.776  1.00  0.00    -0.003 C 
ATOM     17  C   UNL     1      93.034  86.012  84.226  1.00  0.00     0.004 C 
ENDBRANCH  15  16
ENDBRANCH  14  15
ENDBRANCH  13  14
ENDBRANCH  12  13
ENDBRANCH  11  12
ENDBRANCH  10  11
ENDBRANCH   1  10
TORSDOF 13
ENDMDL
MODEL 3
REMARK VINA RESULT:    -4.636      4.581      9.224
REMARK INTER + INTRA:          -9.021
REMARK INTER:                  -8.245
REMARK INTRA:                  -0.776
REMARK UNBOUND:                -0.862
REMARK SMILES CCCCCCCCCCCCCCC(=O)[O-]
REMARK SMILES IDX 9 1 10 2 11 3 12 4 13 5 14 6 15 7 16 8 17 9 8 10 7 11 6 12
REMARK SMILES IDX 5 13 4 14 3 15 2 16 1 17
REMARK H PARENT
REMARK Flexibility Score: inf
ROOT
ATOM      1  C   UNL     1      94.664  84.204  79.388  1.00  0.00     0.000 C 
ENDROOT
BRANCH   1   2
ATOM      2  C   UNL     1      93.363  83.599  79.930  1.00  0.00     0.000 C 
BRANCH   2   3
ATOM      3  C   UNL     1      92.256  84.658  80.013  1.00  0.00     0.000 C 
BRANCH   3   4
ATOM      4  C   UNL     1      91.380  84.440  81.255  1.00  0.00     0.000 C 
BRANCH   4   5
ATOM      5  C   UNL     1      89.954  83.986  80.902  1.00  0.00     0.006 C 
BRANCH   5   6
ATOM      6  C   UNL     1      89.552  84.363  79.470  1.00  0.00     0.053 C 
BRANCH   6   7
ATOM      7  C   UNL     1      88.611  85.526  79.482  1.00  0.00     0.041 C 
ATOM      8  O   UNL     1      87.568  85.505  78.777  1.00  0.00    -0.550 OA
ATOM      9  O   UNL     1      88.861  86.613  80.310  1.00  0.00    -0.550 OA
ENDBRANCH   6   7
ENDBRANCH   5   6
ENDBRANCH   4   5
ENDBRANCH   3   4
ENDBRANCH   2   3
ENDBRANCH   1   2
BRANCH   1  10
ATOM     10  C   UNL     1      95.205  85.285  80.337  1.00  0.00     0.000 C 
BRANCH  10  11
ATOM     11  C   UNL     1      96.570  85.832  79.893  1.00  0.00    -0.000 C 
BRANCH  11  12
ATOM     12  C   UNL     1      97.685  85.541  80.909  1.00  0.00    -0.000 C 
BRANCH  12  13
ATOM     13  C   UNL     1      97.291  84.381  81.837  1.00  0.00    -0.000 C 
BRANCH  13  14
ATOM     14  C   UNL     1      98.385  83.307  81.940  1.00  0.00    -0.000 C 
BRANCH  14  15
ATOM     15  C   UNL     1      99.799  83.885  81.779  1.00  0.00    -0.000 C 
BRANCH  15  16
ATOM     16  C   UNL     1     100.580  83.794  83.095  1.00  0.00    -0.003 C 
ATOM     17  C   UNL     1     101.816  84.688  83.067  1.00  0.00     0.004 C 
ENDBRANCH  15  16
ENDBRANCH  14  15
ENDBRANCH  13  14
ENDBRANCH  12  13
ENDBRANCH  11  12
ENDBRANCH  10  11
ENDBRANCH   1  10
TORSDOF 13
ENDMDL
MODEL 4
REMARK VINA RESULT:    -4.635      1.899      3.420
REMARK INTER + INTRA:          -9.019
REMARK INTER:                  -7.717
REMARK INTRA:                  -1.302
REMARK UNBOUND:                -0.862
REMARK SMILES CCCCCCCCCCCCCCC(=O)[O-]
REMARK SMILES IDX 9 1 10 2 11 3 12 4 13 5 14 6 15 7 16 8 17 9 8 10 7 11 6 12
REMARK SMILES IDX 5 13 4 14 3 15 2 16 1 17
REMARK H PARENT
REMARK Flexibility Score: inf
ROOT
ATOM      1  C   UNL     1      97.597  84.423  81.774  1.00  0.00     0.000 C 
ENDROOT
BRANCH   1   2
ATOM      2  C   UNL     1      98.641  83.352  82.111  1.00  0.00     0.000 C 
BRANCH   2   3
ATOM      3  C   UNL     1     100.041  83.788  81.662  1.00  0.00     0.000 C 
BRANCH   3   4
ATOM      4  C   UNL     1     100.995  83.891  82.861  1.00  0.00     0.000 C 
BRANCH   4   5
ATOM      5  C   UNL     1     100.793  85.183  83.669  1.00  0.00     0.006 C 
BRANCH   5   6
ATOM      6  C   UNL     1     101.126  85.006  85.157  1.00  0.00     0.053 C 
BRANCH   6   7
ATOM      7  C   UNL     1      99.873  84.841  85.956  1.00  0.00     0.041 C 
ATOM      8  O   UNL     1      98.751  85.050  85.424  1.00  0.00    -0.550 OA
ATOM      9  O   UNL     1      99.940  84.409  87.274  1.00  0.00    -0.550 OA
ENDBRANCH   6   7
ENDBRANCH   5   6
ENDBRANCH   4   5
ENDBRANCH   3   4
ENDBRANCH   2   3
ENDBRANCH   1   2
BRANCH   1  10
ATOM     10  C   UNL     1      98.203  85.523  80.889  1.00  0.00     0.000 C 
BRANCH  10  11
ATOM     11  C   UNL     1      97.494  86.875  81.055  1.00  0.00    -0.000 C 
BRANCH  11  12
ATOM     12  C   UNL     1      95.991  86.800  80.745  1.00  0.00    -0.000 C 
BRANCH  12  13
ATOM     13  C   UNL     1      95.752  86.621  79.237  1.00  0.00    -0.000 C 
BRANCH  13  14
ATOM     14  C   UNL     1      94.517  85.758  78.931  1.00  0.00    -0.000 C 
BRANCH  14  15
ATOM     15  C   UNL     1      94.628  84.340  79.512  1.00  0.00    -0.000 C 
BRANCH  15  16
ATOM     16  C   UNL     1      93.310  83.912  80.167  1.00  0.00    -0.003 C 
ATOM     17  C   UNL     1      92.118  84.610  79.517  1.00  0.00     0.004 C 
ENDBRANCH  15  16
ENDBRANCH  14  15
ENDBRANCH  13  14
ENDBRANCH  12  13
ENDBRANCH  11  12
ENDBRANCH  10  11
ENDBRANCH   1  10
TORSDOF 13
ENDMDL
MODEL 5
REMARK VINA RESULT:    -4.609      3.799      8.221
REMARK INTER + INTRA:          -8.974
REMARK INTER:                  -7.265
REMARK INTRA:                  -1.709
REMARK UNBOUND:                -0.862
REMARK SMILES CCCCCCCCCCCCCCC(=O)[O-]
REMARK SMILES IDX 9 1 10 2 11 3 12 4 13 5 14 6 15 7 16 8 17 9 8 10 7 11 6 12
REMARK SMILES IDX 5 13 4 14 3 15 2 16 1 17
REMARK H PARENT
REMARK Flexibility Score: inf
ROOT
ATOM      1  C   UNL     1      98.168  86.787  81.235  1.00  0.00     0.000 C 
ENDROOT
BRANCH   1   2
ATOM      2  C   UNL     1      97.023  87.363  80.394  1.00  0.00     0.000 C 
BRANCH   2   3
ATOM      3  C   UNL     1      95.726  86.574  80.615  1.00  0.00     0.000 C 
BRANCH   3   4
ATOM      4  C   UNL     1      95.522  85.532  79.506  1.00  0.00     0.000 C 
BRANCH   4   5
ATOM      5  C   UNL     1      94.966  84.201  80.038  1.00  0.00     0.006 C 
BRANCH   5   6
ATOM      6  C   UNL     1      93.775  83.688  79.217  1.00  0.00     0.053 C 
BRANCH   6   7
ATOM      7  C   UNL     1      92.561  84.518  79.486  1.00  0.00     0.041 C 
ATOM      8  O   UNL     1      92.078  84.577  80.648  1.00  0.00    -0.550 OA
ATOM      9  O   UNL     1      91.990  85.266  78.465  1.00  0.00    -0.550 OA
ENDBRANCH   6   7
ENDBRANCH   5   6
ENDBRANCH   4   5
ENDBRANCH   3   4
ENDBRANCH   2   3
ENDBRANCH   1   2
BRANCH   1  10
ATOM     10  C   UNL     1      97.685  86.431  82.650  1.00  0.00     0.000 C 
BRANCH  10  11
ATOM     11  C   UNL     1      97.908  84.951  82.996  1.00  0.00    -0.000 C 
BRANCH  11  12
ATOM     12  C   UNL     1      98.346  84.117  81.783  1.00  0.00    -0.000 C 
BRANCH  12  13
ATOM     13  C   UNL     1      99.796  83.635  81.944  1.00  0.00    -0.000 C 
BRANCH  13  14
ATOM     14  C   UNL     1     100.383  83.972  83.324  1.00  0.00    -0.000 C 
BRANCH  14  15
ATOM     15  C   UNL     1     101.635  84.858  83.233  1.00  0.00    -0.000 C 
BRANCH  15  16
ATOM     16  C   UNL     1     101.466  86.131  84.069  1.00  0.00    -0.003 C 
ATOM     17  C   UNL     1     101.502  87.378  83.189  1.00  0.00     0.004 C 
ENDBRANCH  15  16
ENDBRANCH  14  15
ENDBRANCH  13  14
ENDBRANCH  12  13
ENDBRANCH  11  12
ENDBRANCH  10  11
ENDBRANCH   1  10
TORSDOF 13
ENDMDL
MODEL 6
REMARK VINA RESULT:    -4.597      3.763      8.476
REMARK INTER + INTRA:          -8.952
REMARK INTER:                  -7.542
REMARK INTRA:                  -1.410
REMARK UNBOUND:                -0.862
REMARK SMILES CCCCCCCCCCCCCCC(=O)[O-]
REMARK SMILES IDX 9 1 10 2 11 3 12 4 13 5 14 6 15 7 16 8 17 9 8 10 7 11 6 12
REMARK SMILES IDX 5 13 4 14 3 15 2 16 1 17
REMARK H PARENT
REMARK Flexibility Score: inf
ROOT
ATOM      1  C   UNL     1      97.787  85.470  82.083  1.00  0.00     0.000 C 
ENDROOT
BRANCH   1   2
ATOM      2  C   UNL     1      97.915  85.786  80.588  1.00  0.00     0.000 C 
BRANCH   2   3
ATOM      3  C   UNL     1      96.561  86.192  79.993  1.00  0.00     0.000 C 
BRANCH   3   4
ATOM      4  C   UNL     1      95.446  85.252  80.472  1.00  0.00     0.000 C 
BRANCH   4   5
ATOM      5  C   UNL     1      94.826  84.436  79.326  1.00  0.00     0.006 C 
BRANCH   5   6
ATOM      6  C   UNL     1      93.373  84.031  79.610  1.00  0.00     0.053 C 
BRANCH   6   7
ATOM      7  C   UNL     1      92.428  85.007  78.985  1.00  0.00     0.041 C 
ATOM      8  O   UNL     1      91.191  84.774  78.975  1.00  0.00    -0.550 OA
ATOM      9  O   UNL     1      92.908  86.199  78.458  1.00  0.00    -0.550 OA
ENDBRANCH   6   7
ENDBRANCH   5   6
ENDBRANCH   4   5
ENDBRANCH   3   4
ENDBRANCH   2   3
ENDBRANCH   1   2
BRANCH   1  10
ATOM     10  C   UNL     1      98.458  84.129  82.421  1.00  0.00     0.000 C 
BRANCH  10  11
ATOM     11  C   UNL     1      99.739  83.887  81.608  1.00  0.00    -0.000 C 
BRANCH  11  12
ATOM     12  C   UNL     1     100.989  83.761  82.492  1.00  0.00    -0.000 C 
BRANCH  12  13
ATOM     13  C   UNL     1     100.695  84.227  83.926  1.00  0.00    -0.000 C 
BRANCH  13  14
ATOM     14  C   UNL     1     101.661  85.322  84.404  1.00  0.00    -0.000 C 
BRANCH  14  15
ATOM     15  C   UNL     1     101.770  86.490  83.412  1.00  0.00    -0.000 C 
BRANCH  15  16
ATOM     16  C   UNL     1     100.505  87.355  83.444  1.00  0.00    -0.003 C 
ATOM     17  C   UNL     1     100.420  88.254  82.214  1.00  0.00     0.004 C 
ENDBRANCH  15  16
ENDBRANCH  14  15
ENDBRANCH  13  14
ENDBRANCH  12  13
ENDBRANCH  11  12
ENDBRANCH  10  11
ENDBRANCH   1  10
TORSDOF 13
ENDMDL
MODEL 7
REMARK VINA RESULT:    -4.589      3.728      8.006
REMARK INTER + INTRA:          -8.938
REMARK INTER:                  -7.142
REMARK INTRA:                  -1.795
REMARK UNBOUND:                -0.862
REMARK SMILES CCCCCCCCCCCCCCC(=O)[O-]
REMARK SMILES IDX 9 1 10 2 11 3 12 4 13 5 14 6 15 7 16 8 17 9 8 10 7 11 6 12
REMARK SMILES IDX 5 13 4 14 3 15 2 16 1 17
REMARK H PARENT
REMARK Flexibility Score: inf
ROOT
ATOM      1  C   UNL     1      98.589  87.157  83.374  1.00  0.00     0.000 C 
ENDROOT
BRANCH   1   2
ATOM      2  C   UNL     1      97.404  86.726  82.501  1.00  0.00     0.000 C 
BRANCH   2   3
ATOM      3  C   UNL     1      97.688  86.990  81.017  1.00  0.00     0.000 C 
BRANCH   3   4
ATOM      4  C   UNL     1      96.919  86.004  80.127  1.00  0.00     0.000 C 
BRANCH   4   5
ATOM      5  C   UNL     1      95.599  85.537  80.762  1.00  0.00     0.006 C 
BRANCH   5   6
ATOM      6  C   UNL     1      94.948  84.382  79.989  1.00  0.00     0.053 C 
BRANCH   6   7
ATOM      7  C   UNL     1      93.459  84.528  79.990  1.00  0.00     0.041 C 
ATOM      8  O   UNL     1      92.813  84.428  78.915  1.00  0.00    -0.550 OA
ATOM      9  O   UNL     1      92.781  84.725  81.186  1.00  0.00    -0.550 OA
ENDBRANCH   6   7
ENDBRANCH   5   6
ENDBRANCH   4   5
ENDBRANCH   3   4
ENDBRANCH   2   3
ENDBRANCH   1   2
BRANCH   1  10
ATOM     10  C   UNL     1      99.834  87.430  82.515  1.00  0.00     0.000 C 
BRANCH  10  11
ATOM     11  C   UNL     1     101.062  87.809  83.357  1.00  0.00    -0.000 C 
BRANCH  11  12
ATOM     12  C   UNL     1     102.222  86.814  83.195  1.00  0.00    -0.000 C 
BRANCH  12  13
ATOM     13  C   UNL     1     101.910  85.489  83.907  1.00  0.00    -0.000 C 
BRANCH  13  14
ATOM     14  C   UNL     1     101.611  84.344  82.926  1.00  0.00    -0.000 C 
BRANCH  14  15
ATOM     15  C   UNL     1     100.219  83.730  83.140  1.00  0.00    -0.000 C 
BRANCH  15  16
ATOM     16  C   UNL     1      99.433  83.683  81.825  1.00  0.00    -0.003 C 
ATOM     17  C   UNL     1      98.058  83.053  82.025  1.00  0.00     0.004 C 
ENDBRANCH  15  16
ENDBRANCH  14  15
ENDBRANCH  13  14
ENDBRANCH  12  13
ENDBRANCH  11  12
ENDBRANCH  10  11
ENDBRANCH   1  10
TORSDOF 13
ENDMDL
MODEL 8
REMARK VINA RESULT:    -4.555      1.102      1.446
REMARK INTER + INTRA:          -8.878
REMARK INTER:                  -7.696
REMARK INTRA:                  -1.181
REMARK UNBOUND:                -0.862
REMARK SMILES CCCCCCCCCCCCCCC(=O)[O-]
REMARK SMILES IDX 9 1 10 2 11 3 12 4 13 5 14 6 15 7 16 8 17 9 8 10 7 11 6 12
REMARK SMILES IDX 5 13 4 14 3 15 2 16 1 17
REMARK H PARENT
REMARK Flexibility Score: inf
ROOT
ATOM      1  C   UNL     1      95.979  86.122  81.663  1.00  0.00     0.000 C 
ENDROOT
BRANCH   1   2
ATOM      2  C   UNL     1      97.289  86.029  82.457  1.00  0.00     0.000 C 
BRANCH   2   3
ATOM      3  C   UNL     1      97.476  84.627  83.049  1.00  0.00     0.000 C 
BRANCH   3   4
ATOM      4  C   UNL     1      97.962  83.639  81.978  1.00  0.00     0.000 C 
BRANCH   4   5
ATOM      5  C   UNL     1      99.489  83.661  81.801  1.00  0.00     0.006 C 
BRANCH   5   6
ATOM      6  C   UNL     1     100.235  83.817  83.133  1.00  0.00     0.053 C 
BRANCH   6   7
ATOM      7  C   UNL     1     101.193  84.963  83.062  1.00  0.00     0.041 C 
ATOM      8  O   UNL     1     100.785  86.141  83.234  1.00  0.00    -0.550 OA
ATOM      9  O   UNL     1     102.546  84.726  82.856  1.00  0.00    -0.550 OA
ENDBRANCH   6   7
ENDBRANCH   5   6
ENDBRANCH   4   5
ENDBRANCH   3   4
ENDBRANCH   2   3
ENDBRANCH   1   2
BRANCH   1  10
ATOM     10  C   UNL     1      96.255  86.415  80.180  1.00  0.00     0.000 C 
BRANCH  10  11
ATOM     11  C   UNL     1      95.387  85.568  79.238  1.00  0.00    -0.000 C 
BRANCH  11  12
ATOM     12  C   UNL     1      95.037  84.194  79.829  1.00  0.00    -0.000 C 
BRANCH  12  13
ATOM     13  C   UNL     1      93.699  83.683  79.271  1.00  0.00    -0.000 C 
BRANCH  13  14
ATOM     14  C   UNL     1      92.530  83.892  80.247  1.00  0.00    -0.000 C 
BRANCH  14  15
ATOM     15  C   UNL     1      91.452  84.831  79.687  1.00  0.00    -0.000 C 
BRANCH  15  16
ATOM     16  C   UNL     1      90.502  85.298  80.796  1.00  0.00    -0.003 C 
ATOM     17  C   UNL     1      90.794  84.581  82.111  1.00  0.00     0.004 C 
ENDBRANCH  15  16
ENDBRANCH  14  15
ENDBRANCH  13  14
ENDBRANCH  12  13
ENDBRANCH  11  12
ENDBRANCH  10  11
ENDBRANCH   1  10
TORSDOF 13
ENDMDL
MODEL 9
REMARK VINA RESULT:    -4.519      3.884      8.432
REMARK INTER + INTRA:          -8.816
REMARK INTER:                  -7.626
REMARK INTRA:                  -1.190
REMARK UNBOUND:                -0.862
REMARK SMILES CCCCCCCCCCCCCCC(=O)[O-]
REMARK SMILES IDX 9 1 10 2 11 3 12 4 13 5 14 6 15 7 16 8 17 9 8 10 7 11 6 12
REMARK SMILES IDX 5 13 4 14 3 15 2 16 1 17
REMARK H PARENT
REMARK Flexibility Score: inf
ROOT
ATOM      1  C   UNL     1      95.553  86.375  81.361  1.00  0.00     0.000 C 
ENDROOT
BRANCH   1   2
ATOM      2  C   UNL     1      94.283  85.664  80.879  1.00  0.00     0.000 C 
BRANCH   2   3
ATOM      3  C   UNL     1      94.628  84.426  80.042  1.00  0.00     0.000 C 
BRANCH   3   4
ATOM      4  C   UNL     1      93.396  83.917  79.280  1.00  0.00     0.000 C 
BRANCH   4   5
ATOM      5  C   UNL     1      92.426  85.047  78.899  1.00  0.00     0.006 C 
BRANCH   5   6
ATOM      6  C   UNL     1      90.966  84.708  79.229  1.00  0.00     0.053 C 
BRANCH   6   7
ATOM      7  C   UNL     1      90.758  84.684  80.709  1.00  0.00     0.041 C 
ATOM      8  O   UNL     1      90.526  83.596  81.299  1.00  0.00    -0.550 OA
ATOM      9  O   UNL     1      90.869  85.856  81.446  1.00  0.00    -0.550 OA
ENDBRANCH   6   7
ENDBRANCH   5   6
ENDBRANCH   4   5
ENDBRANCH   3   4
ENDBRANCH   2   3
ENDBRANCH   1   2
BRANCH   1  10
ATOM     10  C   UNL     1      96.627  86.386  80.262  1.00  0.00     0.000 C 
BRANCH  10  11
ATOM     11  C   UNL     1      97.914  85.661  80.685  1.00  0.00    -0.000 C 
BRANCH  11  12
ATOM     12  C   UNL     1      97.736  84.835  81.967  1.00  0.00    -0.000 C 
BRANCH  12  13
ATOM     13  C   UNL     1      98.499  83.504  81.872  1.00  0.00    -0.000 C 
BRANCH  13  14
ATOM     14  C   UNL     1     100.024  83.695  81.855  1.00  0.00    -0.000 C 
BRANCH  14  15
ATOM     15  C   UNL     1     100.596  84.014  83.244  1.00  0.00    -0.000 C 
BRANCH  15  16
ATOM     16  C   UNL     1     101.322  85.364  83.240  1.00  0.00    -0.003 C 
ATOM     17  C   UNL     1     100.550  86.409  84.041  1.00  0.00     0.004 C 
ENDBRANCH  15  16
ENDBRANCH  14  15
ENDBRANCH  13  14
ENDBRANCH  12  13
ENDBRANCH  11  12
ENDBRANCH  10  11
ENDBRANCH   1  10
TORSDOF 13
ENDMDL
