MODEL 1
REMARK VINA RESULT:    10.435      0.000      0.000
REMARK INTER + INTRA:          13.769
REMARK INTER:                  14.095
REMARK INTRA:                  -0.327
REMARK UNBOUND:                -0.327
REMARK SMILES CC[C@@H](CC[C@H](C)[C@H]1CC[C@@H]2[C@H]3CC(=O)C4=CC(=O)CC[C@@]4(C)[C@H]3CC[C@@]21C)C(C)C
REMARK SMILES IDX 4 1 3 2 2 3 1 4 29 5 30 6 31 7 5 8 6 9 7 10 8 11 9 12 27 13
REMARK SMILES IDX 10 14 11 15 26 16 28 17 12 18 25 19 24 20 13 21 22 22 14 23
REMARK SMILES IDX 16 24 21 25 23 26 15 27 17 28 20 29 18 30 19 31
REMARK H PARENT
REMARK Flexibility Score: inf
ROOT
ATOM      1  C   UNL     1     -11.384   4.941 -21.182  1.00  0.00     0.004 C 
ENDROOT
BRANCH   1   2
ATOM      2  C   UNL     1     -12.782   5.633 -21.190  1.00  0.00    -0.009 C 
BRANCH   2   3
ATOM      3  C   UNL     1     -13.283   5.927 -22.634  1.00  0.00     0.000 C 
ATOM      4  C   UNL     1     -14.794   5.774 -22.822  1.00  0.00     0.004 C 
ENDBRANCH   2   3
BRANCH   2   5
ATOM      5  C   UNL     1     -12.782   6.902 -20.263  1.00  0.00    -0.014 C 
ATOM      6  C   UNL     1     -13.952   7.862 -20.560  1.00  0.00     0.007 C 
ATOM      7  C   UNL     1     -12.839   6.515 -18.771  1.00  0.00     0.007 C 
ENDBRANCH   2   5
ENDBRANCH   1   2
BRANCH   1   8
ATOM      8  C   UNL     1     -10.148   5.862 -21.285  1.00  0.00     0.004 C 
BRANCH   8   9
ATOM      9  C   UNL     1      -8.926   5.428 -20.419  1.00  0.00    -0.011 C 
ATOM     10  C   UNL     1      -7.599   5.744 -21.125  1.00  0.00     0.008 C 
BRANCH   9  11
ATOM     11  C   UNL     1      -8.956   3.968 -19.820  1.00  0.00    -0.002 C 
ATOM     12  C   UNL     1      -7.561   3.386 -19.614  1.00  0.00     0.005 C 
ATOM     13  C   UNL     1      -9.741   3.590 -18.517  1.00  0.00    -0.026 C 
ATOM     14  C   UNL     1      -7.776   2.086 -18.865  1.00  0.00     0.005 C 
ATOM     15  C   UNL     1      -9.085   2.235 -18.058  1.00  0.00    -0.001 C 
ATOM     16  C   UNL     1     -11.274   3.446 -18.746  1.00  0.00     0.007 C 
ATOM     17  C   UNL     1      -9.541   4.633 -17.394  1.00  0.00     0.012 C 
ATOM     18  C   UNL     1      -9.971   0.959 -18.221  1.00  0.00     0.004 C 
ATOM     19  C   UNL     1     -11.722   2.237 -19.585  1.00  0.00     0.005 C 
ATOM     20  C   UNL     1     -10.787   0.993 -19.540  1.00  0.00     0.003 C 
ATOM     21  C   UNL     1     -10.860   0.677 -16.989  1.00  0.00     0.085 C 
ATOM     22  C   UNL     1     -11.541  -0.370 -19.800  1.00  0.00    -0.000 C 
ATOM     23  C   UNL     1     -11.824  -0.454 -17.218  1.00  0.00     0.159 C 
ATOM     24  C   UNL     1     -12.366  -0.749 -18.571  1.00  0.00     0.005 C 
ATOM     25  C   UNL     1     -12.448  -0.255 -21.072  1.00  0.00     0.020 C 
ATOM     26  C   UNL     1     -10.507  -1.507 -20.047  1.00  0.00     0.017 C 
ATOM     27  O   UNL     1     -12.208  -1.123 -16.221  1.00  0.00    -0.295 OA
ATOM     28  C   UNL     1     -13.502  -1.464 -18.693  1.00  0.00     0.055 C 
ATOM     29  C   UNL     1     -13.362  -1.469 -21.278  1.00  0.00     0.081 C 
ATOM     30  C   UNL     1     -14.060  -1.835 -20.003  1.00  0.00     0.156 C 
ATOM     31  O   UNL     1     -15.125  -2.505 -20.052  1.00  0.00    -0.295 OA
ENDBRANCH   9  11
ENDBRANCH   8   9
ENDBRANCH   1   8
TORSDOF 6
ENDMDL
MODEL 2
REMARK VINA RESULT:    10.978      1.273      2.148
REMARK INTER + INTRA:          14.502
REMARK INTER:                  14.907
REMARK INTRA:                  -0.405
REMARK UNBOUND:                -0.327
REMARK SMILES CC[C@@H](CC[C@H](C)[C@H]1CC[C@@H]2[C@H]3CC(=O)C4=CC(=O)CC[C@@]4(C)[C@H]3CC[C@@]21C)C(C)C
REMARK SMILES IDX 4 1 3 2 2 3 1 4 29 5 30 6 31 7 5 8 6 9 7 10 8 11 9 12 27 13
REMARK SMILES IDX 10 14 11 15 26 16 28 17 12 18 25 19 24 20 13 21 22 22 14 23
REMARK SMILES IDX 16 24 21 25 23 26 15 27 17 28 20 29 18 30 19 31
REMARK H PARENT
REMARK Flexibility Score: inf
ROOT
ATOM      1  C   UNL     1     -11.212   5.097 -21.076  1.00  0.00     0.004 C 
ENDROOT
BRANCH   1   2
ATOM      2  C   UNL     1     -12.695   5.560 -21.224  1.00  0.00    -0.009 C 
BRANCH   2   3
ATOM      3  C   UNL     1     -13.157   5.581 -22.710  1.00  0.00     0.000 C 
ATOM      4  C   UNL     1     -14.315   4.631 -23.025  1.00  0.00     0.004 C 
ENDBRANCH   2   3
BRANCH   2   5
ATOM      5  C   UNL     1     -12.931   6.924 -20.480  1.00  0.00    -0.014 C 
ATOM      6  C   UNL     1     -14.243   7.616 -20.900  1.00  0.00     0.007 C 
ATOM      7  C   UNL     1     -12.947   6.741 -18.949  1.00  0.00     0.007 C 
ENDBRANCH   2   5
ENDBRANCH   1   2
BRANCH   1   8
ATOM      8  C   UNL     1     -10.568   5.254 -19.680  1.00  0.00     0.004 C 
BRANCH   8   9
ATOM      9  C   UNL     1      -9.479   4.194 -19.332  1.00  0.00    -0.011 C 
ATOM     10  C   UNL     1      -8.340   4.202 -20.363  1.00  0.00     0.008 C 
BRANCH   9  11
ATOM     11  C   UNL     1      -9.980   2.735 -19.001  1.00  0.00    -0.002 C 
ATOM     12  C   UNL     1      -9.062   2.001 -18.028  1.00  0.00     0.005 C 
ATOM     13  C   UNL     1     -11.430   2.419 -18.495  1.00  0.00    -0.026 C 
ATOM     14  C   UNL     1      -9.790   0.718 -17.680  1.00  0.00     0.005 C 
ATOM     15  C   UNL     1     -11.302   0.993 -17.842  1.00  0.00    -0.001 C 
ATOM     16  C   UNL     1     -12.494   2.446 -19.630  1.00  0.00     0.007 C 
ATOM     17  C   UNL     1     -11.895   3.413 -17.406  1.00  0.00     0.012 C 
ATOM     18  C   UNL     1     -11.985  -0.177 -18.621  1.00  0.00     0.004 C 
ATOM     19  C   UNL     1     -12.411   1.308 -20.662  1.00  0.00     0.005 C 
ATOM     20  C   UNL     1     -11.801  -0.030 -20.153  1.00  0.00     0.003 C 
ATOM     21  C   UNL     1     -13.464  -0.384 -18.225  1.00  0.00     0.085 C 
ATOM     22  C   UNL     1     -12.327  -1.298 -20.933  1.00  0.00    -0.000 C 
ATOM     23  C   UNL     1     -14.157  -1.401 -19.091  1.00  0.00     0.159 C 
ATOM     24  C   UNL     1     -13.762  -1.609 -20.510  1.00  0.00     0.005 C 
ATOM     25  C   UNL     1     -12.236  -1.062 -22.479  1.00  0.00     0.020 C 
ATOM     26  C   UNL     1     -11.450  -2.535 -20.583  1.00  0.00     0.017 C 
ATOM     27  O   UNL     1     -15.125  -2.043 -18.602  1.00  0.00    -0.295 OA
ATOM     28  C   UNL     1     -14.624  -2.194 -21.363  1.00  0.00     0.055 C 
ATOM     29  C   UNL     1     -12.910  -2.165 -23.304  1.00  0.00     0.081 C 
ATOM     30  C   UNL     1     -14.273  -2.478 -22.764  1.00  0.00     0.156 C 
ATOM     31  O   UNL     1     -15.123  -3.028 -23.513  1.00  0.00    -0.295 OA
ENDBRANCH   9  11
ENDBRANCH   8   9
ENDBRANCH   1   8
TORSDOF 6
ENDMDL
MODEL 3
REMARK VINA RESULT:    11.346      3.024      7.794
REMARK INTER + INTRA:          14.999
REMARK INTER:                  15.451
REMARK INTRA:                  -0.452
REMARK UNBOUND:                -0.327
REMARK SMILES CC[C@@H](CC[C@H](C)[C@H]1CC[C@@H]2[C@H]3CC(=O)C4=CC(=O)CC[C@@]4(C)[C@H]3CC[C@@]21C)C(C)C
REMARK SMILES IDX 4 1 3 2 2 3 1 4 29 5 30 6 31 7 5 8 6 9 7 10 8 11 9 12 27 13
REMARK SMILES IDX 10 14 11 15 26 16 28 17 12 18 25 19 24 20 13 21 22 22 14 23
REMARK SMILES IDX 16 24 21 25 23 26 15 27 17 28 20 29 18 30 19 31
REMARK H PARENT
REMARK Flexibility Score: inf
ROOT
ATOM      1  C   UNL     1     -13.168  -3.526 -21.561  1.00  0.00     0.004 C 
ENDROOT
BRANCH   1   2
ATOM      2  C   UNL     1     -14.239  -4.220 -22.459  1.00  0.00    -0.009 C 
BRANCH   2   3
ATOM      3  C   UNL     1     -15.072  -3.192 -23.279  1.00  0.00     0.000 C 
ATOM      4  C   UNL     1     -15.125  -3.476 -24.782  1.00  0.00     0.004 C 
ENDBRANCH   2   3
BRANCH   2   5
ATOM      5  C   UNL     1     -15.125  -5.204 -21.613  1.00  0.00    -0.014 C 
ATOM      6  C   UNL     1     -14.722  -6.681 -21.795  1.00  0.00     0.007 C 
ATOM      7  C   UNL     1     -15.067  -4.867 -20.108  1.00  0.00     0.007 C 
ENDBRANCH   2   5
ENDBRANCH   1   2
BRANCH   1   8
ATOM      8  C   UNL     1     -13.397  -2.034 -21.228  1.00  0.00     0.004 C 
BRANCH   8   9
ATOM      9  C   UNL     1     -13.618  -1.721 -19.716  1.00  0.00    -0.011 C 
ATOM     10  C   UNL     1     -15.087  -1.378 -19.425  1.00  0.00     0.008 C 
BRANCH   9  11
ATOM     11  C   UNL     1     -12.618  -0.704 -19.042  1.00  0.00    -0.002 C 
ATOM     12  C   UNL     1     -12.003  -1.246 -17.755  1.00  0.00     0.005 C 
ATOM     13  C   UNL     1     -11.419  -0.043 -19.807  1.00  0.00    -0.026 C 
ATOM     14  C   UNL     1     -10.942  -0.237 -17.362  1.00  0.00     0.005 C 
ATOM     15  C   UNL     1     -10.462   0.449 -18.660  1.00  0.00    -0.001 C 
ATOM     16  C   UNL     1     -11.857   1.123 -20.740  1.00  0.00     0.007 C 
ATOM     17  C   UNL     1     -10.651  -1.064 -20.678  1.00  0.00     0.012 C 
ATOM     18  C   UNL     1     -10.380   1.996 -18.458  1.00  0.00     0.004 C 
ATOM     19  C   UNL     1     -12.351   2.400 -20.040  1.00  0.00     0.005 C 
ATOM     20  C   UNL     1     -11.766   2.670 -18.622  1.00  0.00     0.003 C 
ATOM     21  C   UNL     1      -9.295   2.664 -19.332  1.00  0.00     0.085 C 
ATOM     22  C   UNL     1     -11.725   4.202 -18.240  1.00  0.00    -0.000 C 
ATOM     23  C   UNL     1      -9.333   4.166 -19.252  1.00  0.00     0.159 C 
ATOM     24  C   UNL     1     -10.603   4.898 -19.009  1.00  0.00     0.005 C 
ATOM     25  C   UNL     1     -13.110   4.872 -18.535  1.00  0.00     0.020 C 
ATOM     26  C   UNL     1     -11.429   4.358 -16.720  1.00  0.00     0.017 C 
ATOM     27  O   UNL     1      -8.262   4.802 -19.449  1.00  0.00    -0.295 OA
ATOM     28  C   UNL     1     -10.698   6.199 -19.342  1.00  0.00     0.055 C 
ATOM     29  C   UNL     1     -13.092   6.398 -18.377  1.00  0.00     0.081 C 
ATOM     30  C   UNL     1     -11.909   6.994 -19.077  1.00  0.00     0.156 C 
ATOM     31  O   UNL     1     -11.935   8.207 -19.413  1.00  0.00    -0.295 OA
ENDBRANCH   9  11
ENDBRANCH   8   9
ENDBRANCH   1   8
TORSDOF 6
ENDMDL
MODEL 4
REMARK VINA RESULT:    11.358      2.959      5.731
REMARK INTER + INTRA:          15.016
REMARK INTER:                  14.524
REMARK INTRA:                   0.492
REMARK UNBOUND:                -0.327
REMARK SMILES CC[C@@H](CC[C@H](C)[C@H]1CC[C@@H]2[C@H]3CC(=O)C4=CC(=O)CC[C@@]4(C)[C@H]3CC[C@@]21C)C(C)C
REMARK SMILES IDX 4 1 3 2 2 3 1 4 29 5 30 6 31 7 5 8 6 9 7 10 8 11 9 12 27 13
REMARK SMILES IDX 10 14 11 15 26 16 28 17 12 18 25 19 24 20 13 21 22 22 14 23
REMARK SMILES IDX 16 24 21 25 23 26 15 27 17 28 20 29 18 30 19 31
REMARK H PARENT
REMARK Flexibility Score: inf
ROOT
ATOM      1  C   UNL     1     -11.838  10.832 -20.390  1.00  0.00     0.004 C 
ENDROOT
BRANCH   1   2
ATOM      2  C   UNL     1     -11.546  11.258 -18.917  1.00  0.00    -0.009 C 
BRANCH   2   3
ATOM      3  C   UNL     1     -12.777  11.938 -18.249  1.00  0.00     0.000 C 
ATOM      4  C   UNL     1     -13.978  12.125 -19.180  1.00  0.00     0.004 C 
ENDBRANCH   2   3
BRANCH   2   5
ATOM      5  C   UNL     1     -10.238  12.124 -18.835  1.00  0.00    -0.014 C 
ATOM      6  C   UNL     1      -9.377  11.796 -17.599  1.00  0.00     0.007 C 
ATOM      7  C   UNL     1      -9.364  11.951 -20.095  1.00  0.00     0.007 C 
ENDBRANCH   2   5
ENDBRANCH   1   2
BRANCH   1   8
ATOM      8  C   UNL     1     -12.982   9.816 -20.608  1.00  0.00     0.004 C 
BRANCH   8   9
ATOM      9  C   UNL     1     -12.533   8.415 -21.125  1.00  0.00    -0.011 C 
ATOM     10  C   UNL     1     -13.315   8.005 -22.381  1.00  0.00     0.008 C 
BRANCH   9  11
ATOM     11  C   UNL     1     -12.451   7.253 -20.061  1.00  0.00    -0.002 C 
ATOM     12  C   UNL     1     -13.170   7.593 -18.759  1.00  0.00     0.005 C 
ATOM     13  C   UNL     1     -12.867   5.773 -20.371  1.00  0.00    -0.026 C 
ATOM     14  C   UNL     1     -13.157   6.313 -17.948  1.00  0.00     0.005 C 
ATOM     15  C   UNL     1     -13.095   5.138 -18.949  1.00  0.00    -0.001 C 
ATOM     16  C   UNL     1     -11.797   4.996 -21.191  1.00  0.00     0.007 C 
ATOM     17  C   UNL     1     -14.195   5.696 -21.158  1.00  0.00     0.012 C 
ATOM     18  C   UNL     1     -12.031   4.090 -18.492  1.00  0.00     0.004 C 
ATOM     19  C   UNL     1     -10.488   4.665 -20.453  1.00  0.00     0.005 C 
ATOM     20  C   UNL     1     -10.598   4.511 -18.907  1.00  0.00     0.003 C 
ATOM     21  C   UNL     1     -12.371   2.649 -18.935  1.00  0.00     0.085 C 
ATOM     22  C   UNL     1      -9.502   3.554 -18.292  1.00  0.00    -0.000 C 
ATOM     23  C   UNL     1     -11.264   1.676 -18.632  1.00  0.00     0.159 C 
ATOM     24  C   UNL     1      -9.840   2.101 -18.620  1.00  0.00     0.005 C 
ATOM     25  C   UNL     1      -8.082   3.937 -18.831  1.00  0.00     0.020 C 
ATOM     26  C   UNL     1      -9.484   3.700 -16.743  1.00  0.00     0.017 C 
ATOM     27  O   UNL     1     -11.568   0.467 -18.440  1.00  0.00    -0.295 OA
ATOM     28  C   UNL     1      -8.868   1.178 -18.758  1.00  0.00     0.055 C 
ATOM     29  C   UNL     1      -6.991   2.933 -18.436  1.00  0.00     0.081 C 
ATOM     30  C   UNL     1      -7.439   1.527 -18.699  1.00  0.00     0.156 C 
ATOM     31  O   UNL     1      -6.577   0.619 -18.835  1.00  0.00    -0.295 OA
ENDBRANCH   9  11
ENDBRANCH   8   9
ENDBRANCH   1   8
TORSDOF 6
ENDMDL
MODEL 5
REMARK VINA RESULT:    11.592      1.286      2.212
REMARK INTER + INTRA:          15.331
REMARK INTER:                  16.680
REMARK INTRA:                  -1.349
REMARK UNBOUND:                -0.327
REMARK SMILES CC[C@@H](CC[C@H](C)[C@H]1CC[C@@H]2[C@H]3CC(=O)C4=CC(=O)CC[C@@]4(C)[C@H]3CC[C@@]21C)C(C)C
REMARK SMILES IDX 4 1 3 2 2 3 1 4 29 5 30 6 31 7 5 8 6 9 7 10 8 11 9 12 27 13
REMARK SMILES IDX 10 14 11 15 26 16 28 17 12 18 25 19 24 20 13 21 22 22 14 23
REMARK SMILES IDX 16 24 21 25 23 26 15 27 17 28 20 29 18 30 19 31
REMARK H PARENT
REMARK Flexibility Score: inf
ROOT
ATOM      1  C   UNL     1     -12.740   7.056 -21.123  1.00  0.00     0.004 C 
ENDROOT
BRANCH   1   2
ATOM      2  C   UNL     1     -13.772   6.626 -22.211  1.00  0.00    -0.009 C 
BRANCH   2   3
ATOM      3  C   UNL     1     -15.125   7.382 -22.068  1.00  0.00     0.000 C 
ATOM      4  C   UNL     1     -15.073   8.600 -21.142  1.00  0.00     0.004 C 
ENDBRANCH   2   3
BRANCH   2   5
ATOM      5  C   UNL     1     -13.934   5.063 -22.240  1.00  0.00    -0.014 C 
ATOM      6  C   UNL     1     -14.877   4.578 -23.359  1.00  0.00     0.007 C 
ATOM      7  C   UNL     1     -12.574   4.355 -22.410  1.00  0.00     0.007 C 
ENDBRANCH   2   5
ENDBRANCH   1   2
BRANCH   1   8
ATOM      8  C   UNL     1     -12.990   6.550 -19.685  1.00  0.00     0.004 C 
BRANCH   8   9
ATOM      9  C   UNL     1     -11.703   6.222 -18.867  1.00  0.00    -0.011 C 
ATOM     10  C   UNL     1     -10.634   7.311 -19.044  1.00  0.00     0.008 C 
BRANCH   9  11
ATOM     11  C   UNL     1     -11.111   4.768 -19.018  1.00  0.00    -0.002 C 
ATOM     12  C   UNL     1      -9.715   4.760 -19.636  1.00  0.00     0.005 C 
ATOM     13  C   UNL     1     -11.026   3.746 -17.831  1.00  0.00    -0.026 C 
ATOM     14  C   UNL     1      -9.236   3.326 -19.524  1.00  0.00     0.005 C 
ATOM     15  C   UNL     1      -9.954   2.698 -18.308  1.00  0.00    -0.001 C 
ATOM     16  C   UNL     1     -12.391   3.075 -17.503  1.00  0.00     0.007 C 
ATOM     17  C   UNL     1     -10.515   4.408 -16.531  1.00  0.00     0.012 C 
ATOM     18  C   UNL     1     -10.501   1.282 -18.674  1.00  0.00     0.004 C 
ATOM     19  C   UNL     1     -12.928   2.087 -18.553  1.00  0.00     0.005 C 
ATOM     20  C   UNL     1     -11.856   1.367 -19.422  1.00  0.00     0.003 C 
ATOM     21  C   UNL     1     -10.559   0.324 -17.463  1.00  0.00     0.085 C 
ATOM     22  C   UNL     1     -12.324  -0.045 -19.955  1.00  0.00    -0.000 C 
ATOM     23  C   UNL     1     -11.236  -0.979 -17.789  1.00  0.00     0.159 C 
ATOM     24  C   UNL     1     -12.310  -1.060 -18.814  1.00  0.00     0.005 C 
ATOM     25  C   UNL     1     -13.750   0.062 -20.596  1.00  0.00     0.020 C 
ATOM     26  C   UNL     1     -11.340  -0.547 -21.051  1.00  0.00     0.017 C 
ATOM     27  O   UNL     1     -10.908  -2.004 -17.131  1.00  0.00    -0.295 OA
ATOM     28  C   UNL     1     -13.166  -2.100 -18.802  1.00  0.00     0.055 C 
ATOM     29  C   UNL     1     -14.356  -1.300 -20.958  1.00  0.00     0.081 C 
ATOM     30  C   UNL     1     -14.215  -2.267 -19.821  1.00  0.00     0.156 C 
ATOM     31  O   UNL     1     -14.984  -3.261 -19.757  1.00  0.00    -0.295 OA
ENDBRANCH   9  11
ENDBRANCH   8   9
ENDBRANCH   1   8
TORSDOF 6
ENDMDL
MODEL 6
REMARK VINA RESULT:    13.005      2.851      7.236
REMARK INTER + INTRA:          17.240
REMARK INTER:                  18.691
REMARK INTRA:                  -1.451
REMARK UNBOUND:                -0.327
REMARK SMILES CC[C@@H](CC[C@H](C)[C@H]1CC[C@@H]2[C@H]3CC(=O)C4=CC(=O)CC[C@@]4(C)[C@H]3CC[C@@]21C)C(C)C
REMARK SMILES IDX 4 1 3 2 2 3 1 4 29 5 30 6 31 7 5 8 6 9 7 10 8 11 9 12 27 13
REMARK SMILES IDX 10 14 11 15 26 16 28 17 12 18 25 19 24 20 13 21 22 22 14 23
REMARK SMILES IDX 16 24 21 25 23 26 15 27 17 28 20 29 18 30 19 31
REMARK H PARENT
REMARK Flexibility Score: inf
ROOT
ATOM      1  C   UNL     1     -14.245  -1.018 -19.962  1.00  0.00     0.004 C 
ENDROOT
BRANCH   1   2
ATOM      2  C   UNL     1     -14.706  -2.257 -20.792  1.00  0.00    -0.009 C 
BRANCH   2   3
ATOM      3  C   UNL     1     -15.125  -3.449 -19.883  1.00  0.00     0.000 C 
ATOM      4  C   UNL     1     -15.125  -4.809 -20.585  1.00  0.00     0.004 C 
ENDBRANCH   2   3
BRANCH   2   5
ATOM      5  C   UNL     1     -13.624  -2.643 -21.865  1.00  0.00    -0.014 C 
ATOM      6  C   UNL     1     -14.214  -2.804 -23.280  1.00  0.00     0.007 C 
ATOM      7  C   UNL     1     -12.489  -1.600 -21.927  1.00  0.00     0.007 C 
ENDBRANCH   2   5
ENDBRANCH   1   2
BRANCH   1   8
ATOM      8  C   UNL     1     -13.897  -1.264 -18.477  1.00  0.00     0.004 C 
BRANCH   8   9
ATOM      9  C   UNL     1     -12.395  -1.059 -18.108  1.00  0.00    -0.011 C 
ATOM     10  C   UNL     1     -12.008  -1.874 -16.865  1.00  0.00     0.008 C 
BRANCH   9  11
ATOM     11  C   UNL     1     -11.872   0.428 -18.039  1.00  0.00    -0.002 C 
ATOM     12  C   UNL     1     -11.704   0.929 -16.608  1.00  0.00     0.005 C 
ATOM     13  C   UNL     1     -10.586   0.922 -18.787  1.00  0.00    -0.026 C 
ATOM     14  C   UNL     1     -11.021   2.276 -16.733  1.00  0.00     0.005 C 
ATOM     15  C   UNL     1     -10.200   2.253 -18.042  1.00  0.00    -0.001 C 
ATOM     16  C   UNL     1     -10.813   1.152 -20.309  1.00  0.00     0.007 C 
ATOM     17  C   UNL     1      -9.412  -0.074 -18.644  1.00  0.00     0.012 C 
ATOM     18  C   UNL     1     -10.424   3.573 -18.846  1.00  0.00     0.004 C 
ATOM     19  C   UNL     1     -11.710   2.343 -20.687  1.00  0.00     0.005 C 
ATOM     20  C   UNL     1     -11.734   3.525 -19.674  1.00  0.00     0.003 C 
ATOM     21  C   UNL     1      -9.203   3.974 -19.703  1.00  0.00     0.085 C 
ATOM     22  C   UNL     1     -12.059   4.919 -20.341  1.00  0.00    -0.000 C 
ATOM     23  C   UNL     1      -9.484   5.152 -20.595  1.00  0.00     0.159 C 
ATOM     24  C   UNL     1     -10.847   5.412 -21.130  1.00  0.00     0.005 C 
ATOM     25  C   UNL     1     -13.319   4.799 -21.264  1.00  0.00     0.020 C 
ATOM     26  C   UNL     1     -12.370   5.973 -19.239  1.00  0.00     0.017 C 
ATOM     27  O   UNL     1      -8.520   5.894 -20.927  1.00  0.00    -0.295 OA
ATOM     28  C   UNL     1     -10.999   6.191 -22.218  1.00  0.00     0.055 C 
ATOM     29  C   UNL     1     -13.582   6.056 -22.101  1.00  0.00     0.081 C 
ATOM     30  C   UNL     1     -12.323   6.531 -22.763  1.00  0.00     0.156 C 
ATOM     31  O   UNL     1     -12.400   7.265 -23.783  1.00  0.00    -0.295 OA
ENDBRANCH   9  11
ENDBRANCH   8   9
ENDBRANCH   1   8
TORSDOF 6
ENDMDL
MODEL 7
REMARK VINA RESULT:    13.103      3.002      7.709
REMARK INTER + INTRA:          17.372
REMARK INTER:                  18.205
REMARK INTRA:                  -0.833
REMARK UNBOUND:                -0.327
REMARK SMILES CC[C@@H](CC[C@H](C)[C@H]1CC[C@@H]2[C@H]3CC(=O)C4=CC(=O)CC[C@@]4(C)[C@H]3CC[C@@]21C)C(C)C
REMARK SMILES IDX 4 1 3 2 2 3 1 4 29 5 30 6 31 7 5 8 6 9 7 10 8 11 9 12 27 13
REMARK SMILES IDX 10 14 11 15 26 16 28 17 12 18 25 19 24 20 13 21 22 22 14 23
REMARK SMILES IDX 16 24 21 25 23 26 15 27 17 28 20 29 18 30 19 31
REMARK H PARENT
REMARK Flexibility Score: inf
ROOT
ATOM      1  C   UNL     1     -13.547  -2.833 -21.817  1.00  0.00     0.004 C 
ENDROOT
BRANCH   1   2
ATOM      2  C   UNL     1     -14.921  -3.439 -22.242  1.00  0.00    -0.009 C 
BRANCH   2   3
ATOM      3  C   UNL     1     -15.125  -4.877 -21.682  1.00  0.00     0.000 C 
ATOM      4  C   UNL     1     -14.903  -5.005 -20.173  1.00  0.00     0.004 C 
ENDBRANCH   2   3
BRANCH   2   5
ATOM      5  C   UNL     1     -15.115  -3.346 -23.799  1.00  0.00    -0.014 C 
ATOM      6  C   UNL     1     -14.029  -2.494 -24.488  1.00  0.00     0.007 C 
ATOM      7  C   UNL     1     -15.125  -4.742 -24.454  1.00  0.00     0.007 C 
ENDBRANCH   2   5
ENDBRANCH   1   2
BRANCH   1   8
ATOM      8  C   UNL     1     -13.582  -1.482 -21.068  1.00  0.00     0.004 C 
BRANCH   8   9
ATOM      9  C   UNL     1     -13.384  -1.578 -19.524  1.00  0.00    -0.011 C 
ATOM     10  C   UNL     1     -14.725  -1.760 -18.798  1.00  0.00     0.008 C 
BRANCH   9  11
ATOM     11  C   UNL     1     -12.481  -0.474 -18.849  1.00  0.00    -0.002 C 
ATOM     12  C   UNL     1     -11.940  -0.905 -17.488  1.00  0.00     0.005 C 
ATOM     13  C   UNL     1     -11.259   0.195 -19.569  1.00  0.00    -0.026 C 
ATOM     14  C   UNL     1     -10.955   0.175 -17.088  1.00  0.00     0.005 C 
ATOM     15  C   UNL     1     -10.411   0.803 -18.391  1.00  0.00    -0.001 C 
ATOM     16  C   UNL     1     -11.677   1.279 -20.604  1.00  0.00     0.007 C 
ATOM     17  C   UNL     1     -10.386  -0.840 -20.315  1.00  0.00     0.012 C 
ATOM     18  C   UNL     1     -10.410   2.361 -18.285  1.00  0.00     0.004 C 
ATOM     19  C   UNL     1     -12.277   2.572 -20.025  1.00  0.00     0.005 C 
ATOM     20  C   UNL     1     -11.809   2.956 -18.590  1.00  0.00     0.003 C 
ATOM     21  C   UNL     1      -9.295   3.025 -19.122  1.00  0.00     0.085 C 
ATOM     22  C   UNL     1     -11.863   4.509 -18.307  1.00  0.00    -0.000 C 
ATOM     23  C   UNL     1      -9.403   4.525 -19.142  1.00  0.00     0.159 C 
ATOM     24  C   UNL     1     -10.719   5.209 -19.038  1.00  0.00     0.005 C 
ATOM     25  C   UNL     1     -13.249   5.093 -18.741  1.00  0.00     0.020 C 
ATOM     26  C   UNL     1     -11.686   4.773 -16.783  1.00  0.00     0.017 C 
ATOM     27  O   UNL     1      -8.349   5.198 -19.305  1.00  0.00    -0.295 OA
ATOM     28  C   UNL     1     -10.844   6.482 -19.461  1.00  0.00     0.055 C 
ATOM     29  C   UNL     1     -13.309   6.624 -18.682  1.00  0.00     0.081 C 
ATOM     30  C   UNL     1     -12.105   7.232 -19.335  1.00  0.00     0.156 C 
ATOM     31  O   UNL     1     -12.159   8.419 -19.750  1.00  0.00    -0.295 OA
ENDBRANCH   9  11
ENDBRANCH   8   9
ENDBRANCH   1   8
TORSDOF 6
ENDMDL
MODEL 8
REMARK VINA RESULT:    13.124      2.544      4.486
REMARK INTER + INTRA:          17.400
REMARK INTER:                  17.911
REMARK INTRA:                  -0.511
REMARK UNBOUND:                -0.327
REMARK SMILES CC[C@@H](CC[C@H](C)[C@H]1CC[C@@H]2[C@H]3CC(=O)C4=CC(=O)CC[C@@]4(C)[C@H]3CC[C@@]21C)C(C)C
REMARK SMILES IDX 4 1 3 2 2 3 1 4 29 5 30 6 31 7 5 8 6 9 7 10 8 11 9 12 27 13
REMARK SMILES IDX 10 14 11 15 26 16 28 17 12 18 25 19 24 20 13 21 22 22 14 23
REMARK SMILES IDX 16 24 21 25 23 26 15 27 17 28 20 29 18 30 19 31
REMARK H PARENT
REMARK Flexibility Score: inf
ROOT
ATOM      1  C   UNL     1     -12.360   9.535 -19.627  1.00  0.00     0.004 C 
ENDROOT
BRANCH   1   2
ATOM      2  C   UNL     1     -12.727  11.035 -19.403  1.00  0.00    -0.009 C 
BRANCH   2   3
ATOM      3  C   UNL     1     -13.768  11.544 -20.442  1.00  0.00     0.000 C 
ATOM      4  C   UNL     1     -15.125  11.924 -19.843  1.00  0.00     0.004 C 
ENDBRANCH   2   3
BRANCH   2   5
ATOM      5  C   UNL     1     -11.432  11.923 -19.335  1.00  0.00    -0.014 C 
ATOM      6  C   UNL     1     -10.394  11.392 -18.326  1.00  0.00     0.007 C 
ATOM      7  C   UNL     1     -10.752  12.041 -20.715  1.00  0.00     0.007 C 
ENDBRANCH   2   5
ENDBRANCH   1   2
BRANCH   1   8
ATOM      8  C   UNL     1     -13.483   8.612 -20.149  1.00  0.00     0.004 C 
BRANCH   8   9
ATOM      9  C   UNL     1     -13.595   7.234 -19.428  1.00  0.00    -0.011 C 
ATOM     10  C   UNL     1     -13.499   7.391 -17.903  1.00  0.00     0.008 C 
BRANCH   9  11
ATOM     11  C   UNL     1     -12.682   6.066 -19.970  1.00  0.00    -0.002 C 
ATOM     12  C   UNL     1     -12.466   6.138 -21.479  1.00  0.00     0.005 C 
ATOM     13  C   UNL     1     -11.266   5.738 -19.381  1.00  0.00    -0.026 C 
ATOM     14  C   UNL     1     -11.427   5.077 -21.785  1.00  0.00     0.005 C 
ATOM     15  C   UNL     1     -10.570   4.896 -20.513  1.00  0.00    -0.001 C 
ATOM     16  C   UNL     1     -11.329   4.962 -18.033  1.00  0.00     0.007 C 
ATOM     17  C   UNL     1     -10.428   7.014 -19.136  1.00  0.00     0.012 C 
ATOM     18  C   UNL     1     -10.367   3.378 -20.207  1.00  0.00     0.004 C 
ATOM     19  C   UNL     1     -11.833   3.510 -18.112  1.00  0.00     0.005 C 
ATOM     20  C   UNL     1     -11.586   2.776 -19.463  1.00  0.00     0.003 C 
ATOM     21  C   UNL     1      -9.033   3.079 -19.486  1.00  0.00     0.085 C 
ATOM     22  C   UNL     1     -11.468   1.208 -19.313  1.00  0.00    -0.000 C 
ATOM     23  C   UNL     1      -8.921   1.643 -19.052  1.00  0.00     0.159 C 
ATOM     24  C   UNL     1     -10.122   0.846 -18.689  1.00  0.00     0.005 C 
ATOM     25  C   UNL     1     -12.654   0.654 -18.453  1.00  0.00     0.020 C 
ATOM     26  C   UNL     1     -11.537   0.537 -20.716  1.00  0.00     0.017 C 
ATOM     27  O   UNL     1      -7.770   1.138 -18.950  1.00  0.00    -0.295 OA
ATOM     28  C   UNL     1      -9.985  -0.259 -17.931  1.00  0.00     0.055 C 
ATOM     29  C   UNL     1     -12.505  -0.830 -18.096  1.00  0.00     0.081 C 
ATOM     30  C   UNL     1     -11.127  -1.120 -17.583  1.00  0.00     0.156 C 
ATOM     31  O   UNL     1     -10.934  -2.141 -16.871  1.00  0.00    -0.295 OA
ENDBRANCH   9  11
ENDBRANCH   8   9
ENDBRANCH   1   8
TORSDOF 6
ENDMDL
