MODEL 1
REMARK VINA RESULT:    -6.015      0.000      0.000
REMARK INTER + INTRA:          -8.199
REMARK INTER:                  -7.773
REMARK INTRA:                  -0.426
REMARK UNBOUND:                -0.426
REMARK SMILES CCO[C@H]1O[C@@H](CO)[C@@H](O)[C@H](O)[C@H]1O
REMARK SMILES IDX 4 1 13 2 11 3 9 4 6 5 5 6 3 7 2 8 1 9 14 10 12 12 7 14 8 15
REMARK SMILES IDX 10 17
REMARK H PARENT 14 11 12 13 8 16 10 18
REMARK Flexibility Score: inf
ROOT
ATOM      1  C   UNL     1      -3.829 -47.680 -13.045  1.00  0.00     0.281 C 
ATOM      2  C   UNL     1      -3.714 -46.780 -14.289  1.00  0.00     0.202 C 
ATOM      3  C   UNL     1      -3.903 -47.611 -15.567  1.00  0.00     0.179 C 
ATOM      4  C   UNL     1      -2.910 -48.787 -15.553  1.00  0.00     0.177 C 
ATOM      5  C   UNL     1      -3.015 -49.599 -14.237  1.00  0.00     0.178 C 
ATOM      6  O   UNL     1      -2.918 -48.777 -13.076  1.00  0.00    -0.341 OA
ENDROOT
BRANCH   1   7
ATOM      7  O   UNL     1      -5.166 -48.123 -12.880  1.00  0.00    -0.350 OA
BRANCH   7   8
ATOM      8  C   UNL     1      -5.617 -47.854 -11.570  1.00  0.00     0.160 C 
ATOM      9  C   UNL     1      -5.308 -49.048 -10.680  1.00  0.00     0.035 C 
ENDBRANCH   7   8
ENDBRANCH   1   7
BRANCH   2  10
ATOM     10  O   UNL     1      -4.684 -45.766 -14.222  1.00  0.00    -0.385 OA
ATOM     11  H   UNL     1      -5.240 -45.953 -13.421  1.00  0.00     0.211 HD
ENDBRANCH   2  10
BRANCH   3  12
ATOM     12  O   UNL     1      -3.724 -46.819 -16.717  1.00  0.00    -0.387 OA
ATOM     13  H   UNL     1      -2.777 -46.519 -16.735  1.00  0.00     0.211 HD
ENDBRANCH   3  12
BRANCH   5  14
ATOM     14  C   UNL     1      -4.212 -50.573 -14.179  1.00  0.00     0.191 C 
BRANCH  14  15
ATOM     15  O   UNL     1      -3.905 -51.776 -14.830  1.00  0.00    -0.394 OA
ATOM     16  H   UNL     1      -4.760 -52.267 -14.944  1.00  0.00     0.210 HD
ENDBRANCH  14  15
ENDBRANCH   5  14
BRANCH   4  17
ATOM     17  O   UNL     1      -3.054 -49.610 -16.686  1.00  0.00    -0.387 OA
ATOM     18  H   UNL     1      -3.614 -50.389 -16.433  1.00  0.00     0.211 HD
ENDBRANCH   4  17
TORSDOF 7
ENDMDL
MODEL 2
REMARK VINA RESULT:    -5.839      1.912      3.057
REMARK INTER + INTRA:          -7.972
REMARK INTER:                  -7.488
REMARK INTRA:                  -0.484
REMARK UNBOUND:                -0.426
REMARK SMILES CCO[C@H]1O[C@@H](CO)[C@@H](O)[C@H](O)[C@H]1O
REMARK SMILES IDX 4 1 13 2 11 3 9 4 6 5 5 6 3 7 2 8 1 9 14 10 12 12 7 14 8 15
REMARK SMILES IDX 10 17
REMARK H PARENT 14 11 12 13 8 16 10 18
REMARK Flexibility Score: inf
ROOT
ATOM      1  C   UNL     1      -6.035 -48.215 -14.786  1.00  0.00     0.281 C 
ATOM      2  C   UNL     1      -5.352 -47.462 -15.943  1.00  0.00     0.202 C 
ATOM      3  C   UNL     1      -3.838 -47.375 -15.701  1.00  0.00     0.179 C 
ATOM      4  C   UNL     1      -3.585 -46.753 -14.316  1.00  0.00     0.177 C 
ATOM      5  C   UNL     1      -4.370 -47.501 -13.209  1.00  0.00     0.178 C 
ATOM      6  O   UNL     1      -5.758 -47.633 -13.514  1.00  0.00    -0.341 OA
ENDROOT
BRANCH   1   7
ATOM      7  O   UNL     1      -5.680 -49.588 -14.815  1.00  0.00    -0.350 OA
BRANCH   7   8
ATOM      8  C   UNL     1      -6.792 -50.392 -14.483  1.00  0.00     0.160 C 
ATOM      9  C   UNL     1      -6.305 -51.773 -14.073  1.00  0.00     0.035 C 
ENDBRANCH   7   8
ENDBRANCH   1   7
BRANCH   2  10
ATOM     10  O   UNL     1      -5.613 -48.130 -17.151  1.00  0.00    -0.385 OA
ATOM     11  H   UNL     1      -6.356 -47.643 -17.594  1.00  0.00     0.211 HD
ENDBRANCH   2  10
BRANCH   3  12
ATOM     12  O   UNL     1      -3.207 -46.623 -16.710  1.00  0.00    -0.387 OA
ATOM     13  H   UNL     1      -2.594 -45.978 -16.270  1.00  0.00     0.211 HD
ENDBRANCH   3  12
BRANCH   5  14
ATOM     14  C   UNL     1      -3.731 -48.833 -12.759  1.00  0.00     0.191 C 
BRANCH  14  15
ATOM     15  O   UNL     1      -4.582 -49.520 -11.881  1.00  0.00    -0.394 OA
ATOM     16  H   UNL     1      -5.492 -49.148 -12.017  1.00  0.00     0.210 HD
ENDBRANCH  14  15
ENDBRANCH   5  14
BRANCH   4  17
ATOM     17  O   UNL     1      -2.211 -46.674 -14.018  1.00  0.00    -0.387 OA
ATOM     18  H   UNL     1      -1.997 -45.730 -13.799  1.00  0.00     0.211 HD
ENDBRANCH   4  17
TORSDOF 7
ENDMDL
MODEL 3
REMARK VINA RESULT:    -5.666      1.268      3.108
REMARK INTER + INTRA:          -7.749
REMARK INTER:                  -7.374
REMARK INTRA:                  -0.375
REMARK UNBOUND:                -0.426
REMARK SMILES CCO[C@H]1O[C@@H](CO)[C@@H](O)[C@H](O)[C@H]1O
REMARK SMILES IDX 4 1 13 2 11 3 9 4 6 5 5 6 3 7 2 8 1 9 14 10 12 12 7 14 8 15
REMARK SMILES IDX 10 17
REMARK H PARENT 14 11 12 13 8 16 10 18
REMARK Flexibility Score: inf
ROOT
ATOM      1  C   UNL     1      -5.205 -48.330 -13.633  1.00  0.00     0.281 C 
ATOM      2  C   UNL     1      -4.772 -49.273 -14.770  1.00  0.00     0.202 C 
ATOM      3  C   UNL     1      -3.620 -48.649 -15.571  1.00  0.00     0.179 C 
ATOM      4  C   UNL     1      -4.040 -47.248 -16.047  1.00  0.00     0.177 C 
ATOM      5  C   UNL     1      -4.549 -46.379 -14.869  1.00  0.00     0.178 C 
ATOM      6  O   UNL     1      -5.560 -47.031 -14.103  1.00  0.00    -0.341 OA
ENDROOT
BRANCH   1   7
ATOM      7  O   UNL     1      -4.196 -48.263 -12.639  1.00  0.00    -0.350 OA
BRANCH   7   8
ATOM      8  C   UNL     1      -4.774 -48.151 -11.355  1.00  0.00     0.160 C 
ATOM      9  C   UNL     1      -5.922 -49.140 -11.237  1.00  0.00     0.035 C 
ENDBRANCH   7   8
ENDBRANCH   1   7
BRANCH   2  10
ATOM     10  O   UNL     1      -4.375 -50.506 -14.227  1.00  0.00    -0.385 OA
ATOM     11  H   UNL     1      -4.953 -50.672 -13.437  1.00  0.00     0.211 HD
ENDBRANCH   2  10
BRANCH   3  12
ATOM     12  O   UNL     1      -3.263 -49.463 -16.662  1.00  0.00    -0.387 OA
ATOM     13  H   UNL     1      -3.774 -50.311 -16.590  1.00  0.00     0.211 HD
ENDBRANCH   3  12
BRANCH   5  14
ATOM     14  C   UNL     1      -3.431 -45.775 -13.990  1.00  0.00     0.191 C 
BRANCH  14  15
ATOM     15  O   UNL     1      -2.258 -46.537 -14.087  1.00  0.00    -0.394 OA
ATOM     16  H   UNL     1      -1.850 -46.322 -14.966  1.00  0.00     0.210 HD
ENDBRANCH  14  15
ENDBRANCH   5  14
BRANCH   4  17
ATOM     17  O   UNL     1      -3.012 -46.606 -16.763  1.00  0.00    -0.387 OA
ATOM     18  H   UNL     1      -2.416 -46.155 -16.109  1.00  0.00     0.211 HD
ENDBRANCH   4  17
TORSDOF 7
ENDMDL
MODEL 4
REMARK VINA RESULT:    -5.608      1.934      3.589
REMARK INTER + INTRA:          -7.674
REMARK INTER:                  -7.250
REMARK INTRA:                  -0.424
REMARK UNBOUND:                -0.426
REMARK SMILES CCO[C@H]1O[C@@H](CO)[C@@H](O)[C@H](O)[C@H]1O
REMARK SMILES IDX 4 1 13 2 11 3 9 4 6 5 5 6 3 7 2 8 1 9 14 10 12 12 7 14 8 15
REMARK SMILES IDX 10 17
REMARK H PARENT 14 11 12 13 8 16 10 18
REMARK Flexibility Score: inf
ROOT
ATOM      1  C   UNL     1      -4.215 -49.251 -14.861  1.00  0.00     0.281 C 
ATOM      2  C   UNL     1      -2.986 -48.380 -14.547  1.00  0.00     0.202 C 
ATOM      3  C   UNL     1      -3.425 -47.030 -13.961  1.00  0.00     0.179 C 
ATOM      4  C   UNL     1      -4.429 -46.369 -14.922  1.00  0.00     0.177 C 
ATOM      5  C   UNL     1      -5.595 -47.329 -15.270  1.00  0.00     0.178 C 
ATOM      6  O   UNL     1      -5.141 -48.600 -15.730  1.00  0.00    -0.341 OA
ENDROOT
BRANCH   1   7
ATOM      7  O   UNL     1      -4.841 -49.672 -13.661  1.00  0.00    -0.350 OA
BRANCH   7   8
ATOM      8  C   UNL     1      -4.911 -51.081 -13.607  1.00  0.00     0.160 C 
ATOM      9  C   UNL     1      -6.313 -51.526 -13.994  1.00  0.00     0.035 C 
ENDBRANCH   7   8
ENDBRANCH   1   7
BRANCH   2  10
ATOM     10  O   UNL     1      -2.156 -49.057 -13.637  1.00  0.00    -0.385 OA
ATOM     11  H   UNL     1      -2.747 -49.427 -12.930  1.00  0.00     0.211 HD
ENDBRANCH   2  10
BRANCH   3  12
ATOM     12  O   UNL     1      -2.318 -46.190 -13.740  1.00  0.00    -0.387 OA
ATOM     13  H   UNL     1      -2.505 -45.318 -14.176  1.00  0.00     0.211 HD
ENDBRANCH   3  12
BRANCH   5  14
ATOM     14  C   UNL     1      -6.677 -47.444 -14.173  1.00  0.00     0.191 C 
BRANCH  14  15
ATOM     15  O   UNL     1      -7.621 -48.424 -14.511  1.00  0.00    -0.394 OA
ATOM     16  H   UNL     1      -7.715 -49.016 -13.720  1.00  0.00     0.210 HD
ENDBRANCH  14  15
ENDBRANCH   5  14
BRANCH   4  17
ATOM     17  O   UNL     1      -4.898 -45.137 -14.427  1.00  0.00    -0.387 OA
ATOM     18  H   UNL     1      -4.527 -45.009 -13.515  1.00  0.00     0.211 HD
ENDBRANCH   4  17
TORSDOF 7
ENDMDL
MODEL 5
REMARK VINA RESULT:    -5.557      1.954      2.256
REMARK INTER + INTRA:          -7.607
REMARK INTER:                  -7.107
REMARK INTRA:                  -0.501
REMARK UNBOUND:                -0.426
REMARK SMILES CCO[C@H]1O[C@@H](CO)[C@@H](O)[C@H](O)[C@H]1O
REMARK SMILES IDX 4 1 13 2 11 3 9 4 6 5 5 6 3 7 2 8 1 9 14 10 12 12 7 14 8 15
REMARK SMILES IDX 10 17
REMARK H PARENT 14 11 12 13 8 16 10 18
REMARK Flexibility Score: inf
ROOT
ATOM      1  C   UNL     1      -5.488 -48.658 -14.200  1.00  0.00     0.281 C 
ATOM      2  C   UNL     1      -4.870 -47.671 -15.206  1.00  0.00     0.202 C 
ATOM      3  C   UNL     1      -3.589 -48.262 -15.814  1.00  0.00     0.179 C 
ATOM      4  C   UNL     1      -2.637 -48.672 -14.677  1.00  0.00     0.177 C 
ATOM      5  C   UNL     1      -3.346 -49.593 -13.650  1.00  0.00     0.178 C 
ATOM      6  O   UNL     1      -4.573 -49.042 -13.176  1.00  0.00    -0.341 OA
ENDROOT
BRANCH   1   7
ATOM      7  O   UNL     1      -6.011 -49.789 -14.877  1.00  0.00    -0.350 OA
BRANCH   7   8
ATOM      8  C   UNL     1      -7.119 -50.315 -14.177  1.00  0.00     0.160 C 
ATOM      9  C   UNL     1      -8.093 -49.190 -13.866  1.00  0.00     0.035 C 
ENDBRANCH   7   8
ENDBRANCH   1   7
BRANCH   2  10
ATOM     10  O   UNL     1      -5.803 -47.392 -16.219  1.00  0.00    -0.385 OA
ATOM     11  H   UNL     1      -6.057 -48.262 -16.624  1.00  0.00     0.211 HD
ENDBRANCH   2  10
BRANCH   3  12
ATOM     12  O   UNL     1      -2.968 -47.342 -16.678  1.00  0.00    -0.387 OA
ATOM     13  H   UNL     1      -2.065 -47.692 -16.899  1.00  0.00     0.211 HD
ENDBRANCH   3  12
BRANCH   5  14
ATOM     14  C   UNL     1      -3.488 -51.064 -14.100  1.00  0.00     0.191 C 
BRANCH  14  15
ATOM     15  O   UNL     1      -2.296 -51.767 -13.876  1.00  0.00    -0.394 OA
ATOM     16  H   UNL     1      -1.668 -51.505 -14.599  1.00  0.00     0.210 HD
ENDBRANCH  14  15
ENDBRANCH   5  14
BRANCH   4  17
ATOM     17  O   UNL     1      -1.452 -49.254 -15.167  1.00  0.00    -0.387 OA
ATOM     18  H   UNL     1      -0.683 -48.771 -14.767  1.00  0.00     0.211 HD
ENDBRANCH   4  17
TORSDOF 7
ENDMDL
MODEL 6
REMARK VINA RESULT:    -5.529      1.866      3.699
REMARK INTER + INTRA:          -7.572
REMARK INTER:                  -7.097
REMARK INTRA:                  -0.475
REMARK UNBOUND:                -0.426
REMARK SMILES CCO[C@H]1O[C@@H](CO)[C@@H](O)[C@H](O)[C@H]1O
REMARK SMILES IDX 4 1 13 2 11 3 9 4 6 5 5 6 3 7 2 8 1 9 14 10 12 12 7 14 8 15
REMARK SMILES IDX 10 17
REMARK H PARENT 14 11 12 13 8 16 10 18
REMARK Flexibility Score: inf
ROOT
ATOM      1  C   UNL     1      -4.404 -48.331 -13.214  1.00  0.00     0.281 C 
ATOM      2  C   UNL     1      -3.438 -49.529 -13.219  1.00  0.00     0.202 C 
ATOM      3  C   UNL     1      -3.939 -50.614 -14.184  1.00  0.00     0.179 C 
ATOM      4  C   UNL     1      -5.388 -50.982 -13.817  1.00  0.00     0.177 C 
ATOM      5  C   UNL     1      -6.289 -49.723 -13.740  1.00  0.00     0.178 C 
ATOM      6  O   UNL     1      -5.743 -48.708 -12.899  1.00  0.00    -0.341 OA
ENDROOT
BRANCH   1   7
ATOM      7  O   UNL     1      -4.339 -47.640 -14.450  1.00  0.00    -0.350 OA
BRANCH   7   8
ATOM      8  C   UNL     1      -4.389 -46.244 -14.238  1.00  0.00     0.160 C 
ATOM      9  C   UNL     1      -2.972 -45.705 -14.130  1.00  0.00     0.035 C 
ENDBRANCH   7   8
ENDBRANCH   1   7
BRANCH   2  10
ATOM     10  O   UNL     1      -2.158 -49.093 -13.602  1.00  0.00    -0.385 OA
ATOM     11  H   UNL     1      -1.956 -49.525 -14.473  1.00  0.00     0.211 HD
ENDBRANCH   2  10
BRANCH   3  12
ATOM     12  O   UNL     1      -3.109 -51.749 -14.145  1.00  0.00    -0.387 OA
ATOM     13  H   UNL     1      -2.376 -51.614 -14.800  1.00  0.00     0.211 HD
ENDBRANCH   3  12
BRANCH   5  14
ATOM     14  C   UNL     1      -6.746 -49.178 -15.111  1.00  0.00     0.191 C 
BRANCH  14  15
ATOM     15  O   UNL     1      -7.772 -49.972 -15.642  1.00  0.00    -0.394 OA
ATOM     16  H   UNL     1      -8.563 -49.848 -15.056  1.00  0.00     0.210 HD
ENDBRANCH  14  15
ENDBRANCH   5  14
BRANCH   4  17
ATOM     17  O   UNL     1      -5.921 -51.952 -14.687  1.00  0.00    -0.387 OA
ATOM     18  H   UNL     1      -6.066 -52.786 -14.168  1.00  0.00     0.211 HD
ENDBRANCH   4  17
TORSDOF 7
ENDMDL
MODEL 7
REMARK VINA RESULT:    -5.525      1.941      2.829
REMARK INTER + INTRA:          -7.567
REMARK INTER:                  -7.097
REMARK INTRA:                  -0.470
REMARK UNBOUND:                -0.426
REMARK SMILES CCO[C@H]1O[C@@H](CO)[C@@H](O)[C@H](O)[C@H]1O
REMARK SMILES IDX 4 1 13 2 11 3 9 4 6 5 5 6 3 7 2 8 1 9 14 10 12 12 7 14 8 15
REMARK SMILES IDX 10 17
REMARK H PARENT 14 11 12 13 8 16 10 18
REMARK Flexibility Score: inf
ROOT
ATOM      1  C   UNL     1      -5.622 -48.165 -13.013  1.00  0.00     0.281 C 
ATOM      2  C   UNL     1      -5.774 -46.662 -13.307  1.00  0.00     0.202 C 
ATOM      3  C   UNL     1      -4.612 -46.170 -14.183  1.00  0.00     0.179 C 
ATOM      4  C   UNL     1      -3.281 -46.542 -13.507  1.00  0.00     0.177 C 
ATOM      5  C   UNL     1      -3.228 -48.051 -13.156  1.00  0.00     0.178 C 
ATOM      6  O   UNL     1      -4.367 -48.482 -12.414  1.00  0.00    -0.341 OA
ENDROOT
BRANCH   1   7
ATOM      7  O   UNL     1      -5.838 -48.922 -14.193  1.00  0.00    -0.350 OA
BRANCH   7   8
ATOM      8  C   UNL     1      -6.772 -49.954 -13.953  1.00  0.00     0.160 C 
ATOM      9  C   UNL     1      -6.052 -51.293 -13.973  1.00  0.00     0.035 C 
ENDBRANCH   7   8
ENDBRANCH   1   7
BRANCH   2  10
ATOM     10  O   UNL     1      -7.000 -46.436 -13.956  1.00  0.00    -0.385 OA
ATOM     11  H   UNL     1      -7.715 -46.699 -13.319  1.00  0.00     0.211 HD
ENDBRANCH   2  10
BRANCH   3  12
ATOM     12  O   UNL     1      -4.693 -44.782 -14.398  1.00  0.00    -0.387 OA
ATOM     13  H   UNL     1      -4.752 -44.339 -13.511  1.00  0.00     0.211 HD
ENDBRANCH   3  12
BRANCH   5  14
ATOM     14  C   UNL     1      -2.911 -48.976 -14.352  1.00  0.00     0.191 C 
BRANCH  14  15
ATOM     15  O   UNL     1      -1.532 -49.000 -14.607  1.00  0.00    -0.394 OA
ATOM     16  H   UNL     1      -1.121 -48.311 -14.023  1.00  0.00     0.210 HD
ENDBRANCH  14  15
ENDBRANCH   5  14
BRANCH   4  17
ATOM     17  O   UNL     1      -2.171 -46.147 -14.277  1.00  0.00    -0.387 OA
ATOM     18  H   UNL     1      -2.507 -45.760 -15.127  1.00  0.00     0.211 HD
ENDBRANCH   4  17
TORSDOF 7
ENDMDL
MODEL 8
REMARK VINA RESULT:    -5.468      1.794      3.696
REMARK INTER + INTRA:          -7.493
REMARK INTER:                  -7.019
REMARK INTRA:                  -0.474
REMARK UNBOUND:                -0.426
REMARK SMILES CCO[C@H]1O[C@@H](CO)[C@@H](O)[C@H](O)[C@H]1O
REMARK SMILES IDX 4 1 13 2 11 3 9 4 6 5 5 6 3 7 2 8 1 9 14 10 12 12 7 14 8 15
REMARK SMILES IDX 10 17
REMARK H PARENT 14 11 12 13 8 16 10 18
REMARK Flexibility Score: inf
ROOT
ATOM      1  C   UNL     1      -5.313 -49.506 -14.426  1.00  0.00     0.281 C 
ATOM      2  C   UNL     1      -4.498 -50.810 -14.339  1.00  0.00     0.202 C 
ATOM      3  C   UNL     1      -3.070 -50.514 -13.860  1.00  0.00     0.179 C 
ATOM      4  C   UNL     1      -2.444 -49.447 -14.776  1.00  0.00     0.177 C 
ATOM      5  C   UNL     1      -3.354 -48.198 -14.893  1.00  0.00     0.178 C 
ATOM      6  O   UNL     1      -4.693 -48.527 -15.258  1.00  0.00    -0.341 OA
ENDROOT
BRANCH   1   7
ATOM      7  O   UNL     1      -5.567 -48.996 -13.128  1.00  0.00    -0.350 OA
BRANCH   7   8
ATOM      8  C   UNL     1      -6.812 -48.330 -13.094  1.00  0.00     0.160 C 
ATOM      9  C   UNL     1      -7.930 -49.360 -13.154  1.00  0.00     0.035 C 
ENDBRANCH   7   8
ENDBRANCH   1   7
BRANCH   2  10
ATOM     10  O   UNL     1      -5.133 -51.697 -13.453  1.00  0.00    -0.385 OA
ATOM     11  H   UNL     1      -4.518 -51.824 -12.684  1.00  0.00     0.211 HD
ENDBRANCH   2  10
BRANCH   3  12
ATOM     12  O   UNL     1      -2.287 -51.683 -13.848  1.00  0.00    -0.387 OA
ATOM     13  H   UNL     1      -2.145 -51.965 -14.790  1.00  0.00     0.211 HD
ENDBRANCH   3  12
BRANCH   5  14
ATOM     14  C   UNL     1      -3.286 -47.240 -13.683  1.00  0.00     0.191 C 
BRANCH  14  15
ATOM     15  O   UNL     1      -2.276 -46.285 -13.865  1.00  0.00    -0.394 OA
ATOM     16  H   UNL     1      -2.157 -45.824 -12.994  1.00  0.00     0.210 HD
ENDBRANCH  14  15
ENDBRANCH   5  14
BRANCH   4  17
ATOM     17  O   UNL     1      -1.140 -49.105 -14.370  1.00  0.00    -0.387 OA
ATOM     18  H   UNL     1      -0.578 -49.922 -14.415  1.00  0.00     0.211 HD
ENDBRANCH   4  17
TORSDOF 7
ENDMDL
MODEL 9
REMARK VINA RESULT:    -5.449      2.127      2.814
REMARK INTER + INTRA:          -7.468
REMARK INTER:                  -6.984
REMARK INTRA:                  -0.484
REMARK UNBOUND:                -0.426
REMARK SMILES CCO[C@H]1O[C@@H](CO)[C@@H](O)[C@H](O)[C@H]1O
REMARK SMILES IDX 4 1 13 2 11 3 9 4 6 5 5 6 3 7 2 8 1 9 14 10 12 12 7 14 8 15
REMARK SMILES IDX 10 17
REMARK H PARENT 14 11 12 13 8 16 10 18
REMARK Flexibility Score: inf
ROOT
ATOM      1  C   UNL     1      -5.772 -46.688 -13.799  1.00  0.00     0.281 C 
ATOM      2  C   UNL     1      -4.605 -45.685 -13.732  1.00  0.00     0.202 C 
ATOM      3  C   UNL     1      -3.354 -46.279 -14.396  1.00  0.00     0.179 C 
ATOM      4  C   UNL     1      -3.043 -47.642 -13.753  1.00  0.00     0.177 C 
ATOM      5  C   UNL     1      -4.283 -48.572 -13.772  1.00  0.00     0.178 C 
ATOM      6  O   UNL     1      -5.444 -47.950 -13.222  1.00  0.00    -0.341 OA
ENDROOT
BRANCH   1   7
ATOM      7  O   UNL     1      -6.222 -46.832 -15.136  1.00  0.00    -0.350 OA
BRANCH   7   8
ATOM      8  C   UNL     1      -7.633 -46.800 -15.189  1.00  0.00     0.160 C 
ATOM      9  C   UNL     1      -8.146 -48.162 -15.628  1.00  0.00     0.035 C 
ENDBRANCH   7   8
ENDBRANCH   1   7
BRANCH   2  10
ATOM     10  O   UNL     1      -4.978 -44.494 -14.377  1.00  0.00    -0.385 OA
ATOM     11  H   UNL     1      -5.489 -44.753 -15.187  1.00  0.00     0.211 HD
ENDBRANCH   2  10
BRANCH   3  12
ATOM     12  O   UNL     1      -2.256 -45.407 -14.276  1.00  0.00    -0.387 OA
ATOM     13  H   UNL     1      -1.986 -45.129 -15.190  1.00  0.00     0.211 HD
ENDBRANCH   3  12
BRANCH   5  14
ATOM     14  C   UNL     1      -4.558 -49.245 -15.135  1.00  0.00     0.191 C 
BRANCH  14  15
ATOM     15  O   UNL     1      -3.656 -50.295 -15.359  1.00  0.00    -0.394 OA
ATOM     16  H   UNL     1      -3.865 -50.999 -14.690  1.00  0.00     0.210 HD
ENDBRANCH  14  15
ENDBRANCH   5  14
BRANCH   4  17
ATOM     17  O   UNL     1      -1.922 -48.257 -14.341  1.00  0.00    -0.387 OA
ATOM     18  H   UNL     1      -1.993 -48.153 -15.325  1.00  0.00     0.211 HD
ENDBRANCH   4  17
TORSDOF 7
ENDMDL
