MODEL 1
REMARK VINA RESULT:    -5.281      0.000      0.000
REMARK INTER + INTRA:          -6.973
REMARK INTER:                  -6.824
REMARK INTRA:                  -0.149
REMARK UNBOUND:                -0.149
REMARK SMILES CCO[C@H]1O[C@@H](CO)[C@H](O)[C@@H](O)[C@H]1O
REMARK SMILES IDX 4 1 13 2 11 3 9 4 6 5 5 6 3 7 2 8 1 9 14 10 12 12 7 14 8 15
REMARK SMILES IDX 10 17
REMARK H PARENT 14 11 12 13 8 16 10 18
REMARK Flexibility Score: inf
ROOT
ATOM      1  C   UNL     1     147.892 153.978 128.602  1.00  0.00     0.281 C 
ATOM      2  C   UNL     1     147.663 155.087 127.562  1.00  0.00     0.202 C 
ATOM      3  C   UNL     1     149.008 155.766 127.212  1.00  0.00     0.179 C 
ATOM      4  C   UNL     1     150.239 154.859 127.499  1.00  0.00     0.177 C 
ATOM      5  C   UNL     1     149.901 153.334 127.454  1.00  0.00     0.178 C 
ATOM      6  O   UNL     1     148.664 152.931 128.044  1.00  0.00    -0.341 OA
ENDROOT
BRANCH   1   7
ATOM      7  O   UNL     1     146.638 153.434 128.979  1.00  0.00    -0.350 OA
BRANCH   7   8
ATOM      8  C   UNL     1     145.940 154.312 129.839  1.00  0.00     0.160 C 
ATOM      9  C   UNL     1     146.071 153.816 131.271  1.00  0.00     0.035 C 
ENDBRANCH   7   8
ENDBRANCH   1   7
BRANCH   2  10
ATOM     10  O   UNL     1     147.056 154.528 126.422  1.00  0.00    -0.385 OA
ATOM     11  H   UNL     1     146.265 154.016 126.736  1.00  0.00     0.211 HD
ENDBRANCH   2  10
BRANCH   3  12
ATOM     12  O   UNL     1     149.017 156.260 125.895  1.00  0.00    -0.387 OA
ATOM     13  H   UNL     1     148.722 157.207 125.919  1.00  0.00     0.211 HD
ENDBRANCH   3  12
BRANCH   5  14
ATOM     14  C   UNL     1     149.962 152.781 126.023  1.00  0.00     0.191 C 
BRANCH  14  15
ATOM     15  O   UNL     1     150.990 151.834 125.928  1.00  0.00    -0.394 OA
ATOM     16  H   UNL     1     151.448 152.009 125.065  1.00  0.00     0.210 HD
ENDBRANCH  14  15
ENDBRANCH   5  14
BRANCH   4  17
ATOM     17  O   UNL     1     150.762 155.160 128.770  1.00  0.00    -0.387 OA
ATOM     18  H   UNL     1     150.026 155.559 129.304  1.00  0.00     0.211 HD
ENDBRANCH   4  17
TORSDOF 7
ENDMDL
MODEL 2
REMARK VINA RESULT:    -5.260      2.090      3.951
REMARK INTER + INTRA:          -6.947
REMARK INTER:                  -6.743
REMARK INTRA:                  -0.204
REMARK UNBOUND:                -0.149
REMARK SMILES CCO[C@H]1O[C@@H](CO)[C@H](O)[C@@H](O)[C@H]1O
REMARK SMILES IDX 4 1 13 2 11 3 9 4 6 5 5 6 3 7 2 8 1 9 14 10 12 12 7 14 8 15
REMARK SMILES IDX 10 17
REMARK H PARENT 14 11 12 13 8 16 10 18
REMARK Flexibility Score: inf
ROOT
ATOM      1  C   UNL     1     148.714 152.763 128.702  1.00  0.00     0.281 C 
ATOM      2  C   UNL     1     149.971 153.631 128.520  1.00  0.00     0.202 C 
ATOM      3  C   UNL     1     149.599 154.950 127.802  1.00  0.00     0.179 C 
ATOM      4  C   UNL     1     148.099 155.327 127.963  1.00  0.00     0.177 C 
ATOM      5  C   UNL     1     147.451 154.730 129.253  1.00  0.00     0.178 C 
ATOM      6  O   UNL     1     147.808 153.389 129.591  1.00  0.00    -0.341 OA
ENDROOT
BRANCH   1   7
ATOM      7  O   UNL     1     149.091 151.522 129.275  1.00  0.00    -0.350 OA
BRANCH   7   8
ATOM      8  C   UNL     1     148.424 151.306 130.502  1.00  0.00     0.160 C 
ATOM      9  C   UNL     1     149.448 150.969 131.575  1.00  0.00     0.035 C 
ENDBRANCH   7   8
ENDBRANCH   1   7
BRANCH   2  10
ATOM     10  O   UNL     1     150.545 153.876 129.781  1.00  0.00    -0.385 OA
ATOM     11  H   UNL     1     149.903 154.439 130.288  1.00  0.00     0.211 HD
ENDBRANCH   2  10
BRANCH   3  12
ATOM     12  O   UNL     1     150.449 156.007 128.177  1.00  0.00    -0.387 OA
ATOM     13  H   UNL     1     150.012 156.859 127.920  1.00  0.00     0.211 HD
ENDBRANCH   3  12
BRANCH   5  14
ATOM     14  C   UNL     1     147.696 155.624 130.478  1.00  0.00     0.191 C 
BRANCH  14  15
ATOM     15  O   UNL     1     146.577 155.587 131.319  1.00  0.00    -0.394 OA
ATOM     16  H   UNL     1     146.355 156.531 131.526  1.00  0.00     0.210 HD
ENDBRANCH  14  15
ENDBRANCH   5  14
BRANCH   4  17
ATOM     17  O   UNL     1     147.373 154.868 126.848  1.00  0.00    -0.387 OA
ATOM     18  H   UNL     1     147.617 155.447 126.080  1.00  0.00     0.211 HD
ENDBRANCH   4  17
TORSDOF 7
ENDMDL
MODEL 3
REMARK VINA RESULT:    -5.226      1.519      3.205
REMARK INTER + INTRA:          -6.903
REMARK INTER:                  -6.593
REMARK INTRA:                  -0.310
REMARK UNBOUND:                -0.149
REMARK SMILES CCO[C@H]1O[C@@H](CO)[C@H](O)[C@@H](O)[C@H]1O
REMARK SMILES IDX 4 1 13 2 11 3 9 4 6 5 5 6 3 7 2 8 1 9 14 10 12 12 7 14 8 15
REMARK SMILES IDX 10 17
REMARK H PARENT 14 11 12 13 8 16 10 18
REMARK Flexibility Score: inf
ROOT
ATOM      1  C   UNL     1     148.227 154.026 129.274  1.00  0.00     0.281 C 
ATOM      2  C   UNL     1     149.523 153.571 128.583  1.00  0.00     0.202 C 
ATOM      3  C   UNL     1     149.458 153.903 127.073  1.00  0.00     0.179 C 
ATOM      4  C   UNL     1     148.463 155.052 126.747  1.00  0.00     0.177 C 
ATOM      5  C   UNL     1     148.236 156.027 127.946  1.00  0.00     0.178 C 
ATOM      6  O   UNL     1     148.121 155.437 129.242  1.00  0.00    -0.341 OA
ENDROOT
BRANCH   1   7
ATOM      7  O   UNL     1     148.268 153.629 130.635  1.00  0.00    -0.350 OA
BRANCH   7   8
ATOM      8  C   UNL     1     147.162 152.810 130.959  1.00  0.00     0.160 C 
ATOM      9  C   UNL     1     145.984 153.692 131.342  1.00  0.00     0.035 C 
ENDBRANCH   7   8
ENDBRANCH   1   7
BRANCH   2  10
ATOM     10  O   UNL     1     150.619 154.201 129.201  1.00  0.00    -0.385 OA
ATOM     11  H   UNL     1     151.278 153.491 129.417  1.00  0.00     0.211 HD
ENDBRANCH   2  10
BRANCH   3  12
ATOM     12  O   UNL     1     150.735 154.146 126.536  1.00  0.00    -0.387 OA
ATOM     13  H   UNL     1     150.993 155.076 126.762  1.00  0.00     0.211 HD
ENDBRANCH   3  12
BRANCH   5  14
ATOM     14  C   UNL     1     149.314 157.120 128.002  1.00  0.00     0.191 C 
BRANCH  14  15
ATOM     15  O   UNL     1     150.009 157.158 126.787  1.00  0.00    -0.394 OA
ATOM     16  H   UNL     1     150.923 156.824 126.980  1.00  0.00     0.210 HD
ENDBRANCH  14  15
ENDBRANCH   5  14
BRANCH   4  17
ATOM     17  O   UNL     1     147.219 154.511 126.374  1.00  0.00    -0.387 OA
ATOM     18  H   UNL     1     147.390 153.852 125.652  1.00  0.00     0.211 HD
ENDBRANCH   4  17
TORSDOF 7
ENDMDL
MODEL 4
REMARK VINA RESULT:    -5.161      1.618      4.184
REMARK INTER + INTRA:          -6.819
REMARK INTER:                  -6.401
REMARK INTRA:                  -0.418
REMARK UNBOUND:                -0.149
REMARK SMILES CCO[C@H]1O[C@@H](CO)[C@H](O)[C@@H](O)[C@H]1O
REMARK SMILES IDX 4 1 13 2 11 3 9 4 6 5 5 6 3 7 2 8 1 9 14 10 12 12 7 14 8 15
REMARK SMILES IDX 10 17
REMARK H PARENT 14 11 12 13 8 16 10 18
REMARK Flexibility Score: inf
ROOT
ATOM      1  C   UNL     1     149.468 154.102 126.959  1.00  0.00     0.281 C 
ATOM      2  C   UNL     1     149.834 155.499 127.488  1.00  0.00     0.202 C 
ATOM      3  C   UNL     1     148.597 156.151 128.149  1.00  0.00     0.179 C 
ATOM      4  C   UNL     1     147.544 155.111 128.626  1.00  0.00     0.177 C 
ATOM      5  C   UNL     1     148.162 153.710 128.937  1.00  0.00     0.178 C 
ATOM      6  O   UNL     1     149.162 153.234 128.034  1.00  0.00    -0.341 OA
ENDROOT
BRANCH   1   7
ATOM      7  O   UNL     1     150.586 153.561 126.275  1.00  0.00    -0.350 OA
BRANCH   7   8
ATOM      8  C   UNL     1     150.413 152.179 126.032  1.00  0.00     0.160 C 
ATOM      9  C   UNL     1     149.992 151.977 124.585  1.00  0.00     0.035 C 
ENDBRANCH   7   8
ENDBRANCH   1   7
BRANCH   2  10
ATOM     10  O   UNL     1     150.901 155.380 128.397  1.00  0.00    -0.385 OA
ATOM     11  H   UNL     1     150.581 154.816 129.148  1.00  0.00     0.211 HD
ENDBRANCH   2  10
BRANCH   3  12
ATOM     12  O   UNL     1     148.962 157.038 129.179  1.00  0.00    -0.387 OA
ATOM     13  H   UNL     1     148.819 157.963 128.853  1.00  0.00     0.211 HD
ENDBRANCH   3  12
BRANCH   5  14
ATOM     14  C   UNL     1     148.721 153.640 130.365  1.00  0.00     0.191 C 
BRANCH  14  15
ATOM     15  O   UNL     1     150.120 153.596 130.321  1.00  0.00    -0.394 OA
ATOM     16  H   UNL     1     150.436 154.437 130.742  1.00  0.00     0.210 HD
ENDBRANCH  14  15
ENDBRANCH   5  14
BRANCH   4  17
ATOM     17  O   UNL     1     146.555 154.951 127.638  1.00  0.00    -0.387 OA
ATOM     18  H   UNL     1     145.892 154.302 127.989  1.00  0.00     0.211 HD
ENDBRANCH   4  17
TORSDOF 7
ENDMDL
MODEL 5
REMARK VINA RESULT:    -5.046      1.877      4.670
REMARK INTER + INTRA:          -6.669
REMARK INTER:                  -6.353
REMARK INTRA:                  -0.316
REMARK UNBOUND:                -0.149
REMARK SMILES CCO[C@H]1O[C@@H](CO)[C@H](O)[C@@H](O)[C@H]1O
REMARK SMILES IDX 4 1 13 2 11 3 9 4 6 5 5 6 3 7 2 8 1 9 14 10 12 12 7 14 8 15
REMARK SMILES IDX 10 17
REMARK H PARENT 14 11 12 13 8 16 10 18
REMARK Flexibility Score: inf
ROOT
ATOM      1  C   UNL     1     148.583 153.415 128.277  1.00  0.00     0.281 C 
ATOM      2  C   UNL     1     149.116 154.627 129.058  1.00  0.00     0.202 C 
ATOM      3  C   UNL     1     147.972 155.640 129.301  1.00  0.00     0.179 C 
ATOM      4  C   UNL     1     146.561 154.988 129.246  1.00  0.00     0.177 C 
ATOM      5  C   UNL     1     146.575 153.465 129.595  1.00  0.00     0.178 C 
ATOM      6  O   UNL     1     147.654 152.693 129.064  1.00  0.00    -0.341 OA
ENDROOT
BRANCH   1   7
ATOM      7  O   UNL     1     149.664 152.545 127.983  1.00  0.00    -0.350 OA
BRANCH   7   8
ATOM      8  C   UNL     1     149.545 152.009 126.681  1.00  0.00     0.160 C 
ATOM      9  C   UNL     1     150.563 152.679 125.772  1.00  0.00     0.035 C 
ENDBRANCH   7   8
ENDBRANCH   1   7
BRANCH   2  10
ATOM     10  O   UNL     1     149.676 154.183 130.270  1.00  0.00    -0.385 OA
ATOM     11  H   UNL     1     149.043 153.524 130.658  1.00  0.00     0.211 HD
ENDBRANCH   2  10
BRANCH   3  12
ATOM     12  O   UNL     1     148.166 156.372 130.487  1.00  0.00    -0.387 OA
ATOM     13  H   UNL     1     147.417 156.164 131.103  1.00  0.00     0.211 HD
ENDBRANCH   3  12
BRANCH   5  14
ATOM     14  C   UNL     1     146.507 153.229 131.111  1.00  0.00     0.191 C 
BRANCH  14  15
ATOM     15  O   UNL     1     146.115 154.410 131.754  1.00  0.00    -0.394 OA
ATOM     16  H   UNL     1     146.635 154.451 132.598  1.00  0.00     0.210 HD
ENDBRANCH  14  15
ENDBRANCH   5  14
BRANCH   4  17
ATOM     17  O   UNL     1     146.019 155.142 127.957  1.00  0.00    -0.387 OA
ATOM     18  H   UNL     1     145.104 154.758 127.976  1.00  0.00     0.211 HD
ENDBRANCH   4  17
TORSDOF 7
ENDMDL
MODEL 6
REMARK VINA RESULT:    -4.909      1.835      3.940
REMARK INTER + INTRA:          -6.493
REMARK INTER:                  -6.114
REMARK INTRA:                  -0.379
REMARK UNBOUND:                -0.149
REMARK SMILES CCO[C@H]1O[C@@H](CO)[C@H](O)[C@@H](O)[C@H]1O
REMARK SMILES IDX 4 1 13 2 11 3 9 4 6 5 5 6 3 7 2 8 1 9 14 10 12 12 7 14 8 15
REMARK SMILES IDX 10 17
REMARK H PARENT 14 11 12 13 8 16 10 18
REMARK Flexibility Score: inf
ROOT
ATOM      1  C   UNL     1     148.702 153.901 126.287  1.00  0.00     0.281 C 
ATOM      2  C   UNL     1     149.984 153.840 127.135  1.00  0.00     0.202 C 
ATOM      3  C   UNL     1     150.405 155.269 127.554  1.00  0.00     0.179 C 
ATOM      4  C   UNL     1     149.222 156.278 127.543  1.00  0.00     0.177 C 
ATOM      5  C   UNL     1     147.831 155.597 127.748  1.00  0.00     0.178 C 
ATOM      6  O   UNL     1     147.615 154.358 127.070  1.00  0.00    -0.341 OA
ENDROOT
BRANCH   1   7
ATOM      7  O   UNL     1     148.387 152.595 125.835  1.00  0.00    -0.350 OA
BRANCH   7   8
ATOM      8  C   UNL     1     147.008 152.323 125.988  1.00  0.00     0.160 C 
ATOM      9  C   UNL     1     146.423 151.938 124.638  1.00  0.00     0.035 C 
ENDBRANCH   7   8
ENDBRANCH   1   7
BRANCH   2  10
ATOM     10  O   UNL     1     149.754 153.022 128.256  1.00  0.00    -0.385 OA
ATOM     11  H   UNL     1     150.408 152.277 128.210  1.00  0.00     0.211 HD
ENDBRANCH   2  10
BRANCH   3  12
ATOM     12  O   UNL     1     151.086 155.272 128.785  1.00  0.00    -0.387 OA
ATOM     13  H   UNL     1     151.574 156.131 128.864  1.00  0.00     0.211 HD
ENDBRANCH   3  12
BRANCH   5  14
ATOM     14  C   UNL     1     147.509 155.400 129.237  1.00  0.00     0.191 C 
BRANCH  14  15
ATOM     15  O   UNL     1     148.366 156.192 130.013  1.00  0.00    -0.394 OA
ATOM     16  H   UNL     1     148.815 155.574 130.646  1.00  0.00     0.210 HD
ENDBRANCH  14  15
ENDBRANCH   5  14
BRANCH   4  17
ATOM     17  O   UNL     1     149.200 156.969 126.317  1.00  0.00    -0.387 OA
ATOM     18  H   UNL     1     148.812 157.866 126.493  1.00  0.00     0.211 HD
ENDBRANCH   4  17
TORSDOF 7
ENDMDL
MODEL 7
REMARK VINA RESULT:    -4.901      2.319      3.431
REMARK INTER + INTRA:          -6.482
REMARK INTER:                  -6.075
REMARK INTRA:                  -0.407
REMARK UNBOUND:                -0.149
REMARK SMILES CCO[C@H]1O[C@@H](CO)[C@H](O)[C@@H](O)[C@H]1O
REMARK SMILES IDX 4 1 13 2 11 3 9 4 6 5 5 6 3 7 2 8 1 9 14 10 12 12 7 14 8 15
REMARK SMILES IDX 10 17
REMARK H PARENT 14 11 12 13 8 16 10 18
REMARK Flexibility Score: inf
ROOT
ATOM      1  C   UNL     1     146.253 154.325 128.521  1.00  0.00     0.281 C 
ATOM      2  C   UNL     1     147.363 155.276 128.044  1.00  0.00     0.202 C 
ATOM      3  C   UNL     1     148.029 155.959 129.262  1.00  0.00     0.179 C 
ATOM      4  C   UNL     1     147.858 155.152 130.580  1.00  0.00     0.177 C 
ATOM      5  C   UNL     1     147.655 153.621 130.340  1.00  0.00     0.178 C 
ATOM      6  O   UNL     1     146.808 153.248 129.251  1.00  0.00    -0.341 OA
ENDROOT
BRANCH   1   7
ATOM      7  O   UNL     1     145.594 153.782 127.389  1.00  0.00    -0.350 OA
BRANCH   7   8
ATOM      8  C   UNL     1     145.548 152.371 127.455  1.00  0.00     0.160 C 
ATOM      9  C   UNL     1     146.122 151.793 126.170  1.00  0.00     0.035 C 
ENDBRANCH   7   8
ENDBRANCH   1   7
BRANCH   2  10
ATOM     10  O   UNL     1     148.299 154.546 127.288  1.00  0.00    -0.385 OA
ATOM     11  H   UNL     1     148.730 153.900 127.906  1.00  0.00     0.211 HD
ENDBRANCH   2  10
BRANCH   3  12
ATOM     12  O   UNL     1     149.377 156.275 129.011  1.00  0.00    -0.387 OA
ATOM     13  H   UNL     1     149.532 156.211 128.034  1.00  0.00     0.211 HD
ENDBRANCH   3  12
BRANCH   5  14
ATOM     14  C   UNL     1     148.995 152.887 130.190  1.00  0.00     0.191 C 
BRANCH  14  15
ATOM     15  O   UNL     1     150.041 153.732 130.578  1.00  0.00    -0.394 OA
ATOM     16  H   UNL     1     149.866 154.607 130.144  1.00  0.00     0.210 HD
ENDBRANCH  14  15
ENDBRANCH   5  14
BRANCH   4  17
ATOM     17  O   UNL     1     146.748 155.640 131.294  1.00  0.00    -0.387 OA
ATOM     18  H   UNL     1     145.934 155.292 130.845  1.00  0.00     0.211 HD
ENDBRANCH   4  17
TORSDOF 7
ENDMDL
MODEL 8
REMARK VINA RESULT:    -4.757      2.422      3.886
REMARK INTER + INTRA:          -6.296
REMARK INTER:                  -5.934
REMARK INTRA:                  -0.362
REMARK UNBOUND:                -0.149
REMARK SMILES CCO[C@H]1O[C@@H](CO)[C@H](O)[C@@H](O)[C@H]1O
REMARK SMILES IDX 4 1 13 2 11 3 9 4 6 5 5 6 3 7 2 8 1 9 14 10 12 12 7 14 8 15
REMARK SMILES IDX 10 17
REMARK H PARENT 14 11 12 13 8 16 10 18
REMARK Flexibility Score: inf
ROOT
ATOM      1  C   UNL     1     146.011 153.555 128.631  1.00  0.00     0.281 C 
ATOM      2  C   UNL     1     145.608 154.440 129.822  1.00  0.00     0.202 C 
ATOM      3  C   UNL     1     146.802 154.587 130.795  1.00  0.00     0.179 C 
ATOM      4  C   UNL     1     148.176 154.341 130.110  1.00  0.00     0.177 C 
ATOM      5  C   UNL     1     148.158 154.630 128.575  1.00  0.00     0.178 C 
ATOM      6  O   UNL     1     147.003 154.199 127.853  1.00  0.00    -0.341 OA
ENDROOT
BRANCH   1   7
ATOM      7  O   UNL     1     144.878 153.356 127.801  1.00  0.00    -0.350 OA
BRANCH   7   8
ATOM      8  C   UNL     1     144.081 152.289 128.276  1.00  0.00     0.160 C 
ATOM      9  C   UNL     1     142.631 152.742 128.347  1.00  0.00     0.035 C 
ENDBRANCH   7   8
ENDBRANCH   1   7
BRANCH   2  10
ATOM     10  O   UNL     1     145.179 155.690 129.341  1.00  0.00    -0.385 OA
ATOM     11  H   UNL     1     144.794 155.537 128.438  1.00  0.00     0.211 HD
ENDBRANCH   2  10
BRANCH   3  12
ATOM     12  O   UNL     1     146.769 155.815 131.480  1.00  0.00    -0.387 OA
ATOM     13  H   UNL     1     147.691 156.176 131.510  1.00  0.00     0.211 HD
ENDBRANCH   3  12
BRANCH   5  14
ATOM     14  C   UNL     1     148.394 156.118 128.273  1.00  0.00     0.191 C 
BRANCH  14  15
ATOM     15  O   UNL     1     148.888 156.757 129.417  1.00  0.00    -0.394 OA
ATOM     16  H   UNL     1     148.220 157.451 129.657  1.00  0.00     0.210 HD
ENDBRANCH  14  15
ENDBRANCH   5  14
BRANCH   4  17
ATOM     17  O   UNL     1     148.571 153.005 130.306  1.00  0.00    -0.387 OA
ATOM     18  H   UNL     1     148.505 152.819 131.278  1.00  0.00     0.211 HD
ENDBRANCH   4  17
TORSDOF 7
ENDMDL
MODEL 9
REMARK VINA RESULT:    -4.697      1.876      3.449
REMARK INTER + INTRA:          -6.218
REMARK INTER:                  -5.739
REMARK INTRA:                  -0.480
REMARK UNBOUND:                -0.149
REMARK SMILES CCO[C@H]1O[C@@H](CO)[C@H](O)[C@@H](O)[C@H]1O
REMARK SMILES IDX 4 1 13 2 11 3 9 4 6 5 5 6 3 7 2 8 1 9 14 10 12 12 7 14 8 15
REMARK SMILES IDX 10 17
REMARK H PARENT 14 11 12 13 8 16 10 18
REMARK Flexibility Score: inf
ROOT
ATOM      1  C   UNL     1     148.555 153.353 128.002  1.00  0.00     0.281 C 
ATOM      2  C   UNL     1     147.097 153.810 127.832  1.00  0.00     0.202 C 
ATOM      3  C   UNL     1     146.766 154.907 128.870  1.00  0.00     0.179 C 
ATOM      4  C   UNL     1     148.028 155.655 129.388  1.00  0.00     0.177 C 
ATOM      5  C   UNL     1     149.214 155.633 128.371  1.00  0.00     0.178 C 
ATOM      6  O   UNL     1     149.443 154.406 127.675  1.00  0.00    -0.341 OA
ENDROOT
BRANCH   1   7
ATOM      7  O   UNL     1     148.810 152.284 127.105  1.00  0.00    -0.350 OA
BRANCH   7   8
ATOM      8  C   UNL     1     148.334 151.059 127.627  1.00  0.00     0.160 C 
ATOM      9  C   UNL     1     147.721 150.242 126.500  1.00  0.00     0.035 C 
ENDBRANCH   7   8
ENDBRANCH   1   7
BRANCH   2  10
ATOM     10  O   UNL     1     146.912 154.274 126.516  1.00  0.00    -0.385 OA
ATOM     11  H   UNL     1     147.451 153.688 125.923  1.00  0.00     0.211 HD
ENDBRANCH   2  10
BRANCH   3  12
ATOM     12  O   UNL     1     145.786 155.799 128.395  1.00  0.00    -0.387 OA
ATOM     13  H   UNL     1     145.837 156.628 128.935  1.00  0.00     0.211 HD
ENDBRANCH   3  12
BRANCH   5  14
ATOM     14  C   UNL     1     149.098 156.764 127.338  1.00  0.00     0.191 C 
BRANCH  14  15
ATOM     15  O   UNL     1     148.997 156.219 126.052  1.00  0.00    -0.394 OA
ATOM     16  H   UNL     1     149.683 156.678 125.502  1.00  0.00     0.210 HD
ENDBRANCH  14  15
ENDBRANCH   5  14
BRANCH   4  17
ATOM     17  O   UNL     1     148.465 155.071 130.591  1.00  0.00    -0.387 OA
ATOM     18  H   UNL     1     147.667 154.965 131.172  1.00  0.00     0.211 HD
ENDBRANCH   4  17
TORSDOF 7
ENDMDL
