MODEL 1
REMARK VINA RESULT:    -4.090      0.000      0.000
REMARK INTER + INTRA:          -9.675
REMARK INTER:                  -7.676
REMARK INTRA:                  -1.999
REMARK UNBOUND:                -1.999
REMARK SMILES CCCCCCCCC=CCCCCCCCC(=O)[O-]
REMARK SMILES IDX 10 1 9 2 11 3 12 4 13 5 14 6 15 7 16 8 17 9 18 10 19 11
REMARK SMILES IDX 20 12 8 13 7 14 6 15 5 16 4 17 3 18 2 19 1 20
REMARK H PARENT
REMARK Flexibility Score: inf
ROOT
ATOM      1  C   UNL     1       9.008   0.801  -6.521  1.00  0.00    -0.031 C 
ATOM      2  C   UNL     1       9.967   1.669  -6.896  1.00  0.00    -0.031 C 
ENDROOT
BRANCH   1   3
ATOM      3  C   UNL     1       7.682   0.633  -7.222  1.00  0.00     0.027 C 
BRANCH   3   4
ATOM      4  C   UNL     1       7.445  -0.818  -7.664  1.00  0.00     0.004 C 
BRANCH   4   5
ATOM      5  C   UNL     1       6.485  -0.905  -8.863  1.00  0.00     0.000 C 
BRANCH   5   6
ATOM      6  C   UNL     1       5.055  -0.464  -8.512  1.00  0.00     0.000 C 
BRANCH   6   7
ATOM      7  C   UNL     1       4.148  -1.640  -8.119  1.00  0.00     0.000 C 
BRANCH   7   8
ATOM      8  C   UNL     1       2.694  -1.178  -7.941  1.00  0.00     0.006 C 
BRANCH   8   9
ATOM      9  C   UNL     1       2.412   0.149  -8.659  1.00  0.00     0.053 C 
BRANCH   9  10
ATOM     10  C   UNL     1       1.392   0.972  -7.933  1.00  0.00     0.041 C 
ATOM     11  O   UNL     1       1.324   2.214  -8.127  1.00  0.00    -0.550 OA
ATOM     12  O   UNL     1       0.539   0.372  -7.014  1.00  0.00    -0.550 OA
ENDBRANCH   9  10
ENDBRANCH   8   9
ENDBRANCH   7   8
ENDBRANCH   6   7
ENDBRANCH   5   6
ENDBRANCH   4   5
ENDBRANCH   3   4
ENDBRANCH   1   3
BRANCH   2  13
ATOM     13  C   UNL     1       9.898   2.550  -8.120  1.00  0.00     0.027 C 
BRANCH  13  14
ATOM     14  C   UNL     1      10.537   1.877  -9.346  1.00  0.00     0.004 C 
BRANCH  14  15
ATOM     15  C   UNL     1       9.480   1.372 -10.343  1.00  0.00     0.000 C 
BRANCH  15  16
ATOM     16  C   UNL     1       9.401   2.245 -11.607  1.00  0.00     0.000 C 
BRANCH  16  17
ATOM     17  C   UNL     1       7.957   2.657 -11.943  1.00  0.00    -0.000 C 
BRANCH  17  18
ATOM     18  C   UNL     1       6.958   2.274 -10.839  1.00  0.00    -0.000 C 
BRANCH  18  19
ATOM     19  C   UNL     1       5.614   1.778 -11.398  1.00  0.00    -0.003 C 
ATOM     20  C   UNL     1       4.442   2.459 -10.695  1.00  0.00     0.004 C 
ENDBRANCH  18  19
ENDBRANCH  17  18
ENDBRANCH  16  17
ENDBRANCH  15  16
ENDBRANCH  14  15
ENDBRANCH  13  14
ENDBRANCH   2  13
TORSDOF 15
ENDMDL
MODEL 2
REMARK VINA RESULT:    -4.086      3.863      5.099
REMARK INTER + INTRA:          -9.668
REMARK INTER:                  -7.324
REMARK INTRA:                  -2.344
REMARK UNBOUND:                -1.999
REMARK SMILES CCCCCCCCC=CCCCCCCCC(=O)[O-]
REMARK SMILES IDX 10 1 9 2 11 3 12 4 13 5 14 6 15 7 16 8 17 9 18 10 19 11
REMARK SMILES IDX 20 12 8 13 7 14 6 15 5 16 4 17 3 18 2 19 1 20
REMARK H PARENT
REMARK Flexibility Score: inf
ROOT
ATOM      1  C   UNL     1       8.407  -0.598  -7.210  1.00  0.00    -0.031 C 
ATOM      2  C   UNL     1       9.468  -0.431  -6.399  1.00  0.00    -0.031 C 
ENDROOT
BRANCH   1   3
ATOM      3  C   UNL     1       7.372   0.462  -7.497  1.00  0.00     0.027 C 
BRANCH   3   4
ATOM      4  C   UNL     1       6.119  -0.123  -8.166  1.00  0.00     0.004 C 
BRANCH   4   5
ATOM      5  C   UNL     1       6.328  -1.584  -8.602  1.00  0.00     0.000 C 
BRANCH   5   6
ATOM      6  C   UNL     1       5.147  -2.491  -8.221  1.00  0.00     0.000 C 
BRANCH   6   7
ATOM      7  C   UNL     1       5.528  -3.562  -7.188  1.00  0.00     0.000 C 
BRANCH   7   8
ATOM      8  C   UNL     1       6.969  -4.048  -7.405  1.00  0.00     0.006 C 
BRANCH   8   9
ATOM      9  C   UNL     1       7.786  -4.049  -6.106  1.00  0.00     0.053 C 
BRANCH   9  10
ATOM     10  C   UNL     1       7.871  -5.415  -5.498  1.00  0.00     0.041 C 
ATOM     11  O   UNL     1       8.405  -5.576  -4.370  1.00  0.00    -0.550 OA
ATOM     12  O   UNL     1       7.390  -6.518  -6.195  1.00  0.00    -0.550 OA
ENDBRANCH   9  10
ENDBRANCH   8   9
ENDBRANCH   7   8
ENDBRANCH   6   7
ENDBRANCH   5   6
ENDBRANCH   4   5
ENDBRANCH   3   4
ENDBRANCH   1   3
BRANCH   2  13
ATOM     13  C   UNL     1       9.833   0.865  -5.717  1.00  0.00     0.027 C 
BRANCH  13  14
ATOM     14  C   UNL     1      11.166   1.429  -6.234  1.00  0.00     0.004 C 
BRANCH  14  15
ATOM     15  C   UNL     1      10.988   2.797  -6.914  1.00  0.00     0.000 C 
BRANCH  15  16
ATOM     16  C   UNL     1      10.178   2.703  -8.218  1.00  0.00     0.000 C 
BRANCH  16  17
ATOM     17  C   UNL     1      10.937   1.947  -9.324  1.00  0.00    -0.000 C 
BRANCH  17  18
ATOM     18  C   UNL     1      10.031   0.991 -10.118  1.00  0.00    -0.000 C 
BRANCH  18  19
ATOM     19  C   UNL     1       8.801   1.695 -10.714  1.00  0.00    -0.003 C 
ATOM     20  C   UNL     1       9.186   2.533 -11.931  1.00  0.00     0.004 C 
ENDBRANCH  18  19
ENDBRANCH  17  18
ENDBRANCH  16  17
ENDBRANCH  15  16
ENDBRANCH  14  15
ENDBRANCH  13  14
ENDBRANCH   2  13
TORSDOF 15
ENDMDL
MODEL 3
REMARK VINA RESULT:    -4.050      1.181      2.364
REMARK INTER + INTRA:          -9.600
REMARK INTER:                  -7.825
REMARK INTRA:                  -1.775
REMARK UNBOUND:                -1.999
REMARK SMILES CCCCCCCCC=CCCCCCCCC(=O)[O-]
REMARK SMILES IDX 10 1 9 2 11 3 12 4 13 5 14 6 15 7 16 8 17 9 18 10 19 11
REMARK SMILES IDX 20 12 8 13 7 14 6 15 5 16 4 17 3 18 2 19 1 20
REMARK H PARENT
REMARK Flexibility Score: inf
ROOT
ATOM      1  C   UNL     1       8.762  -0.430  -6.957  1.00  0.00    -0.031 C 
ATOM      2  C   UNL     1       9.710  -0.015  -6.096  1.00  0.00    -0.031 C 
ENDROOT
BRANCH   1   3
ATOM      3  C   UNL     1       7.598   0.411  -7.421  1.00  0.00     0.027 C 
BRANCH   3   4
ATOM      4  C   UNL     1       6.485  -0.442  -8.046  1.00  0.00     0.004 C 
BRANCH   4   5
ATOM      5  C   UNL     1       5.282   0.411  -8.484  1.00  0.00     0.000 C 
BRANCH   5   6
ATOM      6  C   UNL     1       4.335  -0.340  -9.434  1.00  0.00     0.000 C 
BRANCH   6   7
ATOM      7  C   UNL     1       3.726  -1.598  -8.797  1.00  0.00     0.000 C 
BRANCH   7   8
ATOM      8  C   UNL     1       2.530  -1.238  -7.904  1.00  0.00     0.006 C 
BRANCH   8   9
ATOM      9  C   UNL     1       1.516  -0.336  -8.622  1.00  0.00     0.053 C 
BRANCH   9  10
ATOM     10  C   UNL     1       1.037   0.779  -7.743  1.00  0.00     0.041 C 
ATOM     11  O   UNL     1       1.426   1.959  -7.946  1.00  0.00    -0.550 OA
ATOM     12  O   UNL     1       0.188   0.509  -6.676  1.00  0.00    -0.550 OA
ENDBRANCH   9  10
ENDBRANCH   8   9
ENDBRANCH   7   8
ENDBRANCH   6   7
ENDBRANCH   5   6
ENDBRANCH   4   5
ENDBRANCH   3   4
ENDBRANCH   1   3
BRANCH   2  13
ATOM     13  C   UNL     1       9.801   1.379  -5.524  1.00  0.00     0.027 C 
BRANCH  13  14
ATOM     14  C   UNL     1      10.908   2.204  -6.199  1.00  0.00     0.004 C 
BRANCH  14  15
ATOM     15  C   UNL     1      10.406   2.910  -7.470  1.00  0.00     0.000 C 
BRANCH  15  16
ATOM     16  C   UNL     1      11.536   3.179  -8.478  1.00  0.00     0.000 C 
BRANCH  16  17
ATOM     17  C   UNL     1      11.432   2.283  -9.725  1.00  0.00    -0.000 C 
BRANCH  17  18
ATOM     18  C   UNL     1      10.080   1.557  -9.824  1.00  0.00    -0.000 C 
BRANCH  18  19
ATOM     19  C   UNL     1       9.266   1.983 -11.056  1.00  0.00    -0.003 C 
ATOM     20  C   UNL     1       7.774   2.037 -10.735  1.00  0.00     0.004 C 
ENDBRANCH  18  19
ENDBRANCH  17  18
ENDBRANCH  16  17
ENDBRANCH  15  16
ENDBRANCH  14  15
ENDBRANCH  13  14
ENDBRANCH   2  13
TORSDOF 15
ENDMDL
MODEL 4
REMARK VINA RESULT:    -4.037      3.886      5.687
REMARK INTER + INTRA:          -9.576
REMARK INTER:                  -7.187
REMARK INTRA:                  -2.389
REMARK UNBOUND:                -1.999
REMARK SMILES CCCCCCCCC=CCCCCCCCC(=O)[O-]
REMARK SMILES IDX 10 1 9 2 11 3 12 4 13 5 14 6 15 7 16 8 17 9 18 10 19 11
REMARK SMILES IDX 20 12 8 13 7 14 6 15 5 16 4 17 3 18 2 19 1 20
REMARK H PARENT
REMARK Flexibility Score: inf
ROOT
ATOM      1  C   UNL     1       5.891  -0.040  -8.363  1.00  0.00    -0.031 C 
ATOM      2  C   UNL     1       7.009   0.245  -7.670  1.00  0.00    -0.031 C 
ENDROOT
BRANCH   1   3
ATOM      3  C   UNL     1       5.539  -1.407  -8.896  1.00  0.00     0.027 C 
BRANCH   3   4
ATOM      4  C   UNL     1       4.579  -2.159  -7.963  1.00  0.00     0.004 C 
BRANCH   4   5
ATOM      5  C   UNL     1       5.049  -3.599  -7.690  1.00  0.00     0.000 C 
BRANCH   5   6
ATOM      6  C   UNL     1       6.222  -4.021  -8.590  1.00  0.00     0.000 C 
BRANCH   6   7
ATOM      7  C   UNL     1       7.486  -4.377  -7.794  1.00  0.00     0.000 C 
BRANCH   7   8
ATOM      8  C   UNL     1       7.244  -4.233  -6.285  1.00  0.00     0.006 C 
BRANCH   8   9
ATOM      9  C   UNL     1       8.289  -4.988  -5.451  1.00  0.00     0.053 C 
BRANCH   9  10
ATOM     10  C   UNL     1       8.878  -4.126  -4.377  1.00  0.00     0.041 C 
ATOM     11  O   UNL     1       8.489  -4.243  -3.185  1.00  0.00    -0.550 OA
ATOM     12  O   UNL     1       9.831  -3.167  -4.698  1.00  0.00    -0.550 OA
ENDBRANCH   9  10
ENDBRANCH   8   9
ENDBRANCH   7   8
ENDBRANCH   6   7
ENDBRANCH   5   6
ENDBRANCH   4   5
ENDBRANCH   3   4
ENDBRANCH   1   3
BRANCH   2  13
ATOM     13  C   UNL     1       8.043  -0.771  -7.249  1.00  0.00     0.027 C 
BRANCH  13  14
ATOM     14  C   UNL     1       9.228  -0.116  -6.522  1.00  0.00     0.004 C 
BRANCH  14  15
ATOM     15  C   UNL     1       9.158   1.420  -6.575  1.00  0.00     0.000 C 
BRANCH  15  16
ATOM     16  C   UNL     1      10.225   2.025  -7.503  1.00  0.00     0.000 C 
BRANCH  16  17
ATOM     17  C   UNL     1      10.983   0.948  -8.300  1.00  0.00    -0.000 C 
BRANCH  17  18
ATOM     18  C   UNL     1      10.622   0.952  -9.795  1.00  0.00    -0.000 C 
BRANCH  18  19
ATOM     19  C   UNL     1       9.573   2.018 -10.150  1.00  0.00    -0.003 C 
ATOM     20  C   UNL     1       8.366   1.390 -10.842  1.00  0.00     0.004 C 
ENDBRANCH  18  19
ENDBRANCH  17  18
ENDBRANCH  16  17
ENDBRANCH  15  16
ENDBRANCH  14  15
ENDBRANCH  13  14
ENDBRANCH   2  13
TORSDOF 15
ENDMDL
MODEL 5
REMARK VINA RESULT:    -3.968      3.731      4.987
REMARK INTER + INTRA:          -9.446
REMARK INTER:                  -6.713
REMARK INTRA:                  -2.733
REMARK UNBOUND:                -1.999
REMARK SMILES CCCCCCCCC=CCCCCCCCC(=O)[O-]
REMARK SMILES IDX 10 1 9 2 11 3 12 4 13 5 14 6 15 7 16 8 17 9 18 10 19 11
REMARK SMILES IDX 20 12 8 13 7 14 6 15 5 16 4 17 3 18 2 19 1 20
REMARK H PARENT
REMARK Flexibility Score: inf
ROOT
ATOM      1  C   UNL     1       7.638  -0.554  -7.473  1.00  0.00    -0.031 C 
ATOM      2  C   UNL     1       8.738  -0.084  -6.855  1.00  0.00    -0.031 C 
ENDROOT
BRANCH   1   3
ATOM      3  C   UNL     1       6.516   0.307  -7.999  1.00  0.00     0.027 C 
BRANCH   3   4
ATOM      4  C   UNL     1       5.547  -0.488  -8.885  1.00  0.00     0.004 C 
BRANCH   4   5
ATOM      5  C   UNL     1       4.921  -1.676  -8.133  1.00  0.00     0.000 C 
BRANCH   5   6
ATOM      6  C   UNL     1       5.090  -3.008  -8.880  1.00  0.00     0.000 C 
BRANCH   6   7
ATOM      7  C   UNL     1       6.358  -3.768  -8.464  1.00  0.00     0.000 C 
BRANCH   7   8
ATOM      8  C   UNL     1       6.399  -3.978  -6.943  1.00  0.00     0.006 C 
BRANCH   8   9
ATOM      9  C   UNL     1       7.827  -3.905  -6.382  1.00  0.00     0.053 C 
BRANCH   9  10
ATOM     10  C   UNL     1       7.987  -4.743  -5.151  1.00  0.00     0.041 C 
ATOM     11  O   UNL     1       7.634  -5.952  -5.155  1.00  0.00    -0.550 OA
ATOM     12  O   UNL     1       8.494  -4.179  -3.986  1.00  0.00    -0.550 OA
ENDBRANCH   9  10
ENDBRANCH   8   9
ENDBRANCH   7   8
ENDBRANCH   6   7
ENDBRANCH   5   6
ENDBRANCH   4   5
ENDBRANCH   3   4
ENDBRANCH   1   3
BRANCH   2  13
ATOM     13  C   UNL     1       9.057   1.379  -6.664  1.00  0.00     0.027 C 
BRANCH  13  14
ATOM     14  C   UNL     1      10.388   1.766  -7.330  1.00  0.00     0.004 C 
BRANCH  14  15
ATOM     15  C   UNL     1      10.401   1.429  -8.830  1.00  0.00     0.000 C 
BRANCH  15  16
ATOM     16  C   UNL     1       9.252   2.109  -9.594  1.00  0.00     0.000 C 
BRANCH  16  17
ATOM     17  C   UNL     1       8.932   1.398 -10.922  1.00  0.00    -0.000 C 
BRANCH  17  18
ATOM     18  C   UNL     1       9.603   0.020 -11.034  1.00  0.00    -0.000 C 
BRANCH  18  19
ATOM     19  C   UNL     1       8.604  -1.141 -10.901  1.00  0.00    -0.003 C 
ATOM     20  C   UNL     1       9.251  -2.348 -10.227  1.00  0.00     0.004 C 
ENDBRANCH  18  19
ENDBRANCH  17  18
ENDBRANCH  16  17
ENDBRANCH  15  16
ENDBRANCH  14  15
ENDBRANCH  13  14
ENDBRANCH   2  13
TORSDOF 15
ENDMDL
MODEL 6
REMARK VINA RESULT:    -3.962      1.452      2.652
REMARK INTER + INTRA:          -9.436
REMARK INTER:                  -6.696
REMARK INTRA:                  -2.740
REMARK UNBOUND:                -1.999
REMARK SMILES CCCCCCCCC=CCCCCCCCC(=O)[O-]
REMARK SMILES IDX 10 1 9 2 11 3 12 4 13 5 14 6 15 7 16 8 17 9 18 10 19 11
REMARK SMILES IDX 20 12 8 13 7 14 6 15 5 16 4 17 3 18 2 19 1 20
REMARK H PARENT
REMARK Flexibility Score: inf
ROOT
ATOM      1  C   UNL     1       9.070   0.541  -6.588  1.00  0.00    -0.031 C 
ATOM      2  C   UNL     1      10.014   1.452  -6.892  1.00  0.00    -0.031 C 
ENDROOT
BRANCH   1   3
ATOM      3  C   UNL     1       7.714   0.460  -7.244  1.00  0.00     0.027 C 
BRANCH   3   4
ATOM      4  C   UNL     1       7.342  -0.981  -7.621  1.00  0.00     0.004 C 
BRANCH   4   5
ATOM      5  C   UNL     1       6.045  -1.045  -8.446  1.00  0.00     0.000 C 
BRANCH   5   6
ATOM      6  C   UNL     1       5.245   0.267  -8.398  1.00  0.00     0.000 C 
BRANCH   6   7
ATOM      7  C   UNL     1       4.697   0.682  -9.771  1.00  0.00     0.000 C 
BRANCH   7   8
ATOM      8  C   UNL     1       3.200   0.361  -9.886  1.00  0.00     0.006 C 
BRANCH   8   9
ATOM      9  C   UNL     1       2.367   1.067  -8.808  1.00  0.00     0.053 C 
BRANCH   9  10
ATOM     10  C   UNL     1       1.414   0.129  -8.132  1.00  0.00     0.041 C 
ATOM     11  O   UNL     1       0.172   0.308  -8.228  1.00  0.00    -0.550 OA
ATOM     12  O   UNL     1       1.900  -0.924  -7.367  1.00  0.00    -0.550 OA
ENDBRANCH   9  10
ENDBRANCH   8   9
ENDBRANCH   7   8
ENDBRANCH   6   7
ENDBRANCH   5   6
ENDBRANCH   4   5
ENDBRANCH   3   4
ENDBRANCH   1   3
BRANCH   2  13
ATOM     13  C   UNL     1       9.893   2.481  -7.989  1.00  0.00     0.027 C 
BRANCH  13  14
ATOM     14  C   UNL     1      10.991   2.316  -9.052  1.00  0.00     0.004 C 
BRANCH  14  15
ATOM     15  C   UNL     1      10.405   2.071 -10.453  1.00  0.00     0.000 C 
BRANCH  15  16
ATOM     16  C   UNL     1       8.879   1.874 -10.424  1.00  0.00     0.000 C 
BRANCH  16  17
ATOM     17  C   UNL     1       8.463   0.465 -10.881  1.00  0.00    -0.000 C 
BRANCH  17  18
ATOM     18  C   UNL     1       9.667  -0.458 -11.133  1.00  0.00    -0.000 C 
BRANCH  18  19
ATOM     19  C   UNL     1       9.740  -1.626 -10.137  1.00  0.00    -0.003 C 
ATOM     20  C   UNL     1      10.914  -1.454  -9.175  1.00  0.00     0.004 C 
ENDBRANCH  18  19
ENDBRANCH  17  18
ENDBRANCH  16  17
ENDBRANCH  15  16
ENDBRANCH  14  15
ENDBRANCH  13  14
ENDBRANCH   2  13
TORSDOF 15
ENDMDL
MODEL 7
REMARK VINA RESULT:    -3.959      3.496      4.223
REMARK INTER + INTRA:          -9.431
REMARK INTER:                  -6.283
REMARK INTRA:                  -3.147
REMARK UNBOUND:                -1.999
REMARK SMILES CCCCCCCCC=CCCCCCCCC(=O)[O-]
REMARK SMILES IDX 10 1 9 2 11 3 12 4 13 5 14 6 15 7 16 8 17 9 18 10 19 11
REMARK SMILES IDX 20 12 8 13 7 14 6 15 5 16 4 17 3 18 2 19 1 20
REMARK H PARENT
REMARK Flexibility Score: inf
ROOT
ATOM      1  C   UNL     1       9.335   1.985  -7.366  1.00  0.00    -0.031 C 
ATOM      2  C   UNL     1      10.305   2.514  -8.135  1.00  0.00    -0.031 C 
ENDROOT
BRANCH   1   3
ATOM      3  C   UNL     1       9.493   0.750  -6.513  1.00  0.00     0.027 C 
BRANCH   3   4
ATOM      4  C   UNL     1       8.468  -0.334  -6.874  1.00  0.00     0.004 C 
BRANCH   4   5
ATOM      5  C   UNL     1       7.266   0.242  -7.643  1.00  0.00     0.000 C 
BRANCH   5   6
ATOM      6  C   UNL     1       6.290  -0.845  -8.122  1.00  0.00     0.000 C 
BRANCH   6   7
ATOM      7  C   UNL     1       6.952  -1.871  -9.053  1.00  0.00     0.000 C 
BRANCH   7   8
ATOM      8  C   UNL     1       6.519  -3.300  -8.693  1.00  0.00     0.006 C 
BRANCH   8   9
ATOM      9  C   UNL     1       6.167  -3.445  -7.206  1.00  0.00     0.053 C 
BRANCH   9  10
ATOM     10  C   UNL     1       7.171  -4.280  -6.472  1.00  0.00     0.041 C 
ATOM     11  O   UNL     1       8.153  -3.737  -5.901  1.00  0.00    -0.550 OA
ATOM     12  O   UNL     1       7.042  -5.664  -6.449  1.00  0.00    -0.550 OA
ENDBRANCH   9  10
ENDBRANCH   8   9
ENDBRANCH   7   8
ENDBRANCH   6   7
ENDBRANCH   5   6
ENDBRANCH   4   5
ENDBRANCH   3   4
ENDBRANCH   1   3
BRANCH   2  13
ATOM     13  C   UNL     1      11.724   2.002  -8.201  1.00  0.00     0.027 C 
BRANCH  13  14
ATOM     14  C   UNL     1      11.983   1.198  -9.486  1.00  0.00     0.004 C 
BRANCH  14  15
ATOM     15  C   UNL     1      11.660  -0.295  -9.306  1.00  0.00     0.000 C 
BRANCH  15  16
ATOM     16  C   UNL     1      10.398  -0.719 -10.076  1.00  0.00     0.000 C 
BRANCH  16  17
ATOM     17  C   UNL     1      10.012   0.294 -11.168  1.00  0.00    -0.000 C 
BRANCH  17  18
ATOM     18  C   UNL     1       8.497   0.552 -11.230  1.00  0.00    -0.000 C 
BRANCH  18  19
ATOM     19  C   UNL     1       8.139   2.035 -11.038  1.00  0.00    -0.003 C 
ATOM     20  C   UNL     1       6.662   2.201 -10.685  1.00  0.00     0.004 C 
ENDBRANCH  18  19
ENDBRANCH  17  18
ENDBRANCH  16  17
ENDBRANCH  15  16
ENDBRANCH  14  15
ENDBRANCH  13  14
ENDBRANCH   2  13
TORSDOF 15
ENDMDL
MODEL 8
REMARK VINA RESULT:    -3.907      3.674      4.595
REMARK INTER + INTRA:          -9.332
REMARK INTER:                  -7.122
REMARK INTRA:                  -2.210
REMARK UNBOUND:                -1.999
REMARK SMILES CCCCCCCCC=CCCCCCCCC(=O)[O-]
REMARK SMILES IDX 10 1 9 2 11 3 12 4 13 5 14 6 15 7 16 8 17 9 18 10 19 11
REMARK SMILES IDX 20 12 8 13 7 14 6 15 5 16 4 17 3 18 2 19 1 20
REMARK H PARENT
REMARK Flexibility Score: inf
ROOT
ATOM      1  C   UNL     1       8.014  -0.292  -7.258  1.00  0.00    -0.031 C 
ATOM      2  C   UNL     1       9.159   0.257  -6.811  1.00  0.00    -0.031 C 
ENDROOT
BRANCH   1   3
ATOM      3  C   UNL     1       6.813   0.492  -7.727  1.00  0.00     0.027 C 
BRANCH   3   4
ATOM      4  C   UNL     1       5.729  -0.417  -8.323  1.00  0.00     0.004 C 
BRANCH   4   5
ATOM      5  C   UNL     1       6.323  -1.489  -9.254  1.00  0.00     0.000 C 
BRANCH   5   6
ATOM      6  C   UNL     1       5.668  -2.867  -9.067  1.00  0.00     0.000 C 
BRANCH   6   7
ATOM      7  C   UNL     1       5.462  -3.234  -7.590  1.00  0.00     0.000 C 
BRANCH   7   8
ATOM      8  C   UNL     1       6.394  -4.381  -7.174  1.00  0.00     0.006 C 
BRANCH   8   9
ATOM      9  C   UNL     1       7.564  -3.897  -6.306  1.00  0.00     0.053 C 
BRANCH   9  10
ATOM     10  C   UNL     1       7.939  -4.903  -5.260  1.00  0.00     0.041 C 
ATOM     11  O   UNL     1       8.659  -4.565  -4.284  1.00  0.00    -0.550 OA
ATOM     12  O   UNL     1       7.523  -6.224  -5.384  1.00  0.00    -0.550 OA
ENDBRANCH   9  10
ENDBRANCH   8   9
ENDBRANCH   7   8
ENDBRANCH   6   7
ENDBRANCH   5   6
ENDBRANCH   4   5
ENDBRANCH   3   4
ENDBRANCH   1   3
BRANCH   2  13
ATOM     13  C   UNL     1       9.450   1.738  -6.786  1.00  0.00     0.027 C 
BRANCH  13  14
ATOM     14  C   UNL     1      10.186   2.198  -8.055  1.00  0.00     0.004 C 
BRANCH  14  15
ATOM     15  C   UNL     1      10.908   1.035  -8.755  1.00  0.00     0.000 C 
BRANCH  15  16
ATOM     16  C   UNL     1      10.434   0.838 -10.205  1.00  0.00     0.000 C 
BRANCH  16  17
ATOM     17  C   UNL     1      10.073   2.170 -10.888  1.00  0.00    -0.000 C 
BRANCH  17  18
ATOM     18  C   UNL     1       8.889   2.037 -11.860  1.00  0.00    -0.000 C 
BRANCH  18  19
ATOM     19  C   UNL     1       7.652   1.400 -11.206  1.00  0.00    -0.003 C 
ATOM     20  C   UNL     1       6.586   2.452 -10.910  1.00  0.00     0.004 C 
ENDBRANCH  18  19
ENDBRANCH  17  18
ENDBRANCH  16  17
ENDBRANCH  15  16
ENDBRANCH  14  15
ENDBRANCH  13  14
ENDBRANCH   2  13
TORSDOF 15
ENDMDL
MODEL 9
REMARK VINA RESULT:    -3.881      1.288      2.130
REMARK INTER + INTRA:          -9.283
REMARK INTER:                  -6.402
REMARK INTRA:                  -2.881
REMARK UNBOUND:                -1.999
REMARK SMILES CCCCCCCCC=CCCCCCCCC(=O)[O-]
REMARK SMILES IDX 10 1 9 2 11 3 12 4 13 5 14 6 15 7 16 8 17 9 18 10 19 11
REMARK SMILES IDX 20 12 8 13 7 14 6 15 5 16 4 17 3 18 2 19 1 20
REMARK H PARENT
REMARK Flexibility Score: inf
ROOT
ATOM      1  C   UNL     1       7.228  -0.149  -7.561  1.00  0.00    -0.031 C 
ATOM      2  C   UNL     1       7.841   0.997  -7.211  1.00  0.00    -0.031 C 
ENDROOT
BRANCH   1   3
ATOM      3  C   UNL     1       7.874  -1.513  -7.525  1.00  0.00     0.027 C 
BRANCH   3   4
ATOM      4  C   UNL     1       6.916  -2.616  -7.998  1.00  0.00     0.004 C 
BRANCH   4   5
ATOM      5  C   UNL     1       6.635  -2.528  -9.508  1.00  0.00     0.000 C 
BRANCH   5   6
ATOM      6  C   UNL     1       5.210  -2.046  -9.821  1.00  0.00     0.000 C 
BRANCH   6   7
ATOM      7  C   UNL     1       4.229  -2.297  -8.666  1.00  0.00     0.000 C 
BRANCH   7   8
ATOM      8  C   UNL     1       3.587  -0.984  -8.194  1.00  0.00     0.006 C 
BRANCH   8   9
ATOM      9  C   UNL     1       4.032   0.219  -9.037  1.00  0.00     0.053 C 
BRANCH   9  10
ATOM     10  C   UNL     1       2.963   1.263  -9.131  1.00  0.00     0.041 C 
ATOM     11  O   UNL     1       1.912   1.159  -8.445  1.00  0.00    -0.550 OA
ATOM     12  O   UNL     1       3.112   2.335 -10.003  1.00  0.00    -0.550 OA
ENDBRANCH   9  10
ENDBRANCH   8   9
ENDBRANCH   7   8
ENDBRANCH   6   7
ENDBRANCH   5   6
ENDBRANCH   4   5
ENDBRANCH   3   4
ENDBRANCH   1   3
BRANCH   2  13
ATOM     13  C   UNL     1       9.241   1.087  -6.653  1.00  0.00     0.027 C 
BRANCH  13  14
ATOM     14  C   UNL     1      10.161   1.933  -7.547  1.00  0.00     0.004 C 
BRANCH  14  15
ATOM     15  C   UNL     1      10.572   1.182  -8.825  1.00  0.00     0.000 C 
BRANCH  15  16
ATOM     16  C   UNL     1      10.714   2.119 -10.036  1.00  0.00     0.000 C 
BRANCH  16  17
ATOM     17  C   UNL     1       9.580   1.927 -11.059  1.00  0.00    -0.000 C 
BRANCH  17  18
ATOM     18  C   UNL     1       8.801   0.619 -10.844  1.00  0.00    -0.000 C 
BRANCH  18  19
ATOM     19  C   UNL     1       7.294   0.774 -11.109  1.00  0.00    -0.003 C 
ATOM     20  C   UNL     1       6.793   2.140 -10.648  1.00  0.00     0.004 C 
ENDBRANCH  18  19
ENDBRANCH  17  18
ENDBRANCH  16  17
ENDBRANCH  15  16
ENDBRANCH  14  15
ENDBRANCH  13  14
ENDBRANCH   2  13
TORSDOF 15
ENDMDL
