MODEL 1
REMARK VINA RESULT:    12.761      0.000      0.000
REMARK INTER + INTRA:          12.761
REMARK INTER:                  12.761
REMARK INTRA:                   0.000
REMARK UNBOUND:                 0.000
REMARK SMILES CC1(C)O[C@]2(C)CC[C@H]1CC2
REMARK SMILES IDX 1 1 2 2 9 3 10 4 11 5 5 6 4 7 7 8 8 9 6 10 3 11
REMARK H PARENT
REMARK Flexibility Score: inf
ROOT
ATOM      1  C   UNL     1      14.537   2.759  32.044  1.00  0.00     0.042 C 
ATOM      2  C   UNL     1      14.230   2.743  30.532  1.00  0.00     0.066 C 
ATOM      3  C   UNL     1      12.866   3.477  30.230  1.00  0.00     0.021 C 
ATOM      4  C   UNL     1      12.585   3.385  28.711  1.00  0.00     0.009 C 
ATOM      5  C   UNL     1      12.699   1.908  28.261  1.00  0.00     0.035 C 
ATOM      6  C   UNL     1      12.966   1.000  29.496  1.00  0.00     0.066 C 
ATOM      7  O   UNL     1      14.207   1.376  30.095  1.00  0.00    -0.369 OA
ATOM      8  C   UNL     1      11.819   1.200  30.528  1.00  0.00     0.035 C 
ATOM      9  C   UNL     1      11.725   2.694  30.925  1.00  0.00     0.009 C 
ATOM     10  C   UNL     1      13.047  -0.469  29.070  1.00  0.00     0.042 C 
ATOM     11  C   UNL     1      15.401   3.453  29.818  1.00  0.00     0.042 C 
ENDROOT
TORSDOF 0
ENDMDL
MODEL 2
REMARK VINA RESULT:    12.914      1.290      2.542
REMARK INTER + INTRA:          12.914
REMARK INTER:                  12.914
REMARK INTRA:                   0.000
REMARK UNBOUND:                 0.000
REMARK SMILES CC1(C)O[C@]2(C)CC[C@H]1CC2
REMARK SMILES IDX 1 1 2 2 9 3 10 4 11 5 5 6 4 7 7 8 8 9 6 10 3 11
REMARK H PARENT
REMARK Flexibility Score: inf
ROOT
ATOM      1  C   UNL     1      16.108   3.152  29.224  1.00  0.00     0.042 C 
ATOM      2  C   UNL     1      14.793   3.403  29.992  1.00  0.00     0.066 C 
ATOM      3  C   UNL     1      14.582   2.312  31.113  1.00  0.00     0.021 C 
ATOM      4  C   UNL     1      13.229   2.582  31.813  1.00  0.00     0.009 C 
ATOM      5  C   UNL     1      12.119   2.707  30.741  1.00  0.00     0.035 C 
ATOM      6  C   UNL     1      12.713   2.429  29.331  1.00  0.00     0.066 C 
ATOM      7  O   UNL     1      13.715   3.406  29.044  1.00  0.00    -0.369 OA
ATOM      8  C   UNL     1      13.362   1.015  29.325  1.00  0.00     0.035 C 
ATOM      9  C   UNL     1      14.444   0.929  30.430  1.00  0.00     0.009 C 
ATOM     10  C   UNL     1      11.617   2.517  28.264  1.00  0.00     0.042 C 
ATOM     11  C   UNL     1      14.886   4.813  30.615  1.00  0.00     0.042 C 
ENDROOT
TORSDOF 0
ENDMDL
MODEL 3
REMARK VINA RESULT:    14.140      1.230      3.163
REMARK INTER + INTRA:          14.140
REMARK INTER:                  14.140
REMARK INTRA:                   0.000
REMARK UNBOUND:                 0.000
REMARK SMILES CC1(C)O[C@]2(C)CC[C@H]1CC2
REMARK SMILES IDX 1 1 2 2 9 3 10 4 11 5 5 6 4 7 7 8 8 9 6 10 3 11
REMARK H PARENT
REMARK Flexibility Score: inf
ROOT
ATOM      1  C   UNL     1      11.376   1.322  30.574  1.00  0.00     0.042 C 
ATOM      2  C   UNL     1      12.761   1.439  29.902  1.00  0.00     0.066 C 
ATOM      3  C   UNL     1      13.855   1.886  30.949  1.00  0.00     0.021 C 
ATOM      4  C   UNL     1      15.207   2.036  30.211  1.00  0.00     0.009 C 
ATOM      5  C   UNL     1      15.012   2.944  28.973  1.00  0.00     0.035 C 
ATOM      6  C   UNL     1      13.551   3.476  28.934  1.00  0.00     0.066 C 
ATOM      7  O   UNL     1      12.653   2.371  28.815  1.00  0.00    -0.369 OA
ATOM      8  C   UNL     1      13.253   4.236  30.258  1.00  0.00     0.035 C 
ATOM      9  C   UNL     1      13.489   3.298  31.466  1.00  0.00     0.009 C 
ATOM     10  C   UNL     1      13.353   4.404  27.731  1.00  0.00     0.042 C 
ATOM     11  C   UNL     1      13.104   0.054  29.312  1.00  0.00     0.042 C 
ENDROOT
TORSDOF 0
ENDMDL
MODEL 4
REMARK VINA RESULT:    14.926      1.232      2.864
REMARK INTER + INTRA:          14.926
REMARK INTER:                  14.926
REMARK INTRA:                   0.000
REMARK UNBOUND:                 0.000
REMARK SMILES CC1(C)O[C@]2(C)CC[C@H]1CC2
REMARK SMILES IDX 1 1 2 2 9 3 10 4 11 5 5 6 4 7 7 8 8 9 6 10 3 11
REMARK H PARENT
REMARK Flexibility Score: inf
ROOT
ATOM      1  C   UNL     1      12.743  -0.174  29.445  1.00  0.00     0.042 C 
ATOM      2  C   UNL     1      13.650   1.011  29.840  1.00  0.00     0.066 C 
ATOM      3  C   UNL     1      13.101   1.730  31.133  1.00  0.00     0.021 C 
ATOM      4  C   UNL     1      14.017   2.935  31.452  1.00  0.00     0.009 C 
ATOM      5  C   UNL     1      14.172   3.805  30.180  1.00  0.00     0.035 C 
ATOM      6  C   UNL     1      13.285   3.232  29.038  1.00  0.00     0.066 C 
ATOM      7  O   UNL     1      13.724   1.909  28.723  1.00  0.00    -0.369 OA
ATOM      8  C   UNL     1      11.808   3.178  29.522  1.00  0.00     0.035 C 
ATOM      9  C   UNL     1      11.708   2.323  30.809  1.00  0.00     0.009 C 
ATOM     10  C   UNL     1      13.403   4.104  27.784  1.00  0.00     0.042 C 
ATOM     11  C   UNL     1      15.064   0.443  30.090  1.00  0.00     0.042 C 
ENDROOT
TORSDOF 0
ENDMDL
MODEL 5
REMARK VINA RESULT:    15.560      1.243      3.128
REMARK INTER + INTRA:          15.560
REMARK INTER:                  15.560
REMARK INTRA:                   0.000
REMARK UNBOUND:                 0.000
REMARK SMILES CC1(C)O[C@]2(C)CC[C@H]1CC2
REMARK SMILES IDX 1 1 2 2 9 3 10 4 11 5 5 6 4 7 7 8 8 9 6 10 3 11
REMARK H PARENT
REMARK Flexibility Score: inf
ROOT
ATOM      1  C   UNL     1      12.193   2.852  28.357  1.00  0.00     0.042 C 
ATOM      2  C   UNL     1      12.524   2.435  29.806  1.00  0.00     0.066 C 
ATOM      3  C   UNL     1      13.324   3.576  30.547  1.00  0.00     0.021 C 
ATOM      4  C   UNL     1      13.673   3.085  31.972  1.00  0.00     0.009 C 
ATOM      5  C   UNL     1      14.356   1.699  31.879  1.00  0.00     0.035 C 
ATOM      6  C   UNL     1      14.548   1.305  30.386  1.00  0.00     0.066 C 
ATOM      7  O   UNL     1      13.268   1.208  29.759  1.00  0.00    -0.369 OA
ATOM      8  C   UNL     1      15.384   2.408  29.675  1.00  0.00     0.035 C 
ATOM      9  C   UNL     1      14.676   3.777  29.820  1.00  0.00     0.009 C 
ATOM     10  C   UNL     1      15.254  -0.050  30.280  1.00  0.00     0.042 C 
ATOM     11  C   UNL     1      11.184   2.155  30.521  1.00  0.00     0.042 C 
ENDROOT
TORSDOF 0
ENDMDL
