MODEL 1
REMARK VINA RESULT:    -4.783      0.000      0.000
REMARK INTER + INTRA:         -15.507
REMARK INTER:                 -12.613
REMARK INTRA:                  -2.894
REMARK UNBOUND:                -2.894
REMARK SMILES CCCCCCCCCCCCCCCCCCCCCCCCCCCCCC(=O)[O-]
REMARK SMILES IDX 16 1 17 2 18 3 19 4 20 5 21 6 22 7 23 8 24 9 25 10 26 11
REMARK SMILES IDX 27 12 28 13 29 14 30 15 31 16 32 17 15 18 14 19 13 20 12 21
REMARK SMILES IDX 11 22 10 23 9 24 8 25 7 26 6 27 5 28 4 29 3 30 2 31 1 32
REMARK H PARENT
REMARK Flexibility Score: inf
ROOT
ATOM      1  C   UNL     1      12.115   3.679  53.663  1.00  0.00     0.000 C 
ENDROOT
BRANCH   1   2
ATOM      2  C   UNL     1      11.403   4.851  52.966  1.00  0.00     0.000 C 
BRANCH   2   3
ATOM      3  C   UNL     1      12.356   6.009  52.627  1.00  0.00     0.000 C 
BRANCH   3   4
ATOM      4  C   UNL     1      11.708   7.387  52.854  1.00  0.00     0.000 C 
BRANCH   4   5
ATOM      5  C   UNL     1      10.268   7.458  52.319  1.00  0.00     0.000 C 
BRANCH   5   6
ATOM      6  C   UNL     1      10.221   7.512  50.781  1.00  0.00     0.000 C 
BRANCH   6   7
ATOM      7  C   UNL     1       9.227   8.559  50.253  1.00  0.00     0.000 C 
BRANCH   7   8
ATOM      8  C   UNL     1       8.997   9.710  51.244  1.00  0.00     0.000 C 
BRANCH   8   9
ATOM      9  C   UNL     1       7.505   9.851  51.586  1.00  0.00     0.000 C 
BRANCH   9  10
ATOM     10  C   UNL     1       7.096   9.040  52.827  1.00  0.00     0.000 C 
BRANCH  10  11
ATOM     11  C   UNL     1       7.340   9.742  54.177  1.00  0.00     0.000 C 
BRANCH  11  12
ATOM     12  C   UNL     1       8.819  10.100  54.444  1.00  0.00     0.000 C 
BRANCH  12  13
ATOM     13  C   UNL     1       9.478   9.154  55.463  1.00  0.00     0.006 C 
BRANCH  13  14
ATOM     14  C   UNL     1       8.738   7.815  55.573  1.00  0.00     0.053 C 
BRANCH  14  15
ATOM     15  C   UNL     1       9.689   6.663  55.691  1.00  0.00     0.041 C 
ATOM     16  O   UNL     1      10.900   6.868  55.967  1.00  0.00    -0.550 OA
ATOM     17  O   UNL     1       9.242   5.364  55.478  1.00  0.00    -0.550 OA
ENDBRANCH  14  15
ENDBRANCH  13  14
ENDBRANCH  12  13
ENDBRANCH  11  12
ENDBRANCH  10  11
ENDBRANCH   9  10
ENDBRANCH   8   9
ENDBRANCH   7   8
ENDBRANCH   6   7
ENDBRANCH   5   6
ENDBRANCH   4   5
ENDBRANCH   3   4
ENDBRANCH   2   3
ENDBRANCH   1   2
BRANCH   1  18
ATOM     18  C   UNL     1      12.514   4.012  55.111  1.00  0.00     0.000 C 
BRANCH  18  19
ATOM     19  C   UNL     1      11.722   3.192  56.140  1.00  0.00     0.000 C 
BRANCH  19  20
ATOM     20  C   UNL     1      12.662   2.509  57.145  1.00  0.00     0.000 C 
BRANCH  20  21
ATOM     21  C   UNL     1      12.771   3.285  58.468  1.00  0.00     0.000 C 
BRANCH  21  22
ATOM     22  C   UNL     1      13.312   2.420  59.621  1.00  0.00     0.000 C 
BRANCH  22  23
ATOM     23  C   UNL     1      13.819   1.049  59.133  1.00  0.00     0.000 C 
BRANCH  23  24
ATOM     24  C   UNL     1      14.783   0.354  60.113  1.00  0.00    -0.000 C 
BRANCH  24  25
ATOM     25  C   UNL     1      16.222   0.913  60.091  1.00  0.00    -0.000 C 
BRANCH  25  26
ATOM     26  C   UNL     1      17.313  -0.119  59.738  1.00  0.00    -0.000 C 
BRANCH  26  27
ATOM     27  C   UNL     1      17.887  -0.023  58.308  1.00  0.00    -0.000 C 
BRANCH  27  28
ATOM     28  C   UNL     1      17.245  -0.967  57.275  1.00  0.00    -0.000 C 
BRANCH  28  29
ATOM     29  C   UNL     1      16.478  -0.216  56.177  1.00  0.00    -0.000 C 
BRANCH  29  30
ATOM     30  C   UNL     1      16.210   1.238  56.590  1.00  0.00    -0.000 C 
BRANCH  30  31
ATOM     31  C   UNL     1      16.574   2.243  55.487  1.00  0.00    -0.003 C 
ATOM     32  C   UNL     1      15.733   3.517  55.549  1.00  0.00     0.004 C 
ENDBRANCH  30  31
ENDBRANCH  29  30
ENDBRANCH  28  29
ENDBRANCH  27  28
ENDBRANCH  26  27
ENDBRANCH  25  26
ENDBRANCH  24  25
ENDBRANCH  23  24
ENDBRANCH  22  23
ENDBRANCH  21  22
ENDBRANCH  20  21
ENDBRANCH  19  20
ENDBRANCH  18  19
ENDBRANCH   1  18
TORSDOF 28
ENDMDL
MODEL 2
REMARK VINA RESULT:    -4.201      1.432     10.181
REMARK INTER + INTRA:         -13.972
REMARK INTER:                 -11.898
REMARK INTRA:                  -2.073
REMARK UNBOUND:                -2.894
REMARK SMILES CCCCCCCCCCCCCCCCCCCCCCCCCCCCCC(=O)[O-]
REMARK SMILES IDX 16 1 17 2 18 3 19 4 20 5 21 6 22 7 23 8 24 9 25 10 26 11
REMARK SMILES IDX 27 12 28 13 29 14 30 15 31 16 32 17 15 18 14 19 13 20 12 21
REMARK SMILES IDX 11 22 10 23 9 24 8 25 7 26 6 27 5 28 4 29 3 30 2 31 1 32
REMARK H PARENT
REMARK Flexibility Score: inf
ROOT
ATOM      1  C   UNL     1      12.994   4.307  54.273  1.00  0.00     0.000 C 
ENDROOT
BRANCH   1   2
ATOM      2  C   UNL     1      13.904   5.125  55.205  1.00  0.00     0.000 C 
BRANCH   2   3
ATOM      3  C   UNL     1      15.127   4.329  55.690  1.00  0.00     0.000 C 
BRANCH   3   4
ATOM      4  C   UNL     1      14.995   2.822  55.408  1.00  0.00     0.000 C 
BRANCH   4   5
ATOM      5  C   UNL     1      16.360   2.129  55.250  1.00  0.00     0.000 C 
BRANCH   5   6
ATOM      6  C   UNL     1      16.407   0.768  55.965  1.00  0.00     0.000 C 
BRANCH   6   7
ATOM      7  C   UNL     1      16.901   0.875  57.417  1.00  0.00     0.000 C 
BRANCH   7   8
ATOM      8  C   UNL     1      17.690  -0.364  57.867  1.00  0.00     0.000 C 
BRANCH   8   9
ATOM      9  C   UNL     1      17.865  -0.379  59.395  1.00  0.00     0.000 C 
BRANCH   9  10
ATOM     10  C   UNL     1      16.818   0.479  60.125  1.00  0.00     0.000 C 
BRANCH  10  11
ATOM     11  C   UNL     1      15.385  -0.089  60.116  1.00  0.00     0.000 C 
BRANCH  11  12
ATOM     12  C   UNL     1      14.280   0.990  60.125  1.00  0.00     0.000 C 
BRANCH  12  13
ATOM     13  C   UNL     1      13.624   1.170  58.744  1.00  0.00     0.006 C 
BRANCH  13  14
ATOM     14  C   UNL     1      13.638   2.633  58.283  1.00  0.00     0.053 C 
BRANCH  14  15
ATOM     15  C   UNL     1      12.305   3.060  57.748  1.00  0.00     0.041 C 
ATOM     16  O   UNL     1      11.889   2.606  56.650  1.00  0.00    -0.550 OA
ATOM     17  O   UNL     1      11.531   3.973  58.453  1.00  0.00    -0.550 OA
ENDBRANCH  14  15
ENDBRANCH  13  14
ENDBRANCH  12  13
ENDBRANCH  11  12
ENDBRANCH  10  11
ENDBRANCH   9  10
ENDBRANCH   8   9
ENDBRANCH   7   8
ENDBRANCH   6   7
ENDBRANCH   5   6
ENDBRANCH   4   5
ENDBRANCH   3   4
ENDBRANCH   2   3
ENDBRANCH   1   2
BRANCH   1  18
ATOM     18  C   UNL     1      12.641   5.065  52.982  1.00  0.00     0.000 C 
BRANCH  18  19
ATOM     19  C   UNL     1      11.238   5.688  53.034  1.00  0.00     0.000 C 
BRANCH  19  20
ATOM     20  C   UNL     1      11.278   7.175  52.654  1.00  0.00     0.000 C 
BRANCH  20  21
ATOM     21  C   UNL     1      10.051   7.606  51.835  1.00  0.00     0.000 C 
BRANCH  21  22
ATOM     22  C   UNL     1       9.853   9.133  51.820  1.00  0.00     0.000 C 
BRANCH  22  23
ATOM     23  C   UNL     1       8.533   9.543  51.137  1.00  0.00     0.000 C 
BRANCH  23  24
ATOM     24  C   UNL     1       7.270   9.080  51.888  1.00  0.00    -0.000 C 
BRANCH  24  25
ATOM     25  C   UNL     1       7.050   9.776  53.248  1.00  0.00    -0.000 C 
BRANCH  25  26
ATOM     26  C   UNL     1       7.462   8.940  54.478  1.00  0.00    -0.000 C 
BRANCH  26  27
ATOM     27  C   UNL     1       8.802   9.337  55.136  1.00  0.00    -0.000 C 
BRANCH  27  28
ATOM     28  C   UNL     1       9.689   8.161  55.584  1.00  0.00    -0.000 C 
BRANCH  28  29
ATOM     29  C   UNL     1       9.126   6.795  55.167  1.00  0.00    -0.000 C 
BRANCH  29  30
ATOM     30  C   UNL     1       9.621   5.687  56.107  1.00  0.00    -0.000 C 
BRANCH  30  31
ATOM     31  C   UNL     1       8.911   4.346  55.866  1.00  0.00    -0.003 C 
ATOM     32  C   UNL     1       9.666   3.446  54.889  1.00  0.00     0.004 C 
ENDBRANCH  30  31
ENDBRANCH  29  30
ENDBRANCH  28  29
ENDBRANCH  27  28
ENDBRANCH  26  27
ENDBRANCH  25  26
ENDBRANCH  24  25
ENDBRANCH  23  24
ENDBRANCH  22  23
ENDBRANCH  21  22
ENDBRANCH  20  21
ENDBRANCH  19  20
ENDBRANCH  18  19
ENDBRANCH   1  18
TORSDOF 28
ENDMDL
MODEL 3
REMARK VINA RESULT:    -4.057      2.462      9.280
REMARK INTER + INTRA:         -13.592
REMARK INTER:                 -10.749
REMARK INTRA:                  -2.843
REMARK UNBOUND:                -2.894
REMARK SMILES CCCCCCCCCCCCCCCCCCCCCCCCCCCCCC(=O)[O-]
REMARK SMILES IDX 16 1 17 2 18 3 19 4 20 5 21 6 22 7 23 8 24 9 25 10 26 11
REMARK SMILES IDX 27 12 28 13 29 14 30 15 31 16 32 17 15 18 14 19 13 20 12 21
REMARK SMILES IDX 11 22 10 23 9 24 8 25 7 26 6 27 5 28 4 29 3 30 2 31 1 32
REMARK H PARENT
REMARK Flexibility Score: inf
ROOT
ATOM      1  C   UNL     1      10.318   9.291  55.741  1.00  0.00     0.000 C 
ENDROOT
BRANCH   1   2
ATOM      2  C   UNL     1      10.627   7.824  55.397  1.00  0.00     0.000 C 
BRANCH   2   3
ATOM      3  C   UNL     1       9.428   6.892  55.634  1.00  0.00     0.000 C 
BRANCH   3   4
ATOM      4  C   UNL     1       9.684   5.464  55.120  1.00  0.00     0.000 C 
BRANCH   4   5
ATOM      5  C   UNL     1       9.889   4.453  56.261  1.00  0.00     0.000 C 
BRANCH   5   6
ATOM      6  C   UNL     1      10.722   5.040  57.415  1.00  0.00     0.000 C 
BRANCH   6   7
ATOM      7  C   UNL     1      11.725   4.031  57.997  1.00  0.00     0.000 C 
BRANCH   7   8
ATOM      8  C   UNL     1      12.026   2.873  57.035  1.00  0.00     0.000 C 
BRANCH   8   9
ATOM      9  C   UNL     1      12.932   1.825  57.702  1.00  0.00     0.000 C 
BRANCH   9  10
ATOM     10  C   UNL     1      13.356   2.221  59.127  1.00  0.00     0.000 C 
BRANCH  10  11
ATOM     11  C   UNL     1      14.320   1.238  59.820  1.00  0.00     0.000 C 
BRANCH  11  12
ATOM     12  C   UNL     1      15.156   0.381  58.844  1.00  0.00     0.000 C 
BRANCH  12  13
ATOM     13  C   UNL     1      16.654   0.384  59.195  1.00  0.00     0.006 C 
BRANCH  13  14
ATOM     14  C   UNL     1      17.512  -0.220  58.076  1.00  0.00     0.053 C 
BRANCH  14  15
ATOM     15  C   UNL     1      17.071   0.248  56.723  1.00  0.00     0.041 C 
ATOM     16  O   UNL     1      16.559  -0.565  55.908  1.00  0.00    -0.550 OA
ATOM     17  O   UNL     1      17.241   1.576  56.355  1.00  0.00    -0.550 OA
ENDBRANCH  14  15
ENDBRANCH  13  14
ENDBRANCH  12  13
ENDBRANCH  11  12
ENDBRANCH  10  11
ENDBRANCH   9  10
ENDBRANCH   8   9
ENDBRANCH   7   8
ENDBRANCH   6   7
ENDBRANCH   5   6
ENDBRANCH   4   5
ENDBRANCH   3   4
ENDBRANCH   2   3
ENDBRANCH   1   2
BRANCH   1  18
ATOM     18  C   UNL     1       9.261   9.904  54.807  1.00  0.00     0.000 C 
BRANCH  18  19
ATOM     19  C   UNL     1       7.851   9.872  55.416  1.00  0.00     0.000 C 
BRANCH  19  20
ATOM     20  C   UNL     1       6.875   9.105  54.512  1.00  0.00     0.000 C 
BRANCH  20  21
ATOM     21  C   UNL     1       6.876   9.630  53.067  1.00  0.00     0.000 C 
BRANCH  21  22
ATOM     22  C   UNL     1       7.565   8.665  52.085  1.00  0.00     0.000 C 
BRANCH  22  23
ATOM     23  C   UNL     1       8.529   9.396  51.129  1.00  0.00     0.000 C 
BRANCH  23  24
ATOM     24  C   UNL     1       9.836   8.628  50.852  1.00  0.00    -0.000 C 
BRANCH  24  25
ATOM     25  C   UNL     1      10.343   7.790  52.045  1.00  0.00    -0.000 C 
BRANCH  25  26
ATOM     26  C   UNL     1      11.174   6.549  51.658  1.00  0.00    -0.000 C 
BRANCH  26  27
ATOM     27  C   UNL     1      12.095   5.991  52.765  1.00  0.00    -0.000 C 
BRANCH  27  28
ATOM     28  C   UNL     1      12.118   4.457  52.891  1.00  0.00    -0.000 C 
BRANCH  28  29
ATOM     29  C   UNL     1      12.766   3.975  54.198  1.00  0.00    -0.000 C 
BRANCH  29  30
ATOM     30  C   UNL     1      13.542   5.113  54.877  1.00  0.00    -0.000 C 
BRANCH  30  31
ATOM     31  C   UNL     1      14.633   4.598  55.829  1.00  0.00    -0.003 C 
ATOM     32  C   UNL     1      15.275   3.300  55.342  1.00  0.00     0.004 C 
ENDBRANCH  30  31
ENDBRANCH  29  30
ENDBRANCH  28  29
ENDBRANCH  27  28
ENDBRANCH  26  27
ENDBRANCH  25  26
ENDBRANCH  24  25
ENDBRANCH  23  24
ENDBRANCH  22  23
ENDBRANCH  21  22
ENDBRANCH  20  21
ENDBRANCH  19  20
ENDBRANCH  18  19
ENDBRANCH   1  18
TORSDOF 28
ENDMDL
MODEL 4
REMARK VINA RESULT:    -3.945      1.777     10.191
REMARK INTER + INTRA:         -13.297
REMARK INTER:                 -11.012
REMARK INTRA:                  -2.285
REMARK UNBOUND:                -2.894
REMARK SMILES CCCCCCCCCCCCCCCCCCCCCCCCCCCCCC(=O)[O-]
REMARK SMILES IDX 16 1 17 2 18 3 19 4 20 5 21 6 22 7 23 8 24 9 25 10 26 11
REMARK SMILES IDX 27 12 28 13 29 14 30 15 31 16 32 17 15 18 14 19 13 20 12 21
REMARK SMILES IDX 11 22 10 23 9 24 8 25 7 26 6 27 5 28 4 29 3 30 2 31 1 32
REMARK H PARENT
REMARK Flexibility Score: inf
ROOT
ATOM      1  C   UNL     1      10.354   5.313  56.904  1.00  0.00     0.000 C 
ENDROOT
BRANCH   1   2
ATOM      2  C   UNL     1      11.391   4.181  56.812  1.00  0.00     0.000 C 
BRANCH   2   3
ATOM      3  C   UNL     1      12.819   4.701  56.580  1.00  0.00     0.000 C 
BRANCH   3   4
ATOM      4  C   UNL     1      13.592   3.855  55.552  1.00  0.00     0.000 C 
BRANCH   4   5
ATOM      5  C   UNL     1      14.968   3.406  56.072  1.00  0.00     0.000 C 
BRANCH   5   6
ATOM      6  C   UNL     1      15.540   2.230  55.261  1.00  0.00     0.000 C 
BRANCH   6   7
ATOM      7  C   UNL     1      16.657   1.481  56.006  1.00  0.00     0.000 C 
BRANCH   7   8
ATOM      8  C   UNL     1      16.646  -0.030  55.728  1.00  0.00     0.000 C 
BRANCH   8   9
ATOM      9  C   UNL     1      17.209  -0.813  56.925  1.00  0.00     0.000 C 
BRANCH   9  10
ATOM     10  C   UNL     1      17.730   0.102  58.047  1.00  0.00     0.000 C 
BRANCH  10  11
ATOM     11  C   UNL     1      17.747  -0.531  59.452  1.00  0.00     0.000 C 
BRANCH  11  12
ATOM     12  C   UNL     1      16.357  -0.617  60.122  1.00  0.00     0.000 C 
BRANCH  12  13
ATOM     13  C   UNL     1      15.593   0.718  60.059  1.00  0.00     0.006 C 
BRANCH  13  14
ATOM     14  C   UNL     1      14.095   0.514  59.797  1.00  0.00     0.053 C 
BRANCH  14  15
ATOM     15  C   UNL     1      13.606   1.373  58.671  1.00  0.00     0.041 C 
ATOM     16  O   UNL     1      13.283   0.852  57.571  1.00  0.00    -0.550 OA
ATOM     17  O   UNL     1      13.525   2.751  58.829  1.00  0.00    -0.550 OA
ENDBRANCH  14  15
ENDBRANCH  13  14
ENDBRANCH  12  13
ENDBRANCH  11  12
ENDBRANCH  10  11
ENDBRANCH   9  10
ENDBRANCH   8   9
ENDBRANCH   7   8
ENDBRANCH   6   7
ENDBRANCH   5   6
ENDBRANCH   4   5
ENDBRANCH   3   4
ENDBRANCH   2   3
ENDBRANCH   1   2
BRANCH   1  18
ATOM     18  C   UNL     1       9.505   5.437  55.628  1.00  0.00     0.000 C 
BRANCH  18  19
ATOM     19  C   UNL     1       8.847   6.819  55.493  1.00  0.00     0.000 C 
BRANCH  19  20
ATOM     20  C   UNL     1       9.893   7.940  55.586  1.00  0.00     0.000 C 
BRANCH  20  21
ATOM     21  C   UNL     1       9.272   9.337  55.419  1.00  0.00     0.000 C 
BRANCH  21  22
ATOM     22  C   UNL     1       7.736   9.298  55.328  1.00  0.00     0.000 C 
BRANCH  22  23
ATOM     23  C   UNL     1       7.212   9.921  54.019  1.00  0.00     0.000 C 
BRANCH  23  24
ATOM     24  C   UNL     1       6.881   8.890  52.924  1.00  0.00    -0.000 C 
BRANCH  24  25
ATOM     25  C   UNL     1       7.219   9.355  51.492  1.00  0.00    -0.000 C 
BRANCH  25  26
ATOM     26  C   UNL     1       8.601   8.906  50.974  1.00  0.00    -0.000 C 
BRANCH  26  27
ATOM     27  C   UNL     1       9.605   8.456  52.057  1.00  0.00    -0.000 C 
BRANCH  27  28
ATOM     28  C   UNL     1      10.685   7.466  51.584  1.00  0.00    -0.000 C 
BRANCH  28  29
ATOM     29  C   UNL     1      11.319   6.677  52.739  1.00  0.00    -0.000 C 
BRANCH  29  30
ATOM     30  C   UNL     1      12.287   5.609  52.208  1.00  0.00    -0.000 C 
BRANCH  30  31
ATOM     31  C   UNL     1      12.346   4.365  53.108  1.00  0.00    -0.003 C 
ATOM     32  C   UNL     1      11.017   3.612  53.162  1.00  0.00     0.004 C 
ENDBRANCH  30  31
ENDBRANCH  29  30
ENDBRANCH  28  29
ENDBRANCH  27  28
ENDBRANCH  26  27
ENDBRANCH  25  26
ENDBRANCH  24  25
ENDBRANCH  23  24
ENDBRANCH  22  23
ENDBRANCH  21  22
ENDBRANCH  20  21
ENDBRANCH  19  20
ENDBRANCH  18  19
ENDBRANCH   1  18
TORSDOF 28
ENDMDL
MODEL 5
REMARK VINA RESULT:    -3.901      1.536     10.219
REMARK INTER + INTRA:         -13.180
REMARK INTER:                 -10.423
REMARK INTRA:                  -2.757
REMARK UNBOUND:                -2.894
REMARK SMILES CCCCCCCCCCCCCCCCCCCCCCCCCCCCCC(=O)[O-]
REMARK SMILES IDX 16 1 17 2 18 3 19 4 20 5 21 6 22 7 23 8 24 9 25 10 26 11
REMARK SMILES IDX 27 12 28 13 29 14 30 15 31 16 32 17 15 18 14 19 13 20 12 21
REMARK SMILES IDX 11 22 10 23 9 24 8 25 7 26 6 27 5 28 4 29 3 30 2 31 1 32
REMARK H PARENT
REMARK Flexibility Score: inf
ROOT
ATOM      1  C   UNL     1      10.926   4.968  56.759  1.00  0.00     0.000 C 
ENDROOT
BRANCH   1   2
ATOM      2  C   UNL     1      11.643   3.607  56.794  1.00  0.00     0.000 C 
BRANCH   2   3
ATOM      3  C   UNL     1      11.783   3.046  58.217  1.00  0.00     0.000 C 
BRANCH   3   4
ATOM      4  C   UNL     1      13.254   2.854  58.629  1.00  0.00     0.000 C 
BRANCH   4   5
ATOM      5  C   UNL     1      13.623   1.374  58.826  1.00  0.00     0.000 C 
BRANCH   5   6
ATOM      6  C   UNL     1      14.607   1.170  59.992  1.00  0.00     0.000 C 
BRANCH   6   7
ATOM      7  C   UNL     1      15.571  -0.005  59.758  1.00  0.00     0.000 C 
BRANCH   7   8
ATOM      8  C   UNL     1      17.031   0.356  60.068  1.00  0.00     0.000 C 
BRANCH   8   9
ATOM      9  C   UNL     1      17.920   0.165  58.828  1.00  0.00     0.000 C 
BRANCH   9  10
ATOM     10  C   UNL     1      17.339  -0.847  57.826  1.00  0.00     0.000 C 
BRANCH  10  11
ATOM     11  C   UNL     1      16.524  -0.231  56.672  1.00  0.00     0.000 C 
BRANCH  11  12
ATOM     12  C   UNL     1      16.590   1.311  56.606  1.00  0.00     0.000 C 
BRANCH  12  13
ATOM     13  C   UNL     1      16.548   1.839  55.161  1.00  0.00     0.006 C 
BRANCH  13  14
ATOM     14  C   UNL     1      16.482   3.371  55.106  1.00  0.00     0.053 C 
BRANCH  14  15
ATOM     15  C   UNL     1      15.182   3.890  55.641  1.00  0.00     0.041 C 
ATOM     16  O   UNL     1      14.093   3.518  55.128  1.00  0.00    -0.550 OA
ATOM     17  O   UNL     1      15.173   4.797  56.693  1.00  0.00    -0.550 OA
ENDBRANCH  14  15
ENDBRANCH  13  14
ENDBRANCH  12  13
ENDBRANCH  11  12
ENDBRANCH  10  11
ENDBRANCH   9  10
ENDBRANCH   8   9
ENDBRANCH   7   8
ENDBRANCH   6   7
ENDBRANCH   5   6
ENDBRANCH   4   5
ENDBRANCH   3   4
ENDBRANCH   2   3
ENDBRANCH   1   2
BRANCH   1  18
ATOM     18  C   UNL     1       9.747   4.987  55.771  1.00  0.00     0.000 C 
BRANCH  18  19
ATOM     19  C   UNL     1       9.130   6.385  55.622  1.00  0.00     0.000 C 
BRANCH  19  20
ATOM     20  C   UNL     1      10.214   7.472  55.623  1.00  0.00     0.000 C 
BRANCH  20  21
ATOM     21  C   UNL     1       9.630   8.886  55.465  1.00  0.00     0.000 C 
BRANCH  21  22
ATOM     22  C   UNL     1       8.100   8.918  55.629  1.00  0.00     0.000 C 
BRANCH  22  23
ATOM     23  C   UNL     1       7.445  10.022  54.776  1.00  0.00     0.000 C 
BRANCH  23  24
ATOM     24  C   UNL     1       7.367   9.689  53.274  1.00  0.00    -0.000 C 
BRANCH  24  25
ATOM     25  C   UNL     1       8.606  10.124  52.463  1.00  0.00    -0.000 C 
BRANCH  25  26
ATOM     26  C   UNL     1       9.122   9.076  51.455  1.00  0.00    -0.000 C 
BRANCH  26  27
ATOM     27  C   UNL     1       9.236   7.633  51.992  1.00  0.00    -0.000 C 
BRANCH  27  28
ATOM     28  C   UNL     1      10.592   6.946  51.752  1.00  0.00    -0.000 C 
BRANCH  28  29
ATOM     29  C   UNL     1      11.642   7.311  52.812  1.00  0.00    -0.000 C 
BRANCH  29  30
ATOM     30  C   UNL     1      12.228   6.048  53.461  1.00  0.00    -0.000 C 
BRANCH  30  31
ATOM     31  C   UNL     1      12.349   4.878  52.474  1.00  0.00    -0.003 C 
ATOM     32  C   UNL     1      11.767   3.577  53.026  1.00  0.00     0.004 C 
ENDBRANCH  30  31
ENDBRANCH  29  30
ENDBRANCH  28  29
ENDBRANCH  27  28
ENDBRANCH  26  27
ENDBRANCH  25  26
ENDBRANCH  24  25
ENDBRANCH  23  24
ENDBRANCH  22  23
ENDBRANCH  21  22
ENDBRANCH  20  21
ENDBRANCH  19  20
ENDBRANCH  18  19
ENDBRANCH   1  18
TORSDOF 28
ENDMDL
MODEL 6
REMARK VINA RESULT:    -3.581      1.442      7.436
REMARK INTER + INTRA:         -12.336
REMARK INTER:                  -9.239
REMARK INTRA:                  -3.098
REMARK UNBOUND:                -2.894
REMARK SMILES CCCCCCCCCCCCCCCCCCCCCCCCCCCCCC(=O)[O-]
REMARK SMILES IDX 16 1 17 2 18 3 19 4 20 5 21 6 22 7 23 8 24 9 25 10 26 11
REMARK SMILES IDX 27 12 28 13 29 14 30 15 31 16 32 17 15 18 14 19 13 20 12 21
REMARK SMILES IDX 11 22 10 23 9 24 8 25 7 26 6 27 5 28 4 29 3 30 2 31 1 32
REMARK H PARENT
REMARK Flexibility Score: inf
ROOT
ATOM      1  C   UNL     1      15.784   0.254  58.508  1.00  0.00     0.000 C 
ENDROOT
BRANCH   1   2
ATOM      2  C   UNL     1      14.629   1.208  58.856  1.00  0.00     0.000 C 
BRANCH   2   3
ATOM      3  C   UNL     1      13.737   1.528  57.646  1.00  0.00     0.000 C 
BRANCH   3   4
ATOM      4  C   UNL     1      12.444   2.261  58.047  1.00  0.00     0.000 C 
BRANCH   4   5
ATOM      5  C   UNL     1      12.629   3.786  58.121  1.00  0.00     0.000 C 
BRANCH   5   6
ATOM      6  C   UNL     1      11.640   4.537  57.211  1.00  0.00     0.000 C 
BRANCH   6   7
ATOM      7  C   UNL     1      10.620   3.602  56.543  1.00  0.00     0.000 C 
BRANCH   7   8
ATOM      8  C   UNL     1       9.575   4.362  55.712  1.00  0.00     0.000 C 
BRANCH   8   9
ATOM      9  C   UNL     1      10.005   5.821  55.491  1.00  0.00     0.000 C 
BRANCH   9  10
ATOM     10  C   UNL     1       8.851   6.820  55.676  1.00  0.00     0.000 C 
BRANCH  10  11
ATOM     11  C   UNL     1       8.371   7.513  54.385  1.00  0.00     0.000 C 
BRANCH  11  12
ATOM     12  C   UNL     1       7.797   8.930  54.606  1.00  0.00     0.000 C 
BRANCH  12  13
ATOM     13  C   UNL     1       8.760   9.838  55.391  1.00  0.00     0.006 C 
BRANCH  13  14
ATOM     14  C   UNL     1      10.086  10.052  54.651  1.00  0.00     0.053 C 
BRANCH  14  15
ATOM     15  C   UNL     1      11.250   9.521  55.431  1.00  0.00     0.041 C 
ATOM     16  O   UNL     1      11.650  10.125  56.462  1.00  0.00    -0.550 OA
ATOM     17  O   UNL     1      11.904   8.369  55.011  1.00  0.00    -0.550 OA
ENDBRANCH  14  15
ENDBRANCH  13  14
ENDBRANCH  12  13
ENDBRANCH  11  12
ENDBRANCH  10  11
ENDBRANCH   9  10
ENDBRANCH   8   9
ENDBRANCH   7   8
ENDBRANCH   6   7
ENDBRANCH   5   6
ENDBRANCH   4   5
ENDBRANCH   3   4
ENDBRANCH   2   3
ENDBRANCH   1   2
BRANCH   1  18
ATOM     18  C   UNL     1      16.763   0.863  57.490  1.00  0.00     0.000 C 
BRANCH  18  19
ATOM     19  C   UNL     1      16.530   0.338  56.066  1.00  0.00     0.000 C 
BRANCH  19  20
ATOM     20  C   UNL     1      16.432   1.493  55.059  1.00  0.00     0.000 C 
BRANCH  20  21
ATOM     21  C   UNL     1      16.623   2.867  55.721  1.00  0.00     0.000 C 
BRANCH  21  22
ATOM     22  C   UNL     1      15.297   3.629  55.902  1.00  0.00     0.000 C 
BRANCH  22  23
ATOM     23  C   UNL     1      14.462   3.663  54.606  1.00  0.00     0.000 C 
BRANCH  23  24
ATOM     24  C   UNL     1      13.310   4.685  54.632  1.00  0.00    -0.000 C 
BRANCH  24  25
ATOM     25  C   UNL     1      12.390   4.635  53.393  1.00  0.00    -0.000 C 
BRANCH  25  26
ATOM     26  C   UNL     1      12.281   5.962  52.614  1.00  0.00    -0.000 C 
BRANCH  26  27
ATOM     27  C   UNL     1      10.859   6.349  52.151  1.00  0.00    -0.000 C 
BRANCH  27  28
ATOM     28  C   UNL     1      10.691   7.807  51.688  1.00  0.00    -0.000 C 
BRANCH  28  29
ATOM     29  C   UNL     1       9.609   7.970  50.611  1.00  0.00    -0.000 C 
BRANCH  29  30
ATOM     30  C   UNL     1       9.170   9.437  50.491  1.00  0.00    -0.000 C 
BRANCH  30  31
ATOM     31  C   UNL     1       9.735  10.123  49.237  1.00  0.00    -0.003 C 
ATOM     32  C   UNL     1      10.312   9.129  48.231  1.00  0.00     0.004 C 
ENDBRANCH  30  31
ENDBRANCH  29  30
ENDBRANCH  28  29
ENDBRANCH  27  28
ENDBRANCH  26  27
ENDBRANCH  25  26
ENDBRANCH  24  25
ENDBRANCH  23  24
ENDBRANCH  22  23
ENDBRANCH  21  22
ENDBRANCH  20  21
ENDBRANCH  19  20
ENDBRANCH  18  19
ENDBRANCH   1  18
TORSDOF 28
ENDMDL
MODEL 7
REMARK VINA RESULT:    -3.444      1.214      3.516
REMARK INTER + INTRA:         -11.975
REMARK INTER:                  -9.621
REMARK INTRA:                  -2.355
REMARK UNBOUND:                -2.894
REMARK SMILES CCCCCCCCCCCCCCCCCCCCCCCCCCCCCC(=O)[O-]
REMARK SMILES IDX 16 1 17 2 18 3 19 4 20 5 21 6 22 7 23 8 24 9 25 10 26 11
REMARK SMILES IDX 27 12 28 13 29 14 30 15 31 16 32 17 15 18 14 19 13 20 12 21
REMARK SMILES IDX 11 22 10 23 9 24 8 25 7 26 6 27 5 28 4 29 3 30 2 31 1 32
REMARK H PARENT
REMARK Flexibility Score: inf
ROOT
ATOM      1  C   UNL     1      11.259   6.649  52.542  1.00  0.00     0.000 C 
ENDROOT
BRANCH   1   2
ATOM      2  C   UNL     1      10.927   7.183  51.139  1.00  0.00     0.000 C 
BRANCH   2   3
ATOM      3  C   UNL     1       9.508   7.768  51.046  1.00  0.00     0.000 C 
BRANCH   3   4
ATOM      4  C   UNL     1       9.516   9.289  50.807  1.00  0.00     0.000 C 
BRANCH   4   5
ATOM      5  C   UNL     1       8.285   9.987  51.410  1.00  0.00     0.000 C 
BRANCH   5   6
ATOM      6  C   UNL     1       7.432   9.031  52.261  1.00  0.00     0.000 C 
BRANCH   6   7
ATOM      7  C   UNL     1       6.875   9.698  53.529  1.00  0.00     0.000 C 
BRANCH   7   8
ATOM      8  C   UNL     1       7.513   9.152  54.815  1.00  0.00     0.000 C 
BRANCH   8   9
ATOM      9  C   UNL     1       8.638  10.078  55.307  1.00  0.00     0.000 C 
BRANCH   9  10
ATOM     10  C   UNL     1      10.017   9.697  54.743  1.00  0.00     0.000 C 
BRANCH  10  11
ATOM     11  C   UNL     1      10.404   8.214  54.908  1.00  0.00     0.000 C 
BRANCH  11  12
ATOM     12  C   UNL     1       9.417   7.397  55.771  1.00  0.00     0.000 C 
BRANCH  12  13
ATOM     13  C   UNL     1      10.059   6.123  56.348  1.00  0.00     0.006 C 
BRANCH  13  14
ATOM     14  C   UNL     1       9.099   4.927  56.319  1.00  0.00     0.053 C 
BRANCH  14  15
ATOM     15  C   UNL     1       9.710   3.741  55.637  1.00  0.00     0.041 C 
ATOM     16  O   UNL     1      10.682   3.139  56.165  1.00  0.00    -0.550 OA
ATOM     17  O   UNL     1       9.219   3.312  54.410  1.00  0.00    -0.550 OA
ENDBRANCH  14  15
ENDBRANCH  13  14
ENDBRANCH  12  13
ENDBRANCH  11  12
ENDBRANCH  10  11
ENDBRANCH   9  10
ENDBRANCH   8   9
ENDBRANCH   7   8
ENDBRANCH   6   7
ENDBRANCH   5   6
ENDBRANCH   4   5
ENDBRANCH   3   4
ENDBRANCH   2   3
ENDBRANCH   1   2
BRANCH   1  18
ATOM     18  C   UNL     1      12.486   5.722  52.543  1.00  0.00     0.000 C 
BRANCH  18  19
ATOM     19  C   UNL     1      12.368   4.593  53.578  1.00  0.00     0.000 C 
BRANCH  19  20
ATOM     20  C   UNL     1      13.087   4.961  54.884  1.00  0.00     0.000 C 
BRANCH  20  21
ATOM     21  C   UNL     1      13.676   3.733  55.597  1.00  0.00     0.000 C 
BRANCH  21  22
ATOM     22  C   UNL     1      15.187   3.571  55.350  1.00  0.00     0.000 C 
BRANCH  22  23
ATOM     23  C   UNL     1      15.889   2.819  56.498  1.00  0.00     0.000 C 
BRANCH  23  24
ATOM     24  C   UNL     1      16.872   1.732  56.025  1.00  0.00    -0.000 C 
BRANCH  24  25
ATOM     25  C   UNL     1      16.287   0.303  56.028  1.00  0.00    -0.000 C 
BRANCH  25  26
ATOM     26  C   UNL     1      16.949  -0.666  57.029  1.00  0.00    -0.000 C 
BRANCH  26  27
ATOM     27  C   UNL     1      17.915  -0.019  58.046  1.00  0.00    -0.000 C 
BRANCH  27  28
ATOM     28  C   UNL     1      17.295   0.341  59.408  1.00  0.00    -0.000 C 
BRANCH  28  29
ATOM     29  C   UNL     1      15.819  -0.068  59.518  1.00  0.00    -0.000 C 
BRANCH  29  30
ATOM     30  C   UNL     1      14.949   1.126  59.940  1.00  0.00    -0.000 C 
BRANCH  30  31
ATOM     31  C   UNL     1      13.668   1.249  59.101  1.00  0.00    -0.003 C 
ATOM     32  C   UNL     1      13.161   2.688  59.006  1.00  0.00     0.004 C 
ENDBRANCH  30  31
ENDBRANCH  29  30
ENDBRANCH  28  29
ENDBRANCH  27  28
ENDBRANCH  26  27
ENDBRANCH  25  26
ENDBRANCH  24  25
ENDBRANCH  23  24
ENDBRANCH  22  23
ENDBRANCH  21  22
ENDBRANCH  20  21
ENDBRANCH  19  20
ENDBRANCH  18  19
ENDBRANCH   1  18
TORSDOF 28
ENDMDL
