MODEL 1
REMARK VINA RESULT:    -5.352      0.000      0.000
REMARK INTER + INTRA:          -6.472
REMARK INTER:                  -6.134
REMARK INTRA:                  -0.338
REMARK UNBOUND:                -0.338
REMARK SMILES COc1ccc(C(C)=O)c(O)c1
REMARK SMILES IDX 6 1 10 2 12 3 3 4 4 5 5 6 7 7 8 8 9 9 11 10 2 12 1 13
REMARK H PARENT 11 11
REMARK Flexibility Score: inf
ROOT
ATOM      1  C   UNL     1      18.450 -10.960  67.926  1.00  0.00     0.059 A 
ATOM      2  C   UNL     1      18.432  -9.848  67.052  1.00  0.00     0.130 A 
ATOM      3  C   UNL     1      17.499  -9.796  66.006  1.00  0.00     0.093 A 
ATOM      4  C   UNL     1      16.570 -10.822  65.818  1.00  0.00     0.122 A 
ATOM      5  C   UNL     1      16.575 -11.919  66.696  1.00  0.00     0.047 A 
ATOM      6  C   UNL     1      17.502 -11.982  67.738  1.00  0.00     0.019 A 
ENDROOT
BRANCH   1   7
ATOM      7  C   UNL     1      19.425 -11.083  69.043  1.00  0.00     0.163 C 
ATOM      8  C   UNL     1      20.329 -12.269  69.196  1.00  0.00     0.093 C 
ATOM      9  O   UNL     1      19.500 -10.162  69.901  1.00  0.00    -0.294 OA
ENDBRANCH   1   7
BRANCH   2  10
ATOM     10  O   UNL     1      19.317  -8.785  67.229  1.00  0.00    -0.507 OA
ATOM     11  H   UNL     1      20.159  -8.877  67.787  1.00  0.00     0.293 HD
ENDBRANCH   2  10
BRANCH   4  12
ATOM     12  O   UNL     1      15.661 -10.713  64.755  1.00  0.00    -0.497 OA
ATOM     13  C   UNL     1      14.480 -11.498  64.623  1.00  0.00     0.278 C 
ENDBRANCH   4  12
TORSDOF 3
ENDMDL
MODEL 2
REMARK VINA RESULT:    -5.080      1.645      4.997
REMARK INTER + INTRA:          -6.160
REMARK INTER:                  -5.817
REMARK INTRA:                  -0.343
REMARK UNBOUND:                -0.338
REMARK SMILES COc1ccc(C(C)=O)c(O)c1
REMARK SMILES IDX 6 1 10 2 12 3 3 4 4 5 5 6 7 7 8 8 9 9 11 10 2 12 1 13
REMARK H PARENT 11 11
REMARK Flexibility Score: inf
ROOT
ATOM      1  C   UNL     1      17.414 -11.044  66.576  1.00  0.00     0.059 A 
ATOM      2  C   UNL     1      17.891 -12.350  66.834  1.00  0.00     0.130 A 
ATOM      3  C   UNL     1      18.834 -12.561  67.850  1.00  0.00     0.093 A 
ATOM      4  C   UNL     1      19.303 -11.500  68.630  1.00  0.00     0.122 A 
ATOM      5  C   UNL     1      18.815 -10.205  68.386  1.00  0.00     0.047 A 
ATOM      6  C   UNL     1      17.879  -9.984  67.373  1.00  0.00     0.019 A 
ENDROOT
BRANCH   1   7
ATOM      7  C   UNL     1      16.427 -10.752  65.501  1.00  0.00     0.163 C 
ATOM      8  C   UNL     1      16.617  -9.640  64.514  1.00  0.00     0.093 C 
ATOM      9  O   UNL     1      15.387 -11.459  65.408  1.00  0.00    -0.294 OA
ENDBRANCH   1   7
BRANCH   2  10
ATOM     10  O   UNL     1      17.421 -13.441  66.105  1.00  0.00    -0.507 OA
ATOM     11  H   UNL     1      16.590 -13.379  65.526  1.00  0.00     0.293 HD
ENDBRANCH   2  10
BRANCH   4  12
ATOM     12  O   UNL     1      20.244 -11.773  69.633  1.00  0.00    -0.497 OA
ATOM     13  C   UNL     1      21.067 -12.934  69.670  1.00  0.00     0.278 C 
ENDBRANCH   4  12
TORSDOF 3
ENDMDL
MODEL 3
REMARK VINA RESULT:    -4.959      1.223      2.023
REMARK INTER + INTRA:          -6.022
REMARK INTER:                  -5.891
REMARK INTRA:                  -0.131
REMARK UNBOUND:                -0.338
REMARK SMILES COc1ccc(C(C)=O)c(O)c1
REMARK SMILES IDX 6 1 10 2 12 3 3 4 4 5 5 6 7 7 8 8 9 9 11 10 2 12 1 13
REMARK H PARENT 11 11
REMARK Flexibility Score: inf
ROOT
ATOM      1  C   UNL     1      18.457 -11.221  67.719  1.00  0.00     0.059 A 
ATOM      2  C   UNL     1      17.280 -11.996  67.602  1.00  0.00     0.130 A 
ATOM      3  C   UNL     1      16.384 -11.750  66.550  1.00  0.00     0.093 A 
ATOM      4  C   UNL     1      16.642 -10.758  65.601  1.00  0.00     0.122 A 
ATOM      5  C   UNL     1      17.820  -9.999  65.707  1.00  0.00     0.047 A 
ATOM      6  C   UNL     1      18.716 -10.233  66.752  1.00  0.00     0.019 A 
ENDROOT
BRANCH   1   7
ATOM      7  C   UNL     1      19.438 -11.419  68.820  1.00  0.00     0.163 C 
ATOM      8  C   UNL     1      20.372 -12.590  68.865  1.00  0.00     0.093 C 
ATOM      9  O   UNL     1      19.494 -10.577  69.758  1.00  0.00    -0.294 OA
ENDBRANCH   1   7
BRANCH   2  10
ATOM     10  O   UNL     1      17.005 -13.021  68.504  1.00  0.00    -0.507 OA
ATOM     11  H   UNL     1      17.025 -12.870  69.507  1.00  0.00     0.293 HD
ENDBRANCH   2  10
BRANCH   4  12
ATOM     12  O   UNL     1      15.709 -10.560  64.572  1.00  0.00    -0.497 OA
ATOM     13  C   UNL     1      14.521 -11.326  64.405  1.00  0.00     0.278 C 
ENDBRANCH   4  12
TORSDOF 3
ENDMDL
MODEL 4
REMARK VINA RESULT:    -4.914     15.664     17.465
REMARK INTER + INTRA:          -5.970
REMARK INTER:                  -5.631
REMARK INTRA:                  -0.339
REMARK UNBOUND:                -0.338
REMARK SMILES COc1ccc(C(C)=O)c(O)c1
REMARK SMILES IDX 6 1 10 2 12 3 3 4 4 5 5 6 7 7 8 8 9 9 11 10 2 12 1 13
REMARK H PARENT 11 11
REMARK Flexibility Score: inf
ROOT
ATOM      1  C   UNL     1       7.552   3.399  62.937  1.00  0.00     0.059 A 
ATOM      2  C   UNL     1       8.800   3.168  63.562  1.00  0.00     0.130 A 
ATOM      3  C   UNL     1       9.317   1.866  63.627  1.00  0.00     0.093 A 
ATOM      4  C   UNL     1       8.627   0.787  63.070  1.00  0.00     0.122 A 
ATOM      5  C   UNL     1       7.396   1.019  62.433  1.00  0.00     0.047 A 
ATOM      6  C   UNL     1       6.869   2.311  62.367  1.00  0.00     0.019 A 
ENDROOT
BRANCH   1   7
ATOM      7  C   UNL     1       6.941   4.753  62.851  1.00  0.00     0.163 C 
ATOM      8  C   UNL     1       5.559   5.046  63.350  1.00  0.00     0.093 C 
ATOM      9  O   UNL     1       7.601   5.697  62.338  1.00  0.00    -0.294 OA
ENDBRANCH   1   7
BRANCH   2  10
ATOM     10  O   UNL     1       9.539   4.222  64.096  1.00  0.00    -0.507 OA
ATOM     11  H   UNL     1      10.166   4.090  64.883  1.00  0.00     0.293 HD
ENDBRANCH   2  10
BRANCH   4  12
ATOM     12  O   UNL     1       9.195  -0.492  63.165  1.00  0.00    -0.497 OA
ATOM     13  C   UNL     1       8.797  -1.610  62.378  1.00  0.00     0.278 C 
ENDBRANCH   4  12
TORSDOF 3
ENDMDL
MODEL 5
REMARK VINA RESULT:    -4.908      2.107      5.046
REMARK INTER + INTRA:          -5.963
REMARK INTER:                  -5.648
REMARK INTRA:                  -0.315
REMARK UNBOUND:                -0.338
REMARK SMILES COc1ccc(C(C)=O)c(O)c1
REMARK SMILES IDX 6 1 10 2 12 3 3 4 4 5 5 6 7 7 8 8 9 9 11 10 2 12 1 13
REMARK H PARENT 11 11
REMARK Flexibility Score: inf
ROOT
ATOM      1  C   UNL     1      17.342 -10.611  64.323  1.00  0.00     0.059 A 
ATOM      2  C   UNL     1      18.618 -10.001  64.346  1.00  0.00     0.130 A 
ATOM      3  C   UNL     1      19.161  -9.562  65.563  1.00  0.00     0.093 A 
ATOM      4  C   UNL     1      18.467  -9.732  66.764  1.00  0.00     0.122 A 
ATOM      5  C   UNL     1      17.208 -10.354  66.744  1.00  0.00     0.047 A 
ATOM      6  C   UNL     1      16.656 -10.790  65.538  1.00  0.00     0.019 A 
ENDROOT
BRANCH   1   7
ATOM      7  C   UNL     1      16.704 -11.081  63.064  1.00  0.00     0.163 C 
ATOM      8  C   UNL     1      15.423 -10.502  62.545  1.00  0.00     0.093 C 
ATOM      9  O   UNL     1      17.252 -12.004  62.401  1.00  0.00    -0.294 OA
ENDBRANCH   1   7
BRANCH   2  10
ATOM     10  O   UNL     1      19.360  -9.848  63.176  1.00  0.00    -0.507 OA
ATOM     11  H   UNL     1      20.082  -9.142  63.090  1.00  0.00     0.293 HD
ENDBRANCH   2  10
BRANCH   4  12
ATOM     12  O   UNL     1      19.062  -9.275  67.949  1.00  0.00    -0.497 OA
ATOM     13  C   UNL     1      19.183 -10.048  69.139  1.00  0.00     0.278 C 
ENDBRANCH   4  12
TORSDOF 3
ENDMDL
MODEL 6
REMARK VINA RESULT:    -4.799     16.932     17.888
REMARK INTER + INTRA:          -5.839
REMARK INTER:                  -5.517
REMARK INTRA:                  -0.322
REMARK UNBOUND:                -0.338
REMARK SMILES COc1ccc(C(C)=O)c(O)c1
REMARK SMILES IDX 6 1 10 2 12 3 3 4 4 5 5 6 7 7 8 8 9 9 11 10 2 12 1 13
REMARK H PARENT 11 11
REMARK Flexibility Score: inf
ROOT
ATOM      1  C   UNL     1       5.960   1.690  64.621  1.00  0.00     0.059 A 
ATOM      2  C   UNL     1       5.893   2.961  64.003  1.00  0.00     0.130 A 
ATOM      3  C   UNL     1       6.357   3.123  62.688  1.00  0.00     0.093 A 
ATOM      4  C   UNL     1       6.872   2.044  61.967  1.00  0.00     0.122 A 
ATOM      5  C   UNL     1       6.922   0.777  62.574  1.00  0.00     0.047 A 
ATOM      6  C   UNL     1       6.467   0.606  63.884  1.00  0.00     0.019 A 
ENDROOT
BRANCH   1   7
ATOM      7  C   UNL     1       5.501   1.456  66.017  1.00  0.00     0.163 C 
ATOM      8  C   UNL     1       4.882   0.164  66.455  1.00  0.00     0.093 C 
ATOM      9  O   UNL     1       5.633   2.373  66.872  1.00  0.00    -0.294 OA
ENDBRANCH   1   7
BRANCH   2  10
ATOM     10  O   UNL     1       5.350   4.055  64.673  1.00  0.00    -0.507 OA
ATOM     11  H   UNL     1       5.933   4.794  65.051  1.00  0.00     0.293 HD
ENDBRANCH   2  10
BRANCH   4  12
ATOM     12  O   UNL     1       7.319   2.267  60.657  1.00  0.00    -0.497 OA
ATOM     13  C   UNL     1       6.647   3.089  59.707  1.00  0.00     0.278 C 
ENDBRANCH   4  12
TORSDOF 3
ENDMDL
MODEL 7
REMARK VINA RESULT:    -4.731      1.855      4.778
REMARK INTER + INTRA:          -5.760
REMARK INTER:                  -5.437
REMARK INTRA:                  -0.323
REMARK UNBOUND:                -0.338
REMARK SMILES COc1ccc(C(C)=O)c(O)c1
REMARK SMILES IDX 6 1 10 2 12 3 3 4 4 5 5 6 7 7 8 8 9 9 11 10 2 12 1 13
REMARK H PARENT 11 11
REMARK Flexibility Score: inf
ROOT
ATOM      1  C   UNL     1      18.656 -10.861  65.909  1.00  0.00     0.059 A 
ATOM      2  C   UNL     1      19.881 -10.312  66.355  1.00  0.00     0.130 A 
ATOM      3  C   UNL     1      20.406 -10.696  67.598  1.00  0.00     0.093 A 
ATOM      4  C   UNL     1      19.747 -11.628  68.402  1.00  0.00     0.122 A 
ATOM      5  C   UNL     1      18.539 -12.187  67.951  1.00  0.00     0.047 A 
ATOM      6  C   UNL     1      18.005 -11.808  66.718  1.00  0.00     0.019 A 
ENDROOT
BRANCH   1   7
ATOM      7  C   UNL     1      18.037 -10.482  64.610  1.00  0.00     0.163 C 
ATOM      8  C   UNL     1      16.675  -9.863  64.517  1.00  0.00     0.093 C 
ATOM      9  O   UNL     1      18.673 -10.686  63.540  1.00  0.00    -0.294 OA
ENDBRANCH   1   7
BRANCH   2  10
ATOM     10  O   UNL     1      20.590  -9.408  65.566  1.00  0.00    -0.507 OA
ATOM     11  H   UNL     1      21.580  -9.239  65.706  1.00  0.00     0.293 HD
ENDBRANCH   2  10
BRANCH   4  12
ATOM     12  O   UNL     1      20.322 -11.974  69.634  1.00  0.00    -0.497 OA
ATOM     13  C   UNL     1      21.196 -13.081  69.831  1.00  0.00     0.278 C 
ENDBRANCH   4  12
TORSDOF 3
ENDMDL
MODEL 8
REMARK VINA RESULT:    -4.721     14.409     16.331
REMARK INTER + INTRA:          -5.749
REMARK INTER:                  -5.426
REMARK INTRA:                  -0.323
REMARK UNBOUND:                -0.338
REMARK SMILES COc1ccc(C(C)=O)c(O)c1
REMARK SMILES IDX 6 1 10 2 12 3 3 4 4 5 5 6 7 7 8 8 9 9 11 10 2 12 1 13
REMARK H PARENT 11 11
REMARK Flexibility Score: inf
ROOT
ATOM      1  C   UNL     1       6.462   1.167  64.363  1.00  0.00     0.059 A 
ATOM      2  C   UNL     1       7.804   1.566  64.164  1.00  0.00     0.130 A 
ATOM      3  C   UNL     1       8.648   0.797  63.350  1.00  0.00     0.093 A 
ATOM      4  C   UNL     1       8.181  -0.356  62.714  1.00  0.00     0.122 A 
ATOM      5  C   UNL     1       6.843  -0.744  62.897  1.00  0.00     0.047 A 
ATOM      6  C   UNL     1       5.996   0.013  63.709  1.00  0.00     0.019 A 
ENDROOT
BRANCH   1   7
ATOM      7  C   UNL     1       5.521   1.929  65.229  1.00  0.00     0.163 C 
ATOM      8  C   UNL     1       4.876   1.329  66.441  1.00  0.00     0.093 C 
ATOM      9  O   UNL     1       5.248   3.126  64.940  1.00  0.00    -0.294 OA
ENDBRANCH   1   7
BRANCH   2  10
ATOM     10  O   UNL     1       8.298   2.731  64.748  1.00  0.00    -0.507 OA
ATOM     11  H   UNL     1       7.812   3.617  64.668  1.00  0.00     0.293 HD
ENDBRANCH   2  10
BRANCH   4  12
ATOM     12  O   UNL     1       9.072  -1.083  61.910  1.00  0.00    -0.497 OA
ATOM     13  C   UNL     1       9.326  -2.478  62.050  1.00  0.00     0.278 C 
ENDBRANCH   4  12
TORSDOF 3
ENDMDL
MODEL 9
REMARK VINA RESULT:    -4.716      2.411      5.571
REMARK INTER + INTRA:          -5.743
REMARK INTER:                  -5.418
REMARK INTRA:                  -0.324
REMARK UNBOUND:                -0.338
REMARK SMILES COc1ccc(C(C)=O)c(O)c1
REMARK SMILES IDX 6 1 10 2 12 3 3 4 4 5 5 6 7 7 8 8 9 9 11 10 2 12 1 13
REMARK H PARENT 11 11
REMARK Flexibility Score: inf
ROOT
ATOM      1  C   UNL     1      16.570 -11.746  63.664  1.00  0.00     0.059 A 
ATOM      2  C   UNL     1      16.815 -12.526  64.817  1.00  0.00     0.130 A 
ATOM      3  C   UNL     1      17.080 -11.896  66.043  1.00  0.00     0.093 A 
ATOM      4  C   UNL     1      17.091 -10.503  66.150  1.00  0.00     0.122 A 
ATOM      5  C   UNL     1      16.829  -9.728  65.008  1.00  0.00     0.047 A 
ATOM      6  C   UNL     1      16.569 -10.345  63.782  1.00  0.00     0.019 A 
ENDROOT
BRANCH   1   7
ATOM      7  C   UNL     1      16.300 -12.352  62.332  1.00  0.00     0.163 C 
ATOM      8  C   UNL     1      15.047 -12.074  61.559  1.00  0.00     0.093 C 
ATOM      9  O   UNL     1      17.151 -13.133  61.824  1.00  0.00    -0.294 OA
ENDBRANCH   1   7
BRANCH   2  10
ATOM     10  O   UNL     1      16.775 -13.918  64.762  1.00  0.00    -0.507 OA
ATOM     11  H   UNL     1      17.602 -14.469  64.560  1.00  0.00     0.293 HD
ENDBRANCH   2  10
BRANCH   4  12
ATOM     12  O   UNL     1      17.360  -9.931  67.402  1.00  0.00    -0.497 OA
ATOM     13  C   UNL     1      18.648  -9.500  67.829  1.00  0.00     0.278 C 
ENDBRANCH   4  12
TORSDOF 3
ENDMDL
