MODEL 1
REMARK VINA RESULT:    20.293      0.000      0.000
REMARK INTER + INTRA:          45.009
REMARK INTER:                  30.377
REMARK INTRA:                  14.632
REMARK UNBOUND:                14.632
REMARK SMILES C=C(CC[C@@H](C(=O)[O-])[C@@H]1[C@@H](O)C[C@@]2(C)C3=C(CC[C@]12C)[C@]1(C)CC[C@@H](OC(C)=O)C(C)(C)[C@@H]1CC3)C(C)C
REMARK SMILES IDX 4 1 5 2 6 3 7 4 8 5 9 6 10 7 19 8 12 9 13 10 18 11 20 12
REMARK SMILES IDX 14 13 15 14 17 15 16 16 35 17 21 18 34 19 33 20 23 21 22 22
REMARK SMILES IDX 30 23 24 24 25 25 31 26 32 27 11 28 26 30 27 31 29 32 28 33
REMARK SMILES IDX 3 34 2 35 1 36 36 37 37 38 38 39
REMARK H PARENT 11 29
REMARK Flexibility Score: inf
ROOT
ATOM      1  C   UNL     1       5.634  52.959 276.941  1.00  0.00     0.014 C 
ENDROOT
BRANCH   1   2
ATOM      2  C   UNL     1       4.209  52.818 277.548  1.00  0.00     0.042 C 
BRANCH   2   3
ATOM      3  C   UNL     1       3.734  51.425 277.201  1.00  0.00     0.045 C 
ATOM      4  O   UNL     1       3.637  50.540 278.095  1.00  0.00    -0.550 OA
ATOM      5  O   UNL     1       3.391  51.113 275.890  1.00  0.00    -0.550 OA
ENDBRANCH   2   3
BRANCH   2   6
ATOM      6  C   UNL     1       4.162  53.138 279.104  1.00  0.00     0.033 C 
ATOM      7  C   UNL     1       5.434  53.850 279.697  1.00  0.00     0.119 C 
ATOM      8  C   UNL     1       3.913  51.935 280.108  1.00  0.00    -0.017 C 
ATOM      9  C   UNL     1       5.865  53.073 280.952  1.00  0.00     0.043 C 
ATOM     10  C   UNL     1       5.319  51.659 280.720  1.00  0.00    -0.003 C 
ATOM     11  C   UNL     1       3.362  50.575 279.606  1.00  0.00     0.012 C 
ATOM     12  C   UNL     1       2.882  52.462 281.171  1.00  0.00     0.013 C 
ATOM     13  C   UNL     1       6.300  50.919 279.757  1.00  0.00     0.017 C 
ATOM     14  C   UNL     1       5.184  50.781 281.957  1.00  0.00    -0.064 C 
ATOM     15  C   UNL     1       3.425  49.467 280.700  1.00  0.00     0.032 C 
ATOM     16  C   UNL     1       4.316  49.721 281.939  1.00  0.00    -0.064 C 
ATOM     17  C   UNL     1       6.174  50.935 283.084  1.00  0.00     0.032 C 
ATOM     18  C   UNL     1       4.143  48.799 283.188  1.00  0.00    -0.008 C 
ATOM     19  C   UNL     1       6.617  49.560 283.541  1.00  0.00     0.009 C 
ATOM     20  C   UNL     1       5.435  48.750 284.138  1.00  0.00     0.009 C 
ATOM     21  C   UNL     1       2.875  49.287 283.947  1.00  0.00     0.015 C 
ATOM     22  C   UNL     1       3.865  47.350 282.706  1.00  0.00     0.016 C 
ATOM     23  C   UNL     1       5.148  48.986 285.689  1.00  0.00     0.005 C 
ATOM     24  C   UNL     1       3.151  50.485 284.842  1.00  0.00     0.047 C 
ATOM     25  C   UNL     1       4.197  50.216 285.945  1.00  0.00     0.182 C 
ATOM     26  C   UNL     1       6.465  49.222 286.481  1.00  0.00     0.015 C 
ATOM     27  C   UNL     1       4.556  47.678 286.298  1.00  0.00     0.015 C 
BRANCH   7  28
ATOM     28  O   UNL     1       5.203  55.208 279.979  1.00  0.00    -0.393 OA
ATOM     29  H   UNL     1       4.625  55.576 279.260  1.00  0.00     0.210 HD
ENDBRANCH   7  28
BRANCH  25  30
ATOM     30  O   UNL     1       3.509  50.085 287.196  1.00  0.00    -0.462 OA
BRANCH  30  31
ATOM     31  C   UNL     1       3.329  48.874 287.875  1.00  0.00     0.302 C 
ATOM     32  O   UNL     1       2.933  48.852 289.072  1.00  0.00    -0.253 OA
ATOM     33  C   UNL     1       3.649  47.595 287.182  1.00  0.00     0.139 C 
ENDBRANCH  30  31
ENDBRANCH  25  30
ENDBRANCH   2   6
ENDBRANCH   1   2
BRANCH   1  34
ATOM     34  C   UNL     1       6.232  54.362 277.063  1.00  0.00     0.031 C 
BRANCH  34  35
ATOM     35  C   UNL     1       6.245  55.064 275.721  1.00  0.00    -0.075 C 
ATOM     36  C   UNL     1       5.256  55.924 275.418  1.00  0.00     0.008 C 
BRANCH  35  37
ATOM     37  C   UNL     1       7.381  54.798 274.740  1.00  0.00     0.008 C 
ATOM     38  C   UNL     1       8.067  56.103 274.321  1.00  0.00     0.012 C 
ATOM     39  C   UNL     1       8.394  53.799 275.313  1.00  0.00     0.012 C 
ENDBRANCH  35  37
ENDBRANCH  34  35
ENDBRANCH   1  34
TORSDOF 9
ENDMDL
MODEL 2
REMARK VINA RESULT:    20.947      2.132      9.399
REMARK INTER + INTRA:          45.987
REMARK INTER:                  43.705
REMARK INTRA:                   2.282
REMARK UNBOUND:                14.632
REMARK SMILES C=C(CC[C@@H](C(=O)[O-])[C@@H]1[C@@H](O)C[C@@]2(C)C3=C(CC[C@]12C)[C@]1(C)CC[C@@H](OC(C)=O)C(C)(C)[C@@H]1CC3)C(C)C
REMARK SMILES IDX 4 1 5 2 6 3 7 4 8 5 9 6 10 7 19 8 12 9 13 10 18 11 20 12
REMARK SMILES IDX 14 13 15 14 17 15 16 16 35 17 21 18 34 19 33 20 23 21 22 22
REMARK SMILES IDX 30 23 24 24 25 25 31 26 32 27 11 28 26 30 27 31 29 32 28 33
REMARK SMILES IDX 3 34 2 35 1 36 36 37 37 38 38 39
REMARK H PARENT 11 29
REMARK Flexibility Score: inf
ROOT
ATOM      1  C   UNL     1       5.419  46.618 284.822  1.00  0.00     0.014 C 
ENDROOT
BRANCH   1   2
ATOM      2  C   UNL     1       4.188  47.466 284.393  1.00  0.00     0.042 C 
BRANCH   2   3
ATOM      3  C   UNL     1       4.117  48.629 285.357  1.00  0.00     0.045 C 
ATOM      4  O   UNL     1       3.001  49.068 285.749  1.00  0.00    -0.550 OA
ATOM      5  O   UNL     1       5.286  49.217 285.826  1.00  0.00    -0.550 OA
ENDBRANCH   2   3
BRANCH   2   6
ATOM      6  C   UNL     1       4.238  47.906 282.866  1.00  0.00     0.033 C 
ATOM      7  C   UNL     1       5.585  47.608 282.110  1.00  0.00     0.119 C 
ATOM      8  C   UNL     1       3.949  49.426 282.517  1.00  0.00    -0.017 C 
ATOM      9  C   UNL     1       6.017  48.897 281.392  1.00  0.00     0.043 C 
ATOM     10  C   UNL     1       5.358  50.016 282.209  1.00  0.00    -0.003 C 
ATOM     11  C   UNL     1       3.277  50.371 283.547  1.00  0.00     0.012 C 
ATOM     12  C   UNL     1       3.011  49.411 281.256  1.00  0.00     0.013 C 
ATOM     13  C   UNL     1       6.236  50.263 283.477  1.00  0.00     0.017 C 
ATOM     14  C   UNL     1       5.218  51.362 281.512  1.00  0.00    -0.064 C 
ATOM     15  C   UNL     1       3.310  51.862 283.097  1.00  0.00     0.032 C 
ATOM     16  C   UNL     1       4.275  52.253 281.952  1.00  0.00    -0.064 C 
ATOM     17  C   UNL     1       6.267  51.794 280.519  1.00  0.00     0.032 C 
ATOM     18  C   UNL     1       4.093  53.642 281.262  1.00  0.00    -0.008 C 
ATOM     19  C   UNL     1       6.630  53.241 280.784  1.00  0.00     0.009 C 
ATOM     20  C   UNL     1       5.421  54.183 280.542  1.00  0.00     0.009 C 
ATOM     21  C   UNL     1       2.901  53.510 280.270  1.00  0.00     0.015 C 
ATOM     22  C   UNL     1       3.688  54.687 282.336  1.00  0.00     0.016 C 
ATOM     23  C   UNL     1       5.226  54.685 279.041  1.00  0.00     0.005 C 
ATOM     24  C   UNL     1       3.306  52.880 278.946  1.00  0.00     0.047 C 
ATOM     25  C   UNL     1       4.380  53.677 278.175  1.00  0.00     0.182 C 
ATOM     26  C   UNL     1       6.591  54.902 278.331  1.00  0.00     0.015 C 
ATOM     27  C   UNL     1       4.568  56.100 279.062  1.00  0.00     0.015 C 
BRANCH   7  28
ATOM     28  O   UNL     1       5.467  46.528 281.215  1.00  0.00    -0.393 OA
ATOM     29  H   UNL     1       4.977  46.849 280.414  1.00  0.00     0.210 HD
ENDBRANCH   7  28
BRANCH  25  30
ATOM     30  O   UNL     1       3.743  54.345 277.078  1.00  0.00    -0.462 OA
BRANCH  30  31
ATOM     31  C   UNL     1       3.210  53.693 275.959  1.00  0.00     0.302 C 
ATOM     32  O   UNL     1       2.888  54.337 274.923  1.00  0.00    -0.253 OA
ATOM     33  C   UNL     1       2.983  52.222 276.011  1.00  0.00     0.139 C 
ENDBRANCH  30  31
ENDBRANCH  25  30
ENDBRANCH   2   6
ENDBRANCH   1   2
BRANCH   1  34
ATOM     34  C   UNL     1       5.064  45.336 285.580  1.00  0.00     0.031 C 
BRANCH  34  35
ATOM     35  C   UNL     1       4.433  45.657 286.919  1.00  0.00    -0.075 C 
ATOM     36  C   UNL     1       3.111  45.896 286.982  1.00  0.00     0.008 C 
BRANCH  35  37
ATOM     37  C   UNL     1       5.296  45.691 288.174  1.00  0.00     0.008 C 
ATOM     38  C   UNL     1       6.506  44.758 288.039  1.00  0.00     0.012 C 
ATOM     39  C   UNL     1       5.735  47.121 288.513  1.00  0.00     0.012 C 
ENDBRANCH  35  37
ENDBRANCH  34  35
ENDBRANCH   1  34
TORSDOF 9
ENDMDL
MODEL 3
REMARK VINA RESULT:    21.985      2.183      8.927
REMARK INTER + INTRA:          47.542
REMARK INTER:                  34.452
REMARK INTRA:                  13.090
REMARK UNBOUND:                14.632
REMARK SMILES C=C(CC[C@@H](C(=O)[O-])[C@@H]1[C@@H](O)C[C@@]2(C)C3=C(CC[C@]12C)[C@]1(C)CC[C@@H](OC(C)=O)C(C)(C)[C@@H]1CC3)C(C)C
REMARK SMILES IDX 4 1 5 2 6 3 7 4 8 5 9 6 10 7 19 8 12 9 13 10 18 11 20 12
REMARK SMILES IDX 14 13 15 14 17 15 16 16 35 17 21 18 34 19 33 20 23 21 22 22
REMARK SMILES IDX 30 23 24 24 25 25 31 26 32 27 11 28 26 30 27 31 29 32 28 33
REMARK SMILES IDX 3 34 2 35 1 36 36 37 37 38 38 39
REMARK H PARENT 11 29
REMARK Flexibility Score: inf
ROOT
ATOM      1  C   UNL     1       4.883  46.483 285.341  1.00  0.00     0.014 C 
ENDROOT
BRANCH   1   2
ATOM      2  C   UNL     1       4.012  47.708 284.945  1.00  0.00     0.042 C 
BRANCH   2   3
ATOM      3  C   UNL     1       4.427  48.839 285.859  1.00  0.00     0.045 C 
ATOM      4  O   UNL     1       4.365  50.036 285.466  1.00  0.00    -0.550 OA
ATOM      5  O   UNL     1       4.872  48.565 287.148  1.00  0.00    -0.550 OA
ENDBRANCH   2   3
BRANCH   2   6
ATOM      6  C   UNL     1       4.111  48.068 283.400  1.00  0.00     0.033 C 
ATOM      7  C   UNL     1       5.481  47.729 282.704  1.00  0.00     0.119 C 
ATOM      8  C   UNL     1       3.839  49.569 282.964  1.00  0.00    -0.017 C 
ATOM      9  C   UNL     1       5.939  48.979 281.934  1.00  0.00     0.043 C 
ATOM     10  C   UNL     1       5.260  50.139 282.671  1.00  0.00    -0.003 C 
ATOM     11  C   UNL     1       3.138  50.567 283.922  1.00  0.00     0.012 C 
ATOM     12  C   UNL     1       2.941  49.491 281.676  1.00  0.00     0.013 C 
ATOM     13  C   UNL     1       6.098  50.450 283.951  1.00  0.00     0.017 C 
ATOM     14  C   UNL     1       5.146  51.448 281.901  1.00  0.00    -0.064 C 
ATOM     15  C   UNL     1       3.191  52.033 283.397  1.00  0.00     0.032 C 
ATOM     16  C   UNL     1       4.193  52.362 282.265  1.00  0.00    -0.064 C 
ATOM     17  C   UNL     1       6.228  51.825 280.922  1.00  0.00     0.032 C 
ATOM     18  C   UNL     1       4.039  53.715 281.498  1.00  0.00    -0.008 C 
ATOM     19  C   UNL     1       6.588  53.283 281.123  1.00  0.00     0.009 C 
ATOM     20  C   UNL     1       5.391  54.215 280.794  1.00  0.00     0.009 C 
ATOM     21  C   UNL     1       2.879  53.534 280.477  1.00  0.00     0.015 C 
ATOM     22  C   UNL     1       3.604  54.814 282.503  1.00  0.00     0.016 C 
ATOM     23  C   UNL     1       5.245  54.639 279.263  1.00  0.00     0.005 C 
ATOM     24  C   UNL     1       3.322  52.836 279.201  1.00  0.00     0.047 C 
ATOM     25  C   UNL     1       4.423  53.589 278.424  1.00  0.00     0.182 C 
ATOM     26  C   UNL     1       6.633  54.816 278.588  1.00  0.00     0.015 C 
ATOM     27  C   UNL     1       4.592  56.054 279.191  1.00  0.00     0.015 C 
BRANCH   7  28
ATOM     28  O   UNL     1       5.387  46.605 281.862  1.00  0.00    -0.393 OA
ATOM     29  H   UNL     1       6.113  45.976 282.111  1.00  0.00     0.210 HD
ENDBRANCH   7  28
BRANCH  25  30
ATOM     30  O   UNL     1       3.824  54.201 277.274  1.00  0.00    -0.462 OA
BRANCH  30  31
ATOM     31  C   UNL     1       4.539  54.880 276.280  1.00  0.00     0.302 C 
ATOM     32  O   UNL     1       5.714  54.539 275.974  1.00  0.00    -0.253 OA
ATOM     33  C   UNL     1       3.913  56.050 275.603  1.00  0.00     0.139 C 
ENDBRANCH  30  31
ENDBRANCH  25  30
ENDBRANCH   2   6
ENDBRANCH   1   2
BRANCH   1  34
ATOM     34  C   UNL     1       5.381  45.657 284.153  1.00  0.00     0.031 C 
BRANCH  34  35
ATOM     35  C   UNL     1       4.224  45.022 283.410  1.00  0.00    -0.075 C 
ATOM     36  C   UNL     1       2.965  45.368 283.735  1.00  0.00     0.008 C 
BRANCH  35  37
ATOM     37  C   UNL     1       4.498  44.014 282.301  1.00  0.00     0.008 C 
ATOM     38  C   UNL     1       3.374  44.020 281.258  1.00  0.00     0.012 C 
ATOM     39  C   UNL     1       5.863  44.261 281.645  1.00  0.00     0.012 C 
ENDBRANCH  35  37
ENDBRANCH  34  35
ENDBRANCH   1  34
TORSDOF 9
ENDMDL
MODEL 4
REMARK VINA RESULT:    22.125      2.085      9.666
REMARK INTER + INTRA:          47.751
REMARK INTER:                  40.878
REMARK INTRA:                   6.873
REMARK UNBOUND:                14.632
REMARK SMILES C=C(CC[C@@H](C(=O)[O-])[C@@H]1[C@@H](O)C[C@@]2(C)C3=C(CC[C@]12C)[C@]1(C)CC[C@@H](OC(C)=O)C(C)(C)[C@@H]1CC3)C(C)C
REMARK SMILES IDX 4 1 5 2 6 3 7 4 8 5 9 6 10 7 19 8 12 9 13 10 18 11 20 12
REMARK SMILES IDX 14 13 15 14 17 15 16 16 35 17 21 18 34 19 33 20 23 21 22 22
REMARK SMILES IDX 30 23 24 24 25 25 31 26 32 27 11 28 26 30 27 31 29 32 28 33
REMARK SMILES IDX 3 34 2 35 1 36 36 37 37 38 38 39
REMARK H PARENT 11 29
REMARK Flexibility Score: inf
ROOT
ATOM      1  C   UNL     1       4.516  47.701 287.007  1.00  0.00     0.014 C 
ENDROOT
BRANCH   1   2
ATOM      2  C   UNL     1       4.306  49.077 286.314  1.00  0.00     0.042 C 
BRANCH   2   3
ATOM      3  C   UNL     1       5.430  49.969 286.789  1.00  0.00     0.045 C 
ATOM      4  O   UNL     1       5.268  51.217 286.869  1.00  0.00    -0.550 OA
ATOM      5  O   UNL     1       6.653  49.414 287.150  1.00  0.00    -0.550 OA
ENDBRANCH   2   3
BRANCH   2   6
ATOM      6  C   UNL     1       4.204  48.967 284.732  1.00  0.00     0.033 C 
ATOM      7  C   UNL     1       5.439  48.313 284.009  1.00  0.00     0.119 C 
ATOM      8  C   UNL     1       3.957  50.298 283.905  1.00  0.00    -0.017 C 
ATOM      9  C   UNL     1       5.853  49.239 282.854  1.00  0.00     0.043 C 
ATOM     10  C   UNL     1       5.352  50.622 283.288  1.00  0.00    -0.003 C 
ATOM     11  C   UNL     1       3.458  51.592 284.600  1.00  0.00     0.012 C 
ATOM     12  C   UNL     1       2.882  49.940 282.816  1.00  0.00     0.013 C 
ATOM     13  C   UNL     1       6.380  51.205 284.308  1.00  0.00     0.017 C 
ATOM     14  C   UNL     1       5.203  51.659 282.183  1.00  0.00    -0.064 C 
ATOM     15  C   UNL     1       3.517  52.833 283.660  1.00  0.00     0.032 C 
ATOM     16  C   UNL     1       4.365  52.726 282.370  1.00  0.00    -0.064 C 
ATOM     17  C   UNL     1       6.154  51.634 281.013  1.00  0.00     0.032 C 
ATOM     18  C   UNL     1       4.179  53.810 281.260  1.00  0.00    -0.008 C 
ATOM     19  C   UNL     1       6.620  53.047 280.728  1.00  0.00     0.009 C 
ATOM     20  C   UNL     1       5.443  53.955 280.282  1.00  0.00     0.009 C 
ATOM     21  C   UNL     1       2.877  53.456 280.485  1.00  0.00     0.015 C 
ATOM     22  C   UNL     1       3.954  55.188 281.937  1.00  0.00     0.016 C 
ATOM     23  C   UNL     1       5.104  53.934 278.724  1.00  0.00     0.005 C 
ATOM     24  C   UNL     1       3.094  52.381 279.431  1.00  0.00     0.047 C 
ATOM     25  C   UNL     1       4.114  52.771 278.339  1.00  0.00     0.182 C 
ATOM     26  C   UNL     1       6.390  53.776 277.865  1.00  0.00     0.015 C 
ATOM     27  C   UNL     1       4.529  55.325 278.313  1.00  0.00     0.015 C 
BRANCH   7  28
ATOM     28  O   UNL     1       5.163  47.009 283.557  1.00  0.00    -0.393 OA
ATOM     29  H   UNL     1       5.172  47.021 282.565  1.00  0.00     0.210 HD
ENDBRANCH   7  28
BRANCH  25  30
ATOM     30  O   UNL     1       3.392  53.081 277.140  1.00  0.00    -0.462 OA
BRANCH  30  31
ATOM     31  C   UNL     1       3.615  54.222 276.358  1.00  0.00     0.302 C 
ATOM     32  O   UNL     1       3.234  55.360 276.745  1.00  0.00    -0.253 OA
ATOM     33  C   UNL     1       4.276  54.078 275.031  1.00  0.00     0.139 C 
ENDBRANCH  30  31
ENDBRANCH  25  30
ENDBRANCH   2   6
ENDBRANCH   1   2
BRANCH   1  34
ATOM     34  C   UNL     1       5.190  46.649 286.122  1.00  0.00     0.031 C 
BRANCH  34  35
ATOM     35  C   UNL     1       5.302  45.324 286.846  1.00  0.00    -0.075 C 
ATOM     36  C   UNL     1       6.517  44.777 287.031  1.00  0.00     0.008 C 
BRANCH  35  37
ATOM     37  C   UNL     1       4.045  44.635 287.364  1.00  0.00     0.008 C 
ATOM     38  C   UNL     1       3.546  45.293 288.656  1.00  0.00     0.012 C 
ATOM     39  C   UNL     1       2.943  44.605 286.296  1.00  0.00     0.012 C 
ENDBRANCH  35  37
ENDBRANCH  34  35
ENDBRANCH   1  34
TORSDOF 9
ENDMDL
