MODEL 1
REMARK VINA RESULT:    -3.150      0.000      0.000
REMARK INTER + INTRA:          -5.687
REMARK INTER:                  -4.808
REMARK INTRA:                  -0.879
REMARK UNBOUND:                -0.879
REMARK SMILES O=C([O-])CCCCCCCCC(=O)[O-]
REMARK SMILES IDX 7 1 6 2 5 3 4 4 2 5 1 6 3 7 8 8 9 9 10 10 11 11 12 12 13 13
REMARK SMILES IDX 14 14
REMARK H PARENT
REMARK Flexibility Score: inf
ROOT
ATOM      1  C   UNL     1      21.661   5.728  31.053  1.00  0.00     0.000 C 
ENDROOT
BRANCH   1   2
ATOM      2  C   UNL     1      21.823   4.397  30.300  1.00  0.00     0.000 C 
BRANCH   2   3
ATOM      3  C   UNL     1      22.559   4.562  28.960  1.00  0.00     0.006 C 
BRANCH   3   4
ATOM      4  C   UNL     1      21.728   5.321  27.917  1.00  0.00     0.053 C 
BRANCH   4   5
ATOM      5  C   UNL     1      20.409   4.646  27.710  1.00  0.00     0.041 C 
ATOM      6  O   UNL     1      19.339   5.247  27.994  1.00  0.00    -0.550 OA
ATOM      7  O   UNL     1      20.359   3.373  27.158  1.00  0.00    -0.550 OA
ENDBRANCH   4   5
ENDBRANCH   3   4
ENDBRANCH   2   3
ENDBRANCH   1   2
BRANCH   1   8
ATOM      8  C   UNL     1      22.999   6.281  31.571  1.00  0.00     0.000 C 
BRANCH   8   9
ATOM      9  C   UNL     1      23.362   7.637  30.948  1.00  0.00     0.000 C 
BRANCH   9  10
ATOM     10  C   UNL     1      24.701   7.556  30.199  1.00  0.00     0.006 C 
BRANCH  10  11
ATOM     11  C   UNL     1      24.546   7.839  28.698  1.00  0.00     0.053 C 
BRANCH  11  12
ATOM     12  C   UNL     1      25.123   9.169  28.321  1.00  0.00     0.041 C 
ATOM     13  O   UNL     1      25.384  10.021  29.210  1.00  0.00    -0.550 OA
ATOM     14  O   UNL     1      25.340   9.480  26.985  1.00  0.00    -0.550 OA
ENDBRANCH  11  12
ENDBRANCH  10  11
ENDBRANCH   9  10
ENDBRANCH   8   9
ENDBRANCH   1   8
TORSDOF 9
ENDMDL
MODEL 2
REMARK VINA RESULT:    -3.093     11.040     13.087
REMARK INTER + INTRA:          -5.600
REMARK INTER:                  -4.558
REMARK INTRA:                  -1.042
REMARK UNBOUND:                -0.879
REMARK SMILES O=C([O-])CCCCCCCCC(=O)[O-]
REMARK SMILES IDX 7 1 6 2 5 3 4 4 2 5 1 6 3 7 8 8 9 9 10 10 11 11 12 12 13 13
REMARK SMILES IDX 14 14
REMARK H PARENT
REMARK Flexibility Score: inf
ROOT
ATOM      1  C   UNL     1      10.641   8.242  32.991  1.00  0.00     0.000 C 
ENDROOT
BRANCH   1   2
ATOM      2  C   UNL     1      10.181   8.113  31.528  1.00  0.00     0.000 C 
BRANCH   2   3
ATOM      3  C   UNL     1       8.652   8.182  31.382  1.00  0.00     0.006 C 
BRANCH   3   4
ATOM      4  C   UNL     1       8.028   6.823  31.038  1.00  0.00     0.053 C 
BRANCH   4   5
ATOM      5  C   UNL     1       8.156   6.546  29.574  1.00  0.00     0.041 C 
ATOM      6  O   UNL     1       8.112   7.492  28.744  1.00  0.00    -0.550 OA
ATOM      7  O   UNL     1       8.373   5.248  29.128  1.00  0.00    -0.550 OA
ENDBRANCH   4   5
ENDBRANCH   3   4
ENDBRANCH   2   3
ENDBRANCH   1   2
BRANCH   1   8
ATOM      8  C   UNL     1      11.489   7.045  33.451  1.00  0.00     0.000 C 
BRANCH   8   9
ATOM      9  C   UNL     1      10.698   5.729  33.467  1.00  0.00     0.000 C 
BRANCH   9  10
ATOM     10  C   UNL     1      11.471   4.616  32.743  1.00  0.00     0.006 C 
BRANCH  10  11
ATOM     11  C   UNL     1      11.077   4.501  31.264  1.00  0.00     0.053 C 
BRANCH  11  12
ATOM     12  C   UNL     1      12.101   5.122  30.365  1.00  0.00     0.041 C 
ATOM     13  O   UNL     1      13.328   4.965  30.600  1.00  0.00    -0.550 OA
ATOM     14  O   UNL     1      11.701   5.903  29.288  1.00  0.00    -0.550 OA
ENDBRANCH  11  12
ENDBRANCH  10  11
ENDBRANCH   9  10
ENDBRANCH   8   9
ENDBRANCH   1   8
TORSDOF 9
ENDMDL
MODEL 3
REMARK VINA RESULT:    -3.080      3.565      4.647
REMARK INTER + INTRA:          -5.580
REMARK INTER:                  -5.123
REMARK INTRA:                  -0.458
REMARK UNBOUND:                -0.879
REMARK SMILES O=C([O-])CCCCCCCCC(=O)[O-]
REMARK SMILES IDX 7 1 6 2 5 3 4 4 2 5 1 6 3 7 8 8 9 9 10 10 11 11 12 12 13 13
REMARK SMILES IDX 14 14
REMARK H PARENT
REMARK Flexibility Score: inf
ROOT
ATOM      1  C   UNL     1      22.046   4.973  31.631  1.00  0.00     0.000 C 
ENDROOT
BRANCH   1   2
ATOM      2  C   UNL     1      22.531   5.316  33.050  1.00  0.00     0.000 C 
BRANCH   2   3
ATOM      3  C   UNL     1      21.387   5.776  33.969  1.00  0.00     0.006 C 
BRANCH   3   4
ATOM      4  C   UNL     1      21.380   7.295  34.190  1.00  0.00     0.053 C 
BRANCH   4   5
ATOM      5  C   UNL     1      20.241   7.687  35.077  1.00  0.00     0.041 C 
ATOM      6  O   UNL     1      19.849   8.884  35.114  1.00  0.00    -0.550 OA
ATOM      7  O   UNL     1      19.581   6.723  35.828  1.00  0.00    -0.550 OA
ENDBRANCH   4   5
ENDBRANCH   3   4
ENDBRANCH   2   3
ENDBRANCH   1   2
BRANCH   1   8
ATOM      8  C   UNL     1      21.995   6.203  30.710  1.00  0.00     0.000 C 
BRANCH   8   9
ATOM      9  C   UNL     1      23.312   6.993  30.701  1.00  0.00     0.000 C 
BRANCH   9  10
ATOM     10  C   UNL     1      24.090   6.749  29.399  1.00  0.00     0.006 C 
BRANCH  10  11
ATOM     11  C   UNL     1      25.449   7.460  29.391  1.00  0.00     0.053 C 
BRANCH  11  12
ATOM     12  C   UNL     1      25.368   8.809  28.745  1.00  0.00     0.041 C 
ATOM     13  O   UNL     1      25.204   9.839  29.449  1.00  0.00    -0.550 OA
ATOM     14  O   UNL     1      25.438   8.925  27.363  1.00  0.00    -0.550 OA
ENDBRANCH  11  12
ENDBRANCH  10  11
ENDBRANCH   9  10
ENDBRANCH   8   9
ENDBRANCH   1   8
TORSDOF 9
ENDMDL
MODEL 4
REMARK VINA RESULT:    -3.051      4.082      5.878
REMARK INTER + INTRA:          -5.535
REMARK INTER:                  -4.828
REMARK INTRA:                  -0.708
REMARK UNBOUND:                -0.879
REMARK SMILES O=C([O-])CCCCCCCCC(=O)[O-]
REMARK SMILES IDX 7 1 6 2 5 3 4 4 2 5 1 6 3 7 8 8 9 9 10 10 11 11 12 12 13 13
REMARK SMILES IDX 14 14
REMARK H PARENT
REMARK Flexibility Score: inf
ROOT
ATOM      1  C   UNL     1      22.589   5.379  32.916  1.00  0.00     0.000 C 
ENDROOT
BRANCH   1   2
ATOM      2  C   UNL     1      22.106   4.966  31.515  1.00  0.00     0.000 C 
BRANCH   2   3
ATOM      3  C   UNL     1      22.550   5.952  30.423  1.00  0.00     0.006 C 
BRANCH   3   4
ATOM      4  C   UNL     1      23.212   7.213  30.996  1.00  0.00     0.053 C 
BRANCH   4   5
ATOM      5  C   UNL     1      24.298   7.691  30.086  1.00  0.00     0.041 C 
ATOM      6  O   UNL     1      25.162   8.506  30.504  1.00  0.00    -0.550 OA
ATOM      7  O   UNL     1      24.386   7.198  28.790  1.00  0.00    -0.550 OA
ENDBRANCH   4   5
ENDBRANCH   3   4
ENDBRANCH   2   3
ENDBRANCH   1   2
BRANCH   1   8
ATOM      8  C   UNL     1      21.585   5.012  34.020  1.00  0.00     0.000 C 
BRANCH   8   9
ATOM      9  C   UNL     1      21.259   6.195  34.945  1.00  0.00     0.000 C 
BRANCH   9  10
ATOM     10  C   UNL     1      21.071   7.487  34.136  1.00  0.00     0.006 C 
BRANCH  10  11
ATOM     11  C   UNL     1      22.078   8.574  34.534  1.00  0.00     0.053 C 
BRANCH  11  12
ATOM     12  C   UNL     1      21.704   9.236  35.824  1.00  0.00     0.041 C 
ATOM     13  O   UNL     1      20.687   9.975  35.884  1.00  0.00    -0.550 OA
ATOM     14  O   UNL     1      22.497   9.064  36.951  1.00  0.00    -0.550 OA
ENDBRANCH  11  12
ENDBRANCH  10  11
ENDBRANCH   9  10
ENDBRANCH   8   9
ENDBRANCH   1   8
TORSDOF 9
ENDMDL
MODEL 5
REMARK VINA RESULT:    -3.038     12.271     14.554
REMARK INTER + INTRA:          -5.516
REMARK INTER:                  -4.691
REMARK INTRA:                  -0.825
REMARK UNBOUND:                -0.879
REMARK SMILES O=C([O-])CCCCCCCCC(=O)[O-]
REMARK SMILES IDX 7 1 6 2 5 3 4 4 2 5 1 6 3 7 8 8 9 9 10 10 11 11 12 12 13 13
REMARK SMILES IDX 14 14
REMARK H PARENT
REMARK Flexibility Score: inf
ROOT
ATOM      1  C   UNL     1       8.139   7.719  31.120  1.00  0.00     0.000 C 
ENDROOT
BRANCH   1   2
ATOM      2  C   UNL     1       9.616   8.075  31.365  1.00  0.00     0.000 C 
BRANCH   2   3
ATOM      3  C   UNL     1       9.907   8.403  32.838  1.00  0.00     0.006 C 
BRANCH   3   4
ATOM      4  C   UNL     1      11.301   7.940  33.285  1.00  0.00     0.053 C 
BRANCH   4   5
ATOM      5  C   UNL     1      11.378   6.446  33.287  1.00  0.00     0.041 C 
ATOM      6  O   UNL     1      10.604   5.773  34.018  1.00  0.00    -0.550 OA
ATOM      7  O   UNL     1      12.271   5.795  32.446  1.00  0.00    -0.550 OA
ENDBRANCH   4   5
ENDBRANCH   3   4
ENDBRANCH   2   3
ENDBRANCH   1   2
BRANCH   1   8
ATOM      8  C   UNL     1       7.924   6.214  30.890  1.00  0.00     0.000 C 
BRANCH   8   9
ATOM      9  C   UNL     1       8.670   5.690  29.654  1.00  0.00     0.000 C 
BRANCH   9  10
ATOM     10  C   UNL     1       9.640   4.561  30.036  1.00  0.00     0.006 C 
BRANCH  10  11
ATOM     11  C   UNL     1       9.250   3.881  31.355  1.00  0.00     0.053 C 
BRANCH  11  12
ATOM     12  C   UNL     1       9.026   2.410  31.178  1.00  0.00     0.041 C 
ATOM     13  O   UNL     1       8.929   1.920  30.023  1.00  0.00    -0.550 OA
ATOM     14  O   UNL     1       8.890   1.588  32.289  1.00  0.00    -0.550 OA
ENDBRANCH  11  12
ENDBRANCH  10  11
ENDBRANCH   9  10
ENDBRANCH   8   9
ENDBRANCH   1   8
TORSDOF 9
ENDMDL
MODEL 6
REMARK VINA RESULT:    -3.021     11.628     13.616
REMARK INTER + INTRA:          -5.490
REMARK INTER:                  -4.635
REMARK INTRA:                  -0.855
REMARK UNBOUND:                -0.879
REMARK SMILES O=C([O-])CCCCCCCCC(=O)[O-]
REMARK SMILES IDX 7 1 6 2 5 3 4 4 2 5 1 6 3 7 8 8 9 9 10 10 11 11 12 12 13 13
REMARK SMILES IDX 14 14
REMARK H PARENT
REMARK Flexibility Score: inf
ROOT
ATOM      1  C   UNL     1      10.235   8.089  31.345  1.00  0.00     0.000 C 
ENDROOT
BRANCH   1   2
ATOM      2  C   UNL     1      11.029   8.289  32.648  1.00  0.00     0.000 C 
BRANCH   2   3
ATOM      3  C   UNL     1      10.548   7.366  33.779  1.00  0.00     0.006 C 
BRANCH   3   4
ATOM      4  C   UNL     1      10.745   5.879  33.455  1.00  0.00     0.053 C 
BRANCH   4   5
ATOM      5  C   UNL     1      12.202   5.556  33.352  1.00  0.00     0.041 C 
ATOM      6  O   UNL     1      12.781   5.591  32.234  1.00  0.00    -0.550 OA
ATOM      7  O   UNL     1      12.932   5.265  34.497  1.00  0.00    -0.550 OA
ENDBRANCH   4   5
ENDBRANCH   3   4
ENDBRANCH   2   3
ENDBRANCH   1   2
BRANCH   1   8
ATOM      8  C   UNL     1       8.725   8.312  31.532  1.00  0.00     0.000 C 
BRANCH   8   9
ATOM      9  C   UNL     1       7.875   7.416  30.619  1.00  0.00     0.000 C 
BRANCH   9  10
ATOM     10  C   UNL     1       8.205   5.932  30.845  1.00  0.00     0.006 C 
BRANCH  10  11
ATOM     11  C   UNL     1       8.690   5.242  29.564  1.00  0.00     0.053 C 
BRANCH  11  12
ATOM     12  C   UNL     1      10.082   4.709  29.712  1.00  0.00     0.041 C 
ATOM     13  O   UNL     1      10.331   3.821  30.569  1.00  0.00    -0.550 OA
ATOM     14  O   UNL     1      11.110   5.217  28.928  1.00  0.00    -0.550 OA
ENDBRANCH  11  12
ENDBRANCH  10  11
ENDBRANCH   9  10
ENDBRANCH   8   9
ENDBRANCH   1   8
TORSDOF 9
ENDMDL
MODEL 7
REMARK VINA RESULT:    -3.021     12.905     14.301
REMARK INTER + INTRA:          -5.489
REMARK INTER:                  -4.509
REMARK INTRA:                  -0.980
REMARK UNBOUND:                -0.879
REMARK SMILES O=C([O-])CCCCCCCCC(=O)[O-]
REMARK SMILES IDX 7 1 6 2 5 3 4 4 2 5 1 6 3 7 8 8 9 9 10 10 11 11 12 12 13 13
REMARK SMILES IDX 14 14
REMARK H PARENT
REMARK Flexibility Score: inf
ROOT
ATOM      1  C   UNL     1      11.018   7.851  33.100  1.00  0.00     0.000 C 
ENDROOT
BRANCH   1   2
ATOM      2  C   UNL     1      10.432   8.031  31.689  1.00  0.00     0.000 C 
BRANCH   2   3
ATOM      3  C   UNL     1       8.903   8.195  31.701  1.00  0.00     0.006 C 
BRANCH   3   4
ATOM      4  C   UNL     1       8.179   7.051  30.977  1.00  0.00     0.053 C 
BRANCH   4   5
ATOM      5  C   UNL     1       8.575   7.013  29.535  1.00  0.00     0.041 C 
ATOM      6  O   UNL     1       8.406   8.025  28.805  1.00  0.00    -0.550 OA
ATOM      7  O   UNL     1       9.176   5.877  29.010  1.00  0.00    -0.550 OA
ENDBRANCH   4   5
ENDBRANCH   3   4
ENDBRANCH   2   3
ENDBRANCH   1   2
BRANCH   1   8
ATOM      8  C   UNL     1      11.383   6.389  33.405  1.00  0.00     0.000 C 
BRANCH   8   9
ATOM      9  C   UNL     1      10.406   5.725  34.387  1.00  0.00     0.000 C 
BRANCH   9  10
ATOM     10  C   UNL     1       9.498   4.720  33.662  1.00  0.00     0.006 C 
BRANCH  10  11
ATOM     11  C   UNL     1      10.100   4.247  32.332  1.00  0.00     0.053 C 
BRANCH  11  12
ATOM     12  C   UNL     1       9.281   3.160  31.706  1.00  0.00     0.041 C 
ATOM     13  O   UNL     1       9.327   2.971  30.462  1.00  0.00    -0.550 OA
ATOM     14  O   UNL     1       8.442   2.380  32.491  1.00  0.00    -0.550 OA
ENDBRANCH  11  12
ENDBRANCH  10  11
ENDBRANCH   9  10
ENDBRANCH   8   9
ENDBRANCH   1   8
TORSDOF 9
ENDMDL
MODEL 8
REMARK VINA RESULT:    -3.020      3.430      6.202
REMARK INTER + INTRA:          -5.488
REMARK INTER:                  -5.032
REMARK INTRA:                  -0.457
REMARK UNBOUND:                -0.879
REMARK SMILES O=C([O-])CCCCCCCCC(=O)[O-]
REMARK SMILES IDX 7 1 6 2 5 3 4 4 2 5 1 6 3 7 8 8 9 9 10 10 11 11 12 12 13 13
REMARK SMILES IDX 14 14
REMARK H PARENT
REMARK Flexibility Score: inf
ROOT
ATOM      1  C   UNL     1      22.461   5.447  30.375  1.00  0.00     0.000 C 
ENDROOT
BRANCH   1   2
ATOM      2  C   UNL     1      23.338   6.708  30.470  1.00  0.00     0.000 C 
BRANCH   2   3
ATOM      3  C   UNL     1      24.209   6.916  29.222  1.00  0.00     0.006 C 
BRANCH   3   4
ATOM      4  C   UNL     1      25.452   7.772  29.502  1.00  0.00     0.053 C 
BRANCH   4   5
ATOM      5  C   UNL     1      25.252   9.165  28.997  1.00  0.00     0.041 C 
ATOM      6  O   UNL     1      25.149  10.124  29.806  1.00  0.00    -0.550 OA
ATOM      7  O   UNL     1      25.228   9.411  27.630  1.00  0.00    -0.550 OA
ENDBRANCH   4   5
ENDBRANCH   3   4
ENDBRANCH   2   3
ENDBRANCH   1   2
BRANCH   1   8
ATOM      8  C   UNL     1      21.472   5.325  31.545  1.00  0.00     0.000 C 
BRANCH   8   9
ATOM      9  C   UNL     1      22.072   4.598  32.758  1.00  0.00     0.000 C 
BRANCH   9  10
ATOM     10  C   UNL     1      21.700   5.313  34.066  1.00  0.00     0.006 C 
BRANCH  10  11
ATOM     11  C   UNL     1      21.325   6.784  33.839  1.00  0.00     0.053 C 
BRANCH  11  12
ATOM     12  C   UNL     1      20.300   7.255  34.823  1.00  0.00     0.041 C 
ATOM     13  O   UNL     1      19.498   6.436  35.343  1.00  0.00    -0.550 OA
ATOM     14  O   UNL     1      20.207   8.604  35.139  1.00  0.00    -0.550 OA
ENDBRANCH  11  12
ENDBRANCH  10  11
ENDBRANCH   9  10
ENDBRANCH   8   9
ENDBRANCH   1   8
TORSDOF 9
ENDMDL
MODEL 9
REMARK VINA RESULT:    -3.011     10.102     12.209
REMARK INTER + INTRA:          -5.475
REMARK INTER:                  -4.525
REMARK INTRA:                  -0.950
REMARK UNBOUND:                -0.879
REMARK SMILES O=C([O-])CCCCCCCCC(=O)[O-]
REMARK SMILES IDX 7 1 6 2 5 3 4 4 2 5 1 6 3 7 8 8 9 9 10 10 11 11 12 12 13 13
REMARK SMILES IDX 14 14
REMARK H PARENT
REMARK Flexibility Score: inf
ROOT
ATOM      1  C   UNL     1      17.123   8.872  37.602  1.00  0.00     0.000 C 
ENDROOT
BRANCH   1   2
ATOM      2  C   UNL     1      18.607   8.688  37.240  1.00  0.00     0.000 C 
BRANCH   2   3
ATOM      3  C   UNL     1      19.518   9.701  37.953  1.00  0.00     0.006 C 
BRANCH   3   4
ATOM      4  C   UNL     1      20.788   9.055  38.524  1.00  0.00     0.053 C 
BRANCH   4   5
ATOM      5  C   UNL     1      21.996   9.537  37.785  1.00  0.00     0.041 C 
ATOM      6  O   UNL     1      22.926  10.121  38.403  1.00  0.00    -0.550 OA
ATOM      7  O   UNL     1      22.117   9.299  36.422  1.00  0.00    -0.550 OA
ENDBRANCH   4   5
ENDBRANCH   3   4
ENDBRANCH   2   3
ENDBRANCH   1   2
BRANCH   1   8
ATOM      8  C   UNL     1      16.903   9.972  38.652  1.00  0.00     0.000 C 
BRANCH   8   9
ATOM      9  C   UNL     1      15.711   9.680  39.577  1.00  0.00     0.000 C 
BRANCH   9  10
ATOM     10  C   UNL     1      16.122   8.739  40.721  1.00  0.00     0.006 C 
BRANCH  10  11
ATOM     11  C   UNL     1      17.443   9.163  41.376  1.00  0.00     0.053 C 
BRANCH  11  12
ATOM     12  C   UNL     1      18.488   8.096  41.263  1.00  0.00     0.041 C 
ATOM     13  O   UNL     1      18.303   7.106  40.507  1.00  0.00    -0.550 OA
ATOM     14  O   UNL     1      19.651   8.176  42.018  1.00  0.00    -0.550 OA
ENDBRANCH  11  12
ENDBRANCH  10  11
ENDBRANCH   9  10
ENDBRANCH   8   9
ENDBRANCH   1   8
TORSDOF 9
ENDMDL
