MODEL 1
REMARK VINA RESULT:    -1.305      0.000      0.000
REMARK INTER + INTRA:          -1.305
REMARK INTER:                  -1.305
REMARK INTRA:                   0.000
REMARK UNBOUND:                 0.000
REMARK SMILES CC1=CC[C@@H]2[C@@H](C1)C2(C)C
REMARK SMILES IDX 1 1 2 2 3 3 4 4 5 5 6 6 7 7 8 8 9 9 10 10
REMARK H PARENT
REMARK Flexibility Score: inf
ROOT
ATOM      1  C   UNL     1     135.711 134.876 161.496  1.00  0.00     0.039 C 
ATOM      2  C   UNL     1     135.925 136.341 161.747  1.00  0.00    -0.077 C 
ATOM      3  C   UNL     1     137.070 136.938 161.304  1.00  0.00    -0.028 C 
ATOM      4  C   UNL     1     137.357 138.418 161.551  1.00  0.00     0.031 C 
ATOM      5  C   UNL     1     136.532 138.861 162.764  1.00  0.00     0.003 C 
ATOM      6  C   UNL     1     135.067 138.618 162.242  1.00  0.00     0.003 C 
ATOM      7  C   UNL     1     134.882 137.128 162.551  1.00  0.00     0.034 C 
ATOM      8  C   UNL     1     135.426 139.860 163.028  1.00  0.00    -0.029 C 
ATOM      9  C   UNL     1     134.875 139.923 164.454  1.00  0.00     0.012 C 
ATOM     10  C   UNL     1     135.520 141.173 162.246  1.00  0.00     0.012 C 
ENDROOT
TORSDOF 0
ENDMDL
MODEL 2
REMARK VINA RESULT:    -1.053      1.144      4.104
REMARK INTER + INTRA:          -1.053
REMARK INTER:                  -1.053
REMARK INTRA:                   0.000
REMARK UNBOUND:                 0.000
REMARK SMILES CC1=CC[C@@H]2[C@@H](C1)C2(C)C
REMARK SMILES IDX 1 1 2 2 3 3 4 4 5 5 6 6 7 7 8 8 9 9 10 10
REMARK H PARENT
REMARK Flexibility Score: inf
ROOT
ATOM      1  C   UNL     1     135.659 140.801 164.102  1.00  0.00     0.039 C 
ATOM      2  C   UNL     1     135.738 139.597 163.208  1.00  0.00    -0.077 C 
ATOM      3  C   UNL     1     134.875 139.483 162.156  1.00  0.00    -0.028 C 
ATOM      4  C   UNL     1     134.889 138.271 161.226  1.00  0.00     0.031 C 
ATOM      5  C   UNL     1     135.526 137.103 161.986  1.00  0.00     0.003 C 
ATOM      6  C   UNL     1     136.972 137.664 162.253  1.00  0.00     0.003 C 
ATOM      7  C   UNL     1     136.745 138.485 163.529  1.00  0.00     0.034 C 
ATOM      8  C   UNL     1     136.752 136.232 161.823  1.00  0.00    -0.029 C 
ATOM      9  C   UNL     1     136.998 135.171 162.899  1.00  0.00     0.012 C 
ATOM     10  C   UNL     1     137.122 135.876 160.380  1.00  0.00     0.012 C 
ENDROOT
TORSDOF 0
ENDMDL
MODEL 3
REMARK VINA RESULT:    -0.856      1.102      3.944
REMARK INTER + INTRA:          -0.856
REMARK INTER:                  -0.856
REMARK INTRA:                   0.000
REMARK UNBOUND:                 0.000
REMARK SMILES CC1=CC[C@@H]2[C@@H](C1)C2(C)C
REMARK SMILES IDX 1 1 2 2 3 3 4 4 5 5 6 6 7 7 8 8 9 9 10 10
REMARK H PARENT
REMARK Flexibility Score: inf
ROOT
ATOM      1  C   UNL     1     134.875 141.150 163.750  1.00  0.00     0.039 C 
ATOM      2  C   UNL     1     135.559 139.950 163.159  1.00  0.00    -0.077 C 
ATOM      3  C   UNL     1     136.743 140.110 162.499  1.00  0.00    -0.028 C 
ATOM      4  C   UNL     1     137.474 138.934 161.854  1.00  0.00     0.031 C 
ATOM      5  C   UNL     1     136.444 137.832 161.582  1.00  0.00     0.003 C 
ATOM      6  C   UNL     1     135.958 137.502 163.043  1.00  0.00     0.003 C 
ATOM      7  C   UNL     1     134.884 138.577 163.251  1.00  0.00     0.034 C 
ATOM      8  C   UNL     1     136.224 136.406 162.036  1.00  0.00    -0.029 C 
ATOM      9  C   UNL     1     134.985 135.688 161.495  1.00  0.00     0.012 C 
ATOM     10  C   UNL     1     137.493 135.573 162.237  1.00  0.00     0.012 C 
ENDROOT
TORSDOF 0
ENDMDL
MODEL 4
REMARK VINA RESULT:    -0.757      1.179      1.212
REMARK INTER + INTRA:          -0.757
REMARK INTER:                  -0.757
REMARK INTRA:                   0.000
REMARK UNBOUND:                 0.000
REMARK SMILES CC1=CC[C@@H]2[C@@H](C1)C2(C)C
REMARK SMILES IDX 1 1 2 2 3 3 4 4 5 5 6 6 7 7 8 8 9 9 10 10
REMARK H PARENT
REMARK Flexibility Score: inf
ROOT
ATOM      1  C   UNL     1     136.750 134.878 161.874  1.00  0.00     0.039 C 
ATOM      2  C   UNL     1     136.504 136.347 162.069  1.00  0.00    -0.077 C 
ATOM      3  C   UNL     1     136.523 137.180 160.988  1.00  0.00    -0.028 C 
ATOM      4  C   UNL     1     136.306 138.686 161.125  1.00  0.00     0.031 C 
ATOM      5  C   UNL     1     136.658 139.084 162.563  1.00  0.00     0.003 C 
ATOM      6  C   UNL     1     135.597 138.253 163.377  1.00  0.00     0.003 C 
ATOM      7  C   UNL     1     136.300 136.894 163.487  1.00  0.00     0.034 C 
ATOM      8  C   UNL     1     135.924 139.684 163.741  1.00  0.00    -0.029 C 
ATOM      9  C   UNL     1     136.723 139.873 165.033  1.00  0.00     0.012 C 
ATOM     10  C   UNL     1     134.875 140.745 163.396  1.00  0.00     0.012 C 
ENDROOT
TORSDOF 0
ENDMDL
MODEL 5
REMARK VINA RESULT:     0.754     22.142     23.493
REMARK INTER + INTRA:           0.754
REMARK INTER:                   0.754
REMARK INTRA:                   0.000
REMARK UNBOUND:                 0.000
REMARK SMILES CC1=CC[C@@H]2[C@@H](C1)C2(C)C
REMARK SMILES IDX 1 1 2 2 3 3 4 4 5 5 6 6 7 7 8 8 9 9 10 10
REMARK H PARENT
REMARK Flexibility Score: inf
ROOT
ATOM      1  C   UNL     1     155.124 148.815 163.387  1.00  0.00     0.039 C 
ATOM      2  C   UNL     1     154.957 150.301 163.248  1.00  0.00    -0.077 C 
ATOM      3  C   UNL     1     154.988 151.088 164.363  1.00  0.00    -0.028 C 
ATOM      4  C   UNL     1     154.797 152.602 164.289  1.00  0.00     0.031 C 
ATOM      5  C   UNL     1     154.037 152.918 162.997  1.00  0.00     0.003 C 
ATOM      6  C   UNL     1     155.049 152.392 161.911  1.00  0.00     0.003 C 
ATOM      7  C   UNL     1     154.689 150.902 161.863  1.00  0.00     0.034 C 
ATOM      8  C   UNL     1     154.312 153.700 161.731  1.00  0.00    -0.029 C 
ATOM      9  C   UNL     1     153.215 153.700 160.663  1.00  0.00     0.012 C 
ATOM     10  C   UNL     1     155.125 154.985 161.910  1.00  0.00     0.012 C 
ENDROOT
TORSDOF 0
ENDMDL
MODEL 6
REMARK VINA RESULT:     1.017     13.172     14.816
REMARK INTER + INTRA:           1.017
REMARK INTER:                   1.017
REMARK INTRA:                   0.000
REMARK UNBOUND:                 0.000
REMARK SMILES CC1=CC[C@@H]2[C@@H](C1)C2(C)C
REMARK SMILES IDX 1 1 2 2 3 3 4 4 5 5 6 6 7 7 8 8 9 9 10 10
REMARK H PARENT
REMARK Flexibility Score: inf
ROOT
ATOM      1  C   UNL     1     147.885 135.308 158.752  1.00  0.00     0.039 C 
ATOM      2  C   UNL     1     148.693 135.308 160.018  1.00  0.00    -0.077 C 
ATOM      3  C   UNL     1     148.122 134.875 161.179  1.00  0.00    -0.028 C 
ATOM      4  C   UNL     1     148.883 134.875 162.504  1.00  0.00     0.031 C 
ATOM      5  C   UNL     1     150.014 135.905 162.396  1.00  0.00     0.003 C 
ATOM      6  C   UNL     1     150.867 135.299 161.220  1.00  0.00     0.003 C 
ATOM      7  C   UNL     1     150.126 135.854 159.996  1.00  0.00     0.034 C 
ATOM      8  C   UNL     1     151.525 135.877 162.452  1.00  0.00    -0.029 C 
ATOM      9  C   UNL     1     152.251 137.210 162.252  1.00  0.00     0.012 C 
ATOM     10  C   UNL     1     152.133 134.883 163.445  1.00  0.00     0.012 C 
ENDROOT
TORSDOF 0
ENDMDL
MODEL 7
REMARK VINA RESULT:     1.372     13.054     14.601
REMARK INTER + INTRA:           1.372
REMARK INTER:                   1.372
REMARK INTRA:                   0.000
REMARK UNBOUND:                 0.000
REMARK SMILES CC1=CC[C@@H]2[C@@H](C1)C2(C)C
REMARK SMILES IDX 1 1 2 2 3 3 4 4 5 5 6 6 7 7 8 8 9 9 10 10
REMARK H PARENT
REMARK Flexibility Score: inf
ROOT
ATOM      1  C   UNL     1     147.500 135.482 158.388  1.00  0.00     0.039 C 
ATOM      2  C   UNL     1     148.679 135.458 159.319  1.00  0.00    -0.077 C 
ATOM      3  C   UNL     1     149.875 134.971 158.876  1.00  0.00    -0.028 C 
ATOM      4  C   UNL     1     151.103 134.897 159.782  1.00  0.00     0.031 C 
ATOM      5  C   UNL     1     150.615 134.876 161.235  1.00  0.00     0.003 C 
ATOM      6  C   UNL     1     149.886 136.268 161.332  1.00  0.00     0.003 C 
ATOM      7  C   UNL     1     148.502 135.923 160.770  1.00  0.00     0.034 C 
ATOM      8  C   UNL     1     150.768 135.762 162.451  1.00  0.00    -0.029 C 
ATOM      9  C   UNL     1     150.037 135.325 163.724  1.00  0.00     0.012 C 
ATOM     10  C   UNL     1     152.135 136.431 162.615  1.00  0.00     0.012 C 
ENDROOT
TORSDOF 0
ENDMDL
MODEL 8
REMARK VINA RESULT:     1.516     13.364     15.052
REMARK INTER + INTRA:           1.516
REMARK INTER:                   1.516
REMARK INTRA:                   0.000
REMARK UNBOUND:                 0.000
REMARK SMILES CC1=CC[C@@H]2[C@@H](C1)C2(C)C
REMARK SMILES IDX 1 1 2 2 3 3 4 4 5 5 6 6 7 7 8 8 9 9 10 10
REMARK H PARENT
REMARK Flexibility Score: inf
ROOT
ATOM      1  C   UNL     1     151.036 135.957 165.222  1.00  0.00     0.039 C 
ATOM      2  C   UNL     1     150.851 135.978 163.732  1.00  0.00    -0.077 C 
ATOM      3  C   UNL     1     151.509 136.912 162.986  1.00  0.00    -0.028 C 
ATOM      4  C   UNL     1     151.342 137.001 161.470  1.00  0.00     0.031 C 
ATOM      5  C   UNL     1     150.002 136.354 161.106  1.00  0.00     0.003 C 
ATOM      6  C   UNL     1     150.235 134.875 161.594  1.00  0.00     0.003 C 
ATOM      7  C   UNL     1     149.876 134.989 163.081  1.00  0.00     0.034 C 
ATOM      8  C   UNL     1     149.548 135.171 160.279  1.00  0.00    -0.029 C 
ATOM      9  C   UNL     1     148.045 134.888 160.239  1.00  0.00     0.012 C 
ATOM     10  C   UNL     1     150.352 134.910 159.003  1.00  0.00     0.012 C 
ENDROOT
TORSDOF 0
ENDMDL
