MODEL 1
REMARK VINA RESULT:    -6.363      0.000      0.000
REMARK INTER + INTRA:          -7.706
REMARK INTER:                  -7.479
REMARK INTRA:                  -0.227
REMARK UNBOUND:                -0.227
REMARK SMILES O=c1c(O)c(-c2ccc(O)c(O)c2)oc2cc(O)ccc12
REMARK SMILES IDX 5 1 3 2 2 3 1 4 21 5 15 6 14 7 16 8 17 9 19 10 20 11 6 12
REMARK SMILES IDX 7 13 8 14 9 15 13 16 11 17 10 18 12 20 4 22 18 24
REMARK H PARENT 10 19 12 21 4 23 18 25
REMARK Flexibility Score: inf
ROOT
ATOM      1  C   UNL     1     -16.799  14.788  -7.093  1.00  0.00     0.180 A 
ATOM      2  C   UNL     1     -18.168  14.445  -7.092  1.00  0.00     0.208 A 
ATOM      3  C   UNL     1     -18.650  13.585  -8.090  1.00  0.00     0.235 A 
ATOM      4  O   UNL     1     -19.871  13.272  -8.116  1.00  0.00    -0.285 OA
ATOM      5  C   UNL     1     -17.761  13.072  -9.048  1.00  0.00     0.069 A 
ATOM      6  C   UNL     1     -16.402  13.445  -8.967  1.00  0.00     0.142 A 
ATOM      7  O   UNL     1     -15.987  14.268  -8.012  1.00  0.00    -0.452 OA
ATOM      8  C   UNL     1     -15.484  12.947  -9.898  1.00  0.00     0.094 A 
ATOM      9  C   UNL     1     -15.908  12.081 -10.914  1.00  0.00     0.119 A 
ATOM     10  C   UNL     1     -17.254  11.711 -10.998  1.00  0.00     0.047 A 
ATOM     11  C   UNL     1     -18.179  12.203 -10.072  1.00  0.00     0.020 A 
ENDROOT
BRANCH   1  12
ATOM     12  C   UNL     1     -16.217  15.703  -6.085  1.00  0.00     0.025 A 
ATOM     13  C   UNL     1     -15.287  15.208  -5.157  1.00  0.00     0.016 A 
ATOM     14  C   UNL     1     -14.710  16.058  -4.212  1.00  0.00     0.051 A 
ATOM     15  C   UNL     1     -15.042  17.419  -4.188  1.00  0.00     0.157 A 
ATOM     16  C   UNL     1     -16.533  17.075  -6.072  1.00  0.00     0.062 A 
ATOM     17  C   UNL     1     -15.952  17.929  -5.124  1.00  0.00     0.158 A 
BRANCH  15  18
ATOM     18  O   UNL     1     -14.470  18.270  -3.245  1.00  0.00    -0.504 OA
ATOM     19  H   UNL     1     -14.066  17.914  -2.387  1.00  0.00     0.293 HD
ENDBRANCH  15  18
BRANCH  17  20
ATOM     20  O   UNL     1     -16.270  19.286  -5.108  1.00  0.00    -0.504 OA
ATOM     21  H   UNL     1     -15.553  19.998  -5.029  1.00  0.00     0.293 HD
ENDBRANCH  17  20
ENDBRANCH   1  12
BRANCH   2  22
ATOM     22  O   UNL     1     -19.018  14.931  -6.095  1.00  0.00    -0.502 OA
ATOM     23  H   UNL     1     -19.893  14.477  -5.861  1.00  0.00     0.293 HD
ENDBRANCH   2  22
BRANCH   9  24
ATOM     24  O   UNL     1     -15.000  11.581 -11.845  1.00  0.00    -0.508 OA
ATOM     25  H   UNL     1     -14.066  11.965 -11.933  1.00  0.00     0.293 HD
ENDBRANCH   9  24
TORSDOF 5
ENDMDL
MODEL 2
REMARK VINA RESULT:    -6.328      1.918      7.200
REMARK INTER + INTRA:          -7.665
REMARK INTER:                  -7.639
REMARK INTRA:                  -0.026
REMARK UNBOUND:                -0.227
REMARK SMILES O=c1c(O)c(-c2ccc(O)c(O)c2)oc2cc(O)ccc12
REMARK SMILES IDX 5 1 3 2 2 3 1 4 21 5 15 6 14 7 16 8 17 9 19 10 20 11 6 12
REMARK SMILES IDX 7 13 8 14 9 15 13 16 11 17 10 18 12 20 4 22 18 24
REMARK H PARENT 10 19 12 21 4 23 18 25
REMARK Flexibility Score: inf
ROOT
ATOM      1  C   UNL     1     -16.346  14.816  -8.255  1.00  0.00     0.180 A 
ATOM      2  C   UNL     1     -15.075  15.384  -8.485  1.00  0.00     0.208 A 
ATOM      3  C   UNL     1     -14.538  16.252  -7.522  1.00  0.00     0.235 A 
ATOM      4  O   UNL     1     -13.409  16.781  -7.710  1.00  0.00    -0.285 OA
ATOM      5  C   UNL     1     -15.266  16.519  -6.351  1.00  0.00     0.069 A 
ATOM      6  C   UNL     1     -16.520  15.893  -6.185  1.00  0.00     0.142 A 
ATOM      7  O   UNL     1     -16.996  15.083  -7.124  1.00  0.00    -0.452 OA
ATOM      8  C   UNL     1     -17.270  16.125  -5.028  1.00  0.00     0.094 A 
ATOM      9  C   UNL     1     -16.783  16.981  -4.031  1.00  0.00     0.119 A 
ATOM     10  C   UNL     1     -15.541  17.604  -4.193  1.00  0.00     0.047 A 
ATOM     11  C   UNL     1     -14.784  17.377  -5.346  1.00  0.00     0.020 A 
ENDROOT
BRANCH   1  12
ATOM     12  C   UNL     1     -16.987  13.904  -9.230  1.00  0.00     0.025 A 
ATOM     13  C   UNL     1     -18.262  14.213  -9.729  1.00  0.00     0.016 A 
ATOM     14  C   UNL     1     -18.876  13.379 -10.666  1.00  0.00     0.051 A 
ATOM     15  C   UNL     1     -18.219  12.232 -11.129  1.00  0.00     0.157 A 
ATOM     16  C   UNL     1     -16.321  12.762  -9.712  1.00  0.00     0.062 A 
ATOM     17  C   UNL     1     -16.937  11.925 -10.654  1.00  0.00     0.158 A 
BRANCH  15  18
ATOM     18  O   UNL     1     -18.829  11.396 -12.062  1.00  0.00    -0.504 OA
ATOM     19  H   UNL     1     -18.610  11.455 -13.049  1.00  0.00     0.293 HD
ENDBRANCH  15  18
BRANCH  17  20
ATOM     20  O   UNL     1     -16.279  10.791 -11.127  1.00  0.00    -0.504 OA
ATOM     21  H   UNL     1     -15.596  10.846 -11.875  1.00  0.00     0.293 HD
ENDBRANCH  17  20
ENDBRANCH   1  12
BRANCH   2  22
ATOM     22  O   UNL     1     -14.353  15.060  -9.636  1.00  0.00    -0.502 OA
ATOM     23  H   UNL     1     -13.515  15.561  -9.909  1.00  0.00     0.293 HD
ENDBRANCH   2  22
BRANCH   9  24
ATOM     24  O   UNL     1     -17.524  17.218  -2.875  1.00  0.00    -0.508 OA
ATOM     25  H   UNL     1     -18.433  16.795  -2.733  1.00  0.00     0.293 HD
ENDBRANCH   9  24
TORSDOF 5
ENDMDL
MODEL 3
REMARK VINA RESULT:    -6.276      2.407      6.487
REMARK INTER + INTRA:          -7.604
REMARK INTER:                  -7.382
REMARK INTRA:                  -0.222
REMARK UNBOUND:                -0.227
REMARK SMILES O=c1c(O)c(-c2ccc(O)c(O)c2)oc2cc(O)ccc12
REMARK SMILES IDX 5 1 3 2 2 3 1 4 21 5 15 6 14 7 16 8 17 9 19 10 20 11 6 12
REMARK SMILES IDX 7 13 8 14 9 15 13 16 11 17 10 18 12 20 4 22 18 24
REMARK H PARENT 10 19 12 21 4 23 18 25
REMARK Flexibility Score: inf
ROOT
ATOM      1  C   UNL     1     -17.690  13.774  -8.206  1.00  0.00     0.180 A 
ATOM      2  C   UNL     1     -17.987  14.373  -6.964  1.00  0.00     0.208 A 
ATOM      3  C   UNL     1     -17.089  15.311  -6.433  1.00  0.00     0.235 A 
ATOM      4  O   UNL     1     -17.327  15.852  -5.319  1.00  0.00    -0.285 OA
ATOM      5  C   UNL     1     -15.932  15.645  -7.155  1.00  0.00     0.069 A 
ATOM      6  C   UNL     1     -15.718  15.018  -8.402  1.00  0.00     0.142 A 
ATOM      7  O   UNL     1     -16.589  14.129  -8.865  1.00  0.00    -0.452 OA
ATOM      8  C   UNL     1     -14.583  15.331  -9.156  1.00  0.00     0.094 A 
ATOM      9  C   UNL     1     -13.653  16.264  -8.678  1.00  0.00     0.119 A 
ATOM     10  C   UNL     1     -13.862  16.885  -7.442  1.00  0.00     0.047 A 
ATOM     11  C   UNL     1     -14.994  16.579  -6.681  1.00  0.00     0.020 A 
ENDROOT
BRANCH   1  12
ATOM     12  C   UNL     1     -18.578  12.763  -8.823  1.00  0.00     0.025 A 
ATOM     13  C   UNL     1     -19.235  13.064 -10.027  1.00  0.00     0.016 A 
ATOM     14  C   UNL     1     -20.060  12.118 -10.639  1.00  0.00     0.051 A 
ATOM     15  C   UNL     1     -20.230  10.851 -10.064  1.00  0.00     0.157 A 
ATOM     16  C   UNL     1     -18.735  11.483  -8.260  1.00  0.00     0.062 A 
ATOM     17  C   UNL     1     -19.562  10.532  -8.875  1.00  0.00     0.158 A 
BRANCH  15  18
ATOM     18  O   UNL     1     -21.054   9.905 -10.670  1.00  0.00    -0.504 OA
ATOM     19  H   UNL     1     -20.719   8.975 -10.890  1.00  0.00     0.293 HD
ENDBRANCH  15  18
BRANCH  17  20
ATOM     20  O   UNL     1     -19.721   9.267  -8.313  1.00  0.00    -0.504 OA
ATOM     21  H   UNL     1     -19.221   8.991  -7.475  1.00  0.00     0.293 HD
ENDBRANCH  17  20
ENDBRANCH   1  12
BRANCH   2  22
ATOM     22  O   UNL     1     -19.171  14.058  -6.291  1.00  0.00    -0.502 OA
ATOM     23  H   UNL     1     -19.984  13.689  -6.770  1.00  0.00     0.293 HD
ENDBRANCH   2  22
BRANCH   9  24
ATOM     24  O   UNL     1     -12.519  16.582  -9.423  1.00  0.00    -0.508 OA
ATOM     25  H   UNL     1     -11.587  16.462  -9.046  1.00  0.00     0.293 HD
ENDBRANCH   9  24
TORSDOF 5
ENDMDL
MODEL 4
REMARK VINA RESULT:    -6.115     15.921     18.323
REMARK INTER + INTRA:          -7.415
REMARK INTER:                  -7.183
REMARK INTRA:                  -0.232
REMARK UNBOUND:                -0.227
REMARK SMILES O=c1c(O)c(-c2ccc(O)c(O)c2)oc2cc(O)ccc12
REMARK SMILES IDX 5 1 3 2 2 3 1 4 21 5 15 6 14 7 16 8 17 9 19 10 20 11 6 12
REMARK SMILES IDX 7 13 8 14 9 15 13 16 11 17 10 18 12 20 4 22 18 24
REMARK H PARENT 10 19 12 21 4 23 18 25
REMARK Flexibility Score: inf
ROOT
ATOM      1  C   UNL     1      -5.288   5.265 -17.913  1.00  0.00     0.180 A 
ATOM      2  C   UNL     1      -4.386   5.930 -18.770  1.00  0.00     0.208 A 
ATOM      3  C   UNL     1      -4.701   6.037 -20.133  1.00  0.00     0.235 A 
ATOM      4  O   UNL     1      -3.905   6.617 -20.921  1.00  0.00    -0.285 OA
ATOM      5  C   UNL     1      -5.909   5.501 -20.607  1.00  0.00     0.069 A 
ATOM      6  C   UNL     1      -6.770   4.871 -19.681  1.00  0.00     0.142 A 
ATOM      7  O   UNL     1      -6.430   4.784 -18.400  1.00  0.00    -0.452 OA
ATOM      8  C   UNL     1      -7.987   4.333 -20.112  1.00  0.00     0.094 A 
ATOM      9  C   UNL     1      -8.356   4.414 -21.461  1.00  0.00     0.119 A 
ATOM     10  C   UNL     1      -7.505   5.036 -22.380  1.00  0.00     0.047 A 
ATOM     11  C   UNL     1      -6.286   5.577 -21.959  1.00  0.00     0.020 A 
ENDROOT
BRANCH   1  12
ATOM     12  C   UNL     1      -5.019   5.096 -16.467  1.00  0.00     0.025 A 
ATOM     13  C   UNL     1      -4.022   4.200 -16.050  1.00  0.00     0.016 A 
ATOM     14  C   UNL     1      -3.736   4.041 -14.692  1.00  0.00     0.051 A 
ATOM     15  C   UNL     1      -4.433   4.786 -13.732  1.00  0.00     0.157 A 
ATOM     16  C   UNL     1      -5.703   5.857 -15.501  1.00  0.00     0.062 A 
ATOM     17  C   UNL     1      -5.415   5.699 -14.137  1.00  0.00     0.158 A 
BRANCH  15  18
ATOM     18  O   UNL     1      -4.153   4.628 -12.376  1.00  0.00    -0.504 OA
ATOM     19  H   UNL     1      -3.550   5.275 -11.882  1.00  0.00     0.293 HD
ENDBRANCH  15  18
BRANCH  17  20
ATOM     20  O   UNL     1      -6.097   6.449 -13.181  1.00  0.00    -0.504 OA
ATOM     21  H   UNL     1      -5.606   7.057 -12.535  1.00  0.00     0.293 HD
ENDBRANCH  17  20
ENDBRANCH   1  12
BRANCH   2  22
ATOM     22  O   UNL     1      -3.214   6.498 -18.261  1.00  0.00    -0.502 OA
ATOM     23  H   UNL     1      -2.306   6.327 -18.675  1.00  0.00     0.293 HD
ENDBRANCH   2  22
BRANCH   9  24
ATOM     24  O   UNL     1      -9.567   3.881 -21.898  1.00  0.00    -0.508 OA
ATOM     25  H   UNL     1      -9.974   3.063 -21.461  1.00  0.00     0.293 HD
ENDBRANCH   9  24
TORSDOF 5
ENDMDL
MODEL 5
REMARK VINA RESULT:    -5.974      2.078      2.357
REMARK INTER + INTRA:          -7.249
REMARK INTER:                  -7.054
REMARK INTRA:                  -0.195
REMARK UNBOUND:                -0.227
REMARK SMILES O=c1c(O)c(-c2ccc(O)c(O)c2)oc2cc(O)ccc12
REMARK SMILES IDX 5 1 3 2 2 3 1 4 21 5 15 6 14 7 16 8 17 9 19 10 20 11 6 12
REMARK SMILES IDX 7 13 8 14 9 15 13 16 11 17 10 18 12 20 4 22 18 24
REMARK H PARENT 10 19 12 21 4 23 18 25
REMARK Flexibility Score: inf
ROOT
ATOM      1  C   UNL     1     -17.303  14.691  -7.418  1.00  0.00     0.180 A 
ATOM      2  C   UNL     1     -18.574  14.960  -6.867  1.00  0.00     0.208 A 
ATOM      3  C   UNL     1     -19.707  14.401  -7.476  1.00  0.00     0.235 A 
ATOM      4  O   UNL     1     -20.855  14.636  -7.008  1.00  0.00    -0.285 OA
ATOM      5  C   UNL     1     -19.550  13.576  -8.601  1.00  0.00     0.069 A 
ATOM      6  C   UNL     1     -18.243  13.336  -9.077  1.00  0.00     0.142 A 
ATOM      7  O   UNL     1     -17.197  13.891  -8.477  1.00  0.00    -0.452 OA
ATOM      8  C   UNL     1     -18.044  12.511 -10.189  1.00  0.00     0.094 A 
ATOM      9  C   UNL     1     -19.139  11.922 -10.836  1.00  0.00     0.119 A 
ATOM     10  C   UNL     1     -20.435  12.159 -10.367  1.00  0.00     0.047 A 
ATOM     11  C   UNL     1     -20.644  12.981  -9.255  1.00  0.00     0.020 A 
ENDROOT
BRANCH   1  12
ATOM     12  C   UNL     1     -16.062  15.258  -6.844  1.00  0.00     0.025 A 
ATOM     13  C   UNL     1     -15.600  14.793  -5.602  1.00  0.00     0.016 A 
ATOM     14  C   UNL     1     -14.420  15.298  -5.052  1.00  0.00     0.051 A 
ATOM     15  C   UNL     1     -13.676  16.264  -5.741  1.00  0.00     0.157 A 
ATOM     16  C   UNL     1     -15.301  16.214  -7.542  1.00  0.00     0.062 A 
ATOM     17  C   UNL     1     -14.115  16.720  -6.991  1.00  0.00     0.158 A 
BRANCH  15  18
ATOM     18  O   UNL     1     -12.499  16.772  -5.194  1.00  0.00    -0.504 OA
ATOM     19  H   UNL     1     -11.820  16.169  -4.745  1.00  0.00     0.293 HD
ENDBRANCH  15  18
BRANCH  17  20
ATOM     20  O   UNL     1     -13.365  17.670  -7.681  1.00  0.00    -0.504 OA
ATOM     21  H   UNL     1     -12.368  17.770  -7.531  1.00  0.00     0.293 HD
ENDBRANCH  17  20
ENDBRANCH   1  12
BRANCH   2  22
ATOM     22  O   UNL     1     -18.695  15.745  -5.717  1.00  0.00    -0.502 OA
ATOM     23  H   UNL     1     -18.297  16.674  -5.651  1.00  0.00     0.293 HD
ENDBRANCH   2  22
BRANCH   9  24
ATOM     24  O   UNL     1     -18.950  11.099 -11.944  1.00  0.00    -0.508 OA
ATOM     25  H   UNL     1     -18.672  11.476 -12.842  1.00  0.00     0.293 HD
ENDBRANCH   9  24
TORSDOF 5
ENDMDL
MODEL 6
REMARK VINA RESULT:    -5.871      2.141      6.614
REMARK INTER + INTRA:          -7.128
REMARK INTER:                  -6.807
REMARK INTRA:                  -0.321
REMARK UNBOUND:                -0.227
REMARK SMILES O=c1c(O)c(-c2ccc(O)c(O)c2)oc2cc(O)ccc12
REMARK SMILES IDX 5 1 3 2 2 3 1 4 21 5 15 6 14 7 16 8 17 9 19 10 20 11 6 12
REMARK SMILES IDX 7 13 8 14 9 15 13 16 11 17 10 18 12 20 4 22 18 24
REMARK H PARENT 10 19 12 21 4 23 18 25
REMARK Flexibility Score: inf
ROOT
ATOM      1  C   UNL     1     -17.568  14.389  -8.031  1.00  0.00     0.180 A 
ATOM      2  C   UNL     1     -18.333  15.374  -7.371  1.00  0.00     0.208 A 
ATOM      3  C   UNL     1     -17.725  16.143  -6.367  1.00  0.00     0.235 A 
ATOM      4  O   UNL     1     -18.391  17.022  -5.755  1.00  0.00    -0.285 OA
ATOM      5  C   UNL     1     -16.372  15.929  -6.058  1.00  0.00     0.069 A 
ATOM      6  C   UNL     1     -15.669  14.940  -6.780  1.00  0.00     0.142 A 
ATOM      7  O   UNL     1     -16.284  14.229  -7.718  1.00  0.00    -0.452 OA
ATOM      8  C   UNL     1     -14.318  14.705  -6.509  1.00  0.00     0.094 A 
ATOM      9  C   UNL     1     -13.657  15.445  -5.519  1.00  0.00     0.119 A 
ATOM     10  C   UNL     1     -14.351  16.424  -4.801  1.00  0.00     0.047 A 
ATOM     11  C   UNL     1     -15.702  16.667  -5.066  1.00  0.00     0.020 A 
ENDROOT
BRANCH   1  12
ATOM     12  C   UNL     1     -18.142  13.526  -9.088  1.00  0.00     0.025 A 
ATOM     13  C   UNL     1     -18.079  13.941 -10.428  1.00  0.00     0.016 A 
ATOM     14  C   UNL     1     -18.594  13.133 -11.444  1.00  0.00     0.051 A 
ATOM     15  C   UNL     1     -19.168  11.892 -11.138  1.00  0.00     0.157 A 
ATOM     16  C   UNL     1     -18.700  12.270  -8.787  1.00  0.00     0.062 A 
ATOM     17  C   UNL     1     -19.216  11.458  -9.806  1.00  0.00     0.158 A 
BRANCH  15  18
ATOM     18  O   UNL     1     -19.685  11.084 -12.148  1.00  0.00    -0.504 OA
ATOM     19  H   UNL     1     -20.292  10.300 -11.940  1.00  0.00     0.293 HD
ENDBRANCH  15  18
BRANCH  17  20
ATOM     20  O   UNL     1     -19.774  10.216  -9.506  1.00  0.00    -0.504 OA
ATOM     21  H   UNL     1     -20.160  10.016  -8.590  1.00  0.00     0.293 HD
ENDBRANCH  17  20
ENDBRANCH   1  12
BRANCH   2  22
ATOM     22  O   UNL     1     -19.664  15.598  -7.735  1.00  0.00    -0.502 OA
ATOM     23  H   UNL     1     -19.946  15.737  -8.697  1.00  0.00     0.293 HD
ENDBRANCH   2  22
BRANCH   9  24
ATOM     24  O   UNL     1     -12.310  15.216  -5.243  1.00  0.00    -0.508 OA
ATOM     25  H   UNL     1     -12.021  14.629  -4.469  1.00  0.00     0.293 HD
ENDBRANCH   9  24
TORSDOF 5
ENDMDL
MODEL 7
REMARK VINA RESULT:    -5.798      1.276      2.845
REMARK INTER + INTRA:          -7.042
REMARK INTER:                  -6.728
REMARK INTRA:                  -0.314
REMARK UNBOUND:                -0.227
REMARK SMILES O=c1c(O)c(-c2ccc(O)c(O)c2)oc2cc(O)ccc12
REMARK SMILES IDX 5 1 3 2 2 3 1 4 21 5 15 6 14 7 16 8 17 9 19 10 20 11 6 12
REMARK SMILES IDX 7 13 8 14 9 15 13 16 11 17 10 18 12 20 4 22 18 24
REMARK H PARENT 10 19 12 21 4 23 18 25
REMARK Flexibility Score: inf
ROOT
ATOM      1  C   UNL     1     -16.317  14.551  -7.224  1.00  0.00     0.180 A 
ATOM      2  C   UNL     1     -15.557  14.338  -8.393  1.00  0.00     0.208 A 
ATOM      3  C   UNL     1     -15.988  13.369  -9.312  1.00  0.00     0.235 A 
ATOM      4  O   UNL     1     -15.320  13.152 -10.360  1.00  0.00    -0.285 OA
ATOM      5  C   UNL     1     -17.169  12.653  -9.058  1.00  0.00     0.069 A 
ATOM      6  C   UNL     1     -17.885  12.942  -7.876  1.00  0.00     0.142 A 
ATOM      7  O   UNL     1     -17.438  13.861  -7.028  1.00  0.00    -0.452 OA
ATOM      8  C   UNL     1     -19.071  12.258  -7.592  1.00  0.00     0.094 A 
ATOM      9  C   UNL     1     -19.553  11.282  -8.476  1.00  0.00     0.119 A 
ATOM     10  C   UNL     1     -18.844  10.993  -9.647  1.00  0.00     0.047 A 
ATOM     11  C   UNL     1     -17.658  11.673  -9.940  1.00  0.00     0.020 A 
ENDROOT
BRANCH   1  12
ATOM     12  C   UNL     1     -15.919  15.542  -6.198  1.00  0.00     0.025 A 
ATOM     13  C   UNL     1     -15.095  15.141  -5.133  1.00  0.00     0.016 A 
ATOM     14  C   UNL     1     -14.689  16.064  -4.167  1.00  0.00     0.051 A 
ATOM     15  C   UNL     1     -15.088  17.404  -4.257  1.00  0.00     0.157 A 
ATOM     16  C   UNL     1     -16.300  16.892  -6.297  1.00  0.00     0.062 A 
ATOM     17  C   UNL     1     -15.892  17.820  -5.327  1.00  0.00     0.158 A 
BRANCH  15  18
ATOM     18  O   UNL     1     -14.688  18.327  -3.294  1.00  0.00    -0.504 OA
ATOM     19  H   UNL     1     -14.967  19.299  -3.344  1.00  0.00     0.293 HD
ENDBRANCH  15  18
BRANCH  17  20
ATOM     20  O   UNL     1     -16.275  19.156  -5.423  1.00  0.00    -0.504 OA
ATOM     21  H   UNL     1     -16.102  19.699  -6.261  1.00  0.00     0.293 HD
ENDBRANCH  17  20
ENDBRANCH   1  12
BRANCH   2  22
ATOM     22  O   UNL     1     -14.413  15.100  -8.643  1.00  0.00    -0.502 OA
ATOM     23  H   UNL     1     -14.275  16.018  -8.238  1.00  0.00     0.293 HD
ENDBRANCH   2  22
BRANCH   9  24
ATOM     24  O   UNL     1     -20.733  10.596  -8.201  1.00  0.00    -0.508 OA
ATOM     25  H   UNL     1     -21.198  10.038  -8.907  1.00  0.00     0.293 HD
ENDBRANCH   9  24
TORSDOF 5
ENDMDL
MODEL 8
REMARK VINA RESULT:    -5.784      1.409      6.647
REMARK INTER + INTRA:          -7.026
REMARK INTER:                  -6.954
REMARK INTRA:                  -0.072
REMARK UNBOUND:                -0.227
REMARK SMILES O=c1c(O)c(-c2ccc(O)c(O)c2)oc2cc(O)ccc12
REMARK SMILES IDX 5 1 3 2 2 3 1 4 21 5 15 6 14 7 16 8 17 9 19 10 20 11 6 12
REMARK SMILES IDX 7 13 8 14 9 15 13 16 11 17 10 18 12 20 4 22 18 24
REMARK H PARENT 10 19 12 21 4 23 18 25
REMARK Flexibility Score: inf
ROOT
ATOM      1  C   UNL     1     -16.904  14.832  -7.331  1.00  0.00     0.180 A 
ATOM      2  C   UNL     1     -18.149  15.469  -7.148  1.00  0.00     0.208 A 
ATOM      3  C   UNL     1     -18.260  16.465  -6.165  1.00  0.00     0.235 A 
ATOM      4  O   UNL     1     -19.366  17.042  -5.974  1.00  0.00    -0.285 OA
ATOM      5  C   UNL     1     -17.132  16.816  -5.407  1.00  0.00     0.069 A 
ATOM      6  C   UNL     1     -15.916  16.148  -5.668  1.00  0.00     0.142 A 
ATOM      7  O   UNL     1     -15.855  15.205  -6.601  1.00  0.00    -0.452 OA
ATOM      8  C   UNL     1     -14.767  16.476  -4.940  1.00  0.00     0.094 A 
ATOM      9  C   UNL     1     -14.818  17.466  -3.949  1.00  0.00     0.119 A 
ATOM     10  C   UNL     1     -16.022  18.128  -3.688  1.00  0.00     0.047 A 
ATOM     11  C   UNL     1     -17.175  17.808  -4.411  1.00  0.00     0.020 A 
ENDROOT
BRANCH   1  12
ATOM     12  C   UNL     1     -16.710  13.760  -8.335  1.00  0.00     0.025 A 
ATOM     13  C   UNL     1     -15.656  13.860  -9.257  1.00  0.00     0.016 A 
ATOM     14  C   UNL     1     -15.442  12.850 -10.198  1.00  0.00     0.051 A 
ATOM     15  C   UNL     1     -16.268  11.719 -10.221  1.00  0.00     0.157 A 
ATOM     16  C   UNL     1     -17.526  12.614  -8.348  1.00  0.00     0.062 A 
ATOM     17  C   UNL     1     -17.310  11.599  -9.291  1.00  0.00     0.158 A 
BRANCH  15  18
ATOM     18  O   UNL     1     -16.059  10.711 -11.160  1.00  0.00    -0.504 OA
ATOM     19  H   UNL     1     -16.761  10.003 -11.342  1.00  0.00     0.293 HD
ENDBRANCH  15  18
BRANCH  17  20
ATOM     20  O   UNL     1     -18.121  10.466  -9.308  1.00  0.00    -0.504 OA
ATOM     21  H   UNL     1     -19.065  10.484  -8.937  1.00  0.00     0.293 HD
ENDBRANCH  17  20
ENDBRANCH   1  12
BRANCH   2  22
ATOM     22  O   UNL     1     -19.241  15.134  -7.951  1.00  0.00    -0.502 OA
ATOM     23  H   UNL     1     -19.990  15.787  -8.148  1.00  0.00     0.293 HD
ENDBRANCH   2  22
BRANCH   9  24
ATOM     24  O   UNL     1     -13.679  17.799  -3.220  1.00  0.00    -0.508 OA
ATOM     25  H   UNL     1     -13.508  17.413  -2.299  1.00  0.00     0.293 HD
ENDBRANCH   9  24
TORSDOF 5
ENDMDL
MODEL 9
REMARK VINA RESULT:    -5.773      2.417      3.100
REMARK INTER + INTRA:          -7.012
REMARK INTER:                  -7.220
REMARK INTRA:                   0.207
REMARK UNBOUND:                -0.227
REMARK SMILES O=c1c(O)c(-c2ccc(O)c(O)c2)oc2cc(O)ccc12
REMARK SMILES IDX 5 1 3 2 2 3 1 4 21 5 15 6 14 7 16 8 17 9 19 10 20 11 6 12
REMARK SMILES IDX 7 13 8 14 9 15 13 16 11 17 10 18 12 20 4 22 18 24
REMARK H PARENT 10 19 12 21 4 23 18 25
REMARK Flexibility Score: inf
ROOT
ATOM      1  C   UNL     1     -17.331  13.815  -8.234  1.00  0.00     0.180 A 
ATOM      2  C   UNL     1     -18.015  13.309  -7.108  1.00  0.00     0.208 A 
ATOM      3  C   UNL     1     -19.030  12.360  -7.303  1.00  0.00     0.235 A 
ATOM      4  O   UNL     1     -19.663  11.901  -6.314  1.00  0.00    -0.285 OA
ATOM      5  C   UNL     1     -19.325  11.923  -8.604  1.00  0.00     0.069 A 
ATOM      6  C   UNL     1     -18.579  12.459  -9.676  1.00  0.00     0.142 A 
ATOM      7  O   UNL     1     -17.633  13.363  -9.450  1.00  0.00    -0.452 OA
ATOM      8  C   UNL     1     -18.837  12.042 -10.986  1.00  0.00     0.094 A 
ATOM      9  C   UNL     1     -19.836  11.093 -11.241  1.00  0.00     0.119 A 
ATOM     10  C   UNL     1     -20.577  10.561 -10.181  1.00  0.00     0.047 A 
ATOM     11  C   UNL     1     -20.327  10.971  -8.868  1.00  0.00     0.020 A 
ENDROOT
BRANCH   1  12
ATOM     12  C   UNL     1     -16.261  14.831  -8.113  1.00  0.00     0.025 A 
ATOM     13  C   UNL     1     -15.215  14.848  -9.049  1.00  0.00     0.016 A 
ATOM     14  C   UNL     1     -14.207  15.811  -8.967  1.00  0.00     0.051 A 
ATOM     15  C   UNL     1     -14.238  16.781  -7.956  1.00  0.00     0.157 A 
ATOM     16  C   UNL     1     -16.299  15.819  -7.112  1.00  0.00     0.062 A 
ATOM     17  C   UNL     1     -15.289  16.787  -7.029  1.00  0.00     0.158 A 
BRANCH  15  18
ATOM     18  O   UNL     1     -13.233  17.742  -7.869  1.00  0.00    -0.504 OA
ATOM     19  H   UNL     1     -12.254  17.493  -7.938  1.00  0.00     0.293 HD
ENDBRANCH  15  18
BRANCH  17  20
ATOM     20  O   UNL     1     -15.324  17.762  -6.034  1.00  0.00    -0.504 OA
ATOM     21  H   UNL     1     -15.136  18.737  -6.238  1.00  0.00     0.293 HD
ENDBRANCH  17  20
ENDBRANCH   1  12
BRANCH   2  22
ATOM     22  O   UNL     1     -17.665  13.726  -5.822  1.00  0.00    -0.502 OA
ATOM     23  H   UNL     1     -16.883  14.346  -5.647  1.00  0.00     0.293 HD
ENDBRANCH   2  22
BRANCH   9  24
ATOM     24  O   UNL     1     -20.099  10.671 -12.542  1.00  0.00    -0.508 OA
ATOM     25  H   UNL     1     -19.353  10.415 -13.177  1.00  0.00     0.293 HD
ENDBRANCH   9  24
TORSDOF 5
ENDMDL
