MODEL 1
REMARK VINA RESULT:    -5.141      0.000      0.000
REMARK INTER + INTRA:          -7.972
REMARK INTER:                  -7.546
REMARK INTRA:                  -0.426
REMARK UNBOUND:                -0.426
REMARK SMILES O=C([O-])CCCCCCCC(=O)[O-]
REMARK SMILES IDX 7 1 6 2 5 3 4 4 2 5 1 6 3 7 8 8 9 9 10 10 11 11 12 12 13 13
REMARK H PARENT
REMARK Flexibility Score: inf
ROOT
ATOM      1  C   UNL     1      63.217 151.843   3.212  1.00  0.00     0.000 C 
ENDROOT
BRANCH   1   2
ATOM      2  C   UNL     1      61.868 151.357   3.765  1.00  0.00     0.000 C 
BRANCH   2   3
ATOM      3  C   UNL     1      60.725 152.263   3.294  1.00  0.00     0.006 C 
BRANCH   3   4
ATOM      4  C   UNL     1      60.910 152.664   1.827  1.00  0.00     0.053 C 
BRANCH   4   5
ATOM      5  C   UNL     1      59.752 153.486   1.358  1.00  0.00     0.041 C 
ATOM      6  O   UNL     1      58.780 153.708   2.127  1.00  0.00    -0.550 OA
ATOM      7  O   UNL     1      59.767 154.050   0.088  1.00  0.00    -0.550 OA
ENDBRANCH   4   5
ENDBRANCH   3   4
ENDBRANCH   2   3
ENDBRANCH   1   2
BRANCH   1   8
ATOM      8  C   UNL     1      64.389 151.544   4.161  1.00  0.00     0.000 C 
BRANCH   8   9
ATOM      9  C   UNL     1      64.937 150.120   3.994  1.00  0.00     0.006 C 
BRANCH   9  10
ATOM     10  C   UNL     1      65.057 149.417   5.350  1.00  0.00     0.053 C 
BRANCH  10  11
ATOM     11  C   UNL     1      63.709 148.997   5.844  1.00  0.00     0.041 C 
ATOM     12  O   UNL     1      63.139 147.989   5.351  1.00  0.00    -0.550 OA
ATOM     13  O   UNL     1      63.103 149.689   6.886  1.00  0.00    -0.550 OA
ENDBRANCH  10  11
ENDBRANCH   9  10
ENDBRANCH   8   9
ENDBRANCH   1   8
TORSDOF 8
ENDMDL
MODEL 2
REMARK VINA RESULT:    -5.106      0.884      5.943
REMARK INTER + INTRA:          -7.921
REMARK INTER:                  -7.413
REMARK INTRA:                  -0.508
REMARK UNBOUND:                -0.426
REMARK SMILES O=C([O-])CCCCCCCC(=O)[O-]
REMARK SMILES IDX 7 1 6 2 5 3 4 4 2 5 1 6 3 7 8 8 9 9 10 10 11 11 12 12 13 13
REMARK H PARENT
REMARK Flexibility Score: inf
ROOT
ATOM      1  C   UNL     1      64.285 152.245   4.276  1.00  0.00     0.000 C 
ENDROOT
BRANCH   1   2
ATOM      2  C   UNL     1      65.043 151.281   5.200  1.00  0.00     0.000 C 
BRANCH   2   3
ATOM      3  C   UNL     1      64.995 149.848   4.655  1.00  0.00     0.006 C 
BRANCH   3   4
ATOM      4  C   UNL     1      64.546 148.863   5.739  1.00  0.00     0.053 C 
BRANCH   4   5
ATOM      5  C   UNL     1      63.069 148.639   5.665  1.00  0.00     0.041 C 
ATOM      6  O   UNL     1      62.616 147.552   5.216  1.00  0.00    -0.550 OA
ATOM      7  O   UNL     1      62.193 149.607   6.136  1.00  0.00    -0.550 OA
ENDBRANCH   4   5
ENDBRANCH   3   4
ENDBRANCH   2   3
ENDBRANCH   1   2
BRANCH   1   8
ATOM      8  C   UNL     1      63.403 151.514   3.250  1.00  0.00     0.000 C 
BRANCH   8   9
ATOM      9  C   UNL     1      61.919 151.885   3.375  1.00  0.00     0.006 C 
BRANCH   9  10
ATOM     10  C   UNL     1      61.267 152.007   1.994  1.00  0.00     0.053 C 
BRANCH  10  11
ATOM     11  C   UNL     1      60.153 153.006   2.026  1.00  0.00     0.041 C 
ATOM     12  O   UNL     1      59.471 153.162   3.073  1.00  0.00    -0.550 OA
ATOM     13  O   UNL     1      59.901 153.802   0.916  1.00  0.00    -0.550 OA
ENDBRANCH  10  11
ENDBRANCH   9  10
ENDBRANCH   8   9
ENDBRANCH   1   8
TORSDOF 8
ENDMDL
MODEL 3
REMARK VINA RESULT:    -4.908      1.614      6.568
REMARK INTER + INTRA:          -7.630
REMARK INTER:                  -7.235
REMARK INTRA:                  -0.395
REMARK UNBOUND:                -0.426
REMARK SMILES O=C([O-])CCCCCCCC(=O)[O-]
REMARK SMILES IDX 7 1 6 2 5 3 4 4 2 5 1 6 3 7 8 8 9 9 10 10 11 11 12 12 13 13
REMARK H PARENT
REMARK Flexibility Score: inf
ROOT
ATOM      1  C   UNL     1      61.099 151.549   2.786  1.00  0.00     0.000 C 
ENDROOT
BRANCH   1   2
ATOM      2  C   UNL     1      62.076 151.487   3.969  1.00  0.00     0.000 C 
BRANCH   2   3
ATOM      3  C   UNL     1      63.510 151.780   3.511  1.00  0.00     0.006 C 
BRANCH   3   4
ATOM      4  C   UNL     1      64.404 150.547   3.680  1.00  0.00     0.053 C 
BRANCH   4   5
ATOM      5  C   UNL     1      65.027 150.534   5.040  1.00  0.00     0.041 C 
ATOM      6  O   UNL     1      65.216 151.614   5.660  1.00  0.00    -0.550 OA
ATOM      7  O   UNL     1      65.353 149.327   5.645  1.00  0.00    -0.550 OA
ENDBRANCH   4   5
ENDBRANCH   3   4
ENDBRANCH   2   3
ENDBRANCH   1   2
BRANCH   1   8
ATOM      8  C   UNL     1      61.545 152.540   1.699  1.00  0.00     0.000 C 
BRANCH   8   9
ATOM      9  C   UNL     1      60.414 153.479   1.255  1.00  0.00     0.006 C 
BRANCH   9  10
ATOM     10  C   UNL     1      59.126 153.191   2.032  1.00  0.00     0.053 C 
BRANCH  10  11
ATOM     11  C   UNL     1      58.467 154.468   2.449  1.00  0.00     0.041 C 
ATOM     12  O   UNL     1      57.885 155.189   1.596  1.00  0.00    -0.550 OA
ATOM     13  O   UNL     1      58.451 154.837   3.788  1.00  0.00    -0.550 OA
ENDBRANCH  10  11
ENDBRANCH   9  10
ENDBRANCH   8   9
ENDBRANCH   1   8
TORSDOF 8
ENDMDL
MODEL 4
REMARK VINA RESULT:    -4.898      1.484      2.572
REMARK INTER + INTRA:          -7.615
REMARK INTER:                  -7.075
REMARK INTRA:                  -0.540
REMARK UNBOUND:                -0.426
REMARK SMILES O=C([O-])CCCCCCCC(=O)[O-]
REMARK SMILES IDX 7 1 6 2 5 3 4 4 2 5 1 6 3 7 8 8 9 9 10 10 11 11 12 12 13 13
REMARK H PARENT
REMARK Flexibility Score: inf
ROOT
ATOM      1  C   UNL     1      64.760 151.319   5.267  1.00  0.00     0.000 C 
ENDROOT
BRANCH   1   2
ATOM      2  C   UNL     1      64.277 152.255   4.149  1.00  0.00     0.000 C 
BRANCH   2   3
ATOM      3  C   UNL     1      63.317 151.526   3.201  1.00  0.00     0.006 C 
BRANCH   3   4
ATOM      4  C   UNL     1      61.885 151.546   3.746  1.00  0.00     0.053 C 
BRANCH   4   5
ATOM      5  C   UNL     1      60.971 152.246   2.792  1.00  0.00     0.041 C 
ATOM      6  O   UNL     1      61.312 152.404   1.590  1.00  0.00    -0.550 OA
ATOM      7  O   UNL     1      59.722 152.681   3.216  1.00  0.00    -0.550 OA
ENDBRANCH   4   5
ENDBRANCH   3   4
ENDBRANCH   2   3
ENDBRANCH   1   2
BRANCH   1   8
ATOM      8  C   UNL     1      65.010 149.884   4.774  1.00  0.00     0.000 C 
BRANCH   8   9
ATOM      9  C   UNL     1      64.400 148.825   5.702  1.00  0.00     0.006 C 
BRANCH   9  10
ATOM     10  C   UNL     1      62.987 149.226   6.137  1.00  0.00     0.053 C 
BRANCH  10  11
ATOM     11  C   UNL     1      62.013 148.131   5.832  1.00  0.00     0.041 C 
ATOM     12  O   UNL     1      60.855 148.158   6.325  1.00  0.00    -0.550 OA
ATOM     13  O   UNL     1      62.367 147.108   4.961  1.00  0.00    -0.550 OA
ENDBRANCH  10  11
ENDBRANCH   9  10
ENDBRANCH   8   9
ENDBRANCH   1   8
TORSDOF 8
ENDMDL
MODEL 5
REMARK VINA RESULT:    -4.776      1.232      1.634
REMARK INTER + INTRA:          -7.436
REMARK INTER:                  -7.166
REMARK INTRA:                  -0.270
REMARK UNBOUND:                -0.426
REMARK SMILES O=C([O-])CCCCCCCC(=O)[O-]
REMARK SMILES IDX 7 1 6 2 5 3 4 4 2 5 1 6 3 7 8 8 9 9 10 10 11 11 12 12 13 13
REMARK H PARENT
REMARK Flexibility Score: inf
ROOT
ATOM      1  C   UNL     1      62.881 151.508   2.967  1.00  0.00     0.000 C 
ENDROOT
BRANCH   1   2
ATOM      2  C   UNL     1      61.446 151.923   3.323  1.00  0.00     0.000 C 
BRANCH   2   3
ATOM      3  C   UNL     1      60.710 152.465   2.091  1.00  0.00     0.006 C 
BRANCH   3   4
ATOM      4  C   UNL     1      59.377 153.108   2.485  1.00  0.00     0.053 C 
BRANCH   4   5
ATOM      5  C   UNL     1      58.954 154.108   1.458  1.00  0.00     0.041 C 
ATOM      6  O   UNL     1      58.098 154.986   1.744  1.00  0.00    -0.550 OA
ATOM      7  O   UNL     1      59.540 154.104   0.198  1.00  0.00    -0.550 OA
ENDBRANCH   4   5
ENDBRANCH   3   4
ENDBRANCH   2   3
ENDBRANCH   1   2
BRANCH   1   8
ATOM      8  C   UNL     1      63.936 152.229   3.821  1.00  0.00     0.000 C 
BRANCH   8   9
ATOM      9  C   UNL     1      63.942 151.753   5.281  1.00  0.00     0.006 C 
BRANCH   9  10
ATOM     10  C   UNL     1      65.136 150.832   5.551  1.00  0.00     0.053 C 
BRANCH  10  11
ATOM     11  C   UNL     1      64.823 149.430   5.132  1.00  0.00     0.041 C 
ATOM     12  O   UNL     1      64.046 148.721   5.823  1.00  0.00    -0.550 OA
ATOM     13  O   UNL     1      65.350 148.924   3.951  1.00  0.00    -0.550 OA
ENDBRANCH  10  11
ENDBRANCH   9  10
ENDBRANCH   8   9
ENDBRANCH   1   8
TORSDOF 8
ENDMDL
MODEL 6
REMARK VINA RESULT:    -4.747      1.713      2.366
REMARK INTER + INTRA:          -7.394
REMARK INTER:                  -6.915
REMARK INTRA:                  -0.479
REMARK UNBOUND:                -0.426
REMARK SMILES O=C([O-])CCCCCCCC(=O)[O-]
REMARK SMILES IDX 7 1 6 2 5 3 4 4 2 5 1 6 3 7 8 8 9 9 10 10 11 11 12 12 13 13
REMARK H PARENT
REMARK Flexibility Score: inf
ROOT
ATOM      1  C   UNL     1      62.511 151.889   3.058  1.00  0.00     0.000 C 
ENDROOT
BRANCH   1   2
ATOM      2  C   UNL     1      61.254 151.647   2.209  1.00  0.00     0.000 C 
BRANCH   2   3
ATOM      3  C   UNL     1      60.560 152.972   1.868  1.00  0.00     0.006 C 
BRANCH   3   4
ATOM      4  C   UNL     1      59.124 152.993   2.402  1.00  0.00     0.053 C 
BRANCH   4   5
ATOM      5  C   UNL     1      59.041 153.812   3.650  1.00  0.00     0.041 C 
ATOM      6  O   UNL     1      58.438 154.917   3.643  1.00  0.00    -0.550 OA
ATOM      7  O   UNL     1      59.587 153.333   4.835  1.00  0.00    -0.550 OA
ENDBRANCH   4   5
ENDBRANCH   3   4
ENDBRANCH   2   3
ENDBRANCH   1   2
BRANCH   1   8
ATOM      8  C   UNL     1      62.405 151.273   4.463  1.00  0.00     0.000 C 
BRANCH   8   9
ATOM      9  C   UNL     1      63.576 151.670   5.373  1.00  0.00     0.006 C 
BRANCH   9  10
ATOM     10  C   UNL     1      64.912 151.222   4.772  1.00  0.00     0.053 C 
BRANCH  10  11
ATOM     11  C   UNL     1      65.007 149.729   4.759  1.00  0.00     0.041 C 
ATOM     12  O   UNL     1      65.354 149.126   3.709  1.00  0.00    -0.550 OA
ATOM     13  O   UNL     1      64.763 149.006   5.919  1.00  0.00    -0.550 OA
ENDBRANCH  10  11
ENDBRANCH   9  10
ENDBRANCH   8   9
ENDBRANCH   1   8
TORSDOF 8
ENDMDL
MODEL 7
REMARK VINA RESULT:    -4.713      1.324      6.781
REMARK INTER + INTRA:          -7.343
REMARK INTER:                  -7.118
REMARK INTRA:                  -0.225
REMARK UNBOUND:                -0.426
REMARK SMILES O=C([O-])CCCCCCCC(=O)[O-]
REMARK SMILES IDX 7 1 6 2 5 3 4 4 2 5 1 6 3 7 8 8 9 9 10 10 11 11 12 12 13 13
REMARK H PARENT
REMARK Flexibility Score: inf
ROOT
ATOM      1  C   UNL     1      61.969 151.518   3.268  1.00  0.00     0.000 C 
ENDROOT
BRANCH   1   2
ATOM      2  C   UNL     1      63.475 151.767   3.442  1.00  0.00     0.000 C 
BRANCH   2   3
ATOM      3  C   UNL     1      63.845 151.868   4.927  1.00  0.00     0.006 C 
BRANCH   3   4
ATOM      4  C   UNL     1      65.054 150.985   5.253  1.00  0.00     0.053 C 
BRANCH   4   5
ATOM      5  C   UNL     1      64.733 149.545   5.007  1.00  0.00     0.041 C 
ATOM      6  O   UNL     1      63.895 148.951   5.735  1.00  0.00    -0.550 OA
ATOM      7  O   UNL     1      65.322 148.872   3.944  1.00  0.00    -0.550 OA
ENDBRANCH   4   5
ENDBRANCH   3   4
ENDBRANCH   2   3
ENDBRANCH   1   2
BRANCH   1   8
ATOM      8  C   UNL     1      61.334 152.443   2.217  1.00  0.00     0.000 C 
BRANCH   8   9
ATOM      9  C   UNL     1      59.799 152.394   2.237  1.00  0.00     0.006 C 
BRANCH   9  10
ATOM     10  C   UNL     1      59.213 153.765   2.586  1.00  0.00     0.053 C 
BRANCH  10  11
ATOM     11  C   UNL     1      58.826 154.503   1.343  1.00  0.00     0.041 C 
ATOM     12  O   UNL     1      58.053 155.495   1.409  1.00  0.00    -0.550 OA
ATOM     13  O   UNL     1      59.361 154.128   0.117  1.00  0.00    -0.550 OA
ENDBRANCH  10  11
ENDBRANCH   9  10
ENDBRANCH   8   9
ENDBRANCH   1   8
TORSDOF 8
ENDMDL
MODEL 8
REMARK VINA RESULT:    -4.625      2.338      5.977
REMARK INTER + INTRA:          -7.214
REMARK INTER:                  -6.808
REMARK INTRA:                  -0.406
REMARK UNBOUND:                -0.426
REMARK SMILES O=C([O-])CCCCCCCC(=O)[O-]
REMARK SMILES IDX 7 1 6 2 5 3 4 4 2 5 1 6 3 7 8 8 9 9 10 10 11 11 12 12 13 13
REMARK H PARENT
REMARK Flexibility Score: inf
ROOT
ATOM      1  C   UNL     1      61.530 151.869   2.016  1.00  0.00     0.000 C 
ENDROOT
BRANCH   1   2
ATOM      2  C   UNL     1      62.039 151.673   3.452  1.00  0.00     0.000 C 
BRANCH   2   3
ATOM      3  C   UNL     1      63.540 151.971   3.547  1.00  0.00     0.006 C 
BRANCH   3   4
ATOM      4  C   UNL     1      64.349 150.678   3.689  1.00  0.00     0.053 C 
BRANCH   4   5
ATOM      5  C   UNL     1      65.005 150.615   5.031  1.00  0.00     0.041 C 
ATOM      6  O   UNL     1      65.318 149.502   5.531  1.00  0.00    -0.550 OA
ATOM      7  O   UNL     1      65.318 151.786   5.710  1.00  0.00    -0.550 OA
ENDBRANCH   4   5
ENDBRANCH   3   4
ENDBRANCH   2   3
ENDBRANCH   1   2
BRANCH   1   8
ATOM      8  C   UNL     1      60.562 153.057   1.888  1.00  0.00     0.000 C 
BRANCH   8   9
ATOM      9  C   UNL     1      59.241 152.827   2.636  1.00  0.00     0.006 C 
BRANCH   9  10
ATOM     10  C   UNL     1      58.939 153.992   3.583  1.00  0.00     0.053 C 
BRANCH  10  11
ATOM     11  C   UNL     1      59.071 153.558   5.009  1.00  0.00     0.041 C 
ATOM     12  O   UNL     1      58.212 152.791   5.520  1.00  0.00    -0.550 OA
ATOM     13  O   UNL     1      60.170 153.957   5.759  1.00  0.00    -0.550 OA
ENDBRANCH  10  11
ENDBRANCH   9  10
ENDBRANCH   8   9
ENDBRANCH   1   8
TORSDOF 8
ENDMDL
MODEL 9
REMARK VINA RESULT:    -4.555      2.248      5.315
REMARK INTER + INTRA:          -7.112
REMARK INTER:                  -6.485
REMARK INTRA:                  -0.627
REMARK UNBOUND:                -0.426
REMARK SMILES O=C([O-])CCCCCCCC(=O)[O-]
REMARK SMILES IDX 7 1 6 2 5 3 4 4 2 5 1 6 3 7 8 8 9 9 10 10 11 11 12 12 13 13
REMARK H PARENT
REMARK Flexibility Score: inf
ROOT
ATOM      1  C   UNL     1      64.941 149.433   5.370  1.00  0.00     0.000 C 
ENDROOT
BRANCH   1   2
ATOM      2  C   UNL     1      63.749 148.463   5.362  1.00  0.00     0.000 C 
BRANCH   2   3
ATOM      3  C   UNL     1      62.630 148.963   6.284  1.00  0.00     0.006 C 
BRANCH   3   4
ATOM      4  C   UNL     1      61.251 148.638   5.701  1.00  0.00     0.053 C 
BRANCH   4   5
ATOM      5  C   UNL     1      60.301 148.250   6.789  1.00  0.00     0.041 C 
ATOM      6  O   UNL     1      60.289 147.069   7.228  1.00  0.00    -0.550 OA
ATOM      7  O   UNL     1      59.462 149.202   7.354  1.00  0.00    -0.550 OA
ENDBRANCH   4   5
ENDBRANCH   3   4
ENDBRANCH   2   3
ENDBRANCH   1   2
BRANCH   1   8
ATOM      8  C   UNL     1      65.043 150.257   4.076  1.00  0.00     0.000 C 
BRANCH   8   9
ATOM      9  C   UNL     1      64.242 151.565   4.143  1.00  0.00     0.006 C 
BRANCH   9  10
ATOM     10  C   UNL     1      63.099 151.561   3.123  1.00  0.00     0.053 C 
BRANCH  10  11
ATOM     11  C   UNL     1      61.795 151.857   3.795  1.00  0.00     0.041 C 
ATOM     12  O   UNL     1      61.749 152.027   5.042  1.00  0.00    -0.550 OA
ATOM     13  O   UNL     1      60.639 151.994   3.039  1.00  0.00    -0.550 OA
ENDBRANCH  10  11
ENDBRANCH   9  10
ENDBRANCH   8   9
ENDBRANCH   1   8
TORSDOF 8
ENDMDL
