MODEL 1
REMARK VINA RESULT:    -4.135      0.000      0.000
REMARK INTER + INTRA:          -5.662
REMARK INTER:                  -5.465
REMARK INTRA:                  -0.197
REMARK UNBOUND:                -0.197
REMARK SMILES C=C[C@@H](O)CCCCC
REMARK SMILES IDX 6 1 7 2 8 3 9 4 5 5 3 6 2 7 1 8 4 9
REMARK H PARENT 4 10
REMARK Flexibility Score: inf
ROOT
ATOM      1  C   UNL     1      14.261  13.039  36.968  1.00  0.00     0.003 C 
ENDROOT
BRANCH   1   2
ATOM      2  C   UNL     1      15.581  12.999  37.753  1.00  0.00    -0.000 C 
BRANCH   2   3
ATOM      3  C   UNL     1      15.563  13.920  38.983  1.00  0.00    -0.003 C 
ATOM      4  C   UNL     1      16.367  13.358  40.155  1.00  0.00     0.004 C 
ENDBRANCH   2   3
ENDBRANCH   1   2
BRANCH   1   5
ATOM      5  C   UNL     1      13.980  11.686  36.298  1.00  0.00     0.036 C 
BRANCH   5   6
ATOM      6  C   UNL     1      13.352  11.861  34.900  1.00  0.00     0.136 C 
BRANCH   6   7
ATOM      7  C   UNL     1      13.790  13.160  34.264  1.00  0.00    -0.004 C 
ATOM      8  C   UNL     1      12.912  13.999  33.705  1.00  0.00     0.007 C 
ENDBRANCH   6   7
BRANCH   6   9
ATOM      9  O   UNL     1      13.681  10.781  34.062  1.00  0.00    -0.389 OA
ATOM     10  H   UNL     1      14.383  11.090  33.431  1.00  0.00     0.211 HD
ENDBRANCH   6   9
ENDBRANCH   5   6
ENDBRANCH   1   5
TORSDOF 6
ENDMDL
MODEL 2
REMARK VINA RESULT:    -3.984      1.697      4.763
REMARK INTER + INTRA:          -5.462
REMARK INTER:                  -5.299
REMARK INTRA:                  -0.163
REMARK UNBOUND:                -0.197
REMARK SMILES C=C[C@@H](O)CCCCC
REMARK SMILES IDX 6 1 7 2 8 3 9 4 5 5 3 6 2 7 1 8 4 9
REMARK H PARENT 4 10
REMARK Flexibility Score: inf
ROOT
ATOM      1  C   UNL     1      14.478  11.447  35.858  1.00  0.00     0.003 C 
ENDROOT
BRANCH   1   2
ATOM      2  C   UNL     1      13.847  11.643  34.470  1.00  0.00    -0.000 C 
BRANCH   2   3
ATOM      3  C   UNL     1      13.987  13.085  33.958  1.00  0.00    -0.003 C 
ATOM      4  C   UNL     1      12.647  13.706  33.565  1.00  0.00     0.004 C 
ENDBRANCH   2   3
ENDBRANCH   1   2
BRANCH   1   5
ATOM      5  C   UNL     1      13.999  12.528  36.836  1.00  0.00     0.036 C 
BRANCH   5   6
ATOM      6  C   UNL     1      15.164  13.420  37.315  1.00  0.00     0.136 C 
BRANCH   6   7
ATOM      7  C   UNL     1      14.835  14.087  38.631  1.00  0.00    -0.004 C 
ATOM      8  C   UNL     1      15.633  13.971  39.696  1.00  0.00     0.007 C 
ENDBRANCH   6   7
BRANCH   6   9
ATOM      9  O   UNL     1      16.350  12.674  37.438  1.00  0.00    -0.389 OA
ATOM     10  H   UNL     1      16.441  12.115  36.621  1.00  0.00     0.211 HD
ENDBRANCH   6   9
ENDBRANCH   5   6
ENDBRANCH   1   5
TORSDOF 6
ENDMDL
MODEL 3
REMARK VINA RESULT:    -3.938      1.383      1.791
REMARK INTER + INTRA:          -5.401
REMARK INTER:                  -5.144
REMARK INTRA:                  -0.257
REMARK UNBOUND:                -0.197
REMARK SMILES C=C[C@@H](O)CCCCC
REMARK SMILES IDX 6 1 7 2 8 3 9 4 5 5 3 6 2 7 1 8 4 9
REMARK H PARENT 4 10
REMARK Flexibility Score: inf
ROOT
ATOM      1  C   UNL     1      15.737  13.392  37.708  1.00  0.00     0.003 C 
ENDROOT
BRANCH   1   2
ATOM      2  C   UNL     1      14.548  14.119  38.354  1.00  0.00    -0.000 C 
BRANCH   2   3
ATOM      3  C   UNL     1      14.624  14.125  39.889  1.00  0.00    -0.003 C 
ATOM      4  C   UNL     1      16.032  13.844  40.413  1.00  0.00     0.004 C 
ENDBRANCH   2   3
ENDBRANCH   1   2
BRANCH   1   5
ATOM      5  C   UNL     1      15.254  12.270  36.778  1.00  0.00     0.036 C 
BRANCH   5   6
ATOM      6  C   UNL     1      13.807  12.508  36.300  1.00  0.00     0.136 C 
BRANCH   6   7
ATOM      7  C   UNL     1      13.736  12.591  34.793  1.00  0.00    -0.004 C 
ATOM      8  C   UNL     1      14.112  11.571  34.015  1.00  0.00     0.007 C 
ENDBRANCH   6   7
BRANCH   6   9
ATOM      9  O   UNL     1      12.951  11.494  36.767  1.00  0.00    -0.389 OA
ATOM     10  H   UNL     1      13.471  10.648  36.795  1.00  0.00     0.211 HD
ENDBRANCH   6   9
ENDBRANCH   5   6
ENDBRANCH   1   5
TORSDOF 6
ENDMDL
MODEL 4
REMARK VINA RESULT:    -3.246      3.832      7.126
REMARK INTER + INTRA:          -4.487
REMARK INTER:                  -4.360
REMARK INTRA:                  -0.127
REMARK UNBOUND:                -0.197
REMARK SMILES C=C[C@@H](O)CCCCC
REMARK SMILES IDX 6 1 7 2 8 3 9 4 5 5 3 6 2 7 1 8 4 9
REMARK H PARENT 4 10
REMARK Flexibility Score: inf
ROOT
ATOM      1  C   UNL     1      16.300  13.437  39.906  1.00  0.00     0.003 C 
ENDROOT
BRANCH   1   2
ATOM      2  C   UNL     1      14.941  14.123  39.704  1.00  0.00    -0.000 C 
BRANCH   2   3
ATOM      3  C   UNL     1      14.412  13.974  38.269  1.00  0.00    -0.003 C 
ATOM      4  C   UNL     1      15.364  13.190  37.366  1.00  0.00     0.004 C 
ENDBRANCH   2   3
ENDBRANCH   1   2
BRANCH   1   5
ATOM      5  C   UNL     1      17.034  14.020  41.121  1.00  0.00     0.036 C 
BRANCH   5   6
ATOM      6  C   UNL     1      18.246  13.154  41.525  1.00  0.00     0.136 C 
BRANCH   6   7
ATOM      7  C   UNL     1      19.036  13.806  42.636  1.00  0.00    -0.004 C 
ATOM      8  C   UNL     1      19.133  13.251  43.848  1.00  0.00     0.007 C 
ENDBRANCH   6   7
BRANCH   6   9
ATOM      9  O   UNL     1      17.835  11.868  41.918  1.00  0.00    -0.389 OA
ATOM     10  H   UNL     1      16.884  11.759  41.652  1.00  0.00     0.211 HD
ENDBRANCH   6   9
ENDBRANCH   5   6
ENDBRANCH   1   5
TORSDOF 6
ENDMDL
MODEL 5
REMARK VINA RESULT:    -3.051      2.188      5.084
REMARK INTER + INTRA:          -4.229
REMARK INTER:                  -4.073
REMARK INTRA:                  -0.155
REMARK UNBOUND:                -0.197
REMARK SMILES C=C[C@@H](O)CCCCC
REMARK SMILES IDX 6 1 7 2 8 3 9 4 5 5 3 6 2 7 1 8 4 9
REMARK H PARENT 4 10
REMARK Flexibility Score: inf
ROOT
ATOM      1  C   UNL     1      14.053  14.125  36.459  1.00  0.00     0.003 C 
ENDROOT
BRANCH   1   2
ATOM      2  C   UNL     1      14.111  13.664  34.995  1.00  0.00    -0.000 C 
BRANCH   2   3
ATOM      3  C   UNL     1      13.383  12.329  34.768  1.00  0.00    -0.003 C 
ATOM      4  C   UNL     1      14.107  11.424  33.771  1.00  0.00     0.004 C 
ENDBRANCH   2   3
ENDBRANCH   1   2
BRANCH   1   5
ATOM      5  C   UNL     1      14.544  13.019  37.403  1.00  0.00     0.036 C 
BRANCH   5   6
ATOM      6  C   UNL     1      15.583  13.550  38.413  1.00  0.00     0.136 C 
BRANCH   6   7
ATOM      7  C   UNL     1      14.937  13.879  39.738  1.00  0.00    -0.004 C 
ATOM      8  C   UNL     1      15.664  14.125  40.832  1.00  0.00     0.007 C 
ENDBRANCH   6   7
BRANCH   6   9
ATOM      9  O   UNL     1      16.621  12.620  38.602  1.00  0.00    -0.389 OA
ATOM     10  H   UNL     1      16.894  12.661  39.556  1.00  0.00     0.211 HD
ENDBRANCH   6   9
ENDBRANCH   5   6
ENDBRANCH   1   5
TORSDOF 6
ENDMDL
MODEL 6
REMARK VINA RESULT:    -2.966      3.091      5.976
REMARK INTER + INTRA:          -4.117
REMARK INTER:                  -4.006
REMARK INTRA:                  -0.111
REMARK UNBOUND:                -0.197
REMARK SMILES C=C[C@@H](O)CCCCC
REMARK SMILES IDX 6 1 7 2 8 3 9 4 5 5 3 6 2 7 1 8 4 9
REMARK H PARENT 4 10
REMARK Flexibility Score: inf
ROOT
ATOM      1  C   UNL     1      14.759  13.747  38.364  1.00  0.00     0.003 C 
ENDROOT
BRANCH   1   2
ATOM      2  C   UNL     1      15.103  13.562  36.879  1.00  0.00    -0.000 C 
BRANCH   2   3
ATOM      3  C   UNL     1      13.999  12.825  36.104  1.00  0.00    -0.003 C 
ATOM      4  C   UNL     1      14.294  11.336  35.928  1.00  0.00     0.004 C 
ENDBRANCH   2   3
ENDBRANCH   1   2
BRANCH   1   5
ATOM      5  C   UNL     1      16.014  14.084  39.181  1.00  0.00     0.036 C 
BRANCH   5   6
ATOM      6  C   UNL     1      16.003  13.386  40.557  1.00  0.00     0.136 C 
BRANCH   6   7
ATOM      7  C   UNL     1      17.408  13.177  41.074  1.00  0.00    -0.004 C 
ATOM      8  C   UNL     1      18.048  14.123  41.768  1.00  0.00     0.007 C 
ENDBRANCH   6   7
BRANCH   6   9
ATOM      9  O   UNL     1      15.252  14.125  41.489  1.00  0.00    -0.389 OA
ATOM     10  H   UNL     1      14.725  13.480  42.031  1.00  0.00     0.211 HD
ENDBRANCH   6   9
ENDBRANCH   5   6
ENDBRANCH   1   5
TORSDOF 6
ENDMDL
MODEL 7
REMARK VINA RESULT:    -2.679      2.858      4.321
REMARK INTER + INTRA:          -3.737
REMARK INTER:                  -3.607
REMARK INTRA:                  -0.130
REMARK UNBOUND:                -0.197
REMARK SMILES C=C[C@@H](O)CCCCC
REMARK SMILES IDX 6 1 7 2 8 3 9 4 5 5 3 6 2 7 1 8 4 9
REMARK H PARENT 4 10
REMARK Flexibility Score: inf
ROOT
ATOM      1  C   UNL     1      16.251  13.359  40.631  1.00  0.00     0.003 C 
ENDROOT
BRANCH   1   2
ATOM      2  C   UNL     1      17.614  12.926  41.190  1.00  0.00    -0.000 C 
BRANCH   2   3
ATOM      3  C   UNL     1      18.418  14.104  41.762  1.00  0.00    -0.003 C 
ATOM      4  C   UNL     1      19.043  13.790  43.121  1.00  0.00     0.004 C 
ENDBRANCH   2   3
ENDBRANCH   1   2
BRANCH   1   5
ATOM      5  C   UNL     1      16.260  13.355  39.096  1.00  0.00     0.036 C 
BRANCH   5   6
ATOM      6  C   UNL     1      15.055  14.124  38.516  1.00  0.00     0.136 C 
BRANCH   6   7
ATOM      7  C   UNL     1      14.632  13.551  37.183  1.00  0.00    -0.004 C 
ATOM      8  C   UNL     1      14.517  12.234  36.991  1.00  0.00     0.007 C 
ENDBRANCH   6   7
BRANCH   6   9
ATOM      9  O   UNL     1      13.971  14.110  39.412  1.00  0.00    -0.389 OA
ATOM     10  H   UNL     1      13.137  14.195  38.879  1.00  0.00     0.211 HD
ENDBRANCH   6   9
ENDBRANCH   5   6
ENDBRANCH   1   5
TORSDOF 6
ENDMDL
MODEL 8
REMARK VINA RESULT:    -2.106     18.016     19.060
REMARK INTER + INTRA:          -2.980
REMARK INTER:                  -2.602
REMARK INTRA:                  -0.378
REMARK UNBOUND:                -0.197
REMARK SMILES C=C[C@@H](O)CCCCC
REMARK SMILES IDX 6 1 7 2 8 3 9 4 5 5 3 6 2 7 1 8 4 9
REMARK H PARENT 4 10
REMARK Flexibility Score: inf
ROOT
ATOM      1  C   UNL     1      15.849  -4.728  40.769  1.00  0.00     0.003 C 
ENDROOT
BRANCH   1   2
ATOM      2  C   UNL     1      16.473  -6.125  40.910  1.00  0.00    -0.000 C 
BRANCH   2   3
ATOM      3  C   UNL     1      17.983  -6.071  41.190  1.00  0.00    -0.003 C 
ATOM      4  C   UNL     1      18.597  -4.711  40.859  1.00  0.00     0.004 C 
ENDBRANCH   2   3
ENDBRANCH   1   2
BRANCH   1   5
ATOM      5  C   UNL     1      14.671  -4.553  41.737  1.00  0.00     0.036 C 
BRANCH   5   6
ATOM      6  C   UNL     1      15.104  -3.853  43.042  1.00  0.00     0.136 C 
BRANCH   6   7
ATOM      7  C   UNL     1      15.659  -4.847  44.036  1.00  0.00    -0.004 C 
ATOM      8  C   UNL     1      15.183  -6.093  44.123  1.00  0.00     0.007 C 
ENDBRANCH   6   7
BRANCH   6   9
ATOM      9  O   UNL     1      16.056  -2.851  42.782  1.00  0.00    -0.389 OA
ATOM     10  H   UNL     1      16.687  -3.202  42.100  1.00  0.00     0.211 HD
ENDBRANCH   6   9
ENDBRANCH   5   6
ENDBRANCH   1   5
TORSDOF 6
ENDMDL
MODEL 9
REMARK VINA RESULT:    -2.036     18.175     19.140
REMARK INTER + INTRA:          -2.888
REMARK INTER:                  -3.074
REMARK INTRA:                   0.187
REMARK UNBOUND:                -0.197
REMARK SMILES C=C[C@@H](O)CCCCC
REMARK SMILES IDX 6 1 7 2 8 3 9 4 5 5 3 6 2 7 1 8 4 9
REMARK H PARENT 4 10
REMARK Flexibility Score: inf
ROOT
ATOM      1  C   UNL     1      14.714  -4.611  41.465  1.00  0.00     0.003 C 
ENDROOT
BRANCH   1   2
ATOM      2  C   UNL     1      14.565  -5.907  42.277  1.00  0.00    -0.000 C 
BRANCH   2   3
ATOM      3  C   UNL     1      14.716  -5.676  43.789  1.00  0.00    -0.003 C 
ATOM      4  C   UNL     1      15.536  -4.429  44.118  1.00  0.00     0.004 C 
ENDBRANCH   2   3
ENDBRANCH   1   2
BRANCH   1   5
ATOM      5  C   UNL     1      16.007  -4.627  40.638  1.00  0.00     0.036 C 
BRANCH   5   6
ATOM      6  C   UNL     1      17.246  -4.886  41.521  1.00  0.00     0.136 C 
BRANCH   6   7
ATOM      7  C   UNL     1      17.987  -6.124  41.072  1.00  0.00    -0.004 C 
ATOM      8  C   UNL     1      19.289  -6.094  40.774  1.00  0.00     0.007 C 
ENDBRANCH   6   7
BRANCH   6   9
ATOM      9  O   UNL     1      18.111  -3.777  41.509  1.00  0.00    -0.389 OA
ATOM     10  H   UNL     1      18.600  -3.766  42.374  1.00  0.00     0.211 HD
ENDBRANCH   6   9
ENDBRANCH   5   6
ENDBRANCH   1   5
TORSDOF 6
ENDMDL
