MODEL 1
REMARK VINA RESULT:     4.213      0.000      0.000
REMARK INTER + INTRA:           9.355
REMARK INTER:                   9.140
REMARK INTRA:                   0.215
REMARK UNBOUND:                 0.215
REMARK SMILES CCCCCCCCCCCCCCCCCCCCCC(=O)[O-]
REMARK SMILES IDX 12 1 11 2 10 3 9 4 8 5 7 6 6 7 5 8 4 9 3 10 2 11 1 12 13 13
REMARK SMILES IDX 14 14 15 15 16 16 17 17 18 18 19 19 20 20 21 21 22 22 23 23
REMARK SMILES IDX 24 24
REMARK H PARENT
REMARK Flexibility Score: inf
ROOT
ATOM      1  C   UNL     1      19.120  12.399 -14.171  1.00  0.00     0.000 C 
ENDROOT
BRANCH   1   2
ATOM      2  C   UNL     1      19.153  12.916 -15.618  1.00  0.00     0.000 C 
BRANCH   2   3
ATOM      3  C   UNL     1      20.128  14.081 -15.873  1.00  0.00     0.000 C 
BRANCH   3   4
ATOM      4  C   UNL     1      21.101  14.347 -14.705  1.00  0.00    -0.000 C 
BRANCH   4   5
ATOM      5  C   UNL     1      21.633  13.048 -14.079  1.00  0.00    -0.000 C 
BRANCH   5   6
ATOM      6  C   UNL     1      22.000  12.025 -15.162  1.00  0.00    -0.000 C 
BRANCH   6   7
ATOM      7  C   UNL     1      21.875  10.591 -14.627  1.00  0.00    -0.000 C 
BRANCH   7   8
ATOM      8  C   UNL     1      21.559   9.571 -15.733  1.00  0.00    -0.000 C 
BRANCH   8   9
ATOM      9  C   UNL     1      20.070   9.560 -16.124  1.00  0.00    -0.000 C 
BRANCH   9  10
ATOM     10  C   UNL     1      19.217   8.716 -15.155  1.00  0.00    -0.000 C 
BRANCH  10  11
ATOM     11  C   UNL     1      17.741   8.602 -15.574  1.00  0.00    -0.003 C 
ATOM     12  C   UNL     1      16.834   8.119 -14.442  1.00  0.00     0.004 C 
ENDBRANCH  10  11
ENDBRANCH   9  10
ENDBRANCH   8   9
ENDBRANCH   7   8
ENDBRANCH   6   7
ENDBRANCH   5   6
ENDBRANCH   4   5
ENDBRANCH   3   4
ENDBRANCH   2   3
ENDBRANCH   1   2
BRANCH   1  13
ATOM     13  C   UNL     1      17.839  11.638 -13.777  1.00  0.00     0.000 C 
BRANCH  13  14
ATOM     14  C   UNL     1      17.652  11.470 -12.253  1.00  0.00     0.000 C 
BRANCH  14  15
ATOM     15  C   UNL     1      16.842  12.622 -11.629  1.00  0.00     0.000 C 
BRANCH  15  16
ATOM     16  C   UNL     1      16.890  12.626 -10.091  1.00  0.00     0.000 C 
BRANCH  16  17
ATOM     17  C   UNL     1      16.696  11.248  -9.420  1.00  0.00     0.000 C 
BRANCH  17  18
ATOM     18  C   UNL     1      17.566  10.999  -8.173  1.00  0.00     0.000 C 
BRANCH  18  19
ATOM     19  C   UNL     1      17.882   9.504  -7.924  1.00  0.00     0.000 C 
BRANCH  19  20
ATOM     20  C   UNL     1      19.315   9.114  -8.331  1.00  0.00     0.006 C 
BRANCH  20  21
ATOM     21  C   UNL     1      20.088   8.384  -7.220  1.00  0.00     0.053 C 
BRANCH  21  22
ATOM     22  C   UNL     1      21.369   9.086  -6.883  1.00  0.00     0.041 C 
ATOM     23  O   UNL     1      21.776  10.040  -7.597  1.00  0.00    -0.550 OA
ATOM     24  O   UNL     1      22.101   8.698  -5.768  1.00  0.00    -0.550 OA
ENDBRANCH  21  22
ENDBRANCH  20  21
ENDBRANCH  19  20
ENDBRANCH  18  19
ENDBRANCH  17  18
ENDBRANCH  16  17
ENDBRANCH  15  16
ENDBRANCH  14  15
ENDBRANCH  13  14
ENDBRANCH   1  13
TORSDOF 20
ENDMDL
MODEL 2
REMARK VINA RESULT:     4.306      3.403      6.793
REMARK INTER + INTRA:           9.555
REMARK INTER:                   8.957
REMARK INTRA:                   0.598
REMARK UNBOUND:                 0.215
REMARK SMILES CCCCCCCCCCCCCCCCCCCCCC(=O)[O-]
REMARK SMILES IDX 12 1 11 2 10 3 9 4 8 5 7 6 6 7 5 8 4 9 3 10 2 11 1 12 13 13
REMARK SMILES IDX 14 14 15 15 16 16 17 17 18 18 19 19 20 20 21 21 22 22 23 23
REMARK SMILES IDX 24 24
REMARK H PARENT
REMARK Flexibility Score: inf
ROOT
ATOM      1  C   UNL     1      21.162  15.316 -15.052  1.00  0.00     0.000 C 
ENDROOT
BRANCH   1   2
ATOM      2  C   UNL     1      20.016  15.266 -16.076  1.00  0.00     0.000 C 
BRANCH   2   3
ATOM      3  C   UNL     1      19.148  13.994 -16.023  1.00  0.00     0.000 C 
BRANCH   3   4
ATOM      4  C   UNL     1      19.193  13.265 -14.664  1.00  0.00    -0.000 C 
BRANCH   4   5
ATOM      5  C   UNL     1      18.283  12.027 -14.633  1.00  0.00    -0.000 C 
BRANCH   5   6
ATOM      6  C   UNL     1      18.641  11.110 -13.456  1.00  0.00    -0.000 C 
BRANCH   6   7
ATOM      7  C   UNL     1      17.885  11.527 -12.186  1.00  0.00    -0.000 C 
BRANCH   7   8
ATOM      8  C   UNL     1      16.706  12.469 -12.480  1.00  0.00    -0.000 C 
BRANCH   8   9
ATOM      9  C   UNL     1      16.125  13.110 -11.206  1.00  0.00    -0.000 C 
BRANCH   9  10
ATOM     10  C   UNL     1      16.705  12.484  -9.921  1.00  0.00    -0.000 C 
BRANCH  10  11
ATOM     11  C   UNL     1      15.641  11.827  -9.023  1.00  0.00    -0.003 C 
ATOM     12  C   UNL     1      16.224  10.779  -8.075  1.00  0.00     0.004 C 
ENDBRANCH  10  11
ENDBRANCH   9  10
ENDBRANCH   8   9
ENDBRANCH   7   8
ENDBRANCH   6   7
ENDBRANCH   5   6
ENDBRANCH   4   5
ENDBRANCH   3   4
ENDBRANCH   2   3
ENDBRANCH   1   2
BRANCH   1  13
ATOM     13  C   UNL     1      21.464  13.981 -14.344  1.00  0.00     0.000 C 
BRANCH  13  14
ATOM     14  C   UNL     1      22.118  12.919 -15.256  1.00  0.00     0.000 C 
BRANCH  14  15
ATOM     15  C   UNL     1      22.026  11.500 -14.666  1.00  0.00     0.000 C 
BRANCH  15  16
ATOM     16  C   UNL     1      21.685  10.432 -15.719  1.00  0.00     0.000 C 
BRANCH  16  17
ATOM     17  C   UNL     1      21.057   9.134 -15.166  1.00  0.00     0.000 C 
BRANCH  17  18
ATOM     18  C   UNL     1      19.829   8.617 -15.942  1.00  0.00     0.000 C 
BRANCH  18  19
ATOM     19  C   UNL     1      18.724   8.026 -15.034  1.00  0.00     0.000 C 
BRANCH  19  20
ATOM     20  C   UNL     1      17.390   8.788 -15.132  1.00  0.00     0.006 C 
BRANCH  20  21
ATOM     21  C   UNL     1      16.156   7.885 -14.968  1.00  0.00     0.053 C 
BRANCH  21  22
ATOM     22  C   UNL     1      14.968   8.654 -14.475  1.00  0.00     0.041 C 
ATOM     23  O   UNL     1      13.802   8.252 -14.730  1.00  0.00    -0.550 OA
ATOM     24  O   UNL     1      15.150   9.804 -13.718  1.00  0.00    -0.550 OA
ENDBRANCH  21  22
ENDBRANCH  20  21
ENDBRANCH  19  20
ENDBRANCH  18  19
ENDBRANCH  17  18
ENDBRANCH  16  17
ENDBRANCH  15  16
ENDBRANCH  14  15
ENDBRANCH  13  14
ENDBRANCH   1  13
TORSDOF 20
ENDMDL
MODEL 3
REMARK VINA RESULT:     5.556      1.317      2.897
REMARK INTER + INTRA:          12.267
REMARK INTER:                  14.394
REMARK INTRA:                  -2.127
REMARK UNBOUND:                 0.215
REMARK SMILES CCCCCCCCCCCCCCCCCCCCCC(=O)[O-]
REMARK SMILES IDX 12 1 11 2 10 3 9 4 8 5 7 6 6 7 5 8 4 9 3 10 2 11 1 12 13 13
REMARK SMILES IDX 14 14 15 15 16 16 17 17 18 18 19 19 20 20 21 21 22 22 23 23
REMARK SMILES IDX 24 24
REMARK H PARENT
REMARK Flexibility Score: inf
ROOT
ATOM      1  C   UNL     1      20.277  13.531 -16.124  1.00  0.00     0.000 C 
ENDROOT
BRANCH   1   2
ATOM      2  C   UNL     1      21.727  13.211 -15.726  1.00  0.00     0.000 C 
BRANCH   2   3
ATOM      3  C   UNL     1      21.885  12.453 -14.394  1.00  0.00     0.000 C 
BRANCH   3   4
ATOM      4  C   UNL     1      22.085  10.932 -14.561  1.00  0.00    -0.000 C 
BRANCH   4   5
ATOM      5  C   UNL     1      21.917  10.476 -16.019  1.00  0.00    -0.000 C 
BRANCH   5   6
ATOM      6  C   UNL     1      21.955   8.946 -16.125  1.00  0.00    -0.000 C 
BRANCH   6   7
ATOM      7  C   UNL     1      20.874   8.308 -15.240  1.00  0.00    -0.000 C 
BRANCH   7   8
ATOM      8  C   UNL     1      19.476   8.369 -15.876  1.00  0.00    -0.000 C 
BRANCH   8   9
ATOM      9  C   UNL     1      18.359   7.968 -14.894  1.00  0.00    -0.000 C 
BRANCH   9  10
ATOM     10  C   UNL     1      16.954   8.280 -15.448  1.00  0.00    -0.000 C 
BRANCH  10  11
ATOM     11  C   UNL     1      15.927   8.637 -14.359  1.00  0.00    -0.003 C 
ATOM     12  C   UNL     1      14.523   8.121 -14.668  1.00  0.00     0.004 C 
ENDBRANCH  10  11
ENDBRANCH   9  10
ENDBRANCH   8   9
ENDBRANCH   7   8
ENDBRANCH   6   7
ENDBRANCH   5   6
ENDBRANCH   4   5
ENDBRANCH   3   4
ENDBRANCH   2   3
ENDBRANCH   1   2
BRANCH   1  13
ATOM     13  C   UNL     1      19.222  13.247 -15.037  1.00  0.00     0.000 C 
BRANCH  13  14
ATOM     14  C   UNL     1      18.678  11.802 -15.051  1.00  0.00     0.000 C 
BRANCH  14  15
ATOM     15  C   UNL     1      18.497  11.228 -13.633  1.00  0.00     0.000 C 
BRANCH  15  16
ATOM     16  C   UNL     1      18.021  12.279 -12.615  1.00  0.00     0.000 C 
BRANCH  16  17
ATOM     17  C   UNL     1      16.566  12.113 -12.125  1.00  0.00     0.000 C 
BRANCH  17  18
ATOM     18  C   UNL     1      16.298  12.604 -10.689  1.00  0.00     0.000 C 
BRANCH  18  19
ATOM     19  C   UNL     1      17.354  12.129  -9.662  1.00  0.00     0.000 C 
BRANCH  19  20
ATOM     20  C   UNL     1      16.828  11.036  -8.716  1.00  0.00     0.006 C 
BRANCH  20  21
ATOM     21  C   UNL     1      17.872  10.558  -7.693  1.00  0.00     0.053 C 
BRANCH  21  22
ATOM     22  C   UNL     1      18.811   9.552  -8.288  1.00  0.00     0.041 C 
ATOM     23  O   UNL     1      18.549   9.019  -9.397  1.00  0.00    -0.550 OA
ATOM     24  O   UNL     1      19.986   9.222  -7.624  1.00  0.00    -0.550 OA
ENDBRANCH  21  22
ENDBRANCH  20  21
ENDBRANCH  19  20
ENDBRANCH  18  19
ENDBRANCH  17  18
ENDBRANCH  16  17
ENDBRANCH  15  16
ENDBRANCH  14  15
ENDBRANCH  13  14
ENDBRANCH   1  13
TORSDOF 20
ENDMDL
MODEL 4
REMARK VINA RESULT:     5.747      1.185      2.394
REMARK INTER + INTRA:          12.682
REMARK INTER:                  14.740
REMARK INTRA:                  -2.057
REMARK UNBOUND:                 0.215
REMARK SMILES CCCCCCCCCCCCCCCCCCCCCC(=O)[O-]
REMARK SMILES IDX 12 1 11 2 10 3 9 4 8 5 7 6 6 7 5 8 4 9 3 10 2 11 1 12 13 13
REMARK SMILES IDX 14 14 15 15 16 16 17 17 18 18 19 19 20 20 21 21 22 22 23 23
REMARK SMILES IDX 24 24
REMARK H PARENT
REMARK Flexibility Score: inf
ROOT
ATOM      1  C   UNL     1      19.332  12.526 -13.526  1.00  0.00     0.000 C 
ENDROOT
BRANCH   1   2
ATOM      2  C   UNL     1      19.587  13.102 -14.929  1.00  0.00     0.000 C 
BRANCH   2   3
ATOM      3  C   UNL     1      20.424  12.204 -15.860  1.00  0.00     0.000 C 
BRANCH   3   4
ATOM      4  C   UNL     1      21.494  11.370 -15.126  1.00  0.00    -0.000 C 
BRANCH   4   5
ATOM      5  C   UNL     1      21.343   9.863 -15.387  1.00  0.00    -0.000 C 
BRANCH   5   6
ATOM      6  C   UNL     1      20.015   9.557 -16.091  1.00  0.00    -0.000 C 
BRANCH   6   7
ATOM      7  C   UNL     1      19.300   8.373 -15.425  1.00  0.00    -0.000 C 
BRANCH   7   8
ATOM      8  C   UNL     1      17.769   8.497 -15.479  1.00  0.00    -0.000 C 
BRANCH   8   9
ATOM      9  C   UNL     1      17.110   8.339 -14.096  1.00  0.00    -0.000 C 
BRANCH   9  10
ATOM     10  C   UNL     1      15.682   8.921 -14.059  1.00  0.00    -0.000 C 
BRANCH  10  11
ATOM     11  C   UNL     1      14.584   7.875 -14.324  1.00  0.00    -0.003 C 
ATOM     12  C   UNL     1      13.694   8.233 -15.513  1.00  0.00     0.004 C 
ENDBRANCH  10  11
ENDBRANCH   9  10
ENDBRANCH   8   9
ENDBRANCH   7   8
ENDBRANCH   6   7
ENDBRANCH   5   6
ENDBRANCH   4   5
ENDBRANCH   3   4
ENDBRANCH   2   3
ENDBRANCH   1   2
BRANCH   1  13
ATOM     13  C   UNL     1      17.891  12.044 -13.269  1.00  0.00     0.000 C 
BRANCH  13  14
ATOM     14  C   UNL     1      17.616  11.639 -11.804  1.00  0.00     0.000 C 
BRANCH  14  15
ATOM     15  C   UNL     1      17.686  12.837 -10.839  1.00  0.00     0.000 C 
BRANCH  15  16
ATOM     16  C   UNL     1      16.565  12.826  -9.785  1.00  0.00     0.000 C 
BRANCH  16  17
ATOM     17  C   UNL     1      15.938  11.443  -9.502  1.00  0.00     0.000 C 
BRANCH  17  18
ATOM     18  C   UNL     1      15.958  11.004  -8.025  1.00  0.00     0.000 C 
BRANCH  18  19
ATOM     19  C   UNL     1      16.867   9.781  -7.752  1.00  0.00     0.000 C 
BRANCH  19  20
ATOM     20  C   UNL     1      18.347  10.043  -8.085  1.00  0.00     0.006 C 
BRANCH  20  21
ATOM     21  C   UNL     1      19.285   8.913  -7.629  1.00  0.00     0.053 C 
BRANCH  21  22
ATOM     22  C   UNL     1      20.648   9.430  -7.281  1.00  0.00     0.041 C 
ATOM     23  O   UNL     1      21.488   8.679  -6.721  1.00  0.00    -0.550 OA
ATOM     24  O   UNL     1      20.996  10.738  -7.596  1.00  0.00    -0.550 OA
ENDBRANCH  21  22
ENDBRANCH  20  21
ENDBRANCH  19  20
ENDBRANCH  18  19
ENDBRANCH  17  18
ENDBRANCH  16  17
ENDBRANCH  15  16
ENDBRANCH  14  15
ENDBRANCH  13  14
ENDBRANCH   1  13
TORSDOF 20
ENDMDL
MODEL 5
REMARK VINA RESULT:     6.120      8.393     11.435
REMARK INTER + INTRA:          13.491
REMARK INTER:                  14.715
REMARK INTRA:                  -1.224
REMARK UNBOUND:                 0.215
REMARK SMILES CCCCCCCCCCCCCCCCCCCCCC(=O)[O-]
REMARK SMILES IDX 12 1 11 2 10 3 9 4 8 5 7 6 6 7 5 8 4 9 3 10 2 11 1 12 13 13
REMARK SMILES IDX 14 14 15 15 16 16 17 17 18 18 19 19 20 20 21 21 22 22 23 23
REMARK SMILES IDX 24 24
REMARK H PARENT
REMARK Flexibility Score: inf
ROOT
ATOM      1  C   UNL     1      10.697  12.241 -13.078  1.00  0.00     0.000 C 
ENDROOT
BRANCH   1   2
ATOM      2  C   UNL     1       9.382  11.798 -13.739  1.00  0.00     0.000 C 
BRANCH   2   3
ATOM      3  C   UNL     1       8.253  11.426 -12.759  1.00  0.00     0.000 C 
BRANCH   3   4
ATOM      4  C   UNL     1       7.133  10.574 -13.392  1.00  0.00    -0.000 C 
BRANCH   4   5
ATOM      5  C   UNL     1       6.896   9.260 -12.632  1.00  0.00    -0.000 C 
BRANCH   5   6
ATOM      6  C   UNL     1       6.653   8.098 -13.603  1.00  0.00    -0.000 C 
BRANCH   6   7
ATOM      7  C   UNL     1       5.226   8.146 -14.170  1.00  0.00    -0.000 C 
BRANCH   7   8
ATOM      8  C   UNL     1       4.154   7.884 -13.099  1.00  0.00    -0.000 C 
BRANCH   8   9
ATOM      9  C   UNL     1       3.407   9.164 -12.682  1.00  0.00    -0.000 C 
BRANCH   9  10
ATOM     10  C   UNL     1       3.276   9.290 -11.150  1.00  0.00    -0.000 C 
BRANCH  10  11
ATOM     11  C   UNL     1       3.940   8.137 -10.378  1.00  0.00    -0.003 C 
ATOM     12  C   UNL     1       5.078   8.602  -9.471  1.00  0.00     0.004 C 
ENDBRANCH  10  11
ENDBRANCH   9  10
ENDBRANCH   8   9
ENDBRANCH   7   8
ENDBRANCH   6   7
ENDBRANCH   5   6
ENDBRANCH   4   5
ENDBRANCH   3   4
ENDBRANCH   2   3
ENDBRANCH   1   2
BRANCH   1  13
ATOM     13  C   UNL     1      11.968  11.986 -13.913  1.00  0.00     0.000 C 
BRANCH  13  14
ATOM     14  C   UNL     1      13.251  11.820 -13.070  1.00  0.00     0.000 C 
BRANCH  14  15
ATOM     15  C   UNL     1      14.112  10.632 -13.537  1.00  0.00     0.000 C 
BRANCH  15  16
ATOM     16  C   UNL     1      15.613  10.834 -13.265  1.00  0.00     0.000 C 
BRANCH  16  17
ATOM     17  C   UNL     1      16.545   9.765 -13.877  1.00  0.00     0.000 C 
BRANCH  17  18
ATOM     18  C   UNL     1      18.044  10.126 -13.877  1.00  0.00     0.000 C 
BRANCH  18  19
ATOM     19  C   UNL     1      18.763   9.794 -15.207  1.00  0.00     0.000 C 
BRANCH  19  20
ATOM     20  C   UNL     1      20.015  10.656 -15.449  1.00  0.00     0.006 C 
BRANCH  20  21
ATOM     21  C   UNL     1      20.299  11.653 -14.313  1.00  0.00     0.053 C 
BRANCH  21  22
ATOM     22  C   UNL     1      20.117  13.071 -14.762  1.00  0.00     0.041 C 
ATOM     23  O   UNL     1      19.095  13.402 -15.420  1.00  0.00    -0.550 OA
ATOM     24  O   UNL     1      21.067  14.030 -14.436  1.00  0.00    -0.550 OA
ENDBRANCH  21  22
ENDBRANCH  20  21
ENDBRANCH  19  20
ENDBRANCH  18  19
ENDBRANCH  17  18
ENDBRANCH  16  17
ENDBRANCH  15  16
ENDBRANCH  14  15
ENDBRANCH  13  14
ENDBRANCH   1  13
TORSDOF 20
ENDMDL
MODEL 6
REMARK VINA RESULT:     6.209      9.093     11.977
REMARK INTER + INTRA:          13.685
REMARK INTER:                  14.662
REMARK INTRA:                  -0.977
REMARK UNBOUND:                 0.215
REMARK SMILES CCCCCCCCCCCCCCCCCCCCCC(=O)[O-]
REMARK SMILES IDX 12 1 11 2 10 3 9 4 8 5 7 6 6 7 5 8 4 9 3 10 2 11 1 12 13 13
REMARK SMILES IDX 14 14 15 15 16 16 17 17 18 18 19 19 20 20 21 21 22 22 23 23
REMARK SMILES IDX 24 24
REMARK H PARENT
REMARK Flexibility Score: inf
ROOT
ATOM      1  C   UNL     1       9.682  12.022 -13.804  1.00  0.00     0.000 C 
ENDROOT
BRANCH   1   2
ATOM      2  C   UNL     1       8.553  11.638 -12.834  1.00  0.00     0.000 C 
BRANCH   2   3
ATOM      3  C   UNL     1       7.397  10.838 -13.463  1.00  0.00     0.000 C 
BRANCH   3   4
ATOM      4  C   UNL     1       6.814   9.750 -12.537  1.00  0.00    -0.000 C 
BRANCH   4   5
ATOM      5  C   UNL     1       6.578   8.421 -13.271  1.00  0.00    -0.000 C 
BRANCH   5   6
ATOM      6  C   UNL     1       5.131   7.942 -13.091  1.00  0.00    -0.000 C 
BRANCH   6   7
ATOM      7  C   UNL     1       4.136   9.022 -13.543  1.00  0.00    -0.000 C 
BRANCH   7   8
ATOM      8  C   UNL     1       3.194   9.470 -12.414  1.00  0.00    -0.000 C 
BRANCH   8   9
ATOM      9  C   UNL     1       1.993  10.284 -12.931  1.00  0.00    -0.000 C 
BRANCH   9  10
ATOM     10  C   UNL     1       2.254  10.889 -14.326  1.00  0.00    -0.000 C 
BRANCH  10  11
ATOM     11  C   UNL     1       2.547  12.400 -14.296  1.00  0.00    -0.003 C 
ATOM     12  C   UNL     1       3.724  12.798 -15.186  1.00  0.00     0.004 C 
ENDBRANCH  10  11
ENDBRANCH   9  10
ENDBRANCH   8   9
ENDBRANCH   7   8
ENDBRANCH   6   7
ENDBRANCH   5   6
ENDBRANCH   4   5
ENDBRANCH   3   4
ENDBRANCH   2   3
ENDBRANCH   1   2
BRANCH   1  13
ATOM     13  C   UNL     1      11.052  12.277 -13.146  1.00  0.00     0.000 C 
BRANCH  13  14
ATOM     14  C   UNL     1      12.250  11.739 -13.959  1.00  0.00     0.000 C 
BRANCH  14  15
ATOM     15  C   UNL     1      13.559  11.740 -13.149  1.00  0.00     0.000 C 
BRANCH  15  16
ATOM     16  C   UNL     1      14.492  10.571 -13.513  1.00  0.00     0.000 C 
BRANCH  16  17
ATOM     17  C   UNL     1      16.002  10.858 -13.361  1.00  0.00     0.000 C 
BRANCH  17  18
ATOM     18  C   UNL     1      16.935   9.742 -13.868  1.00  0.00     0.000 C 
BRANCH  18  19
ATOM     19  C   UNL     1      18.339  10.245 -14.282  1.00  0.00     0.000 C 
BRANCH  19  20
ATOM     20  C   UNL     1      18.709  11.596 -13.644  1.00  0.00     0.006 C 
BRANCH  20  21
ATOM     21  C   UNL     1      19.289  12.608 -14.646  1.00  0.00     0.053 C 
BRANCH  21  22
ATOM     22  C   UNL     1      20.750  12.845 -14.412  1.00  0.00     0.041 C 
ATOM     23  O   UNL     1      21.168  13.998 -14.125  1.00  0.00    -0.550 OA
ATOM     24  O   UNL     1      21.647  11.787 -14.491  1.00  0.00    -0.550 OA
ENDBRANCH  21  22
ENDBRANCH  20  21
ENDBRANCH  19  20
ENDBRANCH  18  19
ENDBRANCH  17  18
ENDBRANCH  16  17
ENDBRANCH  15  16
ENDBRANCH  14  15
ENDBRANCH  13  14
ENDBRANCH   1  13
TORSDOF 20
ENDMDL
MODEL 7
REMARK VINA RESULT:     6.318      9.345     11.149
REMARK INTER + INTRA:          13.921
REMARK INTER:                  14.784
REMARK INTRA:                  -0.863
REMARK UNBOUND:                 0.215
REMARK SMILES CCCCCCCCCCCCCCCCCCCCCC(=O)[O-]
REMARK SMILES IDX 12 1 11 2 10 3 9 4 8 5 7 6 6 7 5 8 4 9 3 10 2 11 1 12 13 13
REMARK SMILES IDX 14 14 15 15 16 16 17 17 18 18 19 19 20 20 21 21 22 22 23 23
REMARK SMILES IDX 24 24
REMARK H PARENT
REMARK Flexibility Score: inf
ROOT
ATOM      1  C   UNL     1      11.991  11.882 -13.895  1.00  0.00     0.000 C 
ENDROOT
BRANCH   1   2
ATOM      2  C   UNL     1      13.307  11.793 -13.106  1.00  0.00     0.000 C 
BRANCH   2   3
ATOM      3  C   UNL     1      14.233  10.631 -13.512  1.00  0.00     0.000 C 
BRANCH   3   4
ATOM      4  C   UNL     1      15.734  10.927 -13.307  1.00  0.00    -0.000 C 
BRANCH   4   5
ATOM      5  C   UNL     1      16.632   9.807 -13.853  1.00  0.00    -0.000 C 
BRANCH   5   6
ATOM      6  C   UNL     1      18.112  10.204 -13.781  1.00  0.00    -0.000 C 
BRANCH   6   7
ATOM      7  C   UNL     1      18.780  10.086 -15.159  1.00  0.00    -0.000 C 
BRANCH   7   8
ATOM      8  C   UNL     1      19.171  11.452 -15.747  1.00  0.00    -0.000 C 
BRANCH   8   9
ATOM      9  C   UNL     1      20.573  11.910 -15.302  1.00  0.00    -0.000 C 
BRANCH   9  10
ATOM     10  C   UNL     1      20.521  12.828 -14.063  1.00  0.00    -0.000 C 
BRANCH  10  11
ATOM     11  C   UNL     1      21.553  13.969 -14.100  1.00  0.00    -0.003 C 
ATOM     12  C   UNL     1      21.415  14.860 -15.333  1.00  0.00     0.004 C 
ENDBRANCH  10  11
ENDBRANCH   9  10
ENDBRANCH   8   9
ENDBRANCH   7   8
ENDBRANCH   6   7
ENDBRANCH   5   6
ENDBRANCH   4   5
ENDBRANCH   3   4
ENDBRANCH   2   3
ENDBRANCH   1   2
BRANCH   1  13
ATOM     13  C   UNL     1      10.755  12.280 -13.065  1.00  0.00     0.000 C 
BRANCH  13  14
ATOM     14  C   UNL     1       9.408  11.937 -13.737  1.00  0.00     0.000 C 
BRANCH  14  15
ATOM     15  C   UNL     1       8.378  11.376 -12.738  1.00  0.00     0.000 C 
BRANCH  15  16
ATOM     16  C   UNL     1       7.094  10.872 -13.419  1.00  0.00     0.000 C 
BRANCH  16  17
ATOM     17  C   UNL     1       6.738   9.394 -13.147  1.00  0.00     0.000 C 
BRANCH  17  18
ATOM     18  C   UNL     1       6.335   9.074 -11.694  1.00  0.00     0.000 C 
BRANCH  18  19
ATOM     19  C   UNL     1       4.812   8.869 -11.503  1.00  0.00     0.000 C 
BRANCH  19  20
ATOM     20  C   UNL     1       4.025   8.916 -12.824  1.00  0.00     0.006 C 
BRANCH  20  21
ATOM     21  C   UNL     1       3.271  10.239 -13.040  1.00  0.00     0.053 C 
BRANCH  21  22
ATOM     22  C   UNL     1       3.103  10.550 -14.496  1.00  0.00     0.041 C 
ATOM     23  O   UNL     1       2.069  10.174 -15.110  1.00  0.00    -0.550 OA
ATOM     24  O   UNL     1       4.079  11.273 -15.169  1.00  0.00    -0.550 OA
ENDBRANCH  21  22
ENDBRANCH  20  21
ENDBRANCH  19  20
ENDBRANCH  18  19
ENDBRANCH  17  18
ENDBRANCH  16  17
ENDBRANCH  15  16
ENDBRANCH  14  15
ENDBRANCH  13  14
ENDBRANCH   1  13
TORSDOF 20
ENDMDL
MODEL 8
REMARK VINA RESULT:     6.381      8.311     11.192
REMARK INTER + INTRA:          14.056
REMARK INTER:                  15.520
REMARK INTRA:                  -1.464
REMARK UNBOUND:                 0.215
REMARK SMILES CCCCCCCCCCCCCCCCCCCCCC(=O)[O-]
REMARK SMILES IDX 12 1 11 2 10 3 9 4 8 5 7 6 6 7 5 8 4 9 3 10 2 11 1 12 13 13
REMARK SMILES IDX 14 14 15 15 16 16 17 17 18 18 19 19 20 20 21 21 22 22 23 23
REMARK SMILES IDX 24 24
REMARK H PARENT
REMARK Flexibility Score: inf
ROOT
ATOM      1  C   UNL     1      11.174  12.298 -13.208  1.00  0.00     0.000 C 
ENDROOT
BRANCH   1   2
ATOM      2  C   UNL     1       9.817  11.962 -13.849  1.00  0.00     0.000 C 
BRANCH   2   3
ATOM      3  C   UNL     1       8.687  11.643 -12.852  1.00  0.00     0.000 C 
BRANCH   3   4
ATOM      4  C   UNL     1       7.518  10.845 -13.468  1.00  0.00    -0.000 C 
BRANCH   4   5
ATOM      5  C   UNL     1       6.828   9.932 -12.443  1.00  0.00    -0.000 C 
BRANCH   5   6
ATOM      6  C   UNL     1       6.434   8.592 -13.078  1.00  0.00    -0.000 C 
BRANCH   6   7
ATOM      7  C   UNL     1       5.089   8.098 -12.525  1.00  0.00    -0.000 C 
BRANCH   7   8
ATOM      8  C   UNL     1       4.040   9.217 -12.429  1.00  0.00    -0.000 C 
BRANCH   8   9
ATOM      9  C   UNL     1       3.439   9.586 -13.799  1.00  0.00    -0.000 C 
BRANCH   9  10
ATOM     10  C   UNL     1       3.324  11.112 -13.994  1.00  0.00    -0.000 C 
BRANCH  10  11
ATOM     11  C   UNL     1       4.177  11.650 -15.156  1.00  0.00    -0.003 C 
ATOM     12  C   UNL     1       4.928  10.550 -15.906  1.00  0.00     0.004 C 
ENDBRANCH  10  11
ENDBRANCH   9  10
ENDBRANCH   8   9
ENDBRANCH   7   8
ENDBRANCH   6   7
ENDBRANCH   5   6
ENDBRANCH   4   5
ENDBRANCH   3   4
ENDBRANCH   2   3
ENDBRANCH   1   2
BRANCH   1  13
ATOM     13  C   UNL     1      12.391  11.607 -13.854  1.00  0.00     0.000 C 
BRANCH  13  14
ATOM     14  C   UNL     1      13.724  11.862 -13.116  1.00  0.00     0.000 C 
BRANCH  14  15
ATOM     15  C   UNL     1      14.640  10.624 -13.111  1.00  0.00     0.000 C 
BRANCH  15  16
ATOM     16  C   UNL     1      14.277   9.604 -14.204  1.00  0.00     0.000 C 
BRANCH  16  17
ATOM     17  C   UNL     1      15.013   8.249 -14.115  1.00  0.00     0.000 C 
BRANCH  17  18
ATOM     18  C   UNL     1      16.522   8.342 -13.815  1.00  0.00     0.000 C 
BRANCH  18  19
ATOM     19  C   UNL     1      17.258   9.415 -14.654  1.00  0.00     0.000 C 
BRANCH  19  20
ATOM     20  C   UNL     1      18.508   9.977 -13.954  1.00  0.00     0.006 C 
BRANCH  20  21
ATOM     21  C   UNL     1      18.470  11.503 -13.768  1.00  0.00     0.053 C 
BRANCH  21  22
ATOM     22  C   UNL     1      19.727  12.153 -14.262  1.00  0.00     0.041 C 
ATOM     23  O   UNL     1      20.843  11.600 -14.075  1.00  0.00    -0.550 OA
ATOM     24  O   UNL     1      19.662  13.360 -14.947  1.00  0.00    -0.550 OA
ENDBRANCH  21  22
ENDBRANCH  20  21
ENDBRANCH  19  20
ENDBRANCH  18  19
ENDBRANCH  17  18
ENDBRANCH  16  17
ENDBRANCH  15  16
ENDBRANCH  14  15
ENDBRANCH  13  14
ENDBRANCH   1  13
TORSDOF 20
ENDMDL
MODEL 9
REMARK VINA RESULT:     6.431      8.297     10.417
REMARK INTER + INTRA:          14.166
REMARK INTER:                  15.033
REMARK INTRA:                  -0.867
REMARK UNBOUND:                 0.215
REMARK SMILES CCCCCCCCCCCCCCCCCCCCCC(=O)[O-]
REMARK SMILES IDX 12 1 11 2 10 3 9 4 8 5 7 6 6 7 5 8 4 9 3 10 2 11 1 12 13 13
REMARK SMILES IDX 14 14 15 15 16 16 17 17 18 18 19 19 20 20 21 21 22 22 23 23
REMARK SMILES IDX 24 24
REMARK H PARENT
REMARK Flexibility Score: inf
ROOT
ATOM      1  C   UNL     1      14.178  10.800 -13.098  1.00  0.00     0.000 C 
ENDROOT
BRANCH   1   2
ATOM      2  C   UNL     1      14.229   9.722 -14.193  1.00  0.00     0.000 C 
BRANCH   2   3
ATOM      3  C   UNL     1      14.974   8.432 -13.802  1.00  0.00     0.000 C 
BRANCH   3   4
ATOM      4  C   UNL     1      16.304   8.226 -14.557  1.00  0.00    -0.000 C 
BRANCH   4   5
ATOM      5  C   UNL     1      17.365   9.268 -14.169  1.00  0.00    -0.000 C 
BRANCH   5   6
ATOM      6  C   UNL     1      18.443   9.386 -15.255  1.00  0.00    -0.000 C 
BRANCH   6   7
ATOM      7  C   UNL     1      18.897  10.844 -15.420  1.00  0.00    -0.000 C 
BRANCH   7   8
ATOM      8  C   UNL     1      19.413  11.457 -14.107  1.00  0.00    -0.000 C 
BRANCH   8   9
ATOM      9  C   UNL     1      20.837  12.028 -14.238  1.00  0.00    -0.000 C 
BRANCH   9  10
ATOM     10  C   UNL     1      20.871  13.560 -14.066  1.00  0.00    -0.000 C 
BRANCH  10  11
ATOM     11  C   UNL     1      20.994  14.326 -15.395  1.00  0.00    -0.003 C 
ATOM     12  C   UNL     1      21.912  15.544 -15.301  1.00  0.00     0.004 C 
ENDBRANCH  10  11
ENDBRANCH   9  10
ENDBRANCH   8   9
ENDBRANCH   7   8
ENDBRANCH   6   7
ENDBRANCH   5   6
ENDBRANCH   4   5
ENDBRANCH   3   4
ENDBRANCH   2   3
ENDBRANCH   1   2
BRANCH   1  13
ATOM     13  C   UNL     1      13.255  11.997 -13.402  1.00  0.00     0.000 C 
BRANCH  13  14
ATOM     14  C   UNL     1      11.874  11.599 -13.966  1.00  0.00     0.000 C 
BRANCH  14  15
ATOM     15  C   UNL     1      10.715  12.306 -13.238  1.00  0.00     0.000 C 
BRANCH  15  16
ATOM     16  C   UNL     1       9.336  11.961 -13.826  1.00  0.00     0.000 C 
BRANCH  16  17
ATOM     17  C   UNL     1       8.323  11.358 -12.828  1.00  0.00     0.000 C 
BRANCH  17  18
ATOM     18  C   UNL     1       7.160  10.575 -13.467  1.00  0.00     0.000 C 
BRANCH  18  19
ATOM     19  C   UNL     1       6.679   9.373 -12.618  1.00  0.00     0.000 C 
BRANCH  19  20
ATOM     20  C   UNL     1       6.033   8.259 -13.461  1.00  0.00     0.006 C 
BRANCH  20  21
ATOM     21  C   UNL     1       4.594   8.579 -13.898  1.00  0.00     0.053 C 
BRANCH  21  22
ATOM     22  C   UNL     1       4.455   8.580 -15.390  1.00  0.00     0.041 C 
ATOM     23  O   UNL     1       5.325   9.140 -16.108  1.00  0.00    -0.550 OA
ATOM     24  O   UNL     1       3.375   7.943 -15.988  1.00  0.00    -0.550 OA
ENDBRANCH  21  22
ENDBRANCH  20  21
ENDBRANCH  19  20
ENDBRANCH  18  19
ENDBRANCH  17  18
ENDBRANCH  16  17
ENDBRANCH  15  16
ENDBRANCH  14  15
ENDBRANCH  13  14
ENDBRANCH   1  13
TORSDOF 20
ENDMDL
