MODEL 1
REMARK VINA RESULT:    -5.970      0.000      0.000
REMARK INTER + INTRA:          -7.248
REMARK INTER:                  -7.017
REMARK INTRA:                  -0.231
REMARK UNBOUND:                -0.231
REMARK SMILES COc1cc2ccc(=O)oc2c(OC)c1OC
REMARK SMILES IDX 3 1 15 2 12 3 11 4 5 5 4 6 6 7 7 8 8 9 9 10 10 11 2 12 1 13
REMARK SMILES IDX 16 14 17 15 13 16 14 17
REMARK H PARENT
REMARK Flexibility Score: inf
ROOT
ATOM      1  C   UNL     1     -37.147  -4.324 -14.041  1.00  0.00     0.165 A 
ATOM      2  C   UNL     1     -36.551  -5.543 -14.405  1.00  0.00     0.207 A 
ATOM      3  C   UNL     1     -37.264  -6.753 -14.261  1.00  0.00     0.208 A 
ATOM      4  C   UNL     1     -38.601  -6.725 -13.846  1.00  0.00     0.184 A 
ATOM      5  C   UNL     1     -39.211  -5.498 -13.511  1.00  0.00     0.025 A 
ATOM      6  C   UNL     1     -38.481  -4.307 -13.592  1.00  0.00     0.062 A 
ATOM      7  C   UNL     1     -40.545  -5.509 -13.088  1.00  0.00     0.020 A 
ATOM      8  C   UNL     1     -41.229  -6.720 -13.010  1.00  0.00     0.094 A 
ATOM      9  C   UNL     1     -40.561  -7.899 -13.355  1.00  0.00     0.336 A 
ATOM     10  O   UNL     1     -41.160  -9.003 -13.289  1.00  0.00    -0.246 OA
ATOM     11  O   UNL     1     -39.292  -7.861 -13.752  1.00  0.00    -0.419 OA
ENDROOT
BRANCH   1  12
ATOM     12  O   UNL     1     -36.386  -3.150 -14.158  1.00  0.00    -0.493 OA
ATOM     13  C   UNL     1     -36.755  -2.023 -14.946  1.00  0.00     0.278 C 
ENDBRANCH   1  12
BRANCH   2  14
ATOM     14  O   UNL     1     -35.252  -5.517 -14.923  1.00  0.00    -0.490 OA
ATOM     15  C   UNL     1     -34.991  -5.367 -16.315  1.00  0.00     0.278 C 
ENDBRANCH   2  14
BRANCH   3  16
ATOM     16  O   UNL     1     -36.668  -7.994 -14.509  1.00  0.00    -0.490 OA
ATOM     17  C   UNL     1     -36.608  -8.566 -15.813  1.00  0.00     0.278 C 
ENDBRANCH   3  16
TORSDOF 3
ENDMDL
MODEL 2
REMARK VINA RESULT:    -5.778      2.098      3.640
REMARK INTER + INTRA:          -7.023
REMARK INTER:                  -6.789
REMARK INTRA:                  -0.234
REMARK UNBOUND:                -0.231
REMARK SMILES COc1cc2ccc(=O)oc2c(OC)c1OC
REMARK SMILES IDX 3 1 15 2 12 3 11 4 5 5 4 6 6 7 7 8 8 9 9 10 10 11 2 12 1 13
REMARK SMILES IDX 16 14 17 15 13 16 14 17
REMARK H PARENT
REMARK Flexibility Score: inf
ROOT
ATOM      1  C   UNL     1     -35.956  -5.772 -16.827  1.00  0.00     0.165 A 
ATOM      2  C   UNL     1     -37.067  -4.915 -16.752  1.00  0.00     0.207 A 
ATOM      3  C   UNL     1     -38.202  -5.289 -15.999  1.00  0.00     0.208 A 
ATOM      4  C   UNL     1     -38.180  -6.472 -15.250  1.00  0.00     0.184 A 
ATOM      5  C   UNL     1     -37.052  -7.318 -15.300  1.00  0.00     0.025 A 
ATOM      6  C   UNL     1     -35.954  -6.977 -16.098  1.00  0.00     0.062 A 
ATOM      7  C   UNL     1     -37.069  -8.498 -14.549  1.00  0.00     0.020 A 
ATOM      8  C   UNL     1     -38.189  -8.804 -13.778  1.00  0.00     0.094 A 
ATOM      9  C   UNL     1     -39.273  -7.920 -13.778  1.00  0.00     0.336 A 
ATOM     10  O   UNL     1     -40.295  -8.179 -13.091  1.00  0.00    -0.246 OA
ATOM     11  O   UNL     1     -39.231  -6.805 -14.503  1.00  0.00    -0.419 OA
ENDROOT
BRANCH   1  12
ATOM     12  O   UNL     1     -34.868  -5.382 -17.623  1.00  0.00    -0.493 OA
ATOM     13  C   UNL     1     -33.512  -5.368 -17.186  1.00  0.00     0.278 C 
ENDBRANCH   1  12
BRANCH   2  14
ATOM     14  O   UNL     1     -37.005  -3.690 -17.422  1.00  0.00    -0.490 OA
ATOM     15  C   UNL     1     -36.476  -2.516 -16.815  1.00  0.00     0.278 C 
ENDBRANCH   2  14
BRANCH   3  16
ATOM     16  O   UNL     1     -39.367  -4.514 -15.988  1.00  0.00    -0.490 OA
ATOM     17  C   UNL     1     -39.581  -3.469 -15.044  1.00  0.00     0.278 C 
ENDBRANCH   3  16
TORSDOF 3
ENDMDL
MODEL 3
REMARK VINA RESULT:    -5.766      1.398      4.484
REMARK INTER + INTRA:          -7.008
REMARK INTER:                  -6.807
REMARK INTRA:                  -0.201
REMARK UNBOUND:                -0.231
REMARK SMILES COc1cc2ccc(=O)oc2c(OC)c1OC
REMARK SMILES IDX 3 1 15 2 12 3 11 4 5 5 4 6 6 7 7 8 8 9 9 10 10 11 2 12 1 13
REMARK SMILES IDX 16 14 17 15 13 16 14 17
REMARK H PARENT
REMARK Flexibility Score: inf
ROOT
ATOM      1  C   UNL     1     -39.006  -7.114 -13.582  1.00  0.00     0.165 A 
ATOM      2  C   UNL     1     -37.627  -7.010 -13.825  1.00  0.00     0.207 A 
ATOM      3  C   UNL     1     -36.959  -5.783 -13.613  1.00  0.00     0.208 A 
ATOM      4  C   UNL     1     -37.657  -4.699 -13.066  1.00  0.00     0.184 A 
ATOM      5  C   UNL     1     -39.035  -4.813 -12.792  1.00  0.00     0.025 A 
ATOM      6  C   UNL     1     -39.709  -6.009 -13.064  1.00  0.00     0.062 A 
ATOM      7  C   UNL     1     -39.704  -3.705 -12.258  1.00  0.00     0.020 A 
ATOM      8  C   UNL     1     -38.996  -2.530 -12.014  1.00  0.00     0.094 A 
ATOM      9  C   UNL     1     -37.631  -2.487 -12.313  1.00  0.00     0.336 A 
ATOM     10  O   UNL     1     -36.974  -1.435 -12.103  1.00  0.00    -0.246 OA
ATOM     11  O   UNL     1     -37.020  -3.554 -12.822  1.00  0.00    -0.419 OA
ENDROOT
BRANCH   1  12
ATOM     12  O   UNL     1     -39.638  -8.339 -13.850  1.00  0.00    -0.493 OA
ATOM     13  C   UNL     1     -40.959  -8.674 -13.435  1.00  0.00     0.278 C 
ENDBRANCH   1  12
BRANCH   2  14
ATOM     14  O   UNL     1     -36.943  -8.149 -14.262  1.00  0.00    -0.490 OA
ATOM     15  C   UNL     1     -36.768  -8.448 -15.643  1.00  0.00     0.278 C 
ENDBRANCH   2  14
BRANCH   3  16
ATOM     16  O   UNL     1     -35.611  -5.610 -13.946  1.00  0.00    -0.490 OA
ATOM     17  C   UNL     1     -35.192  -5.181 -15.238  1.00  0.00     0.278 C 
ENDBRANCH   3  16
TORSDOF 3
ENDMDL
MODEL 4
REMARK VINA RESULT:    -5.708      5.614      7.368
REMARK INTER + INTRA:          -6.940
REMARK INTER:                  -6.812
REMARK INTRA:                  -0.127
REMARK UNBOUND:                -0.231
REMARK SMILES COc1cc2ccc(=O)oc2c(OC)c1OC
REMARK SMILES IDX 3 1 15 2 12 3 11 4 5 5 4 6 6 7 7 8 8 9 9 10 10 11 2 12 1 13
REMARK SMILES IDX 16 14 17 15 13 16 14 17
REMARK H PARENT
REMARK Flexibility Score: inf
ROOT
ATOM      1  C   UNL     1     -31.917  -4.795 -17.099  1.00  0.00     0.165 A 
ATOM      2  C   UNL     1     -31.766  -3.615 -17.846  1.00  0.00     0.207 A 
ATOM      3  C   UNL     1     -32.869  -3.065 -18.536  1.00  0.00     0.208 A 
ATOM      4  C   UNL     1     -34.135  -3.646 -18.395  1.00  0.00     0.184 A 
ATOM      5  C   UNL     1     -34.294  -4.813 -17.619  1.00  0.00     0.025 A 
ATOM      6  C   UNL     1     -33.188  -5.393 -16.989  1.00  0.00     0.062 A 
ATOM      7  C   UNL     1     -35.572  -5.373 -17.510  1.00  0.00     0.020 A 
ATOM      8  C   UNL     1     -36.643  -4.769 -18.164  1.00  0.00     0.094 A 
ATOM      9  C   UNL     1     -36.412  -3.614 -18.919  1.00  0.00     0.336 A 
ATOM     10  O   UNL     1     -37.366  -3.055 -19.519  1.00  0.00    -0.246 OA
ATOM     11  O   UNL     1     -35.187  -3.104 -19.007  1.00  0.00    -0.419 OA
ENDROOT
BRANCH   1  12
ATOM     12  O   UNL     1     -30.785  -5.332 -16.467  1.00  0.00    -0.493 OA
ATOM     13  C   UNL     1     -30.296  -6.654 -16.671  1.00  0.00     0.278 C 
ENDBRANCH   1  12
BRANCH   2  14
ATOM     14  O   UNL     1     -30.509  -3.002 -17.869  1.00  0.00    -0.490 OA
ATOM     15  C   UNL     1     -29.614  -3.141 -18.967  1.00  0.00     0.278 C 
ENDBRANCH   2  14
BRANCH   3  16
ATOM     16  O   UNL     1     -32.734  -1.954 -19.376  1.00  0.00    -0.490 OA
ATOM     17  C   UNL     1     -32.365  -2.072 -20.747  1.00  0.00     0.278 C 
ENDBRANCH   3  16
TORSDOF 3
ENDMDL
MODEL 5
REMARK VINA RESULT:    -5.705      3.496      7.168
REMARK INTER + INTRA:          -6.936
REMARK INTER:                  -6.690
REMARK INTRA:                  -0.246
REMARK UNBOUND:                -0.231
REMARK SMILES COc1cc2ccc(=O)oc2c(OC)c1OC
REMARK SMILES IDX 3 1 15 2 12 3 11 4 5 5 4 6 6 7 7 8 8 9 9 10 10 11 2 12 1 13
REMARK SMILES IDX 16 14 17 15 13 16 14 17
REMARK H PARENT
REMARK Flexibility Score: inf
ROOT
ATOM      1  C   UNL     1     -35.355  -5.536 -16.057  1.00  0.00     0.165 A 
ATOM      2  C   UNL     1     -36.214  -5.378 -17.157  1.00  0.00     0.207 A 
ATOM      3  C   UNL     1     -35.808  -4.609 -18.271  1.00  0.00     0.208 A 
ATOM      4  C   UNL     1     -34.510  -4.087 -18.316  1.00  0.00     0.184 A 
ATOM      5  C   UNL     1     -33.635  -4.273 -17.226  1.00  0.00     0.025 A 
ATOM      6  C   UNL     1     -34.063  -4.979 -16.096  1.00  0.00     0.062 A 
ATOM      7  C   UNL     1     -32.349  -3.726 -17.301  1.00  0.00     0.020 A 
ATOM      8  C   UNL     1     -31.970  -3.019 -18.440  1.00  0.00     0.094 A 
ATOM      9  C   UNL     1     -32.890  -2.871 -19.482  1.00  0.00     0.336 A 
ATOM     10  O   UNL     1     -32.568  -2.234 -20.519  1.00  0.00    -0.246 OA
ATOM     11  O   UNL     1     -34.107  -3.400 -19.385  1.00  0.00    -0.419 OA
ENDROOT
BRANCH   1  12
ATOM     12  O   UNL     1     -35.817  -6.270 -14.953  1.00  0.00    -0.493 OA
ATOM     13  C   UNL     1     -35.985  -5.738 -13.643  1.00  0.00     0.278 C 
ENDBRANCH   1  12
BRANCH   2  14
ATOM     14  O   UNL     1     -37.461  -6.011 -17.122  1.00  0.00    -0.490 OA
ATOM     15  C   UNL     1     -38.614  -5.391 -16.563  1.00  0.00     0.278 C 
ENDBRANCH   2  14
BRANCH   3  16
ATOM     16  O   UNL     1     -36.674  -4.339 -19.336  1.00  0.00    -0.490 OA
ATOM     17  C   UNL     1     -37.525  -3.197 -19.359  1.00  0.00     0.278 C 
ENDBRANCH   3  16
TORSDOF 3
ENDMDL
MODEL 6
REMARK VINA RESULT:    -5.541      2.101      3.807
REMARK INTER + INTRA:          -6.744
REMARK INTER:                  -6.496
REMARK INTRA:                  -0.247
REMARK UNBOUND:                -0.231
REMARK SMILES COc1cc2ccc(=O)oc2c(OC)c1OC
REMARK SMILES IDX 3 1 15 2 12 3 11 4 5 5 4 6 6 7 7 8 8 9 9 10 10 11 2 12 1 13
REMARK SMILES IDX 16 14 17 15 13 16 14 17
REMARK H PARENT
REMARK Flexibility Score: inf
ROOT
ATOM      1  C   UNL     1     -35.462  -4.412 -16.471  1.00  0.00     0.165 A 
ATOM      2  C   UNL     1     -36.185  -3.834 -15.415  1.00  0.00     0.207 A 
ATOM      3  C   UNL     1     -37.006  -4.637 -14.593  1.00  0.00     0.208 A 
ATOM      4  C   UNL     1     -37.020  -6.026 -14.772  1.00  0.00     0.184 A 
ATOM      5  C   UNL     1     -36.268  -6.611 -15.812  1.00  0.00     0.025 A 
ATOM      6  C   UNL     1     -35.508  -5.806 -16.667  1.00  0.00     0.062 A 
ATOM      7  C   UNL     1     -36.316  -8.001 -15.970  1.00  0.00     0.020 A 
ATOM      8  C   UNL     1     -37.097  -8.762 -15.104  1.00  0.00     0.094 A 
ATOM      9  C   UNL     1     -37.819  -8.115 -14.096  1.00  0.00     0.336 A 
ATOM     10  O   UNL     1     -38.532  -8.785 -13.305  1.00  0.00    -0.246 OA
ATOM     11  O   UNL     1     -37.757  -6.792 -13.969  1.00  0.00    -0.419 OA
ENDROOT
BRANCH   1  12
ATOM     12  O   UNL     1     -34.695  -3.570 -17.292  1.00  0.00    -0.493 OA
ATOM     13  C   UNL     1     -35.069  -3.162 -18.604  1.00  0.00     0.278 C 
ENDBRANCH   1  12
BRANCH   2  14
ATOM     14  O   UNL     1     -36.055  -2.458 -15.197  1.00  0.00    -0.490 OA
ATOM     15  C   UNL     1     -36.954  -1.510 -15.762  1.00  0.00     0.278 C 
ENDBRANCH   2  14
BRANCH   3  16
ATOM     16  O   UNL     1     -37.824  -4.084 -13.602  1.00  0.00    -0.490 OA
ATOM     17  C   UNL     1     -37.346  -3.791 -12.292  1.00  0.00     0.278 C 
ENDBRANCH   3  16
TORSDOF 3
ENDMDL
MODEL 7
REMARK VINA RESULT:    -5.508      1.782      5.748
REMARK INTER + INTRA:          -6.705
REMARK INTER:                  -6.420
REMARK INTRA:                  -0.286
REMARK UNBOUND:                -0.231
REMARK SMILES COc1cc2ccc(=O)oc2c(OC)c1OC
REMARK SMILES IDX 3 1 15 2 12 3 11 4 5 5 4 6 6 7 7 8 8 9 9 10 10 11 2 12 1 13
REMARK SMILES IDX 16 14 17 15 13 16 14 17
REMARK H PARENT
REMARK Flexibility Score: inf
ROOT
ATOM      1  C   UNL     1     -37.485  -7.003 -14.100  1.00  0.00     0.165 A 
ATOM      2  C   UNL     1     -38.116  -5.771 -13.860  1.00  0.00     0.207 A 
ATOM      3  C   UNL     1     -37.715  -4.617 -14.570  1.00  0.00     0.208 A 
ATOM      4  C   UNL     1     -36.754  -4.725 -15.583  1.00  0.00     0.184 A 
ATOM      5  C   UNL     1     -36.143  -5.968 -15.846  1.00  0.00     0.025 A 
ATOM      6  C   UNL     1     -36.495  -7.096 -15.097  1.00  0.00     0.062 A 
ATOM      7  C   UNL     1     -35.178  -6.037 -16.857  1.00  0.00     0.020 A 
ATOM      8  C   UNL     1     -34.849  -4.886 -17.569  1.00  0.00     0.094 A 
ATOM      9  C   UNL     1     -35.493  -3.686 -17.253  1.00  0.00     0.336 A 
ATOM     10  O   UNL     1     -35.209  -2.634 -17.883  1.00  0.00    -0.246 OA
ATOM     11  O   UNL     1     -36.406  -3.648 -16.285  1.00  0.00    -0.419 OA
ENDROOT
BRANCH   1  12
ATOM     12  O   UNL     1     -37.884  -8.113 -13.340  1.00  0.00    -0.493 OA
ATOM     13  C   UNL     1     -38.798  -9.111 -13.785  1.00  0.00     0.278 C 
ENDBRANCH   1  12
BRANCH   2  14
ATOM     14  O   UNL     1     -39.151  -5.728 -12.920  1.00  0.00    -0.490 OA
ATOM     15  C   UNL     1     -40.522  -5.817 -13.293  1.00  0.00     0.278 C 
ENDBRANCH   2  14
BRANCH   3  16
ATOM     16  O   UNL     1     -38.243  -3.354 -14.282  1.00  0.00    -0.490 OA
ATOM     17  C   UNL     1     -37.732  -2.530 -13.239  1.00  0.00     0.278 C 
ENDBRANCH   3  16
TORSDOF 3
ENDMDL
MODEL 8
REMARK VINA RESULT:    -5.454      2.218      4.068
REMARK INTER + INTRA:          -6.642
REMARK INTER:                  -6.396
REMARK INTRA:                  -0.246
REMARK UNBOUND:                -0.231
REMARK SMILES COc1cc2ccc(=O)oc2c(OC)c1OC
REMARK SMILES IDX 3 1 15 2 12 3 11 4 5 5 4 6 6 7 7 8 8 9 9 10 10 11 2 12 1 13
REMARK SMILES IDX 16 14 17 15 13 16 14 17
REMARK H PARENT
REMARK Flexibility Score: inf
ROOT
ATOM      1  C   UNL     1     -40.121  -4.495 -11.941  1.00  0.00     0.165 A 
ATOM      2  C   UNL     1     -39.010  -3.918 -12.578  1.00  0.00     0.207 A 
ATOM      3  C   UNL     1     -38.202  -4.695 -13.438  1.00  0.00     0.208 A 
ATOM      4  C   UNL     1     -38.569  -6.015 -13.730  1.00  0.00     0.184 A 
ATOM      5  C   UNL     1     -39.703  -6.585 -13.115  1.00  0.00     0.025 A 
ATOM      6  C   UNL     1     -40.464  -5.834 -12.213  1.00  0.00     0.062 A 
ATOM      7  C   UNL     1     -40.032  -7.910 -13.420  1.00  0.00     0.020 A 
ATOM      8  C   UNL     1     -39.238  -8.625 -14.314  1.00  0.00     0.094 A 
ATOM      9  C   UNL     1     -38.127  -7.997 -14.885  1.00  0.00     0.336 A 
ATOM     10  O   UNL     1     -37.396  -8.626 -15.693  1.00  0.00    -0.246 OA
ATOM     11  O   UNL     1     -37.835  -6.736 -14.576  1.00  0.00    -0.419 OA
ENDROOT
BRANCH   1  12
ATOM     12  O   UNL     1     -40.869  -3.699 -11.059  1.00  0.00    -0.493 OA
ATOM     13  C   UNL     1     -41.007  -3.950  -9.664  1.00  0.00     0.278 C 
ENDBRANCH   1  12
BRANCH   2  14
ATOM     14  O   UNL     1     -38.744  -2.564 -12.350  1.00  0.00    -0.490 OA
ATOM     15  C   UNL     1     -37.927  -2.121 -11.272  1.00  0.00     0.278 C 
ENDBRANCH   2  14
BRANCH   3  16
ATOM     16  O   UNL     1     -37.028  -4.187 -14.005  1.00  0.00    -0.490 OA
ATOM     17  C   UNL     1     -35.768  -4.258 -13.345  1.00  0.00     0.278 C 
ENDBRANCH   3  16
TORSDOF 3
ENDMDL
