MODEL 1
REMARK VINA RESULT:    -5.176      0.000      0.000
REMARK INTER + INTRA:          -8.191
REMARK INTER:                  -7.900
REMARK INTRA:                  -0.291
REMARK UNBOUND:                -0.291
REMARK SMILES CCCCCCCCCCC(=O)[O-]
REMARK SMILES IDX 7 1 8 2 9 3 10 4 11 5 12 6 13 7 6 8 5 9 4 10 3 11 2 12 1 13
REMARK H PARENT
REMARK Flexibility Score: inf
ROOT
ATOM      1  C   UNL     1      -0.455 -27.154   7.096  1.00  0.00     0.000 C 
ENDROOT
BRANCH   1   2
ATOM      2  C   UNL     1       0.131 -26.863   5.696  1.00  0.00     0.000 C 
BRANCH   2   3
ATOM      3  C   UNL     1      -0.807 -27.264   4.543  1.00  0.00     0.006 C 
BRANCH   3   4
ATOM      4  C   UNL     1      -1.344 -26.076   3.733  1.00  0.00     0.053 C 
BRANCH   4   5
ATOM      5  C   UNL     1      -1.817 -26.497   2.375  1.00  0.00     0.041 C 
ATOM      6  O   UNL     1      -1.840 -27.716   2.059  1.00  0.00    -0.550 OA
ATOM      7  O   UNL     1      -2.219 -25.540   1.452  1.00  0.00    -0.550 OA
ENDBRANCH   4   5
ENDBRANCH   3   4
ENDBRANCH   2   3
ENDBRANCH   1   2
BRANCH   1   8
ATOM      8  C   UNL     1       0.501 -26.735   8.225  1.00  0.00     0.000 C 
BRANCH   8   9
ATOM      9  C   UNL     1      -0.193 -26.649   9.596  1.00  0.00    -0.000 C 
BRANCH   9  10
ATOM     10  C   UNL     1      -1.731 -26.766   9.559  1.00  0.00    -0.000 C 
BRANCH  10  11
ATOM     11  C   UNL     1      -2.471 -25.971  10.650  1.00  0.00    -0.000 C 
BRANCH  11  12
ATOM     12  C   UNL     1      -3.842 -25.459  10.188  1.00  0.00    -0.003 C 
ATOM     13  C   UNL     1      -4.298 -24.270  11.030  1.00  0.00     0.004 C 
ENDBRANCH  11  12
ENDBRANCH  10  11
ENDBRANCH   9  10
ENDBRANCH   8   9
ENDBRANCH   1   8
TORSDOF 9
ENDMDL
MODEL 2
REMARK VINA RESULT:    -5.093      3.733      5.539
REMARK INTER + INTRA:          -8.063
REMARK INTER:                  -7.289
REMARK INTRA:                  -0.775
REMARK UNBOUND:                -0.291
REMARK SMILES CCCCCCCCCCC(=O)[O-]
REMARK SMILES IDX 7 1 8 2 9 3 10 4 11 5 12 6 13 7 6 8 5 9 4 10 3 11 2 12 1 13
REMARK H PARENT
REMARK Flexibility Score: inf
ROOT
ATOM      1  C   UNL     1      -0.118 -28.234   1.664  1.00  0.00     0.000 C 
ENDROOT
BRANCH   1   2
ATOM      2  C   UNL     1      -1.644 -27.993   1.659  1.00  0.00     0.000 C 
BRANCH   2   3
ATOM      3  C   UNL     1      -2.028 -26.504   1.564  1.00  0.00     0.006 C 
BRANCH   3   4
ATOM      4  C   UNL     1      -2.121 -25.974   0.127  1.00  0.00     0.053 C 
BRANCH   4   5
ATOM      5  C   UNL     1      -2.052 -24.478   0.080  1.00  0.00     0.041 C 
ATOM      6  O   UNL     1      -2.368 -23.859  -0.970  1.00  0.00    -0.550 OA
ATOM      7  O   UNL     1      -1.623 -23.767   1.194  1.00  0.00    -0.550 OA
ENDBRANCH   4   5
ENDBRANCH   3   4
ENDBRANCH   2   3
ENDBRANCH   1   2
BRANCH   1   8
ATOM      8  C   UNL     1       0.233 -29.731   1.688  1.00  0.00     0.000 C 
BRANCH   8   9
ATOM      9  C   UNL     1       0.662 -30.223   3.081  1.00  0.00    -0.000 C 
BRANCH   9  10
ATOM     10  C   UNL     1       0.834 -29.116   4.142  1.00  0.00    -0.000 C 
BRANCH  10  11
ATOM     11  C   UNL     1      -0.119 -29.215   5.347  1.00  0.00    -0.000 C 
BRANCH  11  12
ATOM     12  C   UNL     1      -0.361 -27.861   6.028  1.00  0.00    -0.003 C 
ATOM     13  C   UNL     1      -0.498 -26.743   4.998  1.00  0.00     0.004 C 
ENDBRANCH  11  12
ENDBRANCH  10  11
ENDBRANCH   9  10
ENDBRANCH   8   9
ENDBRANCH   1   8
TORSDOF 9
ENDMDL
MODEL 3
REMARK VINA RESULT:    -5.028      4.334      6.183
REMARK INTER + INTRA:          -7.964
REMARK INTER:                  -7.123
REMARK INTRA:                  -0.841
REMARK UNBOUND:                -0.291
REMARK SMILES CCCCCCCCCCC(=O)[O-]
REMARK SMILES IDX 7 1 8 2 9 3 10 4 11 5 12 6 13 7 6 8 5 9 4 10 3 11 2 12 1 13
REMARK H PARENT
REMARK Flexibility Score: inf
ROOT
ATOM      1  C   UNL     1      -0.383 -25.067   2.901  1.00  0.00     0.000 C 
ENDROOT
BRANCH   1   2
ATOM      2  C   UNL     1      -1.123 -24.440   1.698  1.00  0.00     0.000 C 
BRANCH   2   3
ATOM      3  C   UNL     1      -1.060 -25.302   0.424  1.00  0.00     0.006 C 
BRANCH   3   4
ATOM      4  C   UNL     1      -2.426 -25.816  -0.051  1.00  0.00     0.053 C 
BRANCH   4   5
ATOM      5  C   UNL     1      -2.891 -25.101  -1.283  1.00  0.00     0.041 C 
ATOM      6  O   UNL     1      -3.720 -25.645  -2.060  1.00  0.00    -0.550 OA
ATOM      7  O   UNL     1      -2.397 -23.837  -1.581  1.00  0.00    -0.550 OA
ENDBRANCH   4   5
ENDBRANCH   3   4
ENDBRANCH   2   3
ENDBRANCH   1   2
BRANCH   1   8
ATOM      8  C   UNL     1      -1.335 -25.835   3.833  1.00  0.00     0.000 C 
BRANCH   8   9
ATOM      9  C   UNL     1      -0.594 -26.758   4.816  1.00  0.00    -0.000 C 
BRANCH   9  10
ATOM     10  C   UNL     1       0.598 -27.531   4.216  1.00  0.00    -0.000 C 
BRANCH  10  11
ATOM     11  C   UNL     1       0.350 -29.032   3.982  1.00  0.00    -0.000 C 
BRANCH  11  12
ATOM     12  C   UNL     1       0.586 -29.455   2.525  1.00  0.00    -0.003 C 
ATOM     13  C   UNL     1      -0.390 -28.753   1.584  1.00  0.00     0.004 C 
ENDBRANCH  11  12
ENDBRANCH  10  11
ENDBRANCH   9  10
ENDBRANCH   8   9
ENDBRANCH   1   8
TORSDOF 9
ENDMDL
MODEL 4
REMARK VINA RESULT:    -5.001      1.348      1.630
REMARK INTER + INTRA:          -7.923
REMARK INTER:                  -7.573
REMARK INTRA:                  -0.350
REMARK UNBOUND:                -0.291
REMARK SMILES CCCCCCCCCCC(=O)[O-]
REMARK SMILES IDX 7 1 8 2 9 3 10 4 11 5 12 6 13 7 6 8 5 9 4 10 3 11 2 12 1 13
REMARK H PARENT
REMARK Flexibility Score: inf
ROOT
ATOM      1  C   UNL     1      -0.345 -28.578   6.938  1.00  0.00     0.000 C 
ENDROOT
BRANCH   1   2
ATOM      2  C   UNL     1      -0.163 -28.870   5.432  1.00  0.00     0.000 C 
BRANCH   2   3
ATOM      3  C   UNL     1      -0.507 -27.669   4.530  1.00  0.00     0.006 C 
BRANCH   3   4
ATOM      4  C   UNL     1       0.191 -27.696   3.163  1.00  0.00     0.053 C 
BRANCH   4   5
ATOM      5  C   UNL     1      -0.556 -28.538   2.174  1.00  0.00     0.041 C 
ATOM      6  O   UNL     1      -0.030 -29.579   1.699  1.00  0.00    -0.550 OA
ATOM      7  O   UNL     1      -1.830 -28.164   1.764  1.00  0.00    -0.550 OA
ENDBRANCH   4   5
ENDBRANCH   3   4
ENDBRANCH   2   3
ENDBRANCH   1   2
BRANCH   1   8
ATOM      8  C   UNL     1      -0.215 -27.080   7.260  1.00  0.00     0.000 C 
BRANCH   8   9
ATOM      9  C   UNL     1      -0.330 -26.779   8.764  1.00  0.00    -0.000 C 
BRANCH   9  10
ATOM     10  C   UNL     1      -1.689 -27.137   9.401  1.00  0.00    -0.000 C 
BRANCH  10  11
ATOM     11  C   UNL     1      -2.241 -26.093  10.388  1.00  0.00    -0.000 C 
BRANCH  11  12
ATOM     12  C   UNL     1      -3.758 -25.897  10.263  1.00  0.00    -0.003 C 
ATOM     13  C   UNL     1      -4.180 -24.523  10.777  1.00  0.00     0.004 C 
ENDBRANCH  11  12
ENDBRANCH  10  11
ENDBRANCH   9  10
ENDBRANCH   8   9
ENDBRANCH   1   8
TORSDOF 9
ENDMDL
MODEL 5
REMARK VINA RESULT:    -4.966      3.716      6.607
REMARK INTER + INTRA:          -7.870
REMARK INTER:                  -6.727
REMARK INTRA:                  -1.143
REMARK UNBOUND:                -0.291
REMARK SMILES CCCCCCCCCCC(=O)[O-]
REMARK SMILES IDX 7 1 8 2 9 3 10 4 11 5 12 6 13 7 6 8 5 9 4 10 3 11 2 12 1 13
REMARK H PARENT
REMARK Flexibility Score: inf
ROOT
ATOM      1  C   UNL     1       1.273 -28.868   3.694  1.00  0.00     0.000 C 
ENDROOT
BRANCH   1   2
ATOM      2  C   UNL     1       0.715 -29.354   5.051  1.00  0.00     0.000 C 
BRANCH   2   3
ATOM      3  C   UNL     1      -0.468 -28.512   5.564  1.00  0.00     0.006 C 
BRANCH   3   4
ATOM      4  C   UNL     1      -0.050 -27.230   6.296  1.00  0.00     0.053 C 
BRANCH   4   5
ATOM      5  C   UNL     1      -0.381 -27.290   7.756  1.00  0.00     0.041 C 
ATOM      6  O   UNL     1       0.126 -26.462   8.558  1.00  0.00    -0.550 OA
ATOM      7  O   UNL     1      -1.238 -28.274   8.234  1.00  0.00    -0.550 OA
ENDBRANCH   4   5
ENDBRANCH   3   4
ENDBRANCH   2   3
ENDBRANCH   1   2
BRANCH   1   8
ATOM      8  C   UNL     1       0.971 -29.855   2.555  1.00  0.00     0.000 C 
BRANCH   8   9
ATOM      9  C   UNL     1      -0.133 -29.354   1.607  1.00  0.00    -0.000 C 
BRANCH   9  10
ATOM     10  C   UNL     1      -0.302 -27.822   1.551  1.00  0.00    -0.000 C 
BRANCH  10  11
ATOM     11  C   UNL     1      -1.705 -27.308   1.922  1.00  0.00    -0.000 C 
BRANCH  11  12
ATOM     12  C   UNL     1      -1.675 -26.228   3.013  1.00  0.00    -0.003 C 
ATOM     13  C   UNL     1      -0.326 -25.515   3.045  1.00  0.00     0.004 C 
ENDBRANCH  11  12
ENDBRANCH  10  11
ENDBRANCH   9  10
ENDBRANCH   8   9
ENDBRANCH   1   8
TORSDOF 9
ENDMDL
MODEL 6
REMARK VINA RESULT:    -4.963      3.518      6.726
REMARK INTER + INTRA:          -7.866
REMARK INTER:                  -7.539
REMARK INTRA:                  -0.327
REMARK UNBOUND:                -0.291
REMARK SMILES CCCCCCCCCCC(=O)[O-]
REMARK SMILES IDX 7 1 8 2 9 3 10 4 11 5 12 6 13 7 6 8 5 9 4 10 3 11 2 12 1 13
REMARK H PARENT
REMARK Flexibility Score: inf
ROOT
ATOM      1  C   UNL     1       0.535 -26.735   8.092  1.00  0.00     0.000 C 
ENDROOT
BRANCH   1   2
ATOM      2  C   UNL     1      -0.185 -26.700   9.459  1.00  0.00     0.000 C 
BRANCH   2   3
ATOM      3  C   UNL     1      -1.715 -26.559   9.342  1.00  0.00     0.006 C 
BRANCH   3   4
ATOM      4  C   UNL     1      -2.396 -26.058  10.622  1.00  0.00     0.053 C 
BRANCH   4   5
ATOM      5  C   UNL     1      -3.750 -25.482  10.343  1.00  0.00     0.041 C 
ATOM      6  O   UNL     1      -3.950 -24.243  10.449  1.00  0.00    -0.550 OA
ATOM      7  O   UNL     1      -4.799 -26.317   9.979  1.00  0.00    -0.550 OA
ENDBRANCH   4   5
ENDBRANCH   3   4
ENDBRANCH   2   3
ENDBRANCH   1   2
BRANCH   1   8
ATOM      8  C   UNL     1      -0.388 -27.218   6.961  1.00  0.00     0.000 C 
BRANCH   8   9
ATOM      9  C   UNL     1       0.230 -27.034   5.564  1.00  0.00    -0.000 C 
BRANCH   9  10
ATOM     10  C   UNL     1      -0.747 -27.228   4.386  1.00  0.00    -0.000 C 
BRANCH  10  11
ATOM     11  C   UNL     1      -1.259 -25.927   3.744  1.00  0.00    -0.000 C 
BRANCH  11  12
ATOM     12  C   UNL     1      -2.066 -26.172   2.461  1.00  0.00    -0.003 C 
ATOM     13  C   UNL     1      -1.559 -27.406   1.720  1.00  0.00     0.004 C 
ENDBRANCH  11  12
ENDBRANCH  10  11
ENDBRANCH   9  10
ENDBRANCH   8   9
ENDBRANCH   1   8
TORSDOF 9
ENDMDL
MODEL 7
REMARK VINA RESULT:    -4.904      4.125      5.887
REMARK INTER + INTRA:          -7.776
REMARK INTER:                  -6.917
REMARK INTRA:                  -0.859
REMARK UNBOUND:                -0.291
REMARK SMILES CCCCCCCCCCC(=O)[O-]
REMARK SMILES IDX 7 1 8 2 9 3 10 4 11 5 12 6 13 7 6 8 5 9 4 10 3 11 2 12 1 13
REMARK H PARENT
REMARK Flexibility Score: inf
ROOT
ATOM      1  C   UNL     1      -1.252 -26.330   3.845  1.00  0.00     0.000 C 
ENDROOT
BRANCH   1   2
ATOM      2  C   UNL     1      -0.834 -25.070   3.053  1.00  0.00     0.000 C 
BRANCH   2   3
ATOM      3  C   UNL     1      -0.669 -25.323   1.543  1.00  0.00     0.006 C 
BRANCH   3   4
ATOM      4  C   UNL     1      -1.935 -25.851   0.855  1.00  0.00     0.053 C 
BRANCH   4   5
ATOM      5  C   UNL     1      -2.369 -24.961  -0.270  1.00  0.00     0.041 C 
ATOM      6  O   UNL     1      -1.805 -23.850  -0.456  1.00  0.00    -0.550 OA
ATOM      7  O   UNL     1      -3.408 -25.352  -1.104  1.00  0.00    -0.550 OA
ENDBRANCH   4   5
ENDBRANCH   3   4
ENDBRANCH   2   3
ENDBRANCH   1   2
BRANCH   1   8
ATOM      8  C   UNL     1      -0.113 -26.865   4.728  1.00  0.00     0.000 C 
BRANCH   8   9
ATOM      9  C   UNL     1      -0.480 -28.171   5.453  1.00  0.00    -0.000 C 
BRANCH   9  10
ATOM     10  C   UNL     1       0.234 -29.434   4.928  1.00  0.00    -0.000 C 
BRANCH  10  11
ATOM     11  C   UNL     1       1.194 -29.196   3.749  1.00  0.00    -0.000 C 
BRANCH  11  12
ATOM     12  C   UNL     1       0.776 -29.948   2.478  1.00  0.00    -0.003 C 
ATOM     13  C   UNL     1      -0.081 -29.066   1.573  1.00  0.00     0.004 C 
ENDBRANCH  11  12
ENDBRANCH  10  11
ENDBRANCH   9  10
ENDBRANCH   8   9
ENDBRANCH   1   8
TORSDOF 9
ENDMDL
MODEL 8
REMARK VINA RESULT:    -4.819      3.849      7.272
REMARK INTER + INTRA:          -7.645
REMARK INTER:                  -7.192
REMARK INTRA:                  -0.454
REMARK UNBOUND:                -0.291
REMARK SMILES CCCCCCCCCCC(=O)[O-]
REMARK SMILES IDX 7 1 8 2 9 3 10 4 11 5 12 6 13 7 6 8 5 9 4 10 3 11 2 12 1 13
REMARK H PARENT
REMARK Flexibility Score: inf
ROOT
ATOM      1  C   UNL     1      -0.497 -27.441   6.542  1.00  0.00     0.000 C 
ENDROOT
BRANCH   1   2
ATOM      2  C   UNL     1       0.542 -26.793   7.486  1.00  0.00     0.000 C 
BRANCH   2   3
ATOM      3  C   UNL     1       0.081 -26.733   8.954  1.00  0.00     0.006 C 
BRANCH   3   4
ATOM      4  C   UNL     1      -1.372 -27.174   9.171  1.00  0.00     0.053 C 
BRANCH   4   5
ATOM      5  C   UNL     1      -2.043 -26.370  10.243  1.00  0.00     0.041 C 
ATOM      6  O   UNL     1      -3.211 -25.931  10.073  1.00  0.00    -0.550 OA
ATOM      7  O   UNL     1      -1.370 -26.091  11.426  1.00  0.00    -0.550 OA
ENDBRANCH   4   5
ENDBRANCH   3   4
ENDBRANCH   2   3
ENDBRANCH   1   2
BRANCH   1   8
ATOM      8  C   UNL     1      -0.057 -27.386   5.070  1.00  0.00     0.000 C 
BRANCH   8   9
ATOM      9  C   UNL     1      -0.951 -26.474   4.212  1.00  0.00    -0.000 C 
BRANCH   9  10
ATOM     10  C   UNL     1      -1.281 -27.016   2.806  1.00  0.00    -0.000 C 
BRANCH  10  11
ATOM     11  C   UNL     1      -0.080 -27.590   2.032  1.00  0.00    -0.000 C 
BRANCH  11  12
ATOM     12  C   UNL     1      -0.266 -29.066   1.652  1.00  0.00    -0.003 C 
ATOM     13  C   UNL     1       0.764 -29.948   2.353  1.00  0.00     0.004 C 
ENDBRANCH  11  12
ENDBRANCH  10  11
ENDBRANCH   9  10
ENDBRANCH   8   9
ENDBRANCH   1   8
TORSDOF 9
ENDMDL
MODEL 9
REMARK VINA RESULT:    -4.771      1.885      3.462
REMARK INTER + INTRA:          -7.572
REMARK INTER:                  -7.084
REMARK INTRA:                  -0.488
REMARK UNBOUND:                -0.291
REMARK SMILES CCCCCCCCCCC(=O)[O-]
REMARK SMILES IDX 7 1 8 2 9 3 10 4 11 5 12 6 13 7 6 8 5 9 4 10 3 11 2 12 1 13
REMARK H PARENT
REMARK Flexibility Score: inf
ROOT
ATOM      1  C   UNL     1      -1.148 -26.276   3.687  1.00  0.00     0.000 C 
ENDROOT
BRANCH   1   2
ATOM      2  C   UNL     1      -0.890 -27.440   2.703  1.00  0.00     0.000 C 
BRANCH   2   3
ATOM      3  C   UNL     1      -1.968 -27.568   1.611  1.00  0.00     0.006 C 
BRANCH   3   4
ATOM      4  C   UNL     1      -2.676 -26.249   1.273  1.00  0.00     0.053 C 
BRANCH   4   5
ATOM      5  C   UNL     1      -2.232 -25.703  -0.049  1.00  0.00     0.041 C 
ATOM      6  O   UNL     1      -3.062 -25.543  -0.983  1.00  0.00    -0.550 OA
ATOM      7  O   UNL     1      -0.896 -25.384  -0.256  1.00  0.00    -0.550 OA
ENDBRANCH   4   5
ENDBRANCH   3   4
ENDBRANCH   2   3
ENDBRANCH   1   2
BRANCH   1   8
ATOM      8  C   UNL     1      -0.437 -26.487   5.034  1.00  0.00     0.000 C 
BRANCH   8   9
ATOM      9  C   UNL     1      -0.461 -27.952   5.502  1.00  0.00    -0.000 C 
BRANCH   9  10
ATOM     10  C   UNL     1      -0.301 -28.157   7.022  1.00  0.00    -0.000 C 
BRANCH  10  11
ATOM     11  C   UNL     1       0.170 -26.915   7.800  1.00  0.00    -0.000 C 
BRANCH  11  12
ATOM     12  C   UNL     1      -0.183 -26.976   9.293  1.00  0.00    -0.003 C 
ATOM     13  C   UNL     1      -1.675 -26.742   9.515  1.00  0.00     0.004 C 
ENDBRANCH  11  12
ENDBRANCH  10  11
ENDBRANCH   9  10
ENDBRANCH   8   9
ENDBRANCH   1   8
TORSDOF 9
ENDMDL
