MODEL 1
REMARK VINA RESULT:     2.713      0.000      0.000
REMARK INTER + INTRA:           6.324
REMARK INTER:                   3.983
REMARK INTRA:                   2.341
REMARK UNBOUND:                 2.341
REMARK SMILES Cc1cc2c(C(C)C)c(O)c(O)c(C=O)c2c(O)c1-c1c(C)cc2c(C(C)C)c(O)c(O)c(C=O)c2c1O
REMARK SMILES IDX 1 1 2 2 3 3 4 4 16 5 13 6 11 7 9 8 5 9 17 10 19 11 20 12
REMARK SMILES IDX 37 13 21 14 36 15 23 16 22 17 24 18 33 19 25 20 31 21 29 22
REMARK SMILES IDX 38 23 34 25 35 26 26 27 27 28 28 29 32 30 30 32 18 34 6 36
REMARK SMILES IDX 7 37 8 38 14 39 15 40 10 41 12 43
REMARK H PARENT 38 24 32 31 30 33 18 35 10 42 12 44
REMARK Flexibility Score: inf
ROOT
ATOM      1  C   UNL     1       4.199 -16.681  20.873  1.00  0.00     0.045 C 
ATOM      2  C   UNL     1       5.274 -15.815  21.483  1.00  0.00    -0.039 A 
ATOM      3  C   UNL     1       6.140 -16.366  22.429  1.00  0.00     0.013 A 
ATOM      4  C   UNL     1       7.148 -15.598  23.057  1.00  0.00    -0.006 A 
ATOM      5  C   UNL     1       7.330 -14.243  22.647  1.00  0.00     0.039 A 
ATOM      6  C   UNL     1       8.361 -13.471  23.260  1.00  0.00     0.072 A 
ATOM      7  C   UNL     1       9.292 -14.094  24.111  1.00  0.00     0.169 A 
ATOM      8  C   UNL     1       9.160 -15.456  24.432  1.00  0.00     0.162 A 
ATOM      9  C   UNL     1       8.004 -16.171  24.047  1.00  0.00     0.008 A 
ATOM     10  C   UNL     1       6.511 -13.718  21.604  1.00  0.00     0.132 A 
ATOM     11  C   UNL     1       5.460 -14.489  21.063  1.00  0.00     0.031 A 
ENDROOT
BRANCH  11  12
ATOM     12  C   UNL     1       4.570 -13.914  20.021  1.00  0.00     0.031 A 
ATOM     13  C   UNL     1       4.481 -14.521  18.750  1.00  0.00     0.132 A 
ATOM     14  C   UNL     1       3.845 -12.742  20.290  1.00  0.00    -0.039 A 
ATOM     15  C   UNL     1       3.581 -14.013  17.770  1.00  0.00     0.039 A 
ATOM     16  C   UNL     1       3.062 -12.170  19.285  1.00  0.00     0.013 A 
ATOM     17  C   UNL     1       3.969 -12.038  21.619  1.00  0.00     0.045 C 
ATOM     18  C   UNL     1       2.885 -12.794  18.031  1.00  0.00    -0.006 A 
ATOM     19  C   UNL     1       3.399 -14.652  16.510  1.00  0.00     0.072 A 
ATOM     20  C   UNL     1       2.068 -12.207  17.014  1.00  0.00     0.008 A 
ATOM     21  C   UNL     1       2.746 -13.975  15.469  1.00  0.00     0.169 A 
ATOM     22  C   UNL     1       2.152 -12.722  15.701  1.00  0.00     0.162 A 
BRANCH  13  23
ATOM     23  O   UNL     1       5.329 -15.590  18.438  1.00  0.00    -0.507 OA
ATOM     24  H   UNL     1       6.327 -15.495  18.297  1.00  0.00     0.293 HD
ENDBRANCH  13  23
BRANCH  19  25
ATOM     25  C   UNL     1       3.796 -16.055  16.252  1.00  0.00     0.264 C 
ATOM     26  O   UNL     1       2.989 -16.865  15.721  1.00  0.00    -0.298 OA
ENDBRANCH  19  25
BRANCH  20  27
ATOM     27  C   UNL     1       1.157 -11.001  17.304  1.00  0.00     0.017 C 
ATOM     28  C   UNL     1      -0.316 -11.359  17.077  1.00  0.00     0.012 C 
ATOM     29  C   UNL     1       1.372 -10.378  18.697  1.00  0.00     0.012 C 
ENDBRANCH  20  27
BRANCH  21  30
ATOM     30  O   UNL     1       2.661 -14.598  14.218  1.00  0.00    -0.504 OA
ATOM     31  H   UNL     1       1.857 -15.120  13.898  1.00  0.00     0.293 HD
ENDBRANCH  21  30
BRANCH  22  32
ATOM     32  O   UNL     1       1.647 -11.966  14.639  1.00  0.00    -0.504 OA
ATOM     33  H   UNL     1       1.167 -11.084  14.748  1.00  0.00     0.293 HD
ENDBRANCH  22  32
ENDBRANCH  11  12
BRANCH  10  34
ATOM     34  O   UNL     1       6.772 -12.451  21.068  1.00  0.00    -0.507 OA
ATOM     35  H   UNL     1       7.449 -12.274  20.338  1.00  0.00     0.293 HD
ENDBRANCH  10  34
BRANCH   9  36
ATOM     36  C   UNL     1       7.723 -17.554  24.661  1.00  0.00     0.017 C 
ATOM     37  C   UNL     1       6.254 -17.683  25.073  1.00  0.00     0.012 C 
ATOM     38  C   UNL     1       8.159 -18.732  23.768  1.00  0.00     0.012 C 
ENDBRANCH   9  36
BRANCH   6  39
ATOM     39  C   UNL     1       8.438 -11.997  23.106  1.00  0.00     0.264 C 
ATOM     40  O   UNL     1       9.524 -11.381  23.267  1.00  0.00    -0.298 OA
ENDBRANCH   6  39
BRANCH   8  41
ATOM     41  O   UNL     1      10.173 -16.124  25.125  1.00  0.00    -0.504 OA
ATOM     42  H   UNL     1      11.009 -16.491  24.691  1.00  0.00     0.293 HD
ENDBRANCH   8  41
BRANCH   7  43
ATOM     43  O   UNL     1      10.315 -13.320  24.672  1.00  0.00    -0.504 OA
ATOM     44  H   UNL     1      10.165 -12.595  25.359  1.00  0.00     0.293 HD
ENDBRANCH   7  43
TORSDOF 11
ENDMDL
MODEL 2
REMARK VINA RESULT:     3.162      0.082      9.269
REMARK INTER + INTRA:           6.981
REMARK INTER:                   4.322
REMARK INTRA:                   2.659
REMARK UNBOUND:                 2.341
REMARK SMILES Cc1cc2c(C(C)C)c(O)c(O)c(C=O)c2c(O)c1-c1c(C)cc2c(C(C)C)c(O)c(O)c(C=O)c2c1O
REMARK SMILES IDX 1 1 2 2 3 3 4 4 16 5 13 6 11 7 9 8 5 9 17 10 19 11 20 12
REMARK SMILES IDX 37 13 21 14 36 15 23 16 22 17 24 18 33 19 25 20 31 21 29 22
REMARK SMILES IDX 38 23 34 25 35 26 26 27 27 28 28 29 32 30 30 32 18 34 6 36
REMARK SMILES IDX 7 37 8 38 14 39 15 40 10 41 12 43
REMARK H PARENT 38 24 32 31 30 33 18 35 10 42 12 44
REMARK Flexibility Score: inf
ROOT
ATOM      1  C   UNL     1       4.036 -11.997  21.598  1.00  0.00     0.045 C 
ATOM      2  C   UNL     1       3.889 -12.723  20.283  1.00  0.00    -0.039 A 
ATOM      3  C   UNL     1       3.111 -12.156  19.272  1.00  0.00     0.013 A 
ATOM      4  C   UNL     1       2.912 -12.803  18.031  1.00  0.00    -0.006 A 
ATOM      5  C   UNL     1       3.595 -14.032  17.782  1.00  0.00     0.039 A 
ATOM      6  C   UNL     1       3.416 -14.675  16.522  1.00  0.00     0.072 A 
ATOM      7  C   UNL     1       2.731 -14.014  15.487  1.00  0.00     0.169 A 
ATOM      8  C   UNL     1       2.144 -12.756  15.714  1.00  0.00     0.162 A 
ATOM      9  C   UNL     1       2.085 -12.223  17.020  1.00  0.00     0.008 A 
ATOM     10  C   UNL     1       4.472 -14.551  18.779  1.00  0.00     0.132 A 
ATOM     11  C   UNL     1       4.577 -13.922  20.038  1.00  0.00     0.031 A 
ENDROOT
BRANCH  11  12
ATOM     12  C   UNL     1       5.445 -14.503  21.095  1.00  0.00     0.031 A 
ATOM     13  C   UNL     1       6.506 -13.748  21.637  1.00  0.00     0.132 A 
ATOM     14  C   UNL     1       5.231 -15.822  21.528  1.00  0.00    -0.039 A 
ATOM     15  C   UNL     1       7.300 -14.276  22.696  1.00  0.00     0.039 A 
ATOM     16  C   UNL     1       6.090 -16.385  22.474  1.00  0.00     0.013 A 
ATOM     17  C   UNL     1       4.142 -16.673  20.921  1.00  0.00     0.045 C 
ATOM     18  C   UNL     1       7.110 -15.632  23.097  1.00  0.00    -0.006 A 
ATOM     19  C   UNL     1       8.320 -13.509  23.328  1.00  0.00     0.072 A 
ATOM     20  C   UNL     1       7.974 -16.215  24.076  1.00  0.00     0.008 A 
ATOM     21  C   UNL     1       9.268 -14.143  24.145  1.00  0.00     0.169 A 
ATOM     22  C   UNL     1       9.138 -15.509  24.453  1.00  0.00     0.162 A 
BRANCH  13  23
ATOM     23  O   UNL     1       6.813 -12.499  21.085  1.00  0.00    -0.507 OA
ATOM     24  H   UNL     1       7.512 -12.357  20.366  1.00  0.00     0.293 HD
ENDBRANCH  13  23
BRANCH  19  25
ATOM     25  C   UNL     1       8.394 -12.033  23.236  1.00  0.00     0.264 C 
ATOM     26  O   UNL     1       9.498 -11.435  23.347  1.00  0.00    -0.298 OA
ENDBRANCH  19  25
BRANCH  20  27
ATOM     27  C   UNL     1       7.698 -17.606  24.674  1.00  0.00     0.017 C 
ATOM     28  C   UNL     1       6.239 -17.731  25.125  1.00  0.00     0.012 C 
ATOM     29  C   UNL     1       8.100 -18.772  23.750  1.00  0.00     0.012 C 
ENDBRANCH  20  27
BRANCH  21  30
ATOM     30  O   UNL     1      10.308 -13.375  24.680  1.00  0.00    -0.504 OA
ATOM     31  H   UNL     1      10.971 -13.714  25.363  1.00  0.00     0.293 HD
ENDBRANCH  21  30
BRANCH  22  32
ATOM     32  O   UNL     1      10.159 -16.187  25.125  1.00  0.00    -0.504 OA
ATOM     33  H   UNL     1      10.738 -16.901  24.705  1.00  0.00     0.293 HD
ENDBRANCH  22  32
ENDBRANCH  11  12
BRANCH  10  34
ATOM     34  O   UNL     1       5.278 -15.662  18.503  1.00  0.00    -0.507 OA
ATOM     35  H   UNL     1       4.919 -16.591  18.321  1.00  0.00     0.293 HD
ENDBRANCH  10  34
BRANCH   9  36
ATOM     36  C   UNL     1       1.178 -11.013  17.309  1.00  0.00     0.017 C 
ATOM     37  C   UNL     1      -0.264 -11.294  16.877  1.00  0.00     0.012 C 
ATOM     38  C   UNL     1       1.239 -10.523  18.768  1.00  0.00     0.012 C 
ENDBRANCH   9  36
BRANCH   6  39
ATOM     39  C   UNL     1       3.851 -16.074  16.284  1.00  0.00     0.264 C 
ATOM     40  O   UNL     1       3.074 -16.918  15.765  1.00  0.00    -0.298 OA
ENDBRANCH   6  39
BRANCH   8  41
ATOM     41  O   UNL     1       1.623 -12.014  14.651  1.00  0.00    -0.504 OA
ATOM     42  H   UNL     1       1.747 -11.016  14.543  1.00  0.00     0.293 HD
ENDBRANCH   8  41
BRANCH   7  43
ATOM     43  O   UNL     1       2.601 -14.653  14.248  1.00  0.00    -0.504 OA
ATOM     44  H   UNL     1       3.155 -15.447  13.960  1.00  0.00     0.293 HD
ENDBRANCH   7  43
TORSDOF 11
ENDMDL
MODEL 3
REMARK VINA RESULT:     3.584      0.993      1.269
REMARK INTER + INTRA:           7.601
REMARK INTER:                   3.410
REMARK INTRA:                   4.191
REMARK UNBOUND:                 2.341
REMARK SMILES Cc1cc2c(C(C)C)c(O)c(O)c(C=O)c2c(O)c1-c1c(C)cc2c(C(C)C)c(O)c(O)c(C=O)c2c1O
REMARK SMILES IDX 1 1 2 2 3 3 4 4 16 5 13 6 11 7 9 8 5 9 17 10 19 11 20 12
REMARK SMILES IDX 37 13 21 14 36 15 23 16 22 17 24 18 33 19 25 20 31 21 29 22
REMARK SMILES IDX 38 23 34 25 35 26 26 27 27 28 28 29 32 30 30 32 18 34 6 36
REMARK SMILES IDX 7 37 8 38 14 39 15 40 10 41 12 43
REMARK H PARENT 38 24 32 31 30 33 18 35 10 42 12 44
REMARK Flexibility Score: inf
ROOT
ATOM      1  C   UNL     1       4.925 -16.768  21.697  1.00  0.00     0.045 C 
ATOM      2  C   UNL     1       6.042 -15.873  22.173  1.00  0.00    -0.039 A 
ATOM      3  C   UNL     1       7.045 -16.405  22.985  1.00  0.00     0.013 A 
ATOM      4  C   UNL     1       8.101 -15.610  23.487  1.00  0.00    -0.006 A 
ATOM      5  C   UNL     1       8.182 -14.243  23.081  1.00  0.00     0.039 A 
ATOM      6  C   UNL     1       9.258 -13.444  23.565  1.00  0.00     0.072 A 
ATOM      7  C   UNL     1      10.315 -14.044  24.273  1.00  0.00     0.169 A 
ATOM      8  C   UNL     1      10.273 -15.414  24.585  1.00  0.00     0.162 A 
ATOM      9  C   UNL     1       9.101 -16.164  24.344  1.00  0.00     0.008 A 
ATOM     10  C   UNL     1       7.213 -13.734  22.166  1.00  0.00     0.132 A 
ATOM     11  C   UNL     1       6.125 -14.536  21.756  1.00  0.00     0.031 A 
ENDROOT
BRANCH  11  12
ATOM     12  C   UNL     1       5.085 -13.979  20.852  1.00  0.00     0.031 A 
ATOM     13  C   UNL     1       4.909 -14.515  19.559  1.00  0.00     0.132 A 
ATOM     14  C   UNL     1       4.303 -12.892  21.273  1.00  0.00    -0.039 A 
ATOM     15  C   UNL     1       3.870 -14.030  18.713  1.00  0.00     0.039 A 
ATOM     16  C   UNL     1       3.373 -12.332  20.395  1.00  0.00     0.013 A 
ATOM     17  C   UNL     1       4.513 -12.260  22.627  1.00  0.00     0.045 C 
ATOM     18  C   UNL     1       3.112 -12.894  19.126  1.00  0.00    -0.006 A 
ATOM     19  C   UNL     1       3.605 -14.607  17.438  1.00  0.00     0.072 A 
ATOM     20  C   UNL     1       2.145 -12.321  18.241  1.00  0.00     0.008 A 
ATOM     21  C   UNL     1       2.792 -13.929  16.517  1.00  0.00     0.169 A 
ATOM     22  C   UNL     1       2.128 -12.747  16.894  1.00  0.00     0.162 A 
BRANCH  13  23
ATOM     23  O   UNL     1       5.800 -15.487  19.089  1.00  0.00    -0.507 OA
ATOM     24  H   UNL     1       5.567 -16.468  18.999  1.00  0.00     0.293 HD
ENDBRANCH  13  23
BRANCH  19  25
ATOM     25  C   UNL     1       4.083 -15.953  17.046  1.00  0.00     0.264 C 
ATOM     26  O   UNL     1       3.266 -16.889  16.832  1.00  0.00    -0.298 OA
ENDBRANCH  19  25
BRANCH  20  27
ATOM     27  C   UNL     1       1.177 -11.217  18.704  1.00  0.00     0.017 C 
ATOM     28  C   UNL     1       1.588 -10.666  20.073  1.00  0.00     0.012 C 
ATOM     29  C   UNL     1       0.990 -10.083  17.678  1.00  0.00     0.012 C 
ENDBRANCH  20  27
BRANCH  21  30
ATOM     30  O   UNL     1       2.623 -14.481  15.243  1.00  0.00    -0.504 OA
ATOM     31  H   UNL     1       3.261 -15.142  14.822  1.00  0.00     0.293 HD
ENDBRANCH  21  30
BRANCH  22  32
ATOM     32  O   UNL     1       1.453 -11.977  15.943  1.00  0.00    -0.504 OA
ATOM     33  H   UNL     1       0.795 -11.245  16.170  1.00  0.00     0.293 HD
ENDBRANCH  22  32
ENDBRANCH  11  12
BRANCH  10  34
ATOM     34  O   UNL     1       7.357 -12.452  21.623  1.00  0.00    -0.507 OA
ATOM     35  H   UNL     1       8.147 -12.162  21.060  1.00  0.00     0.293 HD
ENDBRANCH  10  34
BRANCH   9  36
ATOM     36  C   UNL     1       8.952 -17.564  24.965  1.00  0.00     0.017 C 
ATOM     37  C   UNL     1       7.709 -18.276  24.421  1.00  0.00     0.012 C 
ATOM     38  C   UNL     1      10.207 -18.446  24.823  1.00  0.00     0.012 C 
ENDBRANCH   9  36
BRANCH   6  39
ATOM     39  C   UNL     1       9.264 -11.966  23.428  1.00  0.00     0.264 C 
ATOM     40  O   UNL     1      10.308 -11.296  23.645  1.00  0.00    -0.298 OA
ENDBRANCH   6  39
BRANCH   8  41
ATOM     41  O   UNL     1      11.392 -16.054  25.124  1.00  0.00    -0.504 OA
ATOM     42  H   UNL     1      12.010 -16.655  24.596  1.00  0.00     0.293 HD
ENDBRANCH   8  41
BRANCH   7  43
ATOM     43  O   UNL     1      11.377 -13.242  24.706  1.00  0.00    -0.504 OA
ATOM     44  H   UNL     1      11.867 -13.373  25.580  1.00  0.00     0.293 HD
ENDBRANCH   7  43
TORSDOF 11
ENDMDL
