MODEL 1
REMARK VINA RESULT:    -4.928      0.000      0.000
REMARK INTER + INTRA:          -9.243
REMARK INTER:                  -8.673
REMARK INTRA:                  -0.570
REMARK UNBOUND:                -0.570
REMARK SMILES CCCCCCC=CCCCCCCCC(=O)[O-]
REMARK SMILES IDX 10 1 11 2 12 3 13 4 14 5 15 6 16 7 17 8 18 9 9 10 8 11 7 12
REMARK SMILES IDX 6 13 5 14 4 15 3 16 2 17 1 18
REMARK H PARENT
REMARK Flexibility Score: inf
ROOT
ATOM      1  C   UNL     1     146.247 149.563 156.641  1.00  0.00     0.004 C 
ENDROOT
BRANCH   1   2
ATOM      2  C   UNL     1     146.880 148.162 156.702  1.00  0.00     0.000 C 
BRANCH   2   3
ATOM      3  C   UNL     1     147.409 147.689 155.340  1.00  0.00     0.000 C 
BRANCH   3   4
ATOM      4  C   UNL     1     148.755 146.950 155.453  1.00  0.00     0.000 C 
BRANCH   4   5
ATOM      5  C   UNL     1     149.034 146.452 156.881  1.00  0.00     0.006 C 
BRANCH   5   6
ATOM      6  C   UNL     1     149.021 144.922 156.985  1.00  0.00     0.053 C 
BRANCH   6   7
ATOM      7  C   UNL     1     147.829 144.461 157.763  1.00  0.00     0.041 C 
ATOM      8  O   UNL     1     147.700 143.244 158.064  1.00  0.00    -0.550 OA
ATOM      9  O   UNL     1     146.836 145.367 158.117  1.00  0.00    -0.550 OA
ENDBRANCH   6   7
ENDBRANCH   5   6
ENDBRANCH   4   5
ENDBRANCH   3   4
ENDBRANCH   2   3
ENDBRANCH   1   2
BRANCH   1  10
ATOM     10  C   UNL     1     147.053 150.598 157.439  1.00  0.00     0.027 C 
BRANCH  10  11
ATOM     11  C   UNL     1     146.279 151.876 157.658  1.00  0.00    -0.031 C 
ATOM     12  C   UNL     1     146.835 153.057 157.982  1.00  0.00    -0.031 C 
BRANCH  12  13
ATOM     13  C   UNL     1     148.323 153.270 158.125  1.00  0.00     0.027 C 
BRANCH  13  14
ATOM     14  C   UNL     1     148.679 154.760 158.025  1.00  0.00     0.004 C 
BRANCH  14  15
ATOM     15  C   UNL     1     149.259 155.139 156.653  1.00  0.00     0.000 C 
BRANCH  15  16
ATOM     16  C   UNL     1     150.758 155.483 156.718  1.00  0.00    -0.000 C 
BRANCH  16  17
ATOM     17  C   UNL     1     151.060 156.618 157.708  1.00  0.00    -0.003 C 
ATOM     18  C   UNL     1     151.482 157.912 157.012  1.00  0.00     0.004 C 
ENDBRANCH  16  17
ENDBRANCH  15  16
ENDBRANCH  14  15
ENDBRANCH  13  14
ENDBRANCH  12  13
ENDBRANCH  10  11
ENDBRANCH   1  10
TORSDOF 13
ENDMDL
MODEL 2
REMARK VINA RESULT:    -4.504      4.146      9.093
REMARK INTER + INTRA:          -8.497
REMARK INTER:                  -8.560
REMARK INTRA:                   0.063
REMARK UNBOUND:                -0.570
REMARK SMILES CCCCCCC=CCCCCCCCC(=O)[O-]
REMARK SMILES IDX 10 1 11 2 12 3 13 4 14 5 15 6 16 7 17 8 18 9 9 10 8 11 7 12
REMARK SMILES IDX 6 13 5 14 4 15 3 16 2 17 1 18
REMARK H PARENT
REMARK Flexibility Score: inf
ROOT
ATOM      1  C   UNL     1     146.367 151.098 156.754  1.00  0.00     0.004 C 
ENDROOT
BRANCH   1   2
ATOM      2  C   UNL     1     146.702 152.138 157.838  1.00  0.00     0.000 C 
BRANCH   2   3
ATOM      3  C   UNL     1     148.160 152.616 157.773  1.00  0.00     0.000 C 
BRANCH   3   4
ATOM      4  C   UNL     1     148.309 154.109 158.119  1.00  0.00     0.000 C 
BRANCH   4   5
ATOM      5  C   UNL     1     148.100 155.019 156.898  1.00  0.00     0.006 C 
BRANCH   5   6
ATOM      6  C   UNL     1     148.410 156.491 157.199  1.00  0.00     0.053 C 
BRANCH   6   7
ATOM      7  C   UNL     1     149.875 156.679 157.435  1.00  0.00     0.041 C 
ATOM      8  O   UNL     1     150.696 155.802 157.053  1.00  0.00    -0.550 OA
ATOM      9  O   UNL     1     150.332 157.799 158.119  1.00  0.00    -0.550 OA
ENDBRANCH   6   7
ENDBRANCH   5   6
ENDBRANCH   4   5
ENDBRANCH   3   4
ENDBRANCH   2   3
ENDBRANCH   1   2
BRANCH   1  10
ATOM     10  C   UNL     1     146.899 149.701 157.108  1.00  0.00     0.027 C 
BRANCH  10  11
ATOM     11  C   UNL     1     145.969 148.605 156.648  1.00  0.00    -0.031 C 
ATOM     12  C   UNL     1     146.295 147.653 155.756  1.00  0.00    -0.031 C 
BRANCH  12  13
ATOM     13  C   UNL     1     147.662 147.529 155.128  1.00  0.00     0.027 C 
BRANCH  13  14
ATOM     14  C   UNL     1     148.768 147.654 156.185  1.00  0.00     0.004 C 
BRANCH  14  15
ATOM     15  C   UNL     1     148.565 146.697 157.371  1.00  0.00     0.000 C 
BRANCH  15  16
ATOM     16  C   UNL     1     148.759 145.221 156.981  1.00  0.00    -0.000 C 
BRANCH  16  17
ATOM     17  C   UNL     1     147.848 144.276 157.779  1.00  0.00    -0.003 C 
ATOM     18  C   UNL     1     146.500 144.910 158.125  1.00  0.00     0.004 C 
ENDBRANCH  16  17
ENDBRANCH  15  16
ENDBRANCH  14  15
ENDBRANCH  13  14
ENDBRANCH  12  13
ENDBRANCH  10  11
ENDBRANCH   1  10
TORSDOF 13
ENDMDL
MODEL 3
REMARK VINA RESULT:    -4.428      2.676      4.357
REMARK INTER + INTRA:          -8.364
REMARK INTER:                  -7.938
REMARK INTRA:                  -0.426
REMARK UNBOUND:                -0.570
REMARK SMILES CCCCCCC=CCCCCCCCC(=O)[O-]
REMARK SMILES IDX 10 1 11 2 12 3 13 4 14 5 15 6 16 7 17 8 18 9 9 10 8 11 7 12
REMARK SMILES IDX 6 13 5 14 4 15 3 16 2 17 1 18
REMARK H PARENT
REMARK Flexibility Score: inf
ROOT
ATOM      1  C   UNL     1     148.508 146.067 156.815  1.00  0.00     0.004 C 
ENDROOT
BRANCH   1   2
ATOM      2  C   UNL     1     147.725 144.865 157.372  1.00  0.00     0.000 C 
BRANCH   2   3
ATOM      3  C   UNL     1     148.579 143.590 157.462  1.00  0.00     0.000 C 
BRANCH   3   4
ATOM      4  C   UNL     1     147.825 142.420 158.119  1.00  0.00     0.000 C 
BRANCH   4   5
ATOM      5  C   UNL     1     147.190 141.475 157.085  1.00  0.00     0.006 C 
BRANCH   5   6
ATOM      6  C   UNL     1     146.329 140.384 157.734  1.00  0.00     0.053 C 
BRANCH   6   7
ATOM      7  C   UNL     1     145.195 140.009 156.833  1.00  0.00     0.041 C 
ATOM      8  O   UNL     1     144.581 140.897 156.184  1.00  0.00    -0.550 OA
ATOM      9  O   UNL     1     144.784 138.684 156.746  1.00  0.00    -0.550 OA
ENDBRANCH   6   7
ENDBRANCH   5   6
ENDBRANCH   4   5
ENDBRANCH   3   4
ENDBRANCH   2   3
ENDBRANCH   1   2
BRANCH   1  10
ATOM     10  C   UNL     1     147.875 147.407 157.218  1.00  0.00     0.027 C 
BRANCH  10  11
ATOM     11  C   UNL     1     148.904 148.398 157.705  1.00  0.00    -0.031 C 
ATOM     12  C   UNL     1     148.716 149.729 157.755  1.00  0.00    -0.031 C 
BRANCH  12  13
ATOM     13  C   UNL     1     147.423 150.406 157.368  1.00  0.00     0.027 C 
BRANCH  13  14
ATOM     14  C   UNL     1     147.246 151.730 158.125  1.00  0.00     0.004 C 
BRANCH  14  15
ATOM     15  C   UNL     1     148.419 152.699 157.907  1.00  0.00     0.000 C 
BRANCH  15  16
ATOM     16  C   UNL     1     148.001 154.175 158.031  1.00  0.00    -0.000 C 
BRANCH  16  17
ATOM     17  C   UNL     1     148.564 155.044 156.896  1.00  0.00    -0.003 C 
ATOM     18  C   UNL     1     148.104 156.500 156.985  1.00  0.00     0.004 C 
ENDBRANCH  16  17
ENDBRANCH  15  16
ENDBRANCH  14  15
ENDBRANCH  13  14
ENDBRANCH  12  13
ENDBRANCH  10  11
ENDBRANCH   1  10
TORSDOF 13
ENDMDL
MODEL 4
REMARK VINA RESULT:    -3.980      2.777      4.642
REMARK INTER + INTRA:          -7.574
REMARK INTER:                  -7.385
REMARK INTRA:                  -0.189
REMARK UNBOUND:                -0.570
REMARK SMILES CCCCCCC=CCCCCCCCC(=O)[O-]
REMARK SMILES IDX 10 1 11 2 12 3 13 4 14 5 15 6 16 7 17 8 18 9 9 10 8 11 7 12
REMARK SMILES IDX 6 13 5 14 4 15 3 16 2 17 1 18
REMARK H PARENT
REMARK Flexibility Score: inf
ROOT
ATOM      1  C   UNL     1     148.089 145.506 156.942  1.00  0.00     0.004 C 
ENDROOT
BRANCH   1   2
ATOM      2  C   UNL     1     147.844 144.541 158.115  1.00  0.00     0.000 C 
BRANCH   2   3
ATOM      3  C   UNL     1     148.318 143.111 157.817  1.00  0.00     0.000 C 
BRANCH   3   4
ATOM      4  C   UNL     1     147.231 142.057 158.097  1.00  0.00     0.000 C 
BRANCH   4   5
ATOM      5  C   UNL     1     147.519 140.717 157.398  1.00  0.00     0.006 C 
BRANCH   5   6
ATOM      6  C   UNL     1     146.726 139.553 158.006  1.00  0.00     0.053 C 
BRANCH   6   7
ATOM      7  C   UNL     1     145.353 139.492 157.416  1.00  0.00     0.041 C 
ATOM      8  O   UNL     1     144.833 138.379 157.133  1.00  0.00    -0.550 OA
ATOM      9  O   UNL     1     144.663 140.665 157.133  1.00  0.00    -0.550 OA
ENDBRANCH   6   7
ENDBRANCH   5   6
ENDBRANCH   4   5
ENDBRANCH   3   4
ENDBRANCH   2   3
ENDBRANCH   1   2
BRANCH   1  10
ATOM     10  C   UNL     1     148.107 146.974 157.393  1.00  0.00     0.027 C 
BRANCH  10  11
ATOM     11  C   UNL     1     148.110 147.928 156.223  1.00  0.00    -0.031 C 
ATOM     12  C   UNL     1     147.565 149.158 156.243  1.00  0.00    -0.031 C 
BRANCH  12  13
ATOM     13  C   UNL     1     146.914 149.766 157.462  1.00  0.00     0.027 C 
BRANCH  13  14
ATOM     14  C   UNL     1     147.840 150.796 158.125  1.00  0.00     0.004 C 
BRANCH  14  15
ATOM     15  C   UNL     1     147.576 152.229 157.636  1.00  0.00     0.000 C 
BRANCH  15  16
ATOM     16  C   UNL     1     148.660 153.221 158.095  1.00  0.00    -0.000 C 
BRANCH  16  17
ATOM     17  C   UNL     1     148.522 154.596 157.424  1.00  0.00    -0.003 C 
ATOM     18  C   UNL     1     149.826 155.394 157.441  1.00  0.00     0.004 C 
ENDBRANCH  16  17
ENDBRANCH  15  16
ENDBRANCH  14  15
ENDBRANCH  13  14
ENDBRANCH  12  13
ENDBRANCH  10  11
ENDBRANCH   1  10
TORSDOF 13
ENDMDL
MODEL 5
REMARK VINA RESULT:    -3.917      4.551     10.353
REMARK INTER + INTRA:          -7.464
REMARK INTER:                  -6.994
REMARK INTRA:                  -0.470
REMARK UNBOUND:                -0.570
REMARK SMILES CCCCCCC=CCCCCCCCC(=O)[O-]
REMARK SMILES IDX 10 1 11 2 12 3 13 4 14 5 15 6 16 7 17 8 18 9 9 10 8 11 7 12
REMARK SMILES IDX 6 13 5 14 4 15 3 16 2 17 1 18
REMARK H PARENT
REMARK Flexibility Score: inf
ROOT
ATOM      1  C   UNL     1     148.535 149.893 157.511  1.00  0.00     0.004 C 
ENDROOT
BRANCH   1   2
ATOM      2  C   UNL     1     149.667 150.907 157.755  1.00  0.00     0.000 C 
BRANCH   2   3
ATOM      3  C   UNL     1     149.143 152.307 158.111  1.00  0.00     0.000 C 
BRANCH   3   4
ATOM      4  C   UNL     1     150.241 153.384 158.041  1.00  0.00     0.000 C 
BRANCH   4   5
ATOM      5  C   UNL     1     149.869 154.540 157.097  1.00  0.00     0.006 C 
BRANCH   5   6
ATOM      6  C   UNL     1     148.368 154.854 157.112  1.00  0.00     0.053 C 
BRANCH   6   7
ATOM      7  C   UNL     1     148.143 156.331 157.188  1.00  0.00     0.041 C 
ATOM      8  O   UNL     1     147.008 156.813 156.932  1.00  0.00    -0.550 OA
ATOM      9  O   UNL     1     149.199 157.180 157.496  1.00  0.00    -0.550 OA
ENDBRANCH   6   7
ENDBRANCH   5   6
ENDBRANCH   4   5
ENDBRANCH   3   4
ENDBRANCH   2   3
ENDBRANCH   1   2
BRANCH   1  10
ATOM     10  C   UNL     1     149.049 148.596 156.867  1.00  0.00     0.027 C 
BRANCH  10  11
ATOM     11  C   UNL     1     147.936 147.795 156.235  1.00  0.00    -0.031 C 
ATOM     12  C   UNL     1     147.805 146.460 156.338  1.00  0.00    -0.031 C 
BRANCH  12  13
ATOM     13  C   UNL     1     148.738 145.589 157.143  1.00  0.00     0.027 C 
BRANCH  13  14
ATOM     14  C   UNL     1     147.952 144.598 158.014  1.00  0.00     0.004 C 
BRANCH  14  15
ATOM     15  C   UNL     1     148.251 143.132 157.660  1.00  0.00     0.000 C 
BRANCH  15  16
ATOM     16  C   UNL     1     147.141 142.172 158.125  1.00  0.00    -0.000 C 
BRANCH  16  17
ATOM     17  C   UNL     1     147.379 140.727 157.661  1.00  0.00    -0.003 C 
ATOM     18  C   UNL     1     146.248 140.196 156.781  1.00  0.00     0.004 C 
ENDBRANCH  16  17
ENDBRANCH  15  16
ENDBRANCH  14  15
ENDBRANCH  13  14
ENDBRANCH  12  13
ENDBRANCH  10  11
ENDBRANCH   1  10
TORSDOF 13
ENDMDL
