MODEL 1
REMARK VINA RESULT:    -2.708      0.000      0.000
REMARK INTER + INTRA:         -12.570
REMARK INTER:                  -6.825
REMARK INTRA:                  -5.745
REMARK UNBOUND:                -5.745
REMARK SMILES CCCCCCCCCCCCCCCCCCCCCCCCCCCC(=O)[O-]
REMARK SMILES IDX 15 1 16 2 17 3 18 4 19 5 20 6 21 7 22 8 23 9 24 10 25 11
REMARK SMILES IDX 26 12 27 13 28 14 29 15 30 16 14 17 13 18 12 19 11 20 10 21
REMARK SMILES IDX 9 22 8 23 7 24 6 25 5 26 4 27 3 28 2 29 1 30
REMARK H PARENT
REMARK Flexibility Score: inf
ROOT
ATOM      1  C   UNL     1      13.172   1.967 201.616  1.00  0.00     0.000 C 
ENDROOT
BRANCH   1   2
ATOM      2  C   UNL     1      13.823   1.210 202.785  1.00  0.00     0.000 C 
BRANCH   2   3
ATOM      3  C   UNL     1      15.126   1.876 203.264  1.00  0.00     0.000 C 
BRANCH   3   4
ATOM      4  C   UNL     1      16.248   0.865 203.544  1.00  0.00     0.000 C 
BRANCH   4   5
ATOM      5  C   UNL     1      17.502   1.119 202.684  1.00  0.00     0.000 C 
BRANCH   5   6
ATOM      6  C   UNL     1      18.763   0.448 203.269  1.00  0.00     0.000 C 
BRANCH   6   7
ATOM      7  C   UNL     1      18.661  -1.082 203.383  1.00  0.00     0.000 C 
BRANCH   7   8
ATOM      8  C   UNL     1      19.344  -1.815 202.218  1.00  0.00     0.000 C 
BRANCH   8   9
ATOM      9  C   UNL     1      18.936  -3.295 202.124  1.00  0.00     0.000 C 
BRANCH   9  10
ATOM     10  C   UNL     1      18.698  -3.758 200.676  1.00  0.00     0.000 C 
BRANCH  10  11
ATOM     11  C   UNL     1      17.646  -4.885 200.590  1.00  0.00     0.000 C 
BRANCH  11  12
ATOM     12  C   UNL     1      16.662  -4.711 199.417  1.00  0.00     0.006 C 
BRANCH  12  13
ATOM     13  C   UNL     1      15.220  -5.120 199.753  1.00  0.00     0.053 C 
BRANCH  13  14
ATOM     14  C   UNL     1      14.538  -5.773 198.591  1.00  0.00     0.041 C 
ATOM     15  O   UNL     1      13.284  -5.898 198.582  1.00  0.00    -0.550 OA
ATOM     16  O   UNL     1      15.281  -6.234 197.512  1.00  0.00    -0.550 OA
ENDBRANCH  13  14
ENDBRANCH  12  13
ENDBRANCH  11  12
ENDBRANCH  10  11
ENDBRANCH   9  10
ENDBRANCH   8   9
ENDBRANCH   7   8
ENDBRANCH   6   7
ENDBRANCH   5   6
ENDBRANCH   4   5
ENDBRANCH   3   4
ENDBRANCH   2   3
ENDBRANCH   1   2
BRANCH   1  17
ATOM     17  C   UNL     1      11.914   1.258 201.083  1.00  0.00     0.000 C 
BRANCH  17  18
ATOM     18  C   UNL     1      11.239   0.362 202.137  1.00  0.00     0.000 C 
BRANCH  18  19
ATOM     19  C   UNL     1      10.786  -1.019 201.622  1.00  0.00     0.000 C 
BRANCH  19  20
ATOM     20  C   UNL     1      11.223  -2.216 202.491  1.00  0.00     0.000 C 
BRANCH  20  21
ATOM     21  C   UNL     1      11.835  -1.843 203.854  1.00  0.00     0.000 C 
BRANCH  21  22
ATOM     22  C   UNL     1      13.313  -2.234 204.034  1.00  0.00    -0.000 C 
BRANCH  22  23
ATOM     23  C   UNL     1      13.916  -2.882 202.775  1.00  0.00    -0.000 C 
BRANCH  23  24
ATOM     24  C   UNL     1      15.380  -2.454 202.538  1.00  0.00    -0.000 C 
BRANCH  24  25
ATOM     25  C   UNL     1      15.604  -1.715 201.209  1.00  0.00    -0.000 C 
BRANCH  25  26
ATOM     26  C   UNL     1      14.309  -1.536 200.403  1.00  0.00    -0.000 C 
BRANCH  26  27
ATOM     27  C   UNL     1      14.563  -1.163 198.932  1.00  0.00    -0.000 C 
BRANCH  27  28
ATOM     28  C   UNL     1      14.631   0.350 198.642  1.00  0.00    -0.000 C 
BRANCH  28  29
ATOM     29  C   UNL     1      16.053   0.941 198.740  1.00  0.00    -0.003 C 
ATOM     30  C   UNL     1      16.066   2.331 199.379  1.00  0.00     0.004 C 
ENDBRANCH  28  29
ENDBRANCH  27  28
ENDBRANCH  26  27
ENDBRANCH  25  26
ENDBRANCH  24  25
ENDBRANCH  23  24
ENDBRANCH  22  23
ENDBRANCH  21  22
ENDBRANCH  20  21
ENDBRANCH  19  20
ENDBRANCH  18  19
ENDBRANCH  17  18
ENDBRANCH   1  17
TORSDOF 26
ENDMDL
MODEL 2
REMARK VINA RESULT:    -2.701      3.196      7.224
REMARK INTER + INTRA:         -12.550
REMARK INTER:                  -6.712
REMARK INTRA:                  -5.838
REMARK UNBOUND:                -5.745
REMARK SMILES CCCCCCCCCCCCCCCCCCCCCCCCCCCC(=O)[O-]
REMARK SMILES IDX 15 1 16 2 17 3 18 4 19 5 20 6 21 7 22 8 23 9 24 10 25 11
REMARK SMILES IDX 26 12 27 13 28 14 29 15 30 16 14 17 13 18 12 19 11 20 10 21
REMARK SMILES IDX 9 22 8 23 7 24 6 25 5 26 4 27 3 28 2 29 1 30
REMARK H PARENT
REMARK Flexibility Score: inf
ROOT
ATOM      1  C   UNL     1      14.841  -1.764 202.984  1.00  0.00     0.000 C 
ENDROOT
BRANCH   1   2
ATOM      2  C   UNL     1      13.607  -2.615 203.324  1.00  0.00     0.000 C 
BRANCH   2   3
ATOM      3  C   UNL     1      12.385  -1.756 203.698  1.00  0.00     0.000 C 
BRANCH   3   4
ATOM      4  C   UNL     1      11.154  -2.057 202.830  1.00  0.00     0.000 C 
BRANCH   4   5
ATOM      5  C   UNL     1      10.808  -0.900 201.871  1.00  0.00     0.000 C 
BRANCH   5   6
ATOM      6  C   UNL     1      11.533   0.411 202.245  1.00  0.00     0.000 C 
BRANCH   6   7
ATOM      7  C   UNL     1      10.606   1.635 202.327  1.00  0.00     0.000 C 
BRANCH   7   8
ATOM      8  C   UNL     1       9.154   1.265 202.667  1.00  0.00     0.000 C 
BRANCH   8   9
ATOM      9  C   UNL     1       8.134   2.259 202.088  1.00  0.00     0.000 C 
BRANCH   9  10
ATOM     10  C   UNL     1       7.695   1.899 200.658  1.00  0.00     0.000 C 
BRANCH  10  11
ATOM     11  C   UNL     1       7.741   0.377 200.399  1.00  0.00     0.000 C 
BRANCH  11  12
ATOM     12  C   UNL     1       8.406   0.007 199.059  1.00  0.00     0.006 C 
BRANCH  12  13
ATOM     13  C   UNL     1       9.652   0.845 198.736  1.00  0.00     0.053 C 
BRANCH  13  14
ATOM     14  C   UNL     1       9.876   0.969 197.260  1.00  0.00     0.041 C 
ATOM     15  O   UNL     1       8.945   0.704 196.454  1.00  0.00    -0.550 OA
ATOM     16  O   UNL     1      11.107   1.387 196.773  1.00  0.00    -0.550 OA
ENDBRANCH  13  14
ENDBRANCH  12  13
ENDBRANCH  11  12
ENDBRANCH  10  11
ENDBRANCH   9  10
ENDBRANCH   8   9
ENDBRANCH   7   8
ENDBRANCH   6   7
ENDBRANCH   5   6
ENDBRANCH   4   5
ENDBRANCH   3   4
ENDBRANCH   2   3
ENDBRANCH   1   2
BRANCH   1  17
ATOM     17  C   UNL     1      14.812  -0.385 203.664  1.00  0.00     0.000 C 
BRANCH  17  18
ATOM     18  C   UNL     1      16.077   0.447 203.388  1.00  0.00     0.000 C 
BRANCH  18  19
ATOM     19  C   UNL     1      15.815   1.887 202.900  1.00  0.00     0.000 C 
BRANCH  19  20
ATOM     20  C   UNL     1      14.438   2.467 203.281  1.00  0.00     0.000 C 
BRANCH  20  21
ATOM     21  C   UNL     1      13.870   3.501 202.291  1.00  0.00     0.000 C 
BRANCH  21  22
ATOM     22  C   UNL     1      14.797   3.855 201.115  1.00  0.00    -0.000 C 
BRANCH  22  23
ATOM     23  C   UNL     1      14.079   3.815 199.754  1.00  0.00    -0.000 C 
BRANCH  23  24
ATOM     24  C   UNL     1      14.397   2.531 198.959  1.00  0.00    -0.000 C 
BRANCH  24  25
ATOM     25  C   UNL     1      13.496   1.339 199.318  1.00  0.00    -0.000 C 
BRANCH  25  26
ATOM     26  C   UNL     1      14.274   0.175 199.951  1.00  0.00    -0.000 C 
BRANCH  26  27
ATOM     27  C   UNL     1      14.018  -1.171 199.250  1.00  0.00    -0.000 C 
BRANCH  27  28
ATOM     28  C   UNL     1      12.707  -1.247 198.441  1.00  0.00    -0.000 C 
BRANCH  28  29
ATOM     29  C   UNL     1      11.800  -2.433 198.832  1.00  0.00    -0.003 C 
ATOM     30  C   UNL     1      12.550  -3.504 199.627  1.00  0.00     0.004 C 
ENDBRANCH  28  29
ENDBRANCH  27  28
ENDBRANCH  26  27
ENDBRANCH  25  26
ENDBRANCH  24  25
ENDBRANCH  23  24
ENDBRANCH  22  23
ENDBRANCH  21  22
ENDBRANCH  20  21
ENDBRANCH  19  20
ENDBRANCH  18  19
ENDBRANCH  17  18
ENDBRANCH   1  17
TORSDOF 26
ENDMDL
MODEL 3
REMARK VINA RESULT:    -2.655      3.331      6.071
REMARK INTER + INTRA:         -12.436
REMARK INTER:                  -7.002
REMARK INTRA:                  -5.434
REMARK UNBOUND:                -5.745
REMARK SMILES CCCCCCCCCCCCCCCCCCCCCCCCCCCC(=O)[O-]
REMARK SMILES IDX 15 1 16 2 17 3 18 4 19 5 20 6 21 7 22 8 23 9 24 10 25 11
REMARK SMILES IDX 26 12 27 13 28 14 29 15 30 16 14 17 13 18 12 19 11 20 10 21
REMARK SMILES IDX 9 22 8 23 7 24 6 25 5 26 4 27 3 28 2 29 1 30
REMARK H PARENT
REMARK Flexibility Score: inf
ROOT
ATOM      1  C   UNL     1      15.188  -2.990 200.661  1.00  0.00     0.000 C 
ENDROOT
BRANCH   1   2
ATOM      2  C   UNL     1      16.323  -1.985 200.915  1.00  0.00     0.000 C 
BRANCH   2   3
ATOM      3  C   UNL     1      16.316  -0.822 199.907  1.00  0.00     0.000 C 
BRANCH   3   4
ATOM      4  C   UNL     1      17.475   0.163 200.121  1.00  0.00     0.000 C 
BRANCH   4   5
ATOM      5  C   UNL     1      18.350  -0.208 201.334  1.00  0.00     0.000 C 
BRANCH   5   6
ATOM      6  C   UNL     1      18.163   0.767 202.516  1.00  0.00     0.000 C 
BRANCH   6   7
ATOM      7  C   UNL     1      17.528   0.124 203.760  1.00  0.00     0.000 C 
BRANCH   7   8
ATOM      8  C   UNL     1      16.019   0.393 203.868  1.00  0.00     0.000 C 
BRANCH   8   9
ATOM      9  C   UNL     1      15.585   1.668 203.128  1.00  0.00     0.000 C 
BRANCH   9  10
ATOM     10  C   UNL     1      14.459   1.414 202.110  1.00  0.00     0.000 C 
BRANCH  10  11
ATOM     11  C   UNL     1      13.058   1.600 202.733  1.00  0.00     0.000 C 
BRANCH  11  12
ATOM     12  C   UNL     1      12.288   2.802 202.153  1.00  0.00     0.006 C 
BRANCH  12  13
ATOM     13  C   UNL     1      11.126   2.405 201.231  1.00  0.00     0.053 C 
BRANCH  13  14
ATOM     14  C   UNL     1       9.802   2.498 201.926  1.00  0.00     0.041 C 
ATOM     15  O   UNL     1       8.956   3.357 201.562  1.00  0.00    -0.550 OA
ATOM     16  O   UNL     1       9.496   1.631 202.967  1.00  0.00    -0.550 OA
ENDBRANCH  13  14
ENDBRANCH  12  13
ENDBRANCH  11  12
ENDBRANCH  10  11
ENDBRANCH   9  10
ENDBRANCH   8   9
ENDBRANCH   7   8
ENDBRANCH   6   7
ENDBRANCH   5   6
ENDBRANCH   4   5
ENDBRANCH   3   4
ENDBRANCH   2   3
ENDBRANCH   1   2
BRANCH   1  17
ATOM     17  C   UNL     1      14.471  -3.409 201.956  1.00  0.00     0.000 C 
BRANCH  17  18
ATOM     18  C   UNL     1      14.410  -2.280 203.000  1.00  0.00     0.000 C 
BRANCH  18  19
ATOM     19  C   UNL     1      13.314  -2.444 204.072  1.00  0.00     0.000 C 
BRANCH  19  20
ATOM     20  C   UNL     1      12.016  -1.654 203.809  1.00  0.00     0.000 C 
BRANCH  20  21
ATOM     21  C   UNL     1      11.085  -2.266 202.745  1.00  0.00     0.000 C 
BRANCH  21  22
ATOM     22  C   UNL     1      10.753  -1.341 201.560  1.00  0.00    -0.000 C 
BRANCH  22  23
ATOM     23  C   UNL     1      11.466  -1.756 200.261  1.00  0.00    -0.000 C 
BRANCH  23  24
ATOM     24  C   UNL     1      12.521  -0.721 199.815  1.00  0.00    -0.000 C 
BRANCH  24  25
ATOM     25  C   UNL     1      12.252  -0.119 198.426  1.00  0.00    -0.000 C 
BRANCH  25  26
ATOM     26  C   UNL     1      11.143  -0.859 197.663  1.00  0.00    -0.000 C 
BRANCH  26  27
ATOM     27  C   UNL     1       9.994   0.067 197.226  1.00  0.00    -0.000 C 
BRANCH  27  28
ATOM     28  C   UNL     1       9.464   1.015 198.322  1.00  0.00    -0.000 C 
BRANCH  28  29
ATOM     29  C   UNL     1       8.430   0.363 199.264  1.00  0.00    -0.003 C 
ATOM     30  C   UNL     1       7.046   1.005 199.145  1.00  0.00     0.004 C 
ENDBRANCH  28  29
ENDBRANCH  27  28
ENDBRANCH  26  27
ENDBRANCH  25  26
ENDBRANCH  24  25
ENDBRANCH  23  24
ENDBRANCH  22  23
ENDBRANCH  21  22
ENDBRANCH  20  21
ENDBRANCH  19  20
ENDBRANCH  18  19
ENDBRANCH  17  18
ENDBRANCH   1  17
TORSDOF 26
ENDMDL
MODEL 4
REMARK VINA RESULT:    -2.627      2.720      6.953
REMARK INTER + INTRA:         -12.366
REMARK INTER:                  -6.919
REMARK INTRA:                  -5.447
REMARK UNBOUND:                -5.745
REMARK SMILES CCCCCCCCCCCCCCCCCCCCCCCCCCCC(=O)[O-]
REMARK SMILES IDX 15 1 16 2 17 3 18 4 19 5 20 6 21 7 22 8 23 9 24 10 25 11
REMARK SMILES IDX 26 12 27 13 28 14 29 15 30 16 14 17 13 18 12 19 11 20 10 21
REMARK SMILES IDX 9 22 8 23 7 24 6 25 5 26 4 27 3 28 2 29 1 30
REMARK H PARENT
REMARK Flexibility Score: inf
ROOT
ATOM      1  C   UNL     1      14.901  -1.719 203.043  1.00  0.00     0.000 C 
ENDROOT
BRANCH   1   2
ATOM      2  C   UNL     1      13.752  -2.593 203.568  1.00  0.00     0.000 C 
BRANCH   2   3
ATOM      3  C   UNL     1      12.565  -1.758 204.084  1.00  0.00     0.000 C 
BRANCH   3   4
ATOM      4  C   UNL     1      11.327  -1.853 203.180  1.00  0.00     0.000 C 
BRANCH   4   5
ATOM      5  C   UNL     1      10.797  -0.469 202.755  1.00  0.00     0.000 C 
BRANCH   5   6
ATOM      6  C   UNL     1      11.812   0.312 201.894  1.00  0.00     0.000 C 
BRANCH   6   7
ATOM      7  C   UNL     1      11.541   1.824 201.827  1.00  0.00     0.000 C 
BRANCH   7   8
ATOM      8  C   UNL     1      10.345   2.257 202.689  1.00  0.00     0.000 C 
BRANCH   8   9
ATOM      9  C   UNL     1       9.479   3.332 202.012  1.00  0.00     0.000 C 
BRANCH   9  10
ATOM     10  C   UNL     1       8.494   2.745 200.986  1.00  0.00     0.000 C 
BRANCH  10  11
ATOM     11  C   UNL     1       7.968   1.356 201.410  1.00  0.00     0.000 C 
BRANCH  11  12
ATOM     12  C   UNL     1       7.565   0.467 200.218  1.00  0.00     0.006 C 
BRANCH  12  13
ATOM     13  C   UNL     1       8.647  -0.542 199.806  1.00  0.00     0.053 C 
BRANCH  13  14
ATOM     14  C   UNL     1       9.356  -0.125 198.554  1.00  0.00     0.041 C 
ATOM     15  O   UNL     1       8.720  -0.022 197.472  1.00  0.00    -0.550 OA
ATOM     16  O   UNL     1      10.714   0.161 198.582  1.00  0.00    -0.550 OA
ENDBRANCH  13  14
ENDBRANCH  12  13
ENDBRANCH  11  12
ENDBRANCH  10  11
ENDBRANCH   9  10
ENDBRANCH   8   9
ENDBRANCH   7   8
ENDBRANCH   6   7
ENDBRANCH   5   6
ENDBRANCH   4   5
ENDBRANCH   3   4
ENDBRANCH   2   3
ENDBRANCH   1   2
BRANCH   1  17
ATOM     17  C   UNL     1      14.971  -0.352 203.746  1.00  0.00     0.000 C 
BRANCH  17  18
ATOM     18  C   UNL     1      16.388   0.247 203.754  1.00  0.00     0.000 C 
BRANCH  18  19
ATOM     19  C   UNL     1      16.566   1.508 202.884  1.00  0.00     0.000 C 
BRANCH  19  20
ATOM     20  C   UNL     1      15.257   2.134 202.363  1.00  0.00     0.000 C 
BRANCH  20  21
ATOM     21  C   UNL     1      15.095   2.126 200.830  1.00  0.00     0.000 C 
BRANCH  21  22
ATOM     22  C   UNL     1      15.356   0.768 200.155  1.00  0.00    -0.000 C 
BRANCH  22  23
ATOM     23  C   UNL     1      16.556   0.800 199.192  1.00  0.00    -0.000 C 
BRANCH  23  24
ATOM     24  C   UNL     1      17.217  -0.585 199.031  1.00  0.00    -0.000 C 
BRANCH  24  25
ATOM     25  C   UNL     1      17.012  -1.516 200.238  1.00  0.00    -0.000 C 
BRANCH  25  26
ATOM     26  C   UNL     1      16.803  -2.982 199.828  1.00  0.00    -0.000 C 
BRANCH  26  27
ATOM     27  C   UNL     1      15.505  -3.205 199.034  1.00  0.00    -0.000 C 
BRANCH  27  28
ATOM     28  C   UNL     1      14.255  -3.497 199.891  1.00  0.00    -0.000 C 
BRANCH  28  29
ATOM     29  C   UNL     1      13.169  -2.403 199.802  1.00  0.00    -0.003 C 
ATOM     30  C   UNL     1      11.760  -2.988 199.689  1.00  0.00     0.004 C 
ENDBRANCH  28  29
ENDBRANCH  27  28
ENDBRANCH  26  27
ENDBRANCH  25  26
ENDBRANCH  24  25
ENDBRANCH  23  24
ENDBRANCH  22  23
ENDBRANCH  21  22
ENDBRANCH  20  21
ENDBRANCH  19  20
ENDBRANCH  18  19
ENDBRANCH  17  18
ENDBRANCH   1  17
TORSDOF 26
ENDMDL
MODEL 5
REMARK VINA RESULT:    -2.627      3.213      6.471
REMARK INTER + INTRA:         -12.365
REMARK INTER:                  -6.444
REMARK INTRA:                  -5.921
REMARK UNBOUND:                -5.745
REMARK SMILES CCCCCCCCCCCCCCCCCCCCCCCCCCCC(=O)[O-]
REMARK SMILES IDX 15 1 16 2 17 3 18 4 19 5 20 6 21 7 22 8 23 9 24 10 25 11
REMARK SMILES IDX 26 12 27 13 28 14 29 15 30 16 14 17 13 18 12 19 11 20 10 21
REMARK SMILES IDX 9 22 8 23 7 24 6 25 5 26 4 27 3 28 2 29 1 30
REMARK H PARENT
REMARK Flexibility Score: inf
ROOT
ATOM      1  C   UNL     1      15.102   0.822 200.654  1.00  0.00     0.000 C 
ENDROOT
BRANCH   1   2
ATOM      2  C   UNL     1      14.346   2.153 200.793  1.00  0.00     0.000 C 
BRANCH   2   3
ATOM      3  C   UNL     1      13.074   2.020 201.650  1.00  0.00     0.000 C 
BRANCH   3   4
ATOM      4  C   UNL     1      13.186   2.740 203.003  1.00  0.00     0.000 C 
BRANCH   4   5
ATOM      5  C   UNL     1      11.880   3.454 203.403  1.00  0.00     0.000 C 
BRANCH   5   6
ATOM      6  C   UNL     1      10.754   3.249 202.367  1.00  0.00     0.000 C 
BRANCH   6   7
ATOM      7  C   UNL     1       9.574   2.412 202.885  1.00  0.00     0.000 C 
BRANCH   7   8
ATOM      8  C   UNL     1       8.857   1.633 201.770  1.00  0.00     0.000 C 
BRANCH   8   9
ATOM      9  C   UNL     1       9.437   1.919 200.375  1.00  0.00     0.000 C 
BRANCH   9  10
ATOM     10  C   UNL     1       9.082   0.831 199.347  1.00  0.00     0.000 C 
BRANCH  10  11
ATOM     11  C   UNL     1       7.916  -0.063 199.823  1.00  0.00     0.000 C 
BRANCH  11  12
ATOM     12  C   UNL     1       7.809  -1.389 199.046  1.00  0.00     0.006 C 
BRANCH  12  13
ATOM     13  C   UNL     1       8.685  -1.438 197.785  1.00  0.00     0.053 C 
BRANCH  13  14
ATOM     14  C   UNL     1       7.873  -1.299 196.534  1.00  0.00     0.041 C 
ATOM     15  O   UNL     1       7.412  -0.176 196.200  1.00  0.00    -0.550 OA
ATOM     16  O   UNL     1       7.634  -2.406 195.729  1.00  0.00    -0.550 OA
ENDBRANCH  13  14
ENDBRANCH  12  13
ENDBRANCH  11  12
ENDBRANCH  10  11
ENDBRANCH   9  10
ENDBRANCH   8   9
ENDBRANCH   7   8
ENDBRANCH   6   7
ENDBRANCH   5   6
ENDBRANCH   4   5
ENDBRANCH   3   4
ENDBRANCH   2   3
ENDBRANCH   1   2
BRANCH   1  17
ATOM     17  C   UNL     1      16.086   0.580 201.812  1.00  0.00     0.000 C 
BRANCH  17  18
ATOM     18  C   UNL     1      15.575  -0.458 202.826  1.00  0.00     0.000 C 
BRANCH  18  19
ATOM     19  C   UNL     1      15.293  -1.856 202.239  1.00  0.00     0.000 C 
BRANCH  19  20
ATOM     20  C   UNL     1      14.195  -2.661 202.962  1.00  0.00     0.000 C 
BRANCH  20  21
ATOM     21  C   UNL     1      13.421  -1.881 204.043  1.00  0.00     0.000 C 
BRANCH  21  22
ATOM     22  C   UNL     1      11.888  -1.936 203.914  1.00  0.00    -0.000 C 
BRANCH  22  23
ATOM     23  C   UNL     1      11.345  -0.980 202.837  1.00  0.00    -0.000 C 
BRANCH  23  24
ATOM     24  C   UNL     1      10.419  -1.695 201.830  1.00  0.00    -0.000 C 
BRANCH  24  25
ATOM     25  C   UNL     1      11.141  -2.191 200.566  1.00  0.00    -0.000 C 
BRANCH  25  26
ATOM     26  C   UNL     1      12.245  -1.230 200.097  1.00  0.00    -0.000 C 
BRANCH  26  27
ATOM     27  C   UNL     1      12.985  -1.732 198.845  1.00  0.00    -0.000 C 
BRANCH  27  28
ATOM     28  C   UNL     1      13.340  -0.641 197.813  1.00  0.00    -0.000 C 
BRANCH  28  29
ATOM     29  C   UNL     1      12.134   0.214 197.371  1.00  0.00    -0.003 C 
ATOM     30  C   UNL     1      12.292   1.687 197.753  1.00  0.00     0.004 C 
ENDBRANCH  28  29
ENDBRANCH  27  28
ENDBRANCH  26  27
ENDBRANCH  25  26
ENDBRANCH  24  25
ENDBRANCH  23  24
ENDBRANCH  22  23
ENDBRANCH  21  22
ENDBRANCH  20  21
ENDBRANCH  19  20
ENDBRANCH  18  19
ENDBRANCH  17  18
ENDBRANCH   1  17
TORSDOF 26
ENDMDL
MODEL 6
REMARK VINA RESULT:    -2.580      1.531      4.847
REMARK INTER + INTRA:         -12.246
REMARK INTER:                  -6.665
REMARK INTRA:                  -5.581
REMARK UNBOUND:                -5.745
REMARK SMILES CCCCCCCCCCCCCCCCCCCCCCCCCCCC(=O)[O-]
REMARK SMILES IDX 15 1 16 2 17 3 18 4 19 5 20 6 21 7 22 8 23 9 24 10 25 11
REMARK SMILES IDX 26 12 27 13 28 14 29 15 30 16 14 17 13 18 12 19 11 20 10 21
REMARK SMILES IDX 9 22 8 23 7 24 6 25 5 26 4 27 3 28 2 29 1 30
REMARK H PARENT
REMARK Flexibility Score: inf
ROOT
ATOM      1  C   UNL     1      12.122   0.124 199.930  1.00  0.00     0.000 C 
ENDROOT
BRANCH   1   2
ATOM      2  C   UNL     1      10.974  -0.035 200.940  1.00  0.00     0.000 C 
BRANCH   2   3
ATOM      3  C   UNL     1      10.486  -1.491 201.052  1.00  0.00     0.000 C 
BRANCH   3   4
ATOM      4  C   UNL     1      11.059  -2.222 202.276  1.00  0.00     0.000 C 
BRANCH   4   5
ATOM      5  C   UNL     1      11.410  -1.260 203.428  1.00  0.00     0.000 C 
BRANCH   5   6
ATOM      6  C   UNL     1      12.904  -1.320 203.812  1.00  0.00     0.000 C 
BRANCH   6   7
ATOM      7  C   UNL     1      13.589  -2.648 203.450  1.00  0.00     0.000 C 
BRANCH   7   8
ATOM      8  C   UNL     1      14.861  -2.457 202.609  1.00  0.00     0.000 C 
BRANCH   8   9
ATOM      9  C   UNL     1      14.635  -2.733 201.114  1.00  0.00     0.000 C 
BRANCH   9  10
ATOM     10  C   UNL     1      15.637  -1.991 200.212  1.00  0.00     0.000 C 
BRANCH  10  11
ATOM     11  C   UNL     1      16.138  -2.874 199.047  1.00  0.00     0.000 C 
BRANCH  11  12
ATOM     12  C   UNL     1      15.024  -3.268 198.059  1.00  0.00     0.006 C 
BRANCH  12  13
ATOM     13  C   UNL     1      14.692  -4.767 198.068  1.00  0.00     0.053 C 
BRANCH  13  14
ATOM     14  C   UNL     1      13.215  -5.014 198.054  1.00  0.00     0.041 C 
ATOM     15  O   UNL     1      12.501  -4.634 199.020  1.00  0.00    -0.550 OA
ATOM     16  O   UNL     1      12.623  -5.653 196.972  1.00  0.00    -0.550 OA
ENDBRANCH  13  14
ENDBRANCH  12  13
ENDBRANCH  11  12
ENDBRANCH  10  11
ENDBRANCH   9  10
ENDBRANCH   8   9
ENDBRANCH   7   8
ENDBRANCH   6   7
ENDBRANCH   5   6
ENDBRANCH   4   5
ENDBRANCH   3   4
ENDBRANCH   2   3
ENDBRANCH   1   2
BRANCH   1  17
ATOM     17  C   UNL     1      13.365   0.784 200.550  1.00  0.00     0.000 C 
BRANCH  17  18
ATOM     18  C   UNL     1      13.021   1.759 201.690  1.00  0.00     0.000 C 
BRANCH  18  19
ATOM     19  C   UNL     1      14.202   2.124 202.613  1.00  0.00     0.000 C 
BRANCH  19  20
ATOM     20  C   UNL     1      15.445   1.224 202.472  1.00  0.00     0.000 C 
BRANCH  20  21
ATOM     21  C   UNL     1      16.045   0.730 203.802  1.00  0.00     0.000 C 
BRANCH  21  22
ATOM     22  C   UNL     1      17.392  -0.005 203.677  1.00  0.00    -0.000 C 
BRANCH  22  23
ATOM     23  C   UNL     1      17.987   0.078 202.260  1.00  0.00    -0.000 C 
BRANCH  23  24
ATOM     24  C   UNL     1      18.816  -1.173 201.897  1.00  0.00    -0.000 C 
BRANCH  24  25
ATOM     25  C   UNL     1      18.391  -2.441 202.654  1.00  0.00    -0.000 C 
BRANCH  25  26
ATOM     26  C   UNL     1      19.562  -3.404 202.905  1.00  0.00    -0.000 C 
BRANCH  26  27
ATOM     27  C   UNL     1      19.351  -4.786 202.262  1.00  0.00    -0.000 C 
BRANCH  27  28
ATOM     28  C   UNL     1      18.686  -4.765 200.870  1.00  0.00    -0.000 C 
BRANCH  28  29
ATOM     29  C   UNL     1      17.815  -6.005 200.576  1.00  0.00    -0.003 C 
ATOM     30  C   UNL     1      16.452  -5.937 201.266  1.00  0.00     0.004 C 
ENDBRANCH  28  29
ENDBRANCH  27  28
ENDBRANCH  26  27
ENDBRANCH  25  26
ENDBRANCH  24  25
ENDBRANCH  23  24
ENDBRANCH  22  23
ENDBRANCH  21  22
ENDBRANCH  20  21
ENDBRANCH  19  20
ENDBRANCH  18  19
ENDBRANCH  17  18
ENDBRANCH   1  17
TORSDOF 26
ENDMDL
MODEL 7
REMARK VINA RESULT:    -2.548      2.354      5.558
REMARK INTER + INTRA:         -12.166
REMARK INTER:                  -6.632
REMARK INTRA:                  -5.534
REMARK UNBOUND:                -5.745
REMARK SMILES CCCCCCCCCCCCCCCCCCCCCCCCCCCC(=O)[O-]
REMARK SMILES IDX 15 1 16 2 17 3 18 4 19 5 20 6 21 7 22 8 23 9 24 10 25 11
REMARK SMILES IDX 26 12 27 13 28 14 29 15 30 16 14 17 13 18 12 19 11 20 10 21
REMARK SMILES IDX 9 22 8 23 7 24 6 25 5 26 4 27 3 28 2 29 1 30
REMARK H PARENT
REMARK Flexibility Score: inf
ROOT
ATOM      1  C   UNL     1      11.817  -1.818 199.580  1.00  0.00     0.000 C 
ENDROOT
BRANCH   1   2
ATOM      2  C   UNL     1      10.732  -1.314 200.545  1.00  0.00     0.000 C 
BRANCH   2   3
ATOM      3  C   UNL     1      10.748  -2.061 201.891  1.00  0.00     0.000 C 
BRANCH   3   4
ATOM      4  C   UNL     1      11.379  -1.238 203.025  1.00  0.00     0.000 C 
BRANCH   4   5
ATOM      5  C   UNL     1      12.257  -2.093 203.959  1.00  0.00     0.000 C 
BRANCH   5   6
ATOM      6  C   UNL     1      13.683  -1.522 204.114  1.00  0.00     0.000 C 
BRANCH   6   7
ATOM      7  C   UNL     1      13.913  -0.203 203.358  1.00  0.00     0.000 C 
BRANCH   7   8
ATOM      8  C   UNL     1      15.320   0.375 203.577  1.00  0.00     0.000 C 
BRANCH   8   9
ATOM      9  C   UNL     1      16.185   0.336 202.306  1.00  0.00     0.000 C 
BRANCH   9  10
ATOM     10  C   UNL     1      17.390  -0.612 202.434  1.00  0.00     0.000 C 
BRANCH  10  11
ATOM     11  C   UNL     1      16.963  -2.096 202.489  1.00  0.00     0.000 C 
BRANCH  11  12
ATOM     12  C   UNL     1      16.193  -2.555 201.236  1.00  0.00     0.006 C 
BRANCH  12  13
ATOM     13  C   UNL     1      15.238  -3.729 201.494  1.00  0.00     0.053 C 
BRANCH  13  14
ATOM     14  C   UNL     1      15.090  -4.606 200.288  1.00  0.00     0.041 C 
ATOM     15  O   UNL     1      14.112  -4.452 199.510  1.00  0.00    -0.550 OA
ATOM     16  O   UNL     1      16.036  -5.586 200.016  1.00  0.00    -0.550 OA
ENDBRANCH  13  14
ENDBRANCH  12  13
ENDBRANCH  11  12
ENDBRANCH  10  11
ENDBRANCH   9  10
ENDBRANCH   8   9
ENDBRANCH   7   8
ENDBRANCH   6   7
ENDBRANCH   5   6
ENDBRANCH   4   5
ENDBRANCH   3   4
ENDBRANCH   2   3
ENDBRANCH   1   2
BRANCH   1  17
ATOM     17  C   UNL     1      13.105  -0.980 199.652  1.00  0.00     0.000 C 
BRANCH  17  18
ATOM     18  C   UNL     1      12.850   0.474 200.089  1.00  0.00     0.000 C 
BRANCH  18  19
ATOM     19  C   UNL     1      12.551   1.456 198.939  1.00  0.00     0.000 C 
BRANCH  19  20
ATOM     20  C   UNL     1      11.073   1.872 198.800  1.00  0.00     0.000 C 
BRANCH  20  21
ATOM     21  C   UNL     1      10.794   3.371 199.022  1.00  0.00     0.000 C 
BRANCH  21  22
ATOM     22  C   UNL     1       9.308   3.769 198.987  1.00  0.00    -0.000 C 
BRANCH  22  23
ATOM     23  C   UNL     1       8.364   2.553 198.946  1.00  0.00    -0.000 C 
BRANCH  23  24
ATOM     24  C   UNL     1       7.640   2.325 200.290  1.00  0.00    -0.000 C 
BRANCH  24  25
ATOM     25  C   UNL     1       8.119   1.077 201.049  1.00  0.00    -0.000 C 
BRANCH  25  26
ATOM     26  C   UNL     1       8.877   1.422 202.340  1.00  0.00    -0.000 C 
BRANCH  26  27
ATOM     27  C   UNL     1       8.898   2.930 202.640  1.00  0.00    -0.000 C 
BRANCH  27  28
ATOM     28  C   UNL     1      10.300   3.572 202.675  1.00  0.00    -0.000 C 
BRANCH  28  29
ATOM     29  C   UNL     1      11.455   2.549 202.626  1.00  0.00    -0.003 C 
ATOM     30  C   UNL     1      12.830   3.220 202.628  1.00  0.00     0.004 C 
ENDBRANCH  28  29
ENDBRANCH  27  28
ENDBRANCH  26  27
ENDBRANCH  25  26
ENDBRANCH  24  25
ENDBRANCH  23  24
ENDBRANCH  22  23
ENDBRANCH  21  22
ENDBRANCH  20  21
ENDBRANCH  19  20
ENDBRANCH  18  19
ENDBRANCH  17  18
ENDBRANCH   1  17
TORSDOF 26
ENDMDL
MODEL 8
REMARK VINA RESULT:    -1.987      2.772      7.038
REMARK INTER + INTRA:         -10.752
REMARK INTER:                  -5.713
REMARK INTRA:                  -5.040
REMARK UNBOUND:                -5.745
REMARK SMILES CCCCCCCCCCCCCCCCCCCCCCCCCCCC(=O)[O-]
REMARK SMILES IDX 15 1 16 2 17 3 18 4 19 5 20 6 21 7 22 8 23 9 24 10 25 11
REMARK SMILES IDX 26 12 27 13 28 14 29 15 30 16 14 17 13 18 12 19 11 20 10 21
REMARK SMILES IDX 9 22 8 23 7 24 6 25 5 26 4 27 3 28 2 29 1 30
REMARK H PARENT
REMARK Flexibility Score: inf
ROOT
ATOM      1  C   UNL     1      15.021  -0.306 203.044  1.00  0.00     0.000 C 
ENDROOT
BRANCH   1   2
ATOM      2  C   UNL     1      15.286  -1.800 202.798  1.00  0.00     0.000 C 
BRANCH   2   3
ATOM      3  C   UNL     1      14.108  -2.688 203.239  1.00  0.00     0.000 C 
BRANCH   3   4
ATOM      4  C   UNL     1      13.097  -1.944 204.125  1.00  0.00     0.000 C 
BRANCH   4   5
ATOM      5  C   UNL     1      11.636  -2.225 203.719  1.00  0.00     0.000 C 
BRANCH   5   6
ATOM      6  C   UNL     1      10.962  -1.002 203.063  1.00  0.00     0.000 C 
BRANCH   6   7
ATOM      7  C   UNL     1      11.145  -0.931 201.538  1.00  0.00     0.000 C 
BRANCH   7   8
ATOM      8  C   UNL     1      11.949   0.298 201.087  1.00  0.00     0.000 C 
BRANCH   8   9
ATOM      9  C   UNL     1      11.937   1.432 202.126  1.00  0.00     0.000 C 
BRANCH   9  10
ATOM     10  C   UNL     1      10.922   2.538 201.790  1.00  0.00     0.000 C 
BRANCH  10  11
ATOM     11  C   UNL     1       9.699   2.514 202.734  1.00  0.00     0.000 C 
BRANCH  11  12
ATOM     12  C   UNL     1       8.571   1.586 202.244  1.00  0.00     0.006 C 
BRANCH  12  13
ATOM     13  C   UNL     1       8.239   1.750 200.754  1.00  0.00     0.053 C 
BRANCH  13  14
ATOM     14  C   UNL     1       7.468   0.581 200.220  1.00  0.00     0.041 C 
ATOM     15  O   UNL     1       6.216   0.650 200.102  1.00  0.00    -0.550 OA
ATOM     16  O   UNL     1       8.131  -0.579 199.842  1.00  0.00    -0.550 OA
ENDBRANCH  13  14
ENDBRANCH  12  13
ENDBRANCH  11  12
ENDBRANCH  10  11
ENDBRANCH   9  10
ENDBRANCH   8   9
ENDBRANCH   7   8
ENDBRANCH   6   7
ENDBRANCH   5   6
ENDBRANCH   4   5
ENDBRANCH   3   4
ENDBRANCH   2   3
ENDBRANCH   1   2
BRANCH   1  17
ATOM     17  C   UNL     1      16.173   0.380 203.799  1.00  0.00     0.000 C 
BRANCH  17  18
ATOM     18  C   UNL     1      17.071   1.227 202.880  1.00  0.00     0.000 C 
BRANCH  18  19
ATOM     19  C   UNL     1      18.583   0.955 203.018  1.00  0.00     0.000 C 
BRANCH  19  20
ATOM     20  C   UNL     1      18.951  -0.453 203.528  1.00  0.00     0.000 C 
BRANCH  20  21
ATOM     21  C   UNL     1      19.792  -1.300 202.554  1.00  0.00     0.000 C 
BRANCH  21  22
ATOM     22  C   UNL     1      19.065  -2.515 201.953  1.00  0.00    -0.000 C 
BRANCH  22  23
ATOM     23  C   UNL     1      17.913  -2.118 201.014  1.00  0.00    -0.000 C 
BRANCH  23  24
ATOM     24  C   UNL     1      18.384  -1.914 199.558  1.00  0.00    -0.000 C 
BRANCH  24  25
ATOM     25  C   UNL     1      17.591  -0.842 198.792  1.00  0.00    -0.000 C 
BRANCH  25  26
ATOM     26  C   UNL     1      16.582  -0.101 199.683  1.00  0.00    -0.000 C 
BRANCH  26  27
ATOM     27  C   UNL     1      15.146  -0.147 199.131  1.00  0.00    -0.000 C 
BRANCH  27  28
ATOM     28  C   UNL     1      14.718  -1.503 198.533  1.00  0.00    -0.000 C 
BRANCH  28  29
ATOM     29  C   UNL     1      14.159  -2.495 199.575  1.00  0.00    -0.003 C 
ATOM     30  C   UNL     1      14.805  -3.878 199.470  1.00  0.00     0.004 C 
ENDBRANCH  28  29
ENDBRANCH  27  28
ENDBRANCH  26  27
ENDBRANCH  25  26
ENDBRANCH  24  25
ENDBRANCH  23  24
ENDBRANCH  22  23
ENDBRANCH  21  22
ENDBRANCH  20  21
ENDBRANCH  19  20
ENDBRANCH  18  19
ENDBRANCH  17  18
ENDBRANCH   1  17
TORSDOF 26
ENDMDL
