MODEL 1
REMARK VINA RESULT:    -5.596      0.000      0.000
REMARK INTER + INTRA:          -6.713
REMARK INTER:                  -6.578
REMARK INTRA:                  -0.135
REMARK UNBOUND:                -0.135
REMARK SMILES O=c1c(O)c(-c2ccc(O)c(O)c2)oc2cc(O)ccc12
REMARK SMILES IDX 5 1 3 2 2 3 1 4 21 5 15 6 14 7 16 8 17 9 19 10 20 11 6 12
REMARK SMILES IDX 7 13 8 14 9 15 13 16 11 17 10 18 12 20 4 22 18 24
REMARK H PARENT 10 19 12 21 4 23 18 25
REMARK Flexibility Score: inf
ROOT
ATOM      1  C   UNL     1       3.257   5.720   9.534  1.00  0.00     0.180 A 
ATOM      2  C   UNL     1       3.226   4.987   8.329  1.00  0.00     0.208 A 
ATOM      3  C   UNL     1       4.214   4.017   8.100  1.00  0.00     0.235 A 
ATOM      4  O   UNL     1       4.200   3.341   7.036  1.00  0.00    -0.285 OA
ATOM      5  C   UNL     1       5.217   3.814   9.062  1.00  0.00     0.069 A 
ATOM      6  C   UNL     1       5.193   4.605  10.231  1.00  0.00     0.142 A 
ATOM      7  O   UNL     1       4.235   5.507  10.412  1.00  0.00    -0.452 OA
ATOM      8  C   UNL     1       6.181   4.439  11.207  1.00  0.00     0.094 A 
ATOM      9  C   UNL     1       7.197   3.489  11.032  1.00  0.00     0.119 A 
ATOM     10  C   UNL     1       7.221   2.703   9.876  1.00  0.00     0.047 A 
ATOM     11  C   UNL     1       6.239   2.861   8.893  1.00  0.00     0.020 A 
ENDROOT
BRANCH   1  12
ATOM     12  C   UNL     1       2.241   6.747   9.856  1.00  0.00     0.025 A 
ATOM     13  C   UNL     1       2.651   8.060  10.131  1.00  0.00     0.016 A 
ATOM     14  C   UNL     1       1.711   9.041  10.458  1.00  0.00     0.051 A 
ATOM     15  C   UNL     1       0.349   8.718  10.530  1.00  0.00     0.157 A 
ATOM     16  C   UNL     1       0.876   6.422   9.950  1.00  0.00     0.062 A 
ATOM     17  C   UNL     1      -0.068   7.405  10.280  1.00  0.00     0.158 A 
BRANCH  15  18
ATOM     18  O   UNL     1      -0.592   9.694  10.854  1.00  0.00    -0.504 OA
ATOM     19  H   UNL     1      -0.356  10.480  11.449  1.00  0.00     0.293 HD
ENDBRANCH  15  18
BRANCH  17  20
ATOM     20  O   UNL     1      -1.421   7.083  10.365  1.00  0.00    -0.504 OA
ATOM     21  H   UNL     1      -1.740   6.122  10.350  1.00  0.00     0.293 HD
ENDBRANCH  17  20
ENDBRANCH   1  12
BRANCH   2  22
ATOM     22  O   UNL     1       2.244   5.245   7.369  1.00  0.00    -0.502 OA
ATOM     23  H   UNL     1       1.956   6.186   7.130  1.00  0.00     0.293 HD
ENDBRANCH   2  22
BRANCH   9  24
ATOM     24  O   UNL     1       8.183   3.318  11.999  1.00  0.00    -0.508 OA
ATOM     25  H   UNL     1       8.571   2.405  12.205  1.00  0.00     0.293 HD
ENDBRANCH   9  24
TORSDOF 5
ENDMDL
MODEL 2
REMARK VINA RESULT:    -5.382      1.874      2.031
REMARK INTER + INTRA:          -6.461
REMARK INTER:                  -6.138
REMARK INTRA:                  -0.323
REMARK UNBOUND:                -0.135
REMARK SMILES O=c1c(O)c(-c2ccc(O)c(O)c2)oc2cc(O)ccc12
REMARK SMILES IDX 5 1 3 2 2 3 1 4 21 5 15 6 14 7 16 8 17 9 19 10 20 11 6 12
REMARK SMILES IDX 7 13 8 14 9 15 13 16 11 17 10 18 12 20 4 22 18 24
REMARK H PARENT 10 19 12 21 4 23 18 25
REMARK Flexibility Score: inf
ROOT
ATOM      1  C   UNL     1       4.151   5.502   8.194  1.00  0.00     0.180 A 
ATOM      2  C   UNL     1       4.940   5.443   7.026  1.00  0.00     0.208 A 
ATOM      3  C   UNL     1       5.964   4.487   6.948  1.00  0.00     0.235 A 
ATOM      4  O   UNL     1       6.675   4.407   5.909  1.00  0.00    -0.285 OA
ATOM      5  C   UNL     1       6.193   3.630   8.037  1.00  0.00     0.069 A 
ATOM      6  C   UNL     1       5.377   3.769   9.180  1.00  0.00     0.142 A 
ATOM      7  O   UNL     1       4.411   4.681   9.210  1.00  0.00    -0.452 OA
ATOM      8  C   UNL     1       5.580   2.940  10.289  1.00  0.00     0.094 A 
ATOM      9  C   UNL     1       6.592   1.970  10.270  1.00  0.00     0.119 A 
ATOM     10  C   UNL     1       7.400   1.830   9.137  1.00  0.00     0.047 A 
ATOM     11  C   UNL     1       7.206   2.654   8.025  1.00  0.00     0.020 A 
ENDROOT
BRANCH   1  12
ATOM     12  C   UNL     1       3.041   6.470   8.346  1.00  0.00     0.025 A 
ATOM     13  C   UNL     1       3.277   7.694   8.991  1.00  0.00     0.016 A 
ATOM     14  C   UNL     1       2.239   8.613   9.164  1.00  0.00     0.051 A 
ATOM     15  C   UNL     1       0.948   8.315   8.708  1.00  0.00     0.157 A 
ATOM     16  C   UNL     1       1.740   6.165   7.909  1.00  0.00     0.062 A 
ATOM     17  C   UNL     1       0.697   7.087   8.084  1.00  0.00     0.158 A 
BRANCH  15  18
ATOM     18  O   UNL     1      -0.090   9.230   8.877  1.00  0.00    -0.504 OA
ATOM     19  H   UNL     1      -0.751   9.146   9.641  1.00  0.00     0.293 HD
ENDBRANCH  15  18
BRANCH  17  20
ATOM     20  O   UNL     1      -0.591   6.786   7.643  1.00  0.00    -0.504 OA
ATOM     21  H   UNL     1      -0.785   6.586   6.670  1.00  0.00     0.293 HD
ENDBRANCH  17  20
ENDBRANCH   1  12
BRANCH   2  22
ATOM     22  O   UNL     1       4.720   6.341   5.979  1.00  0.00    -0.502 OA
ATOM     23  H   UNL     1       5.478   6.723   5.425  1.00  0.00     0.293 HD
ENDBRANCH   2  22
BRANCH   9  24
ATOM     24  O   UNL     1       6.801   1.142  11.370  1.00  0.00    -0.508 OA
ATOM     25  H   UNL     1       7.691   1.116  11.852  1.00  0.00     0.293 HD
ENDBRANCH   9  24
TORSDOF 5
ENDMDL
MODEL 3
REMARK VINA RESULT:    -5.361      1.813      6.507
REMARK INTER + INTRA:          -6.435
REMARK INTER:                  -6.354
REMARK INTRA:                  -0.081
REMARK UNBOUND:                -0.135
REMARK SMILES O=c1c(O)c(-c2ccc(O)c(O)c2)oc2cc(O)ccc12
REMARK SMILES IDX 5 1 3 2 2 3 1 4 21 5 15 6 14 7 16 8 17 9 19 10 20 11 6 12
REMARK SMILES IDX 7 13 8 14 9 15 13 16 11 17 10 18 12 20 4 22 18 24
REMARK H PARENT 10 19 12 21 4 23 18 25
REMARK Flexibility Score: inf
ROOT
ATOM      1  C   UNL     1       3.111   5.916   9.647  1.00  0.00     0.180 A 
ATOM      2  C   UNL     1       2.072   6.085   8.708  1.00  0.00     0.208 A 
ATOM      3  C   UNL     1       1.106   7.077   8.939  1.00  0.00     0.235 A 
ATOM      4  O   UNL     1       0.174   7.254   8.108  1.00  0.00    -0.285 OA
ATOM      5  C   UNL     1       1.184   7.860  10.102  1.00  0.00     0.069 A 
ATOM      6  C   UNL     1       2.241   7.612  11.005  1.00  0.00     0.142 A 
ATOM      7  O   UNL     1       3.140   6.669  10.745  1.00  0.00    -0.452 OA
ATOM      8  C   UNL     1       2.347   8.364  12.179  1.00  0.00     0.094 A 
ATOM      9  C   UNL     1       1.409   9.365  12.465  1.00  0.00     0.119 A 
ATOM     10  C   UNL     1       0.363   9.613  11.571  1.00  0.00     0.047 A 
ATOM     11  C   UNL     1       0.246   8.866  10.395  1.00  0.00     0.020 A 
ENDROOT
BRANCH   1  12
ATOM     12  C   UNL     1       4.177   4.904   9.467  1.00  0.00     0.025 A 
ATOM     13  C   UNL     1       4.972   4.940   8.311  1.00  0.00     0.016 A 
ATOM     14  C   UNL     1       5.970   3.982   8.109  1.00  0.00     0.051 A 
ATOM     15  C   UNL     1       6.175   2.966   9.052  1.00  0.00     0.157 A 
ATOM     16  C   UNL     1       4.371   3.871  10.400  1.00  0.00     0.062 A 
ATOM     17  C   UNL     1       5.371   2.908  10.197  1.00  0.00     0.158 A 
BRANCH  15  18
ATOM     18  O   UNL     1       7.170   2.010   8.856  1.00  0.00    -0.504 OA
ATOM     19  H   UNL     1       6.943   1.042   8.662  1.00  0.00     0.293 HD
ENDBRANCH  15  18
BRANCH  17  20
ATOM     20  O   UNL     1       5.568   1.889  11.128  1.00  0.00    -0.504 OA
ATOM     21  H   UNL     1       6.489   1.515  11.318  1.00  0.00     0.293 HD
ENDBRANCH  17  20
ENDBRANCH   1  12
BRANCH   2  22
ATOM     22  O   UNL     1       1.992   5.258   7.585  1.00  0.00    -0.502 OA
ATOM     23  H   UNL     1       1.107   4.985   7.176  1.00  0.00     0.293 HD
ENDBRANCH   2  22
BRANCH   9  24
ATOM     24  O   UNL     1       1.508  10.118  13.632  1.00  0.00    -0.508 OA
ATOM     25  H   UNL     1       1.530  11.131  13.609  1.00  0.00     0.293 HD
ENDBRANCH   9  24
TORSDOF 5
ENDMDL
MODEL 4
REMARK VINA RESULT:    -5.099      2.148      7.495
REMARK INTER + INTRA:          -6.128
REMARK INTER:                  -5.964
REMARK INTRA:                  -0.164
REMARK UNBOUND:                -0.135
REMARK SMILES O=c1c(O)c(-c2ccc(O)c(O)c2)oc2cc(O)ccc12
REMARK SMILES IDX 5 1 3 2 2 3 1 4 21 5 15 6 14 7 16 8 17 9 19 10 20 11 6 12
REMARK SMILES IDX 7 13 8 14 9 15 13 16 11 17 10 18 12 20 4 22 18 24
REMARK H PARENT 10 19 12 21 4 23 18 25
REMARK Flexibility Score: inf
ROOT
ATOM      1  C   UNL     1       5.527   3.747  10.126  1.00  0.00     0.180 A 
ATOM      2  C   UNL     1       5.550   4.652  11.208  1.00  0.00     0.208 A 
ATOM      3  C   UNL     1       4.612   5.696  11.238  1.00  0.00     0.235 A 
ATOM      4  O   UNL     1       4.605   6.510  12.200  1.00  0.00    -0.285 OA
ATOM      5  C   UNL     1       3.691   5.826  10.186  1.00  0.00     0.069 A 
ATOM      6  C   UNL     1       3.749   4.894   9.127  1.00  0.00     0.142 A 
ATOM      7  O   UNL     1       4.647   3.915   9.142  1.00  0.00    -0.452 OA
ATOM      8  C   UNL     1       2.855   4.997   8.056  1.00  0.00     0.094 A 
ATOM      9  C   UNL     1       1.900   6.022   8.028  1.00  0.00     0.119 A 
ATOM     10  C   UNL     1       1.839   6.944   9.077  1.00  0.00     0.047 A 
ATOM     11  C   UNL     1       2.729   6.852  10.152  1.00  0.00     0.020 A 
ENDROOT
BRANCH   1  12
ATOM     12  C   UNL     1       6.472   2.611  10.032  1.00  0.00     0.025 A 
ATOM     13  C   UNL     1       7.338   2.524   8.932  1.00  0.00     0.016 A 
ATOM     14  C   UNL     1       8.223   1.449   8.811  1.00  0.00     0.051 A 
ATOM     15  C   UNL     1       8.242   0.438   9.782  1.00  0.00     0.157 A 
ATOM     16  C   UNL     1       6.479   1.583  10.992  1.00  0.00     0.062 A 
ATOM     17  C   UNL     1       7.365   0.503  10.871  1.00  0.00     0.158 A 
BRANCH  15  18
ATOM     18  O   UNL     1       9.124  -0.635   9.667  1.00  0.00    -0.504 OA
ATOM     19  H   UNL     1       8.790  -1.588   9.581  1.00  0.00     0.293 HD
ENDBRANCH  15  18
BRANCH  17  20
ATOM     20  O   UNL     1       7.377  -0.511  11.828  1.00  0.00    -0.504 OA
ATOM     21  H   UNL     1       6.540  -0.769  12.338  1.00  0.00     0.293 HD
ENDBRANCH  17  20
ENDBRANCH   1  12
BRANCH   2  22
ATOM     22  O   UNL     1       6.509   4.526  12.216  1.00  0.00    -0.502 OA
ATOM     23  H   UNL     1       7.303   5.151  12.289  1.00  0.00     0.293 HD
ENDBRANCH   2  22
BRANCH   9  24
ATOM     24  O   UNL     1       1.006   6.131   6.966  1.00  0.00    -0.508 OA
ATOM     25  H   UNL     1       0.399   5.363   6.703  1.00  0.00     0.293 HD
ENDBRANCH   9  24
TORSDOF 5
ENDMDL
MODEL 5
REMARK VINA RESULT:    -5.098     15.993     17.506
REMARK INTER + INTRA:          -6.127
REMARK INTER:                  -6.600
REMARK INTRA:                   0.473
REMARK UNBOUND:                -0.135
REMARK SMILES O=c1c(O)c(-c2ccc(O)c(O)c2)oc2cc(O)ccc12
REMARK SMILES IDX 5 1 3 2 2 3 1 4 21 5 15 6 14 7 16 8 17 9 19 10 20 11 6 12
REMARK SMILES IDX 7 13 8 14 9 15 13 16 11 17 10 18 12 20 4 22 18 24
REMARK H PARENT 10 19 12 21 4 23 18 25
REMARK Flexibility Score: inf
ROOT
ATOM      1  C   UNL     1      -3.155  -9.208  11.538  1.00  0.00     0.180 A 
ATOM      2  C   UNL     1      -4.326  -8.764  12.189  1.00  0.00     0.208 A 
ATOM      3  C   UNL     1      -5.486  -8.556  11.427  1.00  0.00     0.235 A 
ATOM      4  O   UNL     1      -6.548  -8.171  11.987  1.00  0.00    -0.285 OA
ATOM      5  C   UNL     1      -5.449  -8.774  10.040  1.00  0.00     0.069 A 
ATOM      6  C   UNL     1      -4.233  -9.194   9.461  1.00  0.00     0.142 A 
ATOM      7  O   UNL     1      -3.159  -9.388  10.219  1.00  0.00    -0.452 OA
ATOM      8  C   UNL     1      -4.154  -9.412   8.081  1.00  0.00     0.094 A 
ATOM      9  C   UNL     1      -5.279  -9.215   7.269  1.00  0.00     0.119 A 
ATOM     10  C   UNL     1      -6.486  -8.801   7.841  1.00  0.00     0.047 A 
ATOM     11  C   UNL     1      -6.575  -8.580   9.218  1.00  0.00     0.020 A 
ENDROOT
BRANCH   1  12
ATOM     12  C   UNL     1      -1.897  -9.467  12.274  1.00  0.00     0.025 A 
ATOM     13  C   UNL     1      -1.928  -9.583  13.673  1.00  0.00     0.016 A 
ATOM     14  C   UNL     1      -0.750  -9.806  14.390  1.00  0.00     0.051 A 
ATOM     15  C   UNL     1       0.477  -9.900  13.721  1.00  0.00     0.157 A 
ATOM     16  C   UNL     1      -0.661  -9.540  11.609  1.00  0.00     0.062 A 
ATOM     17  C   UNL     1       0.522  -9.762  12.328  1.00  0.00     0.158 A 
BRANCH  15  18
ATOM     18  O   UNL     1       1.655 -10.125  14.432  1.00  0.00    -0.504 OA
ATOM     19  H   UNL     1       1.779  -9.774  15.375  1.00  0.00     0.293 HD
ENDBRANCH  15  18
BRANCH  17  20
ATOM     20  O   UNL     1       1.746  -9.843  11.666  1.00  0.00    -0.504 OA
ATOM     21  H   UNL     1       1.939  -9.292  10.838  1.00  0.00     0.293 HD
ENDBRANCH  17  20
ENDBRANCH   1  12
BRANCH   2  22
ATOM     22  O   UNL     1      -4.318  -8.509  13.562  1.00  0.00    -0.502 OA
ATOM     23  H   UNL     1      -4.964  -8.959  14.199  1.00  0.00     0.293 HD
ENDBRANCH   2  22
BRANCH   9  24
ATOM     24  O   UNL     1      -5.208  -9.430   5.895  1.00  0.00    -0.508 OA
ATOM     25  H   UNL     1      -5.333 -10.353   5.495  1.00  0.00     0.293 HD
ENDBRANCH   9  24
TORSDOF 5
ENDMDL
MODEL 6
REMARK VINA RESULT:    -5.094      2.894      4.712
REMARK INTER + INTRA:          -6.122
REMARK INTER:                  -5.880
REMARK INTRA:                  -0.242
REMARK UNBOUND:                -0.135
REMARK SMILES O=c1c(O)c(-c2ccc(O)c(O)c2)oc2cc(O)ccc12
REMARK SMILES IDX 5 1 3 2 2 3 1 4 21 5 15 6 14 7 16 8 17 9 19 10 20 11 6 12
REMARK SMILES IDX 7 13 8 14 9 15 13 16 11 17 10 18 12 20 4 22 18 24
REMARK H PARENT 10 19 12 21 4 23 18 25
REMARK Flexibility Score: inf
ROOT
ATOM      1  C   UNL     1       2.774   7.490  11.534  1.00  0.00     0.180 A 
ATOM      2  C   UNL     1       2.728   8.586  12.420  1.00  0.00     0.208 A 
ATOM      3  C   UNL     1       3.702   8.686  13.425  1.00  0.00     0.235 A 
ATOM      4  O   UNL     1       3.689   9.663  14.222  1.00  0.00    -0.285 OA
ATOM      5  C   UNL     1       4.683   7.687  13.537  1.00  0.00     0.069 A 
ATOM      6  C   UNL     1       4.646   6.609  12.627  1.00  0.00     0.142 A 
ATOM      7  O   UNL     1       3.712   6.557  11.684  1.00  0.00    -0.452 OA
ATOM      8  C   UNL     1       5.600   5.589  12.713  1.00  0.00     0.094 A 
ATOM      9  C   UNL     1       6.595   5.633  13.700  1.00  0.00     0.119 A 
ATOM     10  C   UNL     1       6.634   6.701  14.601  1.00  0.00     0.047 A 
ATOM     11  C   UNL     1       5.685   7.724  14.525  1.00  0.00     0.020 A 
ENDROOT
BRANCH   1  12
ATOM     12  C   UNL     1       1.793   7.323  10.438  1.00  0.00     0.025 A 
ATOM     13  C   UNL     1       0.491   6.895  10.737  1.00  0.00     0.016 A 
ATOM     14  C   UNL     1      -0.446   6.710   9.716  1.00  0.00     0.051 A 
ATOM     15  C   UNL     1      -0.088   6.937   8.380  1.00  0.00     0.157 A 
ATOM     16  C   UNL     1       2.154   7.529   9.095  1.00  0.00     0.062 A 
ATOM     17  C   UNL     1       1.216   7.342   8.069  1.00  0.00     0.158 A 
BRANCH  15  18
ATOM     18  O   UNL     1      -1.019   6.756   7.359  1.00  0.00    -0.504 OA
ATOM     19  H   UNL     1      -1.834   7.353   7.275  1.00  0.00     0.293 HD
ENDBRANCH  15  18
BRANCH  17  20
ATOM     20  O   UNL     1       1.573   7.554   6.738  1.00  0.00    -0.504 OA
ATOM     21  H   UNL     1       1.409   6.853   6.026  1.00  0.00     0.293 HD
ENDBRANCH  17  20
ENDBRANCH   1  12
BRANCH   2  22
ATOM     22  O   UNL     1       1.711   9.538  12.315  1.00  0.00    -0.502 OA
ATOM     23  H   UNL     1       1.072   9.564  11.529  1.00  0.00     0.293 HD
ENDBRANCH   2  22
BRANCH   9  24
ATOM     24  O   UNL     1       7.548   4.621  13.792  1.00  0.00    -0.508 OA
ATOM     25  H   UNL     1       7.335   3.731  14.227  1.00  0.00     0.293 HD
ENDBRANCH   9  24
TORSDOF 5
ENDMDL
MODEL 7
REMARK VINA RESULT:    -5.066      3.730      5.641
REMARK INTER + INTRA:          -6.089
REMARK INTER:                  -5.897
REMARK INTRA:                  -0.193
REMARK UNBOUND:                -0.135
REMARK SMILES O=c1c(O)c(-c2ccc(O)c(O)c2)oc2cc(O)ccc12
REMARK SMILES IDX 5 1 3 2 2 3 1 4 21 5 15 6 14 7 16 8 17 9 19 10 20 11 6 12
REMARK SMILES IDX 7 13 8 14 9 15 13 16 11 17 10 18 12 20 4 22 18 24
REMARK H PARENT 10 19 12 21 4 23 18 25
REMARK Flexibility Score: inf
ROOT
ATOM      1  C   UNL     1       5.258   6.176  12.465  1.00  0.00     0.180 A 
ATOM      2  C   UNL     1       6.181   5.133  12.240  1.00  0.00     0.208 A 
ATOM      3  C   UNL     1       6.057   4.358  11.077  1.00  0.00     0.235 A 
ATOM      4  O   UNL     1       6.876   3.427  10.848  1.00  0.00    -0.285 OA
ATOM      5  C   UNL     1       5.010   4.624  10.179  1.00  0.00     0.069 A 
ATOM      6  C   UNL     1       4.113   5.669  10.488  1.00  0.00     0.142 A 
ATOM      7  O   UNL     1       4.272   6.385  11.595  1.00  0.00    -0.452 OA
ATOM      8  C   UNL     1       3.052   5.958   9.623  1.00  0.00     0.094 A 
ATOM      9  C   UNL     1       2.875   5.213   8.449  1.00  0.00     0.119 A 
ATOM     10  C   UNL     1       3.764   4.179   8.140  1.00  0.00     0.047 A 
ATOM     11  C   UNL     1       4.826   3.881   8.998  1.00  0.00     0.020 A 
ENDROOT
BRANCH   1  12
ATOM     12  C   UNL     1       5.334   7.049  13.658  1.00  0.00     0.025 A 
ATOM     13  C   UNL     1       5.727   8.388  13.509  1.00  0.00     0.016 A 
ATOM     14  C   UNL     1       5.826   9.225  14.624  1.00  0.00     0.051 A 
ATOM     15  C   UNL     1       5.549   8.730  15.905  1.00  0.00     0.157 A 
ATOM     16  C   UNL     1       5.077   6.551  14.947  1.00  0.00     0.062 A 
ATOM     17  C   UNL     1       5.178   7.389  16.067  1.00  0.00     0.158 A 
BRANCH  15  18
ATOM     18  O   UNL     1       5.644   9.561  17.020  1.00  0.00    -0.504 OA
ATOM     19  H   UNL     1       6.440  10.173  17.157  1.00  0.00     0.293 HD
ENDBRANCH  15  18
BRANCH  17  20
ATOM     20  O   UNL     1       4.916   6.895  17.344  1.00  0.00    -0.504 OA
ATOM     21  H   UNL     1       5.060   7.461  18.172  1.00  0.00     0.293 HD
ENDBRANCH  17  20
ENDBRANCH   1  12
BRANCH   2  22
ATOM     22  O   UNL     1       7.182   4.861  13.176  1.00  0.00    -0.502 OA
ATOM     23  H   UNL     1       7.017   4.289  13.995  1.00  0.00     0.293 HD
ENDBRANCH   2  22
BRANCH   9  24
ATOM     24  O   UNL     1       1.821   5.495   7.583  1.00  0.00    -0.508 OA
ATOM     25  H   UNL     1       1.775   6.368   7.070  1.00  0.00     0.293 HD
ENDBRANCH   9  24
TORSDOF 5
ENDMDL
MODEL 8
REMARK VINA RESULT:    -5.046      2.516      4.202
REMARK INTER + INTRA:          -6.066
REMARK INTER:                  -5.981
REMARK INTRA:                  -0.085
REMARK UNBOUND:                -0.135
REMARK SMILES O=c1c(O)c(-c2ccc(O)c(O)c2)oc2cc(O)ccc12
REMARK SMILES IDX 5 1 3 2 2 3 1 4 21 5 15 6 14 7 16 8 17 9 19 10 20 11 6 12
REMARK SMILES IDX 7 13 8 14 9 15 13 16 11 17 10 18 12 20 4 22 18 24
REMARK H PARENT 10 19 12 21 4 23 18 25
REMARK Flexibility Score: inf
ROOT
ATOM      1  C   UNL     1       6.077   3.016   9.342  1.00  0.00     0.180 A 
ATOM      2  C   UNL     1       6.945   2.917   8.234  1.00  0.00     0.208 A 
ATOM      3  C   UNL     1       7.917   1.905   8.225  1.00  0.00     0.235 A 
ATOM      4  O   UNL     1       8.697   1.789   7.241  1.00  0.00    -0.285 OA
ATOM      5  C   UNL     1       8.016   1.033   9.321  1.00  0.00     0.069 A 
ATOM      6  C   UNL     1       7.127   1.214  10.402  1.00  0.00     0.142 A 
ATOM      7  O   UNL     1       6.214   2.179  10.367  1.00  0.00    -0.452 OA
ATOM      8  C   UNL     1       7.201   0.372  11.517  1.00  0.00     0.094 A 
ATOM      9  C   UNL     1       8.155  -0.654  11.566  1.00  0.00     0.119 A 
ATOM     10  C   UNL     1       9.036  -0.836  10.495  1.00  0.00     0.047 A 
ATOM     11  C   UNL     1       8.971   0.001   9.377  1.00  0.00     0.020 A 
ENDROOT
BRANCH   1  12
ATOM     12  C   UNL     1       5.014   4.045   9.418  1.00  0.00     0.025 A 
ATOM     13  C   UNL     1       4.939   4.877  10.546  1.00  0.00     0.016 A 
ATOM     14  C   UNL     1       3.932   5.840  10.649  1.00  0.00     0.051 A 
ATOM     15  C   UNL     1       2.976   5.973   9.632  1.00  0.00     0.157 A 
ATOM     16  C   UNL     1       4.041   4.168   8.411  1.00  0.00     0.062 A 
ATOM     17  C   UNL     1       3.029   5.133   8.514  1.00  0.00     0.158 A 
BRANCH  15  18
ATOM     18  O   UNL     1       1.971   6.934   9.730  1.00  0.00    -0.504 OA
ATOM     19  H   UNL     1       0.991   6.682   9.675  1.00  0.00     0.293 HD
ENDBRANCH  15  18
BRANCH  17  20
ATOM     20  O   UNL     1       2.069   5.259   7.510  1.00  0.00    -0.504 OA
ATOM     21  H   UNL     1       1.296   5.908   7.593  1.00  0.00     0.293 HD
ENDBRANCH  17  20
ENDBRANCH   1  12
BRANCH   2  22
ATOM     22  O   UNL     1       6.854   3.829   7.180  1.00  0.00    -0.502 OA
ATOM     23  H   UNL     1       6.240   4.634   7.213  1.00  0.00     0.293 HD
ENDBRANCH   2  22
BRANCH   9  24
ATOM     24  O   UNL     1       8.235  -1.496  12.672  1.00  0.00    -0.508 OA
ATOM     25  H   UNL     1       7.807  -1.251  13.557  1.00  0.00     0.293 HD
ENDBRANCH   9  24
TORSDOF 5
ENDMDL
MODEL 9
REMARK VINA RESULT:    -4.946      3.034      4.060
REMARK INTER + INTRA:          -5.948
REMARK INTER:                  -5.679
REMARK INTRA:                  -0.269
REMARK UNBOUND:                -0.135
REMARK SMILES O=c1c(O)c(-c2ccc(O)c(O)c2)oc2cc(O)ccc12
REMARK SMILES IDX 5 1 3 2 2 3 1 4 21 5 15 6 14 7 16 8 17 9 19 10 20 11 6 12
REMARK SMILES IDX 7 13 8 14 9 15 13 16 11 17 10 18 12 20 4 22 18 24
REMARK H PARENT 10 19 12 21 4 23 18 25
REMARK Flexibility Score: inf
ROOT
ATOM      1  C   UNL     1       3.837   6.569  11.002  1.00  0.00     0.180 A 
ATOM      2  C   UNL     1       4.867   5.636  10.759  1.00  0.00     0.208 A 
ATOM      3  C   UNL     1       5.729   5.290  11.812  1.00  0.00     0.235 A 
ATOM      4  O   UNL     1       6.650   4.450  11.623  1.00  0.00    -0.285 OA
ATOM      5  C   UNL     1       5.560   5.893  13.069  1.00  0.00     0.069 A 
ATOM      6  C   UNL     1       4.521   6.836  13.224  1.00  0.00     0.142 A 
ATOM      7  O   UNL     1       3.721   7.128  12.204  1.00  0.00    -0.452 OA
ATOM      8  C   UNL     1       4.327   7.466  14.458  1.00  0.00     0.094 A 
ATOM      9  C   UNL     1       5.161   7.165  15.544  1.00  0.00     0.119 A 
ATOM     10  C   UNL     1       6.189   6.229  15.392  1.00  0.00     0.047 A 
ATOM     11  C   UNL     1       6.392   5.596  14.163  1.00  0.00     0.020 A 
ENDROOT
BRANCH   1  12
ATOM     12  C   UNL     1       2.876   6.970   9.949  1.00  0.00     0.025 A 
ATOM     13  C   UNL     1       3.271   7.899   8.974  1.00  0.00     0.016 A 
ATOM     14  C   UNL     1       2.375   8.310   7.984  1.00  0.00     0.051 A 
ATOM     15  C   UNL     1       1.067   7.808   7.964  1.00  0.00     0.157 A 
ATOM     16  C   UNL     1       1.557   6.487   9.939  1.00  0.00     0.062 A 
ATOM     17  C   UNL     1       0.656   6.899   8.946  1.00  0.00     0.158 A 
BRANCH  15  18
ATOM     18  O   UNL     1       0.170   8.213   6.977  1.00  0.00    -0.504 OA
ATOM     19  H   UNL     1      -0.236   9.142   6.978  1.00  0.00     0.293 HD
ENDBRANCH  15  18
BRANCH  17  20
ATOM     20  O   UNL     1      -0.650   6.412   8.932  1.00  0.00    -0.504 OA
ATOM     21  H   UNL     1      -1.353   6.757   9.575  1.00  0.00     0.293 HD
ENDBRANCH  17  20
ENDBRANCH   1  12
BRANCH   2  22
ATOM     22  O   UNL     1       5.040   5.089   9.486  1.00  0.00    -0.502 OA
ATOM     23  H   UNL     1       5.931   5.112   9.004  1.00  0.00     0.293 HD
ENDBRANCH   2  22
BRANCH   9  24
ATOM     24  O   UNL     1       4.974   7.787  16.775  1.00  0.00    -0.508 OA
ATOM     25  H   UNL     1       4.183   7.564  17.368  1.00  0.00     0.293 HD
ENDBRANCH   9  24
TORSDOF 5
ENDMDL
