MODEL 1
REMARK VINA RESULT:    75.533      0.000      0.000
REMARK INTER + INTRA:         181.857
REMARK INTER:                 179.302
REMARK INTRA:                   2.556
REMARK UNBOUND:                 2.556
REMARK SMILES O=C(OC[C@H]1O[C@H](OC(=O)c2cc(O)c(O)c(O)c2)[C@H](OC(=O)c2cc(O)c(O)c(O)c2)[C@@H](OC(=O)c2cc(O)c(O)c(O)c2)[C@H]1OC(=O)c1cc(O)c(O)c(O)c1)c1cc(O)c(O)c(O)c1
REMARK SMILES IDX 5 1 46 2 33 3 20 4 7 5 6 6 4 7 3 8 2 9 1 10 59 11 60 12
REMARK SMILES IDX 61 13 67 14 63 15 65 16 62 17 64 19 66 21 47 23 48 24 49 25
REMARK SMILES IDX 50 26 58 27 51 28 56 29 52 30 54 31 57 32 53 34 55 36 34 38
REMARK SMILES IDX 35 39 36 40 37 41 45 42 38 43 43 44 39 45 41 46 44 47 40 49
REMARK SMILES IDX 42 51 8 53 9 54 10 55 11 56 19 57 12 58 17 59 13 60 15 61
REMARK SMILES IDX 18 62 14 64 16 66 21 68 22 69 23 70 24 71 32 72 25 73 30 74
REMARK SMILES IDX 26 75 28 76 31 77 27 79 29 81
REMARK H PARENT 62 18 64 20 66 22 57 33 53 35 55 37 44 48 40 50 42 52 18 63
REMARK H PARENT 14 65 16 67 31 78 27 80 29 82
REMARK Flexibility Score: inf
ROOT
ATOM      1  C   UNL     1      18.559  24.223  12.960  1.00  0.00     0.205 C 
ATOM      2  C   UNL     1      17.696  23.595  11.850  1.00  0.00     0.254 C 
ATOM      3  C   UNL     1      18.566  22.569  11.116  1.00  0.00     0.267 C 
ATOM      4  C   UNL     1      19.094  21.527  12.118  1.00  0.00     0.290 C 
ATOM      5  C   UNL     1      19.785  22.247  13.299  1.00  0.00     0.357 C 
ATOM      6  O   UNL     1      18.947  23.228  13.898  1.00  0.00    -0.329 OA
ENDROOT
BRANCH   1   7
ATOM      7  C   UNL     1      17.827  25.357  13.700  1.00  0.00     0.269 C 
BRANCH   7   8
ATOM      8  O   UNL     1      18.751  26.395  14.011  1.00  0.00    -0.459 OA
BRANCH   8   9
ATOM      9  C   UNL     1      18.373  27.743  14.071  1.00  0.00     0.338 C 
ATOM     10  O   UNL     1      18.785  28.553  13.191  1.00  0.00    -0.246 OA
BRANCH   9  11
ATOM     11  C   UNL     1      17.521  28.222  15.179  1.00  0.00     0.067 A 
ATOM     12  C   UNL     1      16.589  29.247  14.963  1.00  0.00     0.066 A 
ATOM     13  C   UNL     1      15.814  29.746  16.012  1.00  0.00     0.162 A 
ATOM     14  C   UNL     1      17.667  27.686  16.475  1.00  0.00     0.066 A 
ATOM     15  C   UNL     1      15.988  29.232  17.319  1.00  0.00     0.200 A 
ATOM     16  C   UNL     1      16.914  28.196  17.538  1.00  0.00     0.162 A 
BRANCH  13  17
ATOM     17  O   UNL     1      14.881  30.738  15.711  1.00  0.00    -0.504 OA
ATOM     18  H   UNL     1      14.807  31.605  16.215  1.00  0.00     0.293 HD
ENDBRANCH  13  17
BRANCH  15  19
ATOM     19  O   UNL     1      15.268  29.727  18.411  1.00  0.00    -0.502 OA
ATOM     20  H   UNL     1      15.591  30.461  19.022  1.00  0.00     0.293 HD
ENDBRANCH  15  19
BRANCH  16  21
ATOM     21  O   UNL     1      17.106  27.658  18.811  1.00  0.00    -0.504 OA
ATOM     22  H   UNL     1      17.041  26.663  18.989  1.00  0.00     0.293 HD
ENDBRANCH  16  21
ENDBRANCH   9  11
ENDBRANCH   8   9
ENDBRANCH   7   8
ENDBRANCH   1   7
BRANCH   2  23
ATOM     23  O   UNL     1      16.569  22.925  12.418  1.00  0.00    -0.452 OA
BRANCH  23  24
ATOM     24  C   UNL     1      16.451  22.595  13.775  1.00  0.00     0.338 C 
ATOM     25  O   UNL     1      16.570  23.490  14.651  1.00  0.00    -0.246 OA
BRANCH  24  26
ATOM     26  C   UNL     1      16.167  21.195  14.162  1.00  0.00     0.067 A 
ATOM     27  C   UNL     1      16.949  20.542  15.132  1.00  0.00     0.066 A 
ATOM     28  C   UNL     1      15.142  20.482  13.520  1.00  0.00     0.066 A 
ATOM     29  C   UNL     1      16.719  19.192  15.445  1.00  0.00     0.162 A 
ATOM     30  C   UNL     1      14.902  19.140  13.836  1.00  0.00     0.162 A 
ATOM     31  C   UNL     1      15.690  18.489  14.797  1.00  0.00     0.200 A 
BRANCH  29  32
ATOM     32  O   UNL     1      17.512  18.546  16.391  1.00  0.00    -0.504 OA
ATOM     33  H   UNL     1      17.122  17.867  17.034  1.00  0.00     0.293 HD
ENDBRANCH  29  32
BRANCH  30  34
ATOM     34  O   UNL     1      13.877  18.467  13.175  1.00  0.00    -0.504 OA
ATOM     35  H   UNL     1      13.919  17.470  12.988  1.00  0.00     0.293 HD
ENDBRANCH  30  34
BRANCH  31  36
ATOM     36  O   UNL     1      15.441  17.149  15.087  1.00  0.00    -0.502 OA
ATOM     37  H   UNL     1      16.186  16.484  15.252  1.00  0.00     0.293 HD
ENDBRANCH  31  36
ENDBRANCH  24  26
ENDBRANCH  23  24
ENDBRANCH   2  23
BRANCH   3  38
ATOM     38  O   UNL     1      17.825  21.948  10.066  1.00  0.00    -0.450 OA
BRANCH  38  39
ATOM     39  C   UNL     1      18.411  21.562   8.853  1.00  0.00     0.338 C 
ATOM     40  O   UNL     1      18.945  20.425   8.743  1.00  0.00    -0.246 OA
BRANCH  39  41
ATOM     41  C   UNL     1      18.388  22.479   7.691  1.00  0.00     0.067 A 
ATOM     42  C   UNL     1      18.917  22.072   6.454  1.00  0.00     0.066 A 
ATOM     43  C   UNL     1      17.833  23.763   7.811  1.00  0.00     0.066 A 
ATOM     44  C   UNL     1      18.898  22.934   5.355  1.00  0.00     0.162 A 
ATOM     45  C   UNL     1      17.811  24.637   6.719  1.00  0.00     0.162 A 
ATOM     46  C   UNL     1      18.359  24.224   5.477  1.00  0.00     0.200 A 
BRANCH  44  47
ATOM     47  O   UNL     1      19.416  22.506   4.131  1.00  0.00    -0.504 OA
ATOM     48  H   UNL     1      20.395  22.644   3.889  1.00  0.00     0.293 HD
ENDBRANCH  44  47
BRANCH  45  49
ATOM     49  O   UNL     1      17.245  25.897   6.913  1.00  0.00    -0.504 OA
ATOM     50  H   UNL     1      17.718  26.667   7.363  1.00  0.00     0.293 HD
ENDBRANCH  45  49
BRANCH  46  51
ATOM     51  O   UNL     1      18.392  25.053   4.352  1.00  0.00    -0.502 OA
ATOM     52  H   UNL     1      17.615  25.635   4.060  1.00  0.00     0.293 HD
ENDBRANCH  46  51
ENDBRANCH  39  41
ENDBRANCH  38  39
ENDBRANCH   3  38
BRANCH   5  53
ATOM     53  O   UNL     1      21.022  22.821  12.878  1.00  0.00    -0.428 OA
BRANCH  53  54
ATOM     54  C   UNL     1      21.692  23.816  13.599  1.00  0.00     0.340 C 
ATOM     55  O   UNL     1      21.817  24.975  13.128  1.00  0.00    -0.246 OA
BRANCH  54  56
ATOM     56  C   UNL     1      22.248  23.496  14.924  1.00  0.00     0.067 A 
ATOM     57  C   UNL     1      22.452  24.501  15.877  1.00  0.00     0.066 A 
ATOM     58  C   UNL     1      22.565  22.172  15.246  1.00  0.00     0.066 A 
ATOM     59  C   UNL     1      22.936  24.195  17.155  1.00  0.00     0.162 A 
ATOM     60  C   UNL     1      23.076  21.848  16.503  1.00  0.00     0.162 A 
ATOM     61  C   UNL     1      23.252  22.851  17.478  1.00  0.00     0.200 A 
BRANCH  59  62
ATOM     62  O   UNL     1      23.078  25.251  18.062  1.00  0.00    -0.504 OA
ATOM     63  H   UNL     1      22.812  26.209  17.862  1.00  0.00     0.293 HD
ENDBRANCH  59  62
BRANCH  60  64
ATOM     64  O   UNL     1      23.411  20.518  16.762  1.00  0.00    -0.504 OA
ATOM     65  H   UNL     1      23.866  20.238  17.624  1.00  0.00     0.293 HD
ENDBRANCH  60  64
BRANCH  61  66
ATOM     66  O   UNL     1      23.733  22.480  18.743  1.00  0.00    -0.502 OA
ATOM     67  H   UNL     1      23.150  22.132  19.492  1.00  0.00     0.293 HD
ENDBRANCH  61  66
ENDBRANCH  54  56
ENDBRANCH  53  54
ENDBRANCH   5  53
BRANCH   4  68
ATOM     68  O   UNL     1      20.056  20.683  11.488  1.00  0.00    -0.448 OA
BRANCH  68  69
ATOM     69  C   UNL     1      21.413  20.651  11.822  1.00  0.00     0.339 C 
ATOM     70  O   UNL     1      21.785  20.179  12.933  1.00  0.00    -0.246 OA
BRANCH  69  71
ATOM     71  C   UNL     1      22.410  21.188  10.871  1.00  0.00     0.067 A 
ATOM     72  C   UNL     1      22.321  20.909   9.502  1.00  0.00     0.066 A 
ATOM     73  C   UNL     1      23.460  21.997  11.332  1.00  0.00     0.066 A 
ATOM     74  C   UNL     1      23.256  21.439   8.599  1.00  0.00     0.162 A 
ATOM     75  C   UNL     1      24.395  22.533  10.442  1.00  0.00     0.162 A 
ATOM     76  C   UNL     1      24.297  22.257   9.070  1.00  0.00     0.200 A 
BRANCH  74  77
ATOM     77  O   UNL     1      23.149  21.164   7.236  1.00  0.00    -0.504 OA
ATOM     78  H   UNL     1      23.717  21.650   6.550  1.00  0.00     0.293 HD
ENDBRANCH  74  77
BRANCH  75  79
ATOM     79  O   UNL     1      25.418  23.343  10.939  1.00  0.00    -0.504 OA
ATOM     80  H   UNL     1      25.462  24.335  10.748  1.00  0.00     0.293 HD
ENDBRANCH  75  79
BRANCH  76  81
ATOM     81  O   UNL     1      25.234  22.796   8.187  1.00  0.00    -0.502 OA
ATOM     82  H   UNL     1      26.135  23.134   8.491  1.00  0.00     0.293 HD
ENDBRANCH  76  81
ENDBRANCH  69  71
ENDBRANCH  68  69
ENDBRANCH   4  68
TORSDOF 31
ENDMDL
MODEL 2
REMARK VINA RESULT:    75.712      1.486      9.053
REMARK INTER + INTRA:         182.281
REMARK INTER:                 183.147
REMARK INTRA:                  -0.866
REMARK UNBOUND:                 2.556
REMARK SMILES O=C(OC[C@H]1O[C@H](OC(=O)c2cc(O)c(O)c(O)c2)[C@H](OC(=O)c2cc(O)c(O)c(O)c2)[C@@H](OC(=O)c2cc(O)c(O)c(O)c2)[C@H]1OC(=O)c1cc(O)c(O)c(O)c1)c1cc(O)c(O)c(O)c1
REMARK SMILES IDX 5 1 46 2 33 3 20 4 7 5 6 6 4 7 3 8 2 9 1 10 59 11 60 12
REMARK SMILES IDX 61 13 67 14 63 15 65 16 62 17 64 19 66 21 47 23 48 24 49 25
REMARK SMILES IDX 50 26 58 27 51 28 56 29 52 30 54 31 57 32 53 34 55 36 34 38
REMARK SMILES IDX 35 39 36 40 37 41 45 42 38 43 43 44 39 45 41 46 44 47 40 49
REMARK SMILES IDX 42 51 8 53 9 54 10 55 11 56 19 57 12 58 17 59 13 60 15 61
REMARK SMILES IDX 18 62 14 64 16 66 21 68 22 69 23 70 24 71 32 72 25 73 30 74
REMARK SMILES IDX 26 75 28 76 31 77 27 79 29 81
REMARK H PARENT 62 18 64 20 66 22 57 33 53 35 55 37 44 48 40 50 42 52 18 63
REMARK H PARENT 14 65 16 67 31 78 27 80 29 82
REMARK Flexibility Score: inf
ROOT
ATOM      1  C   UNL     1      19.756  22.074  11.720  1.00  0.00     0.205 C 
ATOM      2  C   UNL     1      18.219  22.106  11.633  1.00  0.00     0.254 C 
ATOM      3  C   UNL     1      17.715  23.044  12.735  1.00  0.00     0.267 C 
ATOM      4  C   UNL     1      18.349  24.436  12.559  1.00  0.00     0.290 C 
ATOM      5  C   UNL     1      19.886  24.298  12.467  1.00  0.00     0.357 C 
ATOM      6  O   UNL     1      20.286  23.368  11.468  1.00  0.00    -0.329 OA
ENDROOT
BRANCH   1   7
ATOM      7  C   UNL     1      20.377  21.071  10.730  1.00  0.00     0.269 C 
BRANCH   7   8
ATOM      8  O   UNL     1      21.666  21.532  10.335  1.00  0.00    -0.459 OA
BRANCH   8   9
ATOM      9  C   UNL     1      22.840  21.124  10.984  1.00  0.00     0.338 C 
ATOM     10  O   UNL     1      23.906  21.787  10.831  1.00  0.00    -0.246 OA
BRANCH   9  11
ATOM     11  C   UNL     1      22.837  19.904  11.817  1.00  0.00     0.067 A 
ATOM     12  C   UNL     1      22.389  18.687  11.287  1.00  0.00     0.066 A 
ATOM     13  C   UNL     1      22.332  17.537  12.077  1.00  0.00     0.162 A 
ATOM     14  C   UNL     1      23.244  19.960  13.166  1.00  0.00     0.066 A 
ATOM     15  C   UNL     1      22.705  17.603  13.440  1.00  0.00     0.200 A 
ATOM     16  C   UNL     1      23.167  18.820  13.974  1.00  0.00     0.162 A 
BRANCH  13  17
ATOM     17  O   UNL     1      21.911  16.354  11.468  1.00  0.00    -0.504 OA
ATOM     18  H   UNL     1      22.131  15.438  11.819  1.00  0.00     0.293 HD
ENDBRANCH  13  17
BRANCH  15  19
ATOM     19  O   UNL     1      22.625  16.491  14.285  1.00  0.00    -0.502 OA
ATOM     20  H   UNL     1      22.631  16.538  15.293  1.00  0.00     0.293 HD
ENDBRANCH  15  19
BRANCH  16  21
ATOM     21  O   UNL     1      23.552  18.921  15.311  1.00  0.00    -0.504 OA
ATOM     22  H   UNL     1      23.895  18.124  15.833  1.00  0.00     0.293 HD
ENDBRANCH  16  21
ENDBRANCH   9  11
ENDBRANCH   8   9
ENDBRANCH   7   8
ENDBRANCH   1   7
BRANCH   2  23
ATOM     23  O   UNL     1      17.805  22.616  10.364  1.00  0.00    -0.452 OA
BRANCH  23  24
ATOM     24  C   UNL     1      18.130  22.028   9.134  1.00  0.00     0.338 C 
ATOM     25  O   UNL     1      18.363  20.793   9.073  1.00  0.00    -0.246 OA
BRANCH  24  26
ATOM     26  C   UNL     1      18.175  22.865   7.915  1.00  0.00     0.067 A 
ATOM     27  C   UNL     1      17.566  24.134   7.889  1.00  0.00     0.066 A 
ATOM     28  C   UNL     1      18.782  22.376   6.747  1.00  0.00     0.066 A 
ATOM     29  C   UNL     1      17.552  24.895   6.708  1.00  0.00     0.162 A 
ATOM     30  C   UNL     1      18.779  23.135   5.572  1.00  0.00     0.162 A 
ATOM     31  C   UNL     1      18.164  24.395   5.546  1.00  0.00     0.200 A 
BRANCH  29  32
ATOM     32  O   UNL     1      16.929  26.140   6.684  1.00  0.00    -0.504 OA
ATOM     33  H   UNL     1      16.679  26.624   7.539  1.00  0.00     0.293 HD
ENDBRANCH  29  32
BRANCH  30  34
ATOM     34  O   UNL     1      19.390  22.613   4.434  1.00  0.00    -0.504 OA
ATOM     35  H   UNL     1      19.848  23.205   3.748  1.00  0.00     0.293 HD
ENDBRANCH  30  34
BRANCH  31  36
ATOM     36  O   UNL     1      18.163  25.129   4.362  1.00  0.00    -0.502 OA
ATOM     37  H   UNL     1      18.242  24.690   3.453  1.00  0.00     0.293 HD
ENDBRANCH  31  36
ENDBRANCH  24  26
ENDBRANCH  23  24
ENDBRANCH   2  23
BRANCH   3  38
ATOM     38  O   UNL     1      16.290  23.118  12.713  1.00  0.00    -0.450 OA
BRANCH  38  39
ATOM     39  C   UNL     1      15.474  22.134  13.288  1.00  0.00     0.338 C 
ATOM     40  O   UNL     1      14.245  22.088  13.005  1.00  0.00    -0.246 OA
BRANCH  39  41
ATOM     41  C   UNL     1      16.053  21.133  14.212  1.00  0.00     0.067 A 
ATOM     42  C   UNL     1      15.610  19.800  14.184  1.00  0.00     0.066 A 
ATOM     43  C   UNL     1      17.054  21.505  15.124  1.00  0.00     0.066 A 
ATOM     44  C   UNL     1      16.153  18.852  15.055  1.00  0.00     0.162 A 
ATOM     45  C   UNL     1      17.604  20.567  16.004  1.00  0.00     0.162 A 
ATOM     46  C   UNL     1      17.143  19.225  15.979  1.00  0.00     0.200 A 
BRANCH  44  47
ATOM     47  O   UNL     1      15.709  17.529  15.003  1.00  0.00    -0.504 OA
ATOM     48  H   UNL     1      16.337  16.748  15.178  1.00  0.00     0.293 HD
ENDBRANCH  44  47
BRANCH  45  49
ATOM     49  O   UNL     1      18.594  21.008  16.881  1.00  0.00    -0.504 OA
ATOM     50  H   UNL     1      19.479  21.396  16.588  1.00  0.00     0.293 HD
ENDBRANCH  45  49
BRANCH  46  51
ATOM     51  O   UNL     1      17.629  18.241  16.844  1.00  0.00    -0.502 OA
ATOM     52  H   UNL     1      17.192  17.335  16.967  1.00  0.00     0.293 HD
ENDBRANCH  46  51
ENDBRANCH  39  41
ENDBRANCH  38  39
ENDBRANCH   3  38
BRANCH   5  53
ATOM     53  O   UNL     1      20.432  23.946  13.738  1.00  0.00    -0.428 OA
BRANCH  53  54
ATOM     54  C   UNL     1      21.742  23.487  13.911  1.00  0.00     0.340 C 
ATOM     55  O   UNL     1      22.469  23.232  12.917  1.00  0.00    -0.246 OA
BRANCH  54  56
ATOM     56  C   UNL     1      22.270  23.311  15.273  1.00  0.00     0.067 A 
ATOM     57  C   UNL     1      22.483  24.414  16.109  1.00  0.00     0.066 A 
ATOM     58  C   UNL     1      22.552  22.026  15.751  1.00  0.00     0.066 A 
ATOM     59  C   UNL     1      22.940  24.247  17.422  1.00  0.00     0.162 A 
ATOM     60  C   UNL     1      23.036  21.837  17.046  1.00  0.00     0.162 A 
ATOM     61  C   UNL     1      23.221  22.942  17.903  1.00  0.00     0.200 A 
BRANCH  59  62
ATOM     62  O   UNL     1      23.093  25.396  18.204  1.00  0.00    -0.504 OA
ATOM     63  H   UNL     1      22.371  25.770  18.809  1.00  0.00     0.293 HD
ENDBRANCH  59  62
BRANCH  60  64
ATOM     64  O   UNL     1      23.336  20.540  17.461  1.00  0.00    -0.504 OA
ATOM     65  H   UNL     1      23.811  19.878  16.856  1.00  0.00     0.293 HD
ENDBRANCH  60  64
BRANCH  61  66
ATOM     66  O   UNL     1      23.674  22.710  19.210  1.00  0.00    -0.502 OA
ATOM     67  H   UNL     1      24.148  21.867  19.505  1.00  0.00     0.293 HD
ENDBRANCH  61  66
ENDBRANCH  54  56
ENDBRANCH  53  54
ENDBRANCH   5  53
BRANCH   4  68
ATOM     68  O   UNL     1      18.043  25.261  13.682  1.00  0.00    -0.448 OA
BRANCH  68  69
ATOM     69  C   UNL     1      18.137  26.655  13.682  1.00  0.00     0.339 C 
ATOM     70  O   UNL     1      18.860  27.245  12.831  1.00  0.00    -0.246 OA
BRANCH  69  71
ATOM     71  C   UNL     1      17.394  27.435  14.694  1.00  0.00     0.067 A 
ATOM     72  C   UNL     1      17.727  27.353  16.052  1.00  0.00     0.066 A 
ATOM     73  C   UNL     1      16.343  28.280  14.303  1.00  0.00     0.066 A 
ATOM     74  C   UNL     1      17.035  28.112  17.008  1.00  0.00     0.162 A 
ATOM     75  C   UNL     1      15.649  29.043  15.247  1.00  0.00     0.162 A 
ATOM     76  C   UNL     1      15.992  28.963  16.605  1.00  0.00     0.200 A 
BRANCH  74  77
ATOM     77  O   UNL     1      17.385  28.031  18.356  1.00  0.00    -0.504 OA
ATOM     78  H   UNL     1      16.757  27.628  19.044  1.00  0.00     0.293 HD
ENDBRANCH  74  77
BRANCH  75  79
ATOM     79  O   UNL     1      14.618  29.880  14.815  1.00  0.00    -0.504 OA
ATOM     80  H   UNL     1      14.665  30.886  14.907  1.00  0.00     0.293 HD
ENDBRANCH  75  79
BRANCH  76  81
ATOM     81  O   UNL     1      15.294  29.728  17.541  1.00  0.00    -0.502 OA
ATOM     82  H   UNL     1      14.503  30.302  17.291  1.00  0.00     0.293 HD
ENDBRANCH  76  81
ENDBRANCH  69  71
ENDBRANCH  68  69
ENDBRANCH   4  68
TORSDOF 31
ENDMDL
MODEL 3
REMARK VINA RESULT:    75.713      2.641      9.222
REMARK INTER + INTRA:         182.285
REMARK INTER:                 180.406
REMARK INTRA:                   1.879
REMARK UNBOUND:                 2.556
REMARK SMILES O=C(OC[C@H]1O[C@H](OC(=O)c2cc(O)c(O)c(O)c2)[C@H](OC(=O)c2cc(O)c(O)c(O)c2)[C@@H](OC(=O)c2cc(O)c(O)c(O)c2)[C@H]1OC(=O)c1cc(O)c(O)c(O)c1)c1cc(O)c(O)c(O)c1
REMARK SMILES IDX 5 1 46 2 33 3 20 4 7 5 6 6 4 7 3 8 2 9 1 10 59 11 60 12
REMARK SMILES IDX 61 13 67 14 63 15 65 16 62 17 64 19 66 21 47 23 48 24 49 25
REMARK SMILES IDX 50 26 58 27 51 28 56 29 52 30 54 31 57 32 53 34 55 36 34 38
REMARK SMILES IDX 35 39 36 40 37 41 45 42 38 43 43 44 39 45 41 46 44 47 40 49
REMARK SMILES IDX 42 51 8 53 9 54 10 55 11 56 19 57 12 58 17 59 13 60 15 61
REMARK SMILES IDX 18 62 14 64 16 66 21 68 22 69 23 70 24 71 32 72 25 73 30 74
REMARK SMILES IDX 26 75 28 76 31 77 27 79 29 81
REMARK H PARENT 62 18 64 20 66 22 57 33 53 35 55 37 44 48 40 50 42 52 18 63
REMARK H PARENT 14 65 16 67 31 78 27 80 29 82
REMARK Flexibility Score: inf
ROOT
ATOM      1  C   UNL     1      22.295  26.212  13.993  1.00  0.00     0.205 C 
ATOM      2  C   UNL     1      22.229  24.701  14.281  1.00  0.00     0.254 C 
ATOM      3  C   UNL     1      20.756  24.338  14.495  1.00  0.00     0.267 C 
ATOM      4  C   UNL     1      19.938  24.741  13.254  1.00  0.00     0.290 C 
ATOM      5  C   UNL     1      20.205  26.227  12.918  1.00  0.00     0.357 C 
ATOM      6  O   UNL     1      21.593  26.511  12.794  1.00  0.00    -0.329 OA
ENDROOT
BRANCH   1   7
ATOM      7  C   UNL     1      23.742  26.723  13.872  1.00  0.00     0.269 C 
BRANCH   7   8
ATOM      8  O   UNL     1      24.564  26.049  14.820  1.00  0.00    -0.459 OA
BRANCH   8   9
ATOM      9  C   UNL     1      25.837  26.516  15.176  1.00  0.00     0.338 C 
ATOM     10  O   UNL     1      26.016  27.747  15.402  1.00  0.00    -0.246 OA
BRANCH   9  11
ATOM     11  C   UNL     1      26.974  25.575  15.252  1.00  0.00     0.067 A 
ATOM     12  C   UNL     1      26.984  24.556  16.215  1.00  0.00     0.066 A 
ATOM     13  C   UNL     1      28.075  23.692  16.333  1.00  0.00     0.162 A 
ATOM     14  C   UNL     1      28.078  25.718  14.388  1.00  0.00     0.066 A 
ATOM     15  C   UNL     1      29.199  23.860  15.490  1.00  0.00     0.200 A 
ATOM     16  C   UNL     1      29.187  24.874  14.515  1.00  0.00     0.162 A 
BRANCH  13  17
ATOM     17  O   UNL     1      27.995  22.678  17.289  1.00  0.00    -0.504 OA
ATOM     18  H   UNL     1      28.699  22.516  17.989  1.00  0.00     0.293 HD
ENDBRANCH  13  17
BRANCH  15  19
ATOM     19  O   UNL     1      30.333  23.049  15.597  1.00  0.00    -0.502 OA
ATOM     20  H   UNL     1      30.380  22.200  16.140  1.00  0.00     0.293 HD
ENDBRANCH  15  19
BRANCH  16  21
ATOM     21  O   UNL     1      30.273  25.064  13.660  1.00  0.00    -0.504 OA
ATOM     22  H   UNL     1      30.928  24.321  13.451  1.00  0.00     0.293 HD
ENDBRANCH  16  21
ENDBRANCH   9  11
ENDBRANCH   8   9
ENDBRANCH   7   8
ENDBRANCH   1   7
BRANCH   2  23
ATOM     23  O   UNL     1      22.733  23.962  13.168  1.00  0.00    -0.452 OA
BRANCH  23  24
ATOM     24  C   UNL     1      23.049  22.597  13.206  1.00  0.00     0.338 C 
ATOM     25  O   UNL     1      23.355  22.056  14.300  1.00  0.00    -0.246 OA
BRANCH  24  26
ATOM     26  C   UNL     1      23.000  21.802  11.959  1.00  0.00     0.067 A 
ATOM     27  C   UNL     1      22.561  20.465  11.973  1.00  0.00     0.066 A 
ATOM     28  C   UNL     1      23.446  22.361  10.750  1.00  0.00     0.066 A 
ATOM     29  C   UNL     1      22.581  19.694  10.798  1.00  0.00     0.162 A 
ATOM     30  C   UNL     1      23.459  21.601   9.577  1.00  0.00     0.162 A 
ATOM     31  C   UNL     1      23.029  20.265   9.595  1.00  0.00     0.200 A 
BRANCH  29  32
ATOM     32  O   UNL     1      22.166  18.366  10.824  1.00  0.00    -0.504 OA
ATOM     33  H   UNL     1      22.612  17.683  11.427  1.00  0.00     0.293 HD
ENDBRANCH  29  32
BRANCH  30  34
ATOM     34  O   UNL     1      23.911  22.191   8.398  1.00  0.00    -0.504 OA
ATOM     35  H   UNL     1      23.877  21.708   7.506  1.00  0.00     0.293 HD
ENDBRANCH  30  34
BRANCH  31  36
ATOM     36  O   UNL     1      23.062  19.523   8.417  1.00  0.00    -0.502 OA
ATOM     37  H   UNL     1      22.238  19.077   8.035  1.00  0.00     0.293 HD
ENDBRANCH  31  36
ENDBRANCH  24  26
ENDBRANCH  23  24
ENDBRANCH   2  23
BRANCH   3  38
ATOM     38  O   UNL     1      20.622  22.944  14.771  1.00  0.00    -0.450 OA
BRANCH  38  39
ATOM     39  C   UNL     1      20.673  22.424  16.072  1.00  0.00     0.338 C 
ATOM     40  O   UNL     1      19.604  22.162  16.689  1.00  0.00    -0.246 OA
BRANCH  39  41
ATOM     41  C   UNL     1      21.978  22.160  16.717  1.00  0.00     0.067 A 
ATOM     42  C   UNL     1      22.944  23.178  16.809  1.00  0.00     0.066 A 
ATOM     43  C   UNL     1      22.265  20.893  17.249  1.00  0.00     0.066 A 
ATOM     44  C   UNL     1      24.178  22.934  17.416  1.00  0.00     0.162 A 
ATOM     45  C   UNL     1      23.498  20.634  17.855  1.00  0.00     0.162 A 
ATOM     46  C   UNL     1      24.473  21.662  17.933  1.00  0.00     0.200 A 
BRANCH  44  47
ATOM     47  O   UNL     1      25.119  23.961  17.509  1.00  0.00    -0.504 OA
ATOM     48  H   UNL     1      25.558  24.359  16.682  1.00  0.00     0.293 HD
ENDBRANCH  44  47
BRANCH  45  49
ATOM     49  O   UNL     1      23.713  19.351  18.360  1.00  0.00    -0.504 OA
ATOM     50  H   UNL     1      23.021  18.821  18.869  1.00  0.00     0.293 HD
ENDBRANCH  45  49
BRANCH  46  51
ATOM     51  O   UNL     1      25.734  21.468  18.504  1.00  0.00    -0.502 OA
ATOM     52  H   UNL     1      25.915  21.529  19.500  1.00  0.00     0.293 HD
ENDBRANCH  46  51
ENDBRANCH  39  41
ENDBRANCH  38  39
ENDBRANCH   3  38
BRANCH   5  53
ATOM     53  O   UNL     1      19.597  27.075  13.891  1.00  0.00    -0.428 OA
BRANCH  53  54
ATOM     54  C   UNL     1      18.387  27.745  13.677  1.00  0.00     0.340 C 
ATOM     55  O   UNL     1      17.954  27.932  12.512  1.00  0.00    -0.246 OA
BRANCH  54  56
ATOM     56  C   UNL     1      17.615  28.226  14.835  1.00  0.00     0.067 A 
ATOM     57  C   UNL     1      16.632  29.212  14.682  1.00  0.00     0.066 A 
ATOM     58  C   UNL     1      17.852  27.686  16.104  1.00  0.00     0.066 A 
ATOM     59  C   UNL     1      15.864  29.639  15.772  1.00  0.00     0.162 A 
ATOM     60  C   UNL     1      17.118  28.117  17.209  1.00  0.00     0.162 A 
ATOM     61  C   UNL     1      16.104  29.085  17.056  1.00  0.00     0.200 A 
BRANCH  59  62
ATOM     62  O   UNL     1      14.879  30.601  15.529  1.00  0.00    -0.504 OA
ATOM     63  H   UNL     1      13.975  30.615  15.989  1.00  0.00     0.293 HD
ENDBRANCH  59  62
BRANCH  60  64
ATOM     64  O   UNL     1      17.417  27.573  18.459  1.00  0.00    -0.504 OA
ATOM     65  H   UNL     1      17.512  28.152  19.287  1.00  0.00     0.293 HD
ENDBRANCH  60  64
BRANCH  61  66
ATOM     66  O   UNL     1      15.363  29.466  18.184  1.00  0.00    -0.502 OA
ATOM     67  H   UNL     1      15.514  29.098  19.113  1.00  0.00     0.293 HD
ENDBRANCH  61  66
ENDBRANCH  54  56
ENDBRANCH  53  54
ENDBRANCH   5  53
BRANCH   4  68
ATOM     68  O   UNL     1      18.544  24.588  13.512  1.00  0.00    -0.448 OA
BRANCH  68  69
ATOM     69  C   UNL     1      17.794  23.469  13.139  1.00  0.00     0.339 C 
ATOM     70  O   UNL     1      16.896  23.021  13.905  1.00  0.00    -0.246 OA
BRANCH  69  71
ATOM     71  C   UNL     1      18.070  22.805  11.848  1.00  0.00     0.067 A 
ATOM     72  C   UNL     1      19.189  21.978  11.688  1.00  0.00     0.066 A 
ATOM     73  C   UNL     1      17.202  22.989  10.760  1.00  0.00     0.066 A 
ATOM     74  C   UNL     1      19.436  21.332  10.467  1.00  0.00     0.162 A 
ATOM     75  C   UNL     1      17.436  22.348   9.540  1.00  0.00     0.162 A 
ATOM     76  C   UNL     1      18.554  21.514   9.389  1.00  0.00     0.200 A 
BRANCH  74  77
ATOM     77  O   UNL     1      20.547  20.501  10.325  1.00  0.00    -0.504 OA
ATOM     78  H   UNL     1      20.530  19.693   9.711  1.00  0.00     0.293 HD
ENDBRANCH  74  77
BRANCH  75  79
ATOM     79  O   UNL     1      16.542  22.548   8.487  1.00  0.00    -0.504 OA
ATOM     80  H   UNL     1      16.832  22.518   7.519  1.00  0.00     0.293 HD
ENDBRANCH  75  79
BRANCH  76  81
ATOM     81  O   UNL     1      18.781  20.877   8.167  1.00  0.00    -0.502 OA
ATOM     82  H   UNL     1      19.201  21.346   7.379  1.00  0.00     0.293 HD
ENDBRANCH  76  81
ENDBRANCH  69  71
ENDBRANCH  68  69
ENDBRANCH   4  68
TORSDOF 31
ENDMDL
MODEL 4
REMARK VINA RESULT:    75.824      0.954      9.041
REMARK INTER + INTRA:         182.548
REMARK INTER:                 181.988
REMARK INTRA:                   0.561
REMARK UNBOUND:                 2.556
REMARK SMILES O=C(OC[C@H]1O[C@H](OC(=O)c2cc(O)c(O)c(O)c2)[C@H](OC(=O)c2cc(O)c(O)c(O)c2)[C@@H](OC(=O)c2cc(O)c(O)c(O)c2)[C@H]1OC(=O)c1cc(O)c(O)c(O)c1)c1cc(O)c(O)c(O)c1
REMARK SMILES IDX 5 1 46 2 33 3 20 4 7 5 6 6 4 7 3 8 2 9 1 10 59 11 60 12
REMARK SMILES IDX 61 13 67 14 63 15 65 16 62 17 64 19 66 21 47 23 48 24 49 25
REMARK SMILES IDX 50 26 58 27 51 28 56 29 52 30 54 31 57 32 53 34 55 36 34 38
REMARK SMILES IDX 35 39 36 40 37 41 45 42 38 43 43 44 39 45 41 46 44 47 40 49
REMARK SMILES IDX 42 51 8 53 9 54 10 55 11 56 19 57 12 58 17 59 13 60 15 61
REMARK SMILES IDX 18 62 14 64 16 66 21 68 22 69 23 70 24 71 32 72 25 73 30 74
REMARK SMILES IDX 26 75 28 76 31 77 27 79 29 81
REMARK H PARENT 62 18 64 20 66 22 57 33 53 35 55 37 44 48 40 50 42 52 18 63
REMARK H PARENT 14 65 16 67 31 78 27 80 29 82
REMARK Flexibility Score: inf
ROOT
ATOM      1  C   UNL     1      19.537  21.763  11.884  1.00  0.00     0.205 C 
ATOM      2  C   UNL     1      18.006  21.912  11.824  1.00  0.00     0.254 C 
ATOM      3  C   UNL     1      17.603  22.952  12.876  1.00  0.00     0.267 C 
ATOM      4  C   UNL     1      18.339  24.276  12.601  1.00  0.00     0.290 C 
ATOM      5  C   UNL     1      19.858  24.011  12.489  1.00  0.00     0.357 C 
ATOM      6  O   UNL     1      20.160  22.994  11.542  1.00  0.00    -0.329 OA
ENDROOT
BRANCH   1   7
ATOM      7  C   UNL     1      20.055  20.657  10.947  1.00  0.00     0.269 C 
BRANCH   7   8
ATOM      8  O   UNL     1      20.817  19.717  11.698  1.00  0.00    -0.459 OA
BRANCH   8   9
ATOM      9  C   UNL     1      22.219  19.721  11.703  1.00  0.00     0.338 C 
ATOM     10  O   UNL     1      22.848  18.980  12.512  1.00  0.00    -0.246 OA
BRANCH   9  11
ATOM     11  C   UNL     1      22.957  20.614  10.786  1.00  0.00     0.067 A 
ATOM     12  C   UNL     1      23.850  21.567  11.296  1.00  0.00     0.066 A 
ATOM     13  C   UNL     1      24.517  22.453  10.446  1.00  0.00     0.162 A 
ATOM     14  C   UNL     1      22.740  20.548   9.395  1.00  0.00     0.066 A 
ATOM     15  C   UNL     1      24.269  22.410   9.053  1.00  0.00     0.200 A 
ATOM     16  C   UNL     1      23.382  21.448   8.537  1.00  0.00     0.162 A 
BRANCH  13  17
ATOM     17  O   UNL     1      25.420  23.347  11.023  1.00  0.00    -0.504 OA
ATOM     18  H   UNL     1      25.775  24.161  10.553  1.00  0.00     0.293 HD
ENDBRANCH  13  17
BRANCH  15  19
ATOM     19  O   UNL     1      24.877  23.303   8.165  1.00  0.00    -0.502 OA
ATOM     20  H   UNL     1      24.525  23.522   7.245  1.00  0.00     0.293 HD
ENDBRANCH  15  19
BRANCH  16  21
ATOM     21  O   UNL     1      23.120  21.369   7.169  1.00  0.00    -0.504 OA
ATOM     22  H   UNL     1      22.241  21.676   6.772  1.00  0.00     0.293 HD
ENDBRANCH  16  21
ENDBRANCH   9  11
ENDBRANCH   8   9
ENDBRANCH   7   8
ENDBRANCH   1   7
BRANCH   2  23
ATOM     23  O   UNL     1      17.603  22.376  10.535  1.00  0.00    -0.452 OA
BRANCH  23  24
ATOM     24  C   UNL     1      18.049  21.827   9.325  1.00  0.00     0.338 C 
ATOM     25  O   UNL     1      18.368  20.611   9.269  1.00  0.00    -0.246 OA
BRANCH  24  26
ATOM     26  C   UNL     1      18.122  22.682   8.119  1.00  0.00     0.067 A 
ATOM     27  C   UNL     1      17.525  23.956   8.102  1.00  0.00     0.066 A 
ATOM     28  C   UNL     1      18.746  22.205   6.955  1.00  0.00     0.066 A 
ATOM     29  C   UNL     1      17.538  24.735   6.933  1.00  0.00     0.162 A 
ATOM     30  C   UNL     1      18.770  22.981   5.792  1.00  0.00     0.162 A 
ATOM     31  C   UNL     1      18.166  24.247   5.775  1.00  0.00     0.200 A 
BRANCH  29  32
ATOM     32  O   UNL     1      16.926  25.986   6.917  1.00  0.00    -0.504 OA
ATOM     33  H   UNL     1      15.931  26.086   6.751  1.00  0.00     0.293 HD
ENDBRANCH  29  32
BRANCH  30  34
ATOM     34  O   UNL     1      19.396  22.472   4.657  1.00  0.00    -0.504 OA
ATOM     35  H   UNL     1      20.168  21.814   4.715  1.00  0.00     0.293 HD
ENDBRANCH  30  34
BRANCH  31  36
ATOM     36  O   UNL     1      18.191  24.998   4.601  1.00  0.00    -0.502 OA
ATOM     37  H   UNL     1      17.349  25.250   4.101  1.00  0.00     0.293 HD
ENDBRANCH  31  36
ENDBRANCH  24  26
ENDBRANCH  23  24
ENDBRANCH   2  23
BRANCH   3  38
ATOM     38  O   UNL     1      16.188  23.137  12.876  1.00  0.00    -0.450 OA
BRANCH  38  39
ATOM     39  C   UNL     1      15.297  22.148  13.316  1.00  0.00     0.338 C 
ATOM     40  O   UNL     1      14.067  22.245  13.054  1.00  0.00    -0.246 OA
BRANCH  39  41
ATOM     41  C   UNL     1      15.798  20.979  14.072  1.00  0.00     0.067 A 
ATOM     42  C   UNL     1      15.220  19.711  13.884  1.00  0.00     0.066 A 
ATOM     43  C   UNL     1      16.858  21.122  14.981  1.00  0.00     0.066 A 
ATOM     44  C   UNL     1      15.689  18.604  14.596  1.00  0.00     0.162 A 
ATOM     45  C   UNL     1      17.334  20.023  15.703  1.00  0.00     0.162 A 
ATOM     46  C   UNL     1      16.738  18.748  15.518  1.00  0.00     0.200 A 
BRANCH  44  47
ATOM     47  O   UNL     1      15.110  17.351  14.386  1.00  0.00    -0.504 OA
ATOM     48  H   UNL     1      14.508  16.918  15.082  1.00  0.00     0.293 HD
ENDBRANCH  44  47
BRANCH  45  49
ATOM     49  O   UNL     1      18.390  20.240  16.589  1.00  0.00    -0.504 OA
ATOM     50  H   UNL     1      18.528  21.097  17.104  1.00  0.00     0.293 HD
ENDBRANCH  45  49
BRANCH  46  51
ATOM     51  O   UNL     1      17.147  17.612  16.222  1.00  0.00    -0.502 OA
ATOM     52  H   UNL     1      17.678  16.855  15.807  1.00  0.00     0.293 HD
ENDBRANCH  46  51
ENDBRANCH  39  41
ENDBRANCH  38  39
ENDBRANCH   3  38
BRANCH   5  53
ATOM     53  O   UNL     1      20.405  23.695  13.768  1.00  0.00    -0.428 OA
BRANCH  53  54
ATOM     54  C   UNL     1      21.714  23.235  13.952  1.00  0.00     0.340 C 
ATOM     55  O   UNL     1      22.441  22.956  12.965  1.00  0.00    -0.246 OA
BRANCH  54  56
ATOM     56  C   UNL     1      22.240  23.087  15.319  1.00  0.00     0.067 A 
ATOM     57  C   UNL     1      22.548  21.822  15.835  1.00  0.00     0.066 A 
ATOM     58  C   UNL     1      22.452  24.220  16.112  1.00  0.00     0.066 A 
ATOM     59  C   UNL     1      23.093  21.680  17.118  1.00  0.00     0.162 A 
ATOM     60  C   UNL     1      22.967  24.100  17.403  1.00  0.00     0.162 A 
ATOM     61  C   UNL     1      23.309  22.832  17.916  1.00  0.00     0.200 A 
BRANCH  59  62
ATOM     62  O   UNL     1      23.405  20.386  17.546  1.00  0.00    -0.504 OA
ATOM     63  H   UNL     1      24.293  19.929  17.370  1.00  0.00     0.293 HD
ENDBRANCH  59  62
BRANCH  60  64
ATOM     64  O   UNL     1      23.125  25.257  18.166  1.00  0.00    -0.504 OA
ATOM     65  H   UNL     1      22.359  25.659  18.697  1.00  0.00     0.293 HD
ENDBRANCH  60  64
BRANCH  61  66
ATOM     66  O   UNL     1      23.859  22.755  19.204  1.00  0.00    -0.502 OA
ATOM     67  H   UNL     1      24.825  22.527  19.396  1.00  0.00     0.293 HD
ENDBRANCH  61  66
ENDBRANCH  54  56
ENDBRANCH  53  54
ENDBRANCH   5  53
BRANCH   4  68
ATOM     68  O   UNL     1      18.126  25.189  13.676  1.00  0.00    -0.448 OA
BRANCH  68  69
ATOM     69  C   UNL     1      18.080  26.578  13.530  1.00  0.00     0.339 C 
ATOM     70  O   UNL     1      18.668  27.136  12.562  1.00  0.00    -0.246 OA
BRANCH  69  71
ATOM     71  C   UNL     1      17.351  27.391  14.526  1.00  0.00     0.067 A 
ATOM     72  C   UNL     1      17.728  27.387  15.875  1.00  0.00     0.066 A 
ATOM     73  C   UNL     1      16.267  28.191  14.128  1.00  0.00     0.066 A 
ATOM     74  C   UNL     1      17.047  28.177  16.814  1.00  0.00     0.162 A 
ATOM     75  C   UNL     1      15.584  28.984  15.054  1.00  0.00     0.162 A 
ATOM     76  C   UNL     1      15.972  28.982  16.402  1.00  0.00     0.200 A 
BRANCH  74  77
ATOM     77  O   UNL     1      17.442  28.173  18.152  1.00  0.00    -0.504 OA
ATOM     78  H   UNL     1      16.993  28.770  18.839  1.00  0.00     0.293 HD
ENDBRANCH  74  77
BRANCH  75  79
ATOM     79  O   UNL     1      14.520  29.774  14.615  1.00  0.00    -0.504 OA
ATOM     80  H   UNL     1      14.205  30.588  15.125  1.00  0.00     0.293 HD
ENDBRANCH  75  79
BRANCH  76  81
ATOM     81  O   UNL     1      15.285  29.777  17.321  1.00  0.00    -0.502 OA
ATOM     82  H   UNL     1      14.396  30.206  17.110  1.00  0.00     0.293 HD
ENDBRANCH  76  81
ENDBRANCH  69  71
ENDBRANCH  68  69
ENDBRANCH   4  68
TORSDOF 31
ENDMDL
MODEL 5
REMARK VINA RESULT:    76.035      2.607      6.183
REMARK INTER + INTRA:         183.049
REMARK INTER:                 184.208
REMARK INTRA:                  -1.159
REMARK UNBOUND:                 2.556
REMARK SMILES O=C(OC[C@H]1O[C@H](OC(=O)c2cc(O)c(O)c(O)c2)[C@H](OC(=O)c2cc(O)c(O)c(O)c2)[C@@H](OC(=O)c2cc(O)c(O)c(O)c2)[C@H]1OC(=O)c1cc(O)c(O)c(O)c1)c1cc(O)c(O)c(O)c1
REMARK SMILES IDX 5 1 46 2 33 3 20 4 7 5 6 6 4 7 3 8 2 9 1 10 59 11 60 12
REMARK SMILES IDX 61 13 67 14 63 15 65 16 62 17 64 19 66 21 47 23 48 24 49 25
REMARK SMILES IDX 50 26 58 27 51 28 56 29 52 30 54 31 57 32 53 34 55 36 34 38
REMARK SMILES IDX 35 39 36 40 37 41 45 42 38 43 43 44 39 45 41 46 44 47 40 49
REMARK SMILES IDX 42 51 8 53 9 54 10 55 11 56 19 57 12 58 17 59 13 60 15 61
REMARK SMILES IDX 18 62 14 64 16 66 21 68 22 69 23 70 24 71 32 72 25 73 30 74
REMARK SMILES IDX 26 75 28 76 31 77 27 79 29 81
REMARK H PARENT 62 18 64 20 66 22 57 33 53 35 55 37 44 48 40 50 42 52 18 63
REMARK H PARENT 14 65 16 67 31 78 27 80 29 82
REMARK Flexibility Score: inf
ROOT
ATOM      1  C   UNL     1      21.386  25.358  13.722  1.00  0.00     0.205 C 
ATOM      2  C   UNL     1      21.063  23.884  13.419  1.00  0.00     0.254 C 
ATOM      3  C   UNL     1      22.187  23.033  14.020  1.00  0.00     0.267 C 
ATOM      4  C   UNL     1      22.301  23.318  15.529  1.00  0.00     0.290 C 
ATOM      5  C   UNL     1      22.435  24.840  15.761  1.00  0.00     0.357 C 
ATOM      6  O   UNL     1      21.395  25.576  15.127  1.00  0.00    -0.329 OA
ENDROOT
BRANCH   1   7
ATOM      7  C   UNL     1      20.382  26.324  13.068  1.00  0.00     0.269 C 
BRANCH   7   8
ATOM      8  O   UNL     1      19.545  26.891  14.071  1.00  0.00    -0.459 OA
BRANCH   8   9
ATOM      9  C   UNL     1      18.428  27.678  13.760  1.00  0.00     0.338 C 
ATOM     10  O   UNL     1      18.197  27.997  12.558  1.00  0.00    -0.246 OA
BRANCH   9  11
ATOM     11  C   UNL     1      17.542  28.161  14.839  1.00  0.00     0.067 A 
ATOM     12  C   UNL     1      16.483  29.032  14.547  1.00  0.00     0.066 A 
ATOM     13  C   UNL     1      15.669  29.539  15.562  1.00  0.00     0.162 A 
ATOM     14  C   UNL     1      17.777  27.788  16.177  1.00  0.00     0.066 A 
ATOM     15  C   UNL     1      15.929  29.193  16.909  1.00  0.00     0.200 A 
ATOM     16  C   UNL     1      16.984  28.309  17.205  1.00  0.00     0.162 A 
BRANCH  13  17
ATOM     17  O   UNL     1      14.612  30.370  15.189  1.00  0.00    -0.504 OA
ATOM     18  H   UNL     1      13.813  30.551  15.773  1.00  0.00     0.293 HD
ENDBRANCH  13  17
BRANCH  15  19
ATOM     19  O   UNL     1      15.172  29.706  17.966  1.00  0.00    -0.502 OA
ATOM     20  H   UNL     1      14.406  29.221  18.409  1.00  0.00     0.293 HD
ENDBRANCH  15  19
BRANCH  16  21
ATOM     21  O   UNL     1      17.265  27.938  18.520  1.00  0.00    -0.504 OA
ATOM     22  H   UNL     1      17.557  28.611  19.218  1.00  0.00     0.293 HD
ENDBRANCH  16  21
ENDBRANCH   9  11
ENDBRANCH   8   9
ENDBRANCH   7   8
ENDBRANCH   1   7
BRANCH   2  23
ATOM     23  O   UNL     1      19.825  23.512  14.027  1.00  0.00    -0.452 OA
BRANCH  23  24
ATOM     24  C   UNL     1      18.638  23.279  13.320  1.00  0.00     0.338 C 
ATOM     25  O   UNL     1      17.532  23.593  13.830  1.00  0.00    -0.246 OA
BRANCH  24  26
ATOM     26  C   UNL     1      18.701  22.681  11.967  1.00  0.00     0.067 A 
ATOM     27  C   UNL     1      17.756  23.024  10.982  1.00  0.00     0.066 A 
ATOM     28  C   UNL     1      19.678  21.717  11.669  1.00  0.00     0.066 A 
ATOM     29  C   UNL     1      17.780  22.402   9.723  1.00  0.00     0.162 A 
ATOM     30  C   UNL     1      19.712  21.103  10.413  1.00  0.00     0.162 A 
ATOM     31  C   UNL     1      18.763  21.440   9.437  1.00  0.00     0.200 A 
BRANCH  29  32
ATOM     32  O   UNL     1      16.829  22.731   8.761  1.00  0.00    -0.504 OA
ATOM     33  H   UNL     1      16.837  22.305   7.841  1.00  0.00     0.293 HD
ENDBRANCH  29  32
BRANCH  30  34
ATOM     34  O   UNL     1      20.695  20.150  10.157  1.00  0.00    -0.504 OA
ATOM     35  H   UNL     1      20.786  19.698   9.253  1.00  0.00     0.293 HD
ENDBRANCH  30  34
BRANCH  31  36
ATOM     36  O   UNL     1      18.808  20.807   8.196  1.00  0.00    -0.502 OA
ATOM     37  H   UNL     1      17.989  20.704   7.611  1.00  0.00     0.293 HD
ENDBRANCH  31  36
ENDBRANCH  24  26
ENDBRANCH  23  24
ENDBRANCH   2  23
BRANCH   3  38
ATOM     38  O   UNL     1      21.951  21.648  13.771  1.00  0.00    -0.450 OA
BRANCH  38  39
ATOM     39  C   UNL     1      22.793  20.871  12.962  1.00  0.00     0.338 C 
ATOM     40  O   UNL     1      23.089  19.695  13.306  1.00  0.00    -0.246 OA
BRANCH  39  41
ATOM     41  C   UNL     1      23.320  21.421  11.694  1.00  0.00     0.067 A 
ATOM     42  C   UNL     1      24.327  22.401  11.708  1.00  0.00     0.066 A 
ATOM     43  C   UNL     1      22.823  20.966  10.462  1.00  0.00     0.066 A 
ATOM     44  C   UNL     1      24.827  22.924  10.513  1.00  0.00     0.162 A 
ATOM     45  C   UNL     1      23.312  21.484   9.258  1.00  0.00     0.162 A 
ATOM     46  C   UNL     1      24.319  22.483   9.280  1.00  0.00     0.200 A 
BRANCH  44  47
ATOM     47  O   UNL     1      25.837  23.888  10.547  1.00  0.00    -0.504 OA
ATOM     48  H   UNL     1      25.931  24.535  11.327  1.00  0.00     0.293 HD
ENDBRANCH  44  47
BRANCH  45  49
ATOM     49  O   UNL     1      22.770  20.985   8.074  1.00  0.00    -0.504 OA
ATOM     50  H   UNL     1      23.300  20.487   7.374  1.00  0.00     0.293 HD
ENDBRANCH  45  49
BRANCH  46  51
ATOM     51  O   UNL     1      24.837  23.062   8.118  1.00  0.00    -0.502 OA
ATOM     52  H   UNL     1      25.667  22.723   7.644  1.00  0.00     0.293 HD
ENDBRANCH  46  51
ENDBRANCH  39  41
ENDBRANCH  38  39
ENDBRANCH   3  38
BRANCH   5  53
ATOM     53  O   UNL     1      23.717  25.299  15.334  1.00  0.00    -0.428 OA
BRANCH  53  54
ATOM     54  C   UNL     1      24.722  25.703  16.220  1.00  0.00     0.340 C 
ATOM     55  O   UNL     1      24.476  26.527  17.137  1.00  0.00    -0.246 OA
BRANCH  54  56
ATOM     56  C   UNL     1      26.078  25.149  16.073  1.00  0.00     0.067 A 
ATOM     57  C   UNL     1      26.411  23.910  16.635  1.00  0.00     0.066 A 
ATOM     58  C   UNL     1      27.046  25.856  15.353  1.00  0.00     0.066 A 
ATOM     59  C   UNL     1      27.685  23.357  16.458  1.00  0.00     0.162 A 
ATOM     60  C   UNL     1      28.331  25.338  15.188  1.00  0.00     0.162 A 
ATOM     61  C   UNL     1      28.663  24.076  15.724  1.00  0.00     0.200 A 
BRANCH  59  62
ATOM     62  O   UNL     1      27.928  22.100  17.022  1.00  0.00    -0.504 OA
ATOM     63  H   UNL     1      28.853  21.732  17.210  1.00  0.00     0.293 HD
ENDBRANCH  59  62
BRANCH  60  64
ATOM     64  O   UNL     1      29.271  26.099  14.493  1.00  0.00    -0.504 OA
ATOM     65  H   UNL     1      30.243  26.146  14.780  1.00  0.00     0.293 HD
ENDBRANCH  60  64
BRANCH  61  66
ATOM     66  O   UNL     1      29.953  23.572  15.506  1.00  0.00    -0.502 OA
ATOM     67  H   UNL     1      30.285  23.228  14.615  1.00  0.00     0.293 HD
ENDBRANCH  61  66
ENDBRANCH  54  56
ENDBRANCH  53  54
ENDBRANCH   5  53
BRANCH   4  68
ATOM     68  O   UNL     1      23.461  22.683  16.062  1.00  0.00    -0.448 OA
BRANCH  68  69
ATOM     69  C   UNL     1      23.664  22.430  17.422  1.00  0.00     0.339 C 
ATOM     70  O   UNL     1      23.896  23.382  18.219  1.00  0.00    -0.246 OA
BRANCH  69  71
ATOM     71  C   UNL     1      23.620  21.039  17.918  1.00  0.00     0.067 A 
ATOM     72  C   UNL     1      23.553  20.765  19.290  1.00  0.00     0.066 A 
ATOM     73  C   UNL     1      23.637  19.966  17.013  1.00  0.00     0.066 A 
ATOM     74  C   UNL     1      23.488  19.443  19.756  1.00  0.00     0.162 A 
ATOM     75  C   UNL     1      23.570  18.645  17.466  1.00  0.00     0.162 A 
ATOM     76  C   UNL     1      23.494  18.378  18.841  1.00  0.00     0.200 A 
BRANCH  74  77
ATOM     77  O   UNL     1      23.408  19.185  21.125  1.00  0.00    -0.504 OA
ATOM     78  H   UNL     1      22.598  18.728  21.532  1.00  0.00     0.293 HD
ENDBRANCH  74  77
BRANCH  75  79
ATOM     79  O   UNL     1      23.577  17.607  16.532  1.00  0.00    -0.504 OA
ATOM     80  H   UNL     1      23.667  17.774  15.539  1.00  0.00     0.293 HD
ENDBRANCH  75  79
BRANCH  76  81
ATOM     81  O   UNL     1      23.427  17.056  19.286  1.00  0.00    -0.502 OA
ATOM     82  H   UNL     1      24.166  16.625  19.821  1.00  0.00     0.293 HD
ENDBRANCH  76  81
ENDBRANCH  69  71
ENDBRANCH  68  69
ENDBRANCH   4  68
TORSDOF 31
ENDMDL
MODEL 6
REMARK VINA RESULT:    76.377      1.273      2.092
REMARK INTER + INTRA:         183.860
REMARK INTER:                 183.395
REMARK INTRA:                   0.465
REMARK UNBOUND:                 2.556
REMARK SMILES O=C(OC[C@H]1O[C@H](OC(=O)c2cc(O)c(O)c(O)c2)[C@H](OC(=O)c2cc(O)c(O)c(O)c2)[C@@H](OC(=O)c2cc(O)c(O)c(O)c2)[C@H]1OC(=O)c1cc(O)c(O)c(O)c1)c1cc(O)c(O)c(O)c1
REMARK SMILES IDX 5 1 46 2 33 3 20 4 7 5 6 6 4 7 3 8 2 9 1 10 59 11 60 12
REMARK SMILES IDX 61 13 67 14 63 15 65 16 62 17 64 19 66 21 47 23 48 24 49 25
REMARK SMILES IDX 50 26 58 27 51 28 56 29 52 30 54 31 57 32 53 34 55 36 34 38
REMARK SMILES IDX 35 39 36 40 37 41 45 42 38 43 43 44 39 45 41 46 44 47 40 49
REMARK SMILES IDX 42 51 8 53 9 54 10 55 11 56 19 57 12 58 17 59 13 60 15 61
REMARK SMILES IDX 18 62 14 64 16 66 21 68 22 69 23 70 24 71 32 72 25 73 30 74
REMARK SMILES IDX 26 75 28 76 31 77 27 79 29 81
REMARK H PARENT 62 18 64 20 66 22 57 33 53 35 55 37 44 48 40 50 42 52 18 63
REMARK H PARENT 14 65 16 67 31 78 27 80 29 82
REMARK Flexibility Score: inf
ROOT
ATOM      1  C   UNL     1      17.818  23.866  13.134  1.00  0.00     0.205 C 
ATOM      2  C   UNL     1      17.014  23.449  11.889  1.00  0.00     0.254 C 
ATOM      3  C   UNL     1      18.018  23.005  10.820  1.00  0.00     0.267 C 
ATOM      4  C   UNL     1      18.891  21.863  11.373  1.00  0.00     0.290 C 
ATOM      5  C   UNL     1      19.515  22.293  12.720  1.00  0.00     0.357 C 
ATOM      6  O   UNL     1      18.537  22.752  13.646  1.00  0.00    -0.329 OA
ENDROOT
BRANCH   1   7
ATOM      7  C   UNL     1      16.922  24.442  14.244  1.00  0.00     0.269 C 
BRANCH   7   8
ATOM      8  O   UNL     1      17.629  25.459  14.946  1.00  0.00    -0.459 OA
BRANCH   8   9
ATOM      9  C   UNL     1      17.530  26.815  14.603  1.00  0.00     0.338 C 
ATOM     10  O   UNL     1      17.966  27.216  13.486  1.00  0.00    -0.246 OA
BRANCH   9  11
ATOM     11  C   UNL     1      16.948  27.778  15.561  1.00  0.00     0.067 A 
ATOM     12  C   UNL     1      17.100  27.582  16.940  1.00  0.00     0.066 A 
ATOM     13  C   UNL     1      16.511  28.454  17.859  1.00  0.00     0.162 A 
ATOM     14  C   UNL     1      16.196  28.878  15.100  1.00  0.00     0.066 A 
ATOM     15  C   UNL     1      15.727  29.537  17.395  1.00  0.00     0.200 A 
ATOM     16  C   UNL     1      15.581  29.743  16.011  1.00  0.00     0.162 A 
BRANCH  13  17
ATOM     17  O   UNL     1      16.740  28.217  19.215  1.00  0.00    -0.504 OA
ATOM     18  H   UNL     1      16.406  27.403  19.702  1.00  0.00     0.293 HD
ENDBRANCH  13  17
BRANCH  15  19
ATOM     19  O   UNL     1      15.080  30.413  18.273  1.00  0.00    -0.502 OA
ATOM     20  H   UNL     1      14.161  30.798  18.121  1.00  0.00     0.293 HD
ENDBRANCH  15  19
BRANCH  16  21
ATOM     21  O   UNL     1      14.823  30.805  15.517  1.00  0.00    -0.504 OA
ATOM     22  H   UNL     1      14.554  30.865  14.542  1.00  0.00     0.293 HD
ENDBRANCH  16  21
ENDBRANCH   9  11
ENDBRANCH   8   9
ENDBRANCH   7   8
ENDBRANCH   1   7
BRANCH   2  23
ATOM     23  O   UNL     1      16.152  22.352  12.200  1.00  0.00    -0.452 OA
BRANCH  23  24
ATOM     24  C   UNL     1      15.521  22.174  13.439  1.00  0.00     0.338 C 
ATOM     25  O   UNL     1      14.474  22.818  13.706  1.00  0.00    -0.246 OA
BRANCH  24  26
ATOM     26  C   UNL     1      16.084  21.211  14.412  1.00  0.00     0.067 A 
ATOM     27  C   UNL     1      17.006  21.630  15.389  1.00  0.00     0.066 A 
ATOM     28  C   UNL     1      15.743  19.851  14.334  1.00  0.00     0.066 A 
ATOM     29  C   UNL     1      17.589  20.700  16.266  1.00  0.00     0.162 A 
ATOM     30  C   UNL     1      16.314  18.924  15.211  1.00  0.00     0.162 A 
ATOM     31  C   UNL     1      17.240  19.343  16.178  1.00  0.00     0.200 A 
BRANCH  29  32
ATOM     32  O   UNL     1      18.517  21.119  17.216  1.00  0.00    -0.504 OA
ATOM     33  H   UNL     1      19.461  20.751  17.232  1.00  0.00     0.293 HD
ENDBRANCH  29  32
BRANCH  30  34
ATOM     34  O   UNL     1      15.952  17.583  15.101  1.00  0.00    -0.504 OA
ATOM     35  H   UNL     1      16.639  16.848  14.959  1.00  0.00     0.293 HD
ENDBRANCH  30  34
BRANCH  31  36
ATOM     36  O   UNL     1      17.805  18.399  17.034  1.00  0.00    -0.502 OA
ATOM     37  H   UNL     1      18.804  18.322  17.170  1.00  0.00     0.293 HD
ENDBRANCH  31  36
ENDBRANCH  24  26
ENDBRANCH  23  24
ENDBRANCH   2  23
BRANCH   3  38
ATOM     38  O   UNL     1      17.336  22.605   9.632  1.00  0.00    -0.450 OA
BRANCH  38  39
ATOM     39  C   UNL     1      18.013  22.230   8.462  1.00  0.00     0.338 C 
ATOM     40  O   UNL     1      18.550  21.092   8.382  1.00  0.00    -0.246 OA
BRANCH  39  41
ATOM     41  C   UNL     1      18.080  23.158   7.312  1.00  0.00     0.067 A 
ATOM     42  C   UNL     1      18.812  22.813   6.162  1.00  0.00     0.066 A 
ATOM     43  C   UNL     1      17.411  24.392   7.355  1.00  0.00     0.066 A 
ATOM     44  C   UNL     1      18.880  23.687   5.074  1.00  0.00     0.162 A 
ATOM     45  C   UNL     1      17.474  25.277   6.274  1.00  0.00     0.162 A 
ATOM     46  C   UNL     1      18.225  24.928   5.121  1.00  0.00     0.200 A 
BRANCH  44  47
ATOM     47  O   UNL     1      19.600  23.320   3.936  1.00  0.00    -0.504 OA
ATOM     48  H   UNL     1      20.236  23.967   3.476  1.00  0.00     0.293 HD
ENDBRANCH  44  47
BRANCH  45  49
ATOM     49  O   UNL     1      16.785  26.485   6.388  1.00  0.00    -0.504 OA
ATOM     50  H   UNL     1      15.897  26.674   5.947  1.00  0.00     0.293 HD
ENDBRANCH  45  49
BRANCH  46  51
ATOM     51  O   UNL     1      18.351  25.773   4.015  1.00  0.00    -0.502 OA
ATOM     52  H   UNL     1      17.864  25.626   3.138  1.00  0.00     0.293 HD
ENDBRANCH  46  51
ENDBRANCH  39  41
ENDBRANCH  38  39
ENDBRANCH   3  38
BRANCH   5  53
ATOM     53  O   UNL     1      20.522  23.282  12.510  1.00  0.00    -0.428 OA
BRANCH  53  54
ATOM     54  C   UNL     1      20.913  24.201  13.491  1.00  0.00     0.340 C 
ATOM     55  O   UNL     1      20.589  25.412  13.401  1.00  0.00    -0.246 OA
BRANCH  54  56
ATOM     56  C   UNL     1      21.707  23.735  14.639  1.00  0.00     0.067 A 
ATOM     57  C   UNL     1      22.080  24.619  15.660  1.00  0.00     0.066 A 
ATOM     58  C   UNL     1      22.086  22.390  14.725  1.00  0.00     0.066 A 
ATOM     59  C   UNL     1      22.795  24.170  16.777  1.00  0.00     0.162 A 
ATOM     60  C   UNL     1      22.824  21.927  15.815  1.00  0.00     0.162 A 
ATOM     61  C   UNL     1      23.173  22.805  16.862  1.00  0.00     0.200 A 
BRANCH  59  62
ATOM     62  O   UNL     1      23.098  25.108  17.769  1.00  0.00    -0.504 OA
ATOM     63  H   UNL     1      23.667  24.908  18.584  1.00  0.00     0.293 HD
ENDBRANCH  59  62
BRANCH  60  64
ATOM     64  O   UNL     1      23.208  20.586  15.836  1.00  0.00    -0.504 OA
ATOM     65  H   UNL     1      24.158  20.303  16.053  1.00  0.00     0.293 HD
ENDBRANCH  60  64
BRANCH  61  66
ATOM     66  O   UNL     1      23.883  22.295  17.959  1.00  0.00    -0.502 OA
ATOM     67  H   UNL     1      24.883  22.381  18.077  1.00  0.00     0.293 HD
ENDBRANCH  61  66
ENDBRANCH  54  56
ENDBRANCH  53  54
ENDBRANCH   5  53
BRANCH   4  68
ATOM     68  O   UNL     1      19.951  21.571  10.465  1.00  0.00    -0.448 OA
BRANCH  68  69
ATOM     69  C   UNL     1      20.762  20.435  10.542  1.00  0.00     0.339 C 
ATOM     70  O   UNL     1      20.371  19.340  10.049  1.00  0.00    -0.246 OA
BRANCH  69  71
ATOM     71  C   UNL     1      22.074  20.521  11.217  1.00  0.00     0.067 A 
ATOM     72  C   UNL     1      22.470  19.553  12.149  1.00  0.00     0.066 A 
ATOM     73  C   UNL     1      22.951  21.578  10.924  1.00  0.00     0.066 A 
ATOM     74  C   UNL     1      23.725  19.626  12.771  1.00  0.00     0.162 A 
ATOM     75  C   UNL     1      24.205  21.659  11.535  1.00  0.00     0.162 A 
ATOM     76  C   UNL     1      24.599  20.682  12.462  1.00  0.00     0.200 A 
BRANCH  74  77
ATOM     77  O   UNL     1      24.112  18.648  13.688  1.00  0.00    -0.504 OA
ATOM     78  H   UNL     1      24.802  17.943  13.452  1.00  0.00     0.293 HD
ENDBRANCH  74  77
BRANCH  75  79
ATOM     79  O   UNL     1      25.052  22.719  11.207  1.00  0.00    -0.504 OA
ATOM     80  H   UNL     1      25.353  22.896  10.258  1.00  0.00     0.293 HD
ENDBRANCH  75  79
BRANCH  76  81
ATOM     81  O   UNL     1      25.853  20.769  13.068  1.00  0.00    -0.502 OA
ATOM     82  H   UNL     1      25.995  21.219  13.960  1.00  0.00     0.293 HD
ENDBRANCH  76  81
ENDBRANCH  69  71
ENDBRANCH  68  69
ENDBRANCH   4  68
TORSDOF 31
ENDMDL
MODEL 7
REMARK VINA RESULT:    76.708      1.754      2.849
REMARK INTER + INTRA:         184.645
REMARK INTER:                 184.116
REMARK INTRA:                   0.528
REMARK UNBOUND:                 2.556
REMARK SMILES O=C(OC[C@H]1O[C@H](OC(=O)c2cc(O)c(O)c(O)c2)[C@H](OC(=O)c2cc(O)c(O)c(O)c2)[C@@H](OC(=O)c2cc(O)c(O)c(O)c2)[C@H]1OC(=O)c1cc(O)c(O)c(O)c1)c1cc(O)c(O)c(O)c1
REMARK SMILES IDX 5 1 46 2 33 3 20 4 7 5 6 6 4 7 3 8 2 9 1 10 59 11 60 12
REMARK SMILES IDX 61 13 67 14 63 15 65 16 62 17 64 19 66 21 47 23 48 24 49 25
REMARK SMILES IDX 50 26 58 27 51 28 56 29 52 30 54 31 57 32 53 34 55 36 34 38
REMARK SMILES IDX 35 39 36 40 37 41 45 42 38 43 43 44 39 45 41 46 44 47 40 49
REMARK SMILES IDX 42 51 8 53 9 54 10 55 11 56 19 57 12 58 17 59 13 60 15 61
REMARK SMILES IDX 18 62 14 64 16 66 21 68 22 69 23 70 24 71 32 72 25 73 30 74
REMARK SMILES IDX 26 75 28 76 31 77 27 79 29 81
REMARK H PARENT 62 18 64 20 66 22 57 33 53 35 55 37 44 48 40 50 42 52 18 63
REMARK H PARENT 14 65 16 67 31 78 27 80 29 82
REMARK Flexibility Score: inf
ROOT
ATOM      1  C   UNL     1      18.140  23.816  12.989  1.00  0.00     0.205 C 
ATOM      2  C   UNL     1      17.397  23.278  11.752  1.00  0.00     0.254 C 
ATOM      3  C   UNL     1      18.452  22.740  10.780  1.00  0.00     0.267 C 
ATOM      4  C   UNL     1      19.298  21.661  11.480  1.00  0.00     0.290 C 
ATOM      5  C   UNL     1      19.856  22.221  12.809  1.00  0.00     0.357 C 
ATOM      6  O   UNL     1      18.834  22.759  13.638  1.00  0.00    -0.329 OA
ENDROOT
BRANCH   1   7
ATOM      7  C   UNL     1      17.189  24.490  13.995  1.00  0.00     0.269 C 
BRANCH   7   8
ATOM      8  O   UNL     1      17.894  25.500  14.710  1.00  0.00    -0.459 OA
BRANCH   8   9
ATOM      9  C   UNL     1      17.746  26.864  14.424  1.00  0.00     0.338 C 
ATOM     10  O   UNL     1      18.188  27.332  13.336  1.00  0.00    -0.246 OA
BRANCH   9  11
ATOM     11  C   UNL     1      17.103  27.759  15.409  1.00  0.00     0.067 A 
ATOM     12  C   UNL     1      17.260  27.528  16.782  1.00  0.00     0.066 A 
ATOM     13  C   UNL     1      16.616  28.333  17.724  1.00  0.00     0.162 A 
ATOM     14  C   UNL     1      16.289  28.827  14.979  1.00  0.00     0.066 A 
ATOM     15  C   UNL     1      15.771  29.381  17.291  1.00  0.00     0.200 A 
ATOM     16  C   UNL     1      15.619  29.624  15.913  1.00  0.00     0.162 A 
BRANCH  13  17
ATOM     17  O   UNL     1      16.853  28.065  19.073  1.00  0.00    -0.504 OA
ATOM     18  H   UNL     1      16.123  27.978  19.760  1.00  0.00     0.293 HD
ENDBRANCH  13  17
BRANCH  15  19
ATOM     19  O   UNL     1      15.069  30.189  18.192  1.00  0.00    -0.502 OA
ATOM     20  H   UNL     1      14.129  30.524  18.047  1.00  0.00     0.293 HD
ENDBRANCH  15  19
BRANCH  16  21
ATOM     21  O   UNL     1      14.801  30.654  15.448  1.00  0.00    -0.504 OA
ATOM     22  H   UNL     1      14.534  30.730  14.475  1.00  0.00     0.293 HD
ENDBRANCH  16  21
ENDBRANCH   9  11
ENDBRANCH   8   9
ENDBRANCH   7   8
ENDBRANCH   1   7
BRANCH   2  23
ATOM     23  O   UNL     1      16.523  22.211  12.124  1.00  0.00    -0.452 OA
BRANCH  23  24
ATOM     24  C   UNL     1      15.833  22.146  13.343  1.00  0.00     0.338 C 
ATOM     25  O   UNL     1      14.803  22.848  13.518  1.00  0.00    -0.246 OA
BRANCH  24  26
ATOM     26  C   UNL     1      16.315  21.236  14.406  1.00  0.00     0.067 A 
ATOM     27  C   UNL     1      17.157  21.707  15.430  1.00  0.00     0.066 A 
ATOM     28  C   UNL     1      15.979  19.873  14.371  1.00  0.00     0.066 A 
ATOM     29  C   UNL     1      17.668  20.824  16.397  1.00  0.00     0.162 A 
ATOM     30  C   UNL     1      16.476  18.993  15.337  1.00  0.00     0.162 A 
ATOM     31  C   UNL     1      17.323  19.463  16.352  1.00  0.00     0.200 A 
BRANCH  29  32
ATOM     32  O   UNL     1      18.518  21.293  17.395  1.00  0.00    -0.504 OA
ATOM     33  H   UNL     1      19.457  20.928  17.505  1.00  0.00     0.293 HD
ENDBRANCH  29  32
BRANCH  30  34
ATOM     34  O   UNL     1      16.121  17.648  15.267  1.00  0.00    -0.504 OA
ATOM     35  H   UNL     1      16.815  16.908  15.218  1.00  0.00     0.293 HD
ENDBRANCH  30  34
BRANCH  31  36
ATOM     36  O   UNL     1      17.816  18.566  17.297  1.00  0.00    -0.502 OA
ATOM     37  H   UNL     1      18.802  18.497  17.515  1.00  0.00     0.293 HD
ENDBRANCH  31  36
ENDBRANCH  24  26
ENDBRANCH  23  24
ENDBRANCH   2  23
BRANCH   3  38
ATOM     38  O   UNL     1      17.829  22.226   9.603  1.00  0.00    -0.450 OA
BRANCH  38  39
ATOM     39  C   UNL     1      18.537  21.986   8.417  1.00  0.00     0.338 C 
ATOM     40  O   UNL     1      19.251  20.952   8.306  1.00  0.00    -0.246 OA
BRANCH  39  41
ATOM     41  C   UNL     1      18.432  22.932   7.284  1.00  0.00     0.067 A 
ATOM     42  C   UNL     1      19.016  22.622   6.044  1.00  0.00     0.066 A 
ATOM     43  C   UNL     1      17.745  24.147   7.435  1.00  0.00     0.066 A 
ATOM     44  C   UNL     1      18.921  23.513   4.971  1.00  0.00     0.162 A 
ATOM     45  C   UNL     1      17.646  25.049   6.371  1.00  0.00     0.162 A 
ATOM     46  C   UNL     1      18.249  24.736   5.125  1.00  0.00     0.200 A 
BRANCH  44  47
ATOM     47  O   UNL     1      19.496  23.182   3.743  1.00  0.00    -0.504 OA
ATOM     48  H   UNL     1      19.381  22.259   3.331  1.00  0.00     0.293 HD
ENDBRANCH  44  47
BRANCH  45  49
ATOM     49  O   UNL     1      16.949  26.237   6.595  1.00  0.00    -0.504 OA
ATOM     50  H   UNL     1      16.006  26.409   6.276  1.00  0.00     0.293 HD
ENDBRANCH  45  49
BRANCH  46  51
ATOM     51  O   UNL     1      18.209  25.600   4.027  1.00  0.00    -0.502 OA
ATOM     52  H   UNL     1      18.420  26.590   4.083  1.00  0.00     0.293 HD
ENDBRANCH  46  51
ENDBRANCH  39  41
ENDBRANCH  38  39
ENDBRANCH   3  38
BRANCH   5  53
ATOM     53  O   UNL     1      20.870  23.191  12.555  1.00  0.00    -0.428 OA
BRANCH  53  54
ATOM     54  C   UNL     1      21.280  24.140  13.498  1.00  0.00     0.340 C 
ATOM     55  O   UNL     1      21.061  25.365  13.313  1.00  0.00    -0.246 OA
BRANCH  54  56
ATOM     56  C   UNL     1      21.968  23.693  14.719  1.00  0.00     0.067 A 
ATOM     57  C   UNL     1      22.274  24.598  15.743  1.00  0.00     0.066 A 
ATOM     58  C   UNL     1      22.312  22.344  14.871  1.00  0.00     0.066 A 
ATOM     59  C   UNL     1      22.886  24.167  16.927  1.00  0.00     0.162 A 
ATOM     60  C   UNL     1      22.949  21.899  16.030  1.00  0.00     0.162 A 
ATOM     61  C   UNL     1      23.229  22.799  17.078  1.00  0.00     0.200 A 
BRANCH  59  62
ATOM     62  O   UNL     1      23.126  25.127  17.915  1.00  0.00    -0.504 OA
ATOM     63  H   UNL     1      23.622  24.939  18.780  1.00  0.00     0.293 HD
ENDBRANCH  59  62
BRANCH  60  64
ATOM     64  O   UNL     1      23.304  20.552  16.118  1.00  0.00    -0.504 OA
ATOM     65  H   UNL     1      24.227  20.259  16.419  1.00  0.00     0.293 HD
ENDBRANCH  60  64
BRANCH  61  66
ATOM     66  O   UNL     1      23.837  22.307  18.243  1.00  0.00    -0.502 OA
ATOM     67  H   UNL     1      24.825  22.379  18.441  1.00  0.00     0.293 HD
ENDBRANCH  61  66
ENDBRANCH  54  56
ENDBRANCH  53  54
ENDBRANCH   5  53
BRANCH   4  68
ATOM     68  O   UNL     1      20.402  21.290  10.656  1.00  0.00    -0.448 OA
BRANCH  68  69
ATOM     69  C   UNL     1      21.347  20.318  10.997  1.00  0.00     0.339 C 
ATOM     70  O   UNL     1      22.381  20.636  11.648  1.00  0.00    -0.246 OA
BRANCH  69  71
ATOM     71  C   UNL     1      21.133  18.917  10.578  1.00  0.00     0.067 A 
ATOM     72  C   UNL     1      22.158  17.968  10.685  1.00  0.00     0.066 A 
ATOM     73  C   UNL     1      19.887  18.514  10.071  1.00  0.00     0.066 A 
ATOM     74  C   UNL     1      21.944  16.634  10.307  1.00  0.00     0.162 A 
ATOM     75  C   UNL     1      19.662  17.187   9.694  1.00  0.00     0.162 A 
ATOM     76  C   UNL     1      20.690  16.240   9.812  1.00  0.00     0.200 A 
BRANCH  74  77
ATOM     77  O   UNL     1      22.970  15.697  10.431  1.00  0.00    -0.504 OA
ATOM     78  H   UNL     1      22.824  14.810  10.902  1.00  0.00     0.293 HD
ENDBRANCH  74  77
BRANCH  75  79
ATOM     79  O   UNL     1      18.405  16.825   9.207  1.00  0.00    -0.504 OA
ATOM     80  H   UNL     1      17.558  16.957   9.743  1.00  0.00     0.293 HD
ENDBRANCH  75  79
BRANCH  76  81
ATOM     81  O   UNL     1      20.458  14.916   9.434  1.00  0.00    -0.502 OA
ATOM     82  H   UNL     1      20.536  14.145  10.080  1.00  0.00     0.293 HD
ENDBRANCH  76  81
ENDBRANCH  69  71
ENDBRANCH  68  69
ENDBRANCH   4  68
TORSDOF 31
ENDMDL
MODEL 8
REMARK VINA RESULT:    76.827      2.401      9.131
REMARK INTER + INTRA:         184.929
REMARK INTER:                 186.382
REMARK INTRA:                  -1.453
REMARK UNBOUND:                 2.556
REMARK SMILES O=C(OC[C@H]1O[C@H](OC(=O)c2cc(O)c(O)c(O)c2)[C@H](OC(=O)c2cc(O)c(O)c(O)c2)[C@@H](OC(=O)c2cc(O)c(O)c(O)c2)[C@H]1OC(=O)c1cc(O)c(O)c(O)c1)c1cc(O)c(O)c(O)c1
REMARK SMILES IDX 5 1 46 2 33 3 20 4 7 5 6 6 4 7 3 8 2 9 1 10 59 11 60 12
REMARK SMILES IDX 61 13 67 14 63 15 65 16 62 17 64 19 66 21 47 23 48 24 49 25
REMARK SMILES IDX 50 26 58 27 51 28 56 29 52 30 54 31 57 32 53 34 55 36 34 38
REMARK SMILES IDX 35 39 36 40 37 41 45 42 38 43 43 44 39 45 41 46 44 47 40 49
REMARK SMILES IDX 42 51 8 53 9 54 10 55 11 56 19 57 12 58 17 59 13 60 15 61
REMARK SMILES IDX 18 62 14 64 16 66 21 68 22 69 23 70 24 71 32 72 25 73 30 74
REMARK SMILES IDX 26 75 28 76 31 77 27 79 29 81
REMARK H PARENT 62 18 64 20 66 22 57 33 53 35 55 37 44 48 40 50 42 52 18 63
REMARK H PARENT 14 65 16 67 31 78 27 80 29 82
REMARK Flexibility Score: inf
ROOT
ATOM      1  C   UNL     1      20.884  26.315  13.820  1.00  0.00     0.205 C 
ATOM      2  C   UNL     1      21.294  24.859  14.108  1.00  0.00     0.254 C 
ATOM      3  C   UNL     1      20.033  24.104  14.543  1.00  0.00     0.267 C 
ATOM      4  C   UNL     1      18.961  24.213  13.443  1.00  0.00     0.290 C 
ATOM      5  C   UNL     1      18.742  25.699  13.077  1.00  0.00     0.357 C 
ATOM      6  O   UNL     1      19.958  26.357  12.743  1.00  0.00    -0.329 OA
ENDROOT
BRANCH   1   7
ATOM      7  C   UNL     1      22.093  27.207  13.481  1.00  0.00     0.269 C 
BRANCH   7   8
ATOM      8  O   UNL     1      23.297  26.484  13.715  1.00  0.00    -0.459 OA
BRANCH   8   9
ATOM      9  C   UNL     1      24.543  26.932  13.255  1.00  0.00     0.338 C 
ATOM     10  O   UNL     1      24.600  27.814  12.350  1.00  0.00    -0.246 OA
BRANCH   9  11
ATOM     11  C   UNL     1      25.786  26.351  13.803  1.00  0.00     0.067 A 
ATOM     12  C   UNL     1      26.478  25.362  13.091  1.00  0.00     0.066 A 
ATOM     13  C   UNL     1      27.624  24.766  13.620  1.00  0.00     0.162 A 
ATOM     14  C   UNL     1      26.264  26.751  15.067  1.00  0.00     0.066 A 
ATOM     15  C   UNL     1      28.083  25.143  14.904  1.00  0.00     0.200 A 
ATOM     16  C   UNL     1      27.397  26.143  15.618  1.00  0.00     0.162 A 
BRANCH  13  17
ATOM     17  O   UNL     1      28.281  23.817  12.834  1.00  0.00    -0.504 OA
ATOM     18  H   UNL     1      28.140  23.721  11.843  1.00  0.00     0.293 HD
ENDBRANCH  13  17
BRANCH  15  19
ATOM     19  O   UNL     1      29.200  24.546  15.497  1.00  0.00    -0.502 OA
ATOM     20  H   UNL     1      29.969  24.140  14.987  1.00  0.00     0.293 HD
ENDBRANCH  15  19
BRANCH  16  21
ATOM     21  O   UNL     1      27.824  26.547  16.883  1.00  0.00    -0.504 OA
ATOM     22  H   UNL     1      27.389  27.316  17.377  1.00  0.00     0.293 HD
ENDBRANCH  16  21
ENDBRANCH   9  11
ENDBRANCH   8   9
ENDBRANCH   7   8
ENDBRANCH   1   7
BRANCH   2  23
ATOM     23  O   UNL     1      21.817  24.248  12.927  1.00  0.00    -0.452 OA
BRANCH  23  24
ATOM     24  C   UNL     1      22.062  22.875  12.793  1.00  0.00     0.338 C 
ATOM     25  O   UNL     1      22.900  22.312  13.545  1.00  0.00    -0.246 OA
BRANCH  24  26
ATOM     26  C   UNL     1      21.317  22.097  11.778  1.00  0.00     0.067 A 
ATOM     27  C   UNL     1      20.016  22.472  11.394  1.00  0.00     0.066 A 
ATOM     28  C   UNL     1      21.884  20.937  11.226  1.00  0.00     0.066 A 
ATOM     29  C   UNL     1      19.288  21.690  10.482  1.00  0.00     0.162 A 
ATOM     30  C   UNL     1      21.166  20.161  10.310  1.00  0.00     0.162 A 
ATOM     31  C   UNL     1      19.866  20.532   9.936  1.00  0.00     0.200 A 
BRANCH  29  32
ATOM     32  O   UNL     1      17.993  22.056  10.124  1.00  0.00    -0.504 OA
ATOM     33  H   UNL     1      17.635  21.890   9.190  1.00  0.00     0.293 HD
ENDBRANCH  29  32
BRANCH  30  34
ATOM     34  O   UNL     1      21.762  19.016   9.786  1.00  0.00    -0.504 OA
ATOM     35  H   UNL     1      21.409  18.558   8.951  1.00  0.00     0.293 HD
ENDBRANCH  30  34
BRANCH  31  36
ATOM     36  O   UNL     1      19.165  19.738   9.030  1.00  0.00    -0.502 OA
ATOM     37  H   UNL     1      19.058  19.992   8.057  1.00  0.00     0.293 HD
ENDBRANCH  31  36
ENDBRANCH  24  26
ENDBRANCH  23  24
ENDBRANCH   2  23
BRANCH   3  38
ATOM     38  O   UNL     1      20.344  22.741  14.830  1.00  0.00    -0.450 OA
BRANCH  38  39
ATOM     39  C   UNL     1      20.570  22.277  16.133  1.00  0.00     0.338 C 
ATOM     40  O   UNL     1      19.599  21.909  16.850  1.00  0.00    -0.246 OA
BRANCH  39  41
ATOM     41  C   UNL     1      21.948  22.196  16.665  1.00  0.00     0.067 A 
ATOM     42  C   UNL     1      22.829  23.282  16.523  1.00  0.00     0.066 A 
ATOM     43  C   UNL     1      22.390  21.036  17.321  1.00  0.00     0.066 A 
ATOM     44  C   UNL     1      24.132  23.210  17.023  1.00  0.00     0.162 A 
ATOM     45  C   UNL     1      23.692  20.949  17.822  1.00  0.00     0.162 A 
ATOM     46  C   UNL     1      24.581  22.045  17.664  1.00  0.00     0.200 A 
BRANCH  44  47
ATOM     47  O   UNL     1      24.988  24.305  16.884  1.00  0.00    -0.504 OA
ATOM     48  H   UNL     1      24.683  25.167  16.439  1.00  0.00     0.293 HD
ENDBRANCH  44  47
BRANCH  45  49
ATOM     49  O   UNL     1      24.061  19.765  18.461  1.00  0.00    -0.504 OA
ATOM     50  H   UNL     1      23.444  19.223  19.049  1.00  0.00     0.293 HD
ENDBRANCH  45  49
BRANCH  46  51
ATOM     51  O   UNL     1      25.902  22.019  18.119  1.00  0.00    -0.502 OA
ATOM     52  H   UNL     1      26.463  22.852  18.264  1.00  0.00     0.293 HD
ENDBRANCH  46  51
ENDBRANCH  39  41
ENDBRANCH  38  39
ENDBRANCH   3  38
BRANCH   5  53
ATOM     53  O   UNL     1      18.068  26.379  14.135  1.00  0.00    -0.428 OA
BRANCH  53  54
ATOM     54  C   UNL     1      18.036  27.773  14.255  1.00  0.00     0.340 C 
ATOM     55  O   UNL     1      18.678  28.501  13.456  1.00  0.00    -0.246 OA
BRANCH  54  56
ATOM     56  C   UNL     1      17.234  28.386  15.326  1.00  0.00     0.067 A 
ATOM     57  C   UNL     1      17.326  27.924  16.645  1.00  0.00     0.066 A 
ATOM     58  C   UNL     1      16.377  29.452  15.032  1.00  0.00     0.066 A 
ATOM     59  C   UNL     1      16.600  28.535  17.675  1.00  0.00     0.162 A 
ATOM     60  C   UNL     1      15.622  30.058  16.038  1.00  0.00     0.162 A 
ATOM     61  C   UNL     1      15.736  29.619  17.373  1.00  0.00     0.200 A 
BRANCH  59  62
ATOM     62  O   UNL     1      16.774  28.038  18.971  1.00  0.00    -0.504 OA
ATOM     63  H   UNL     1      16.016  27.885  19.626  1.00  0.00     0.293 HD
ENDBRANCH  59  62
BRANCH  60  64
ATOM     64  O   UNL     1      14.756  31.093  15.687  1.00  0.00    -0.504 OA
ATOM     65  H   UNL     1      14.031  30.973  14.986  1.00  0.00     0.293 HD
ENDBRANCH  60  64
BRANCH  61  66
ATOM     66  O   UNL     1      14.989  30.276  18.362  1.00  0.00    -0.502 OA
ATOM     67  H   UNL     1      15.310  31.091  18.867  1.00  0.00     0.293 HD
ENDBRANCH  61  66
ENDBRANCH  54  56
ENDBRANCH  53  54
ENDBRANCH   5  53
BRANCH   4  68
ATOM     68  O   UNL     1      17.722  23.683  13.912  1.00  0.00    -0.448 OA
BRANCH  68  69
ATOM     69  C   UNL     1      16.915  22.806  13.181  1.00  0.00     0.339 C 
ATOM     70  O   UNL     1      16.511  23.124  12.027  1.00  0.00    -0.246 OA
BRANCH  69  71
ATOM     71  C   UNL     1      16.527  21.509  13.774  1.00  0.00     0.067 A 
ATOM     72  C   UNL     1      15.373  20.839  13.348  1.00  0.00     0.066 A 
ATOM     73  C   UNL     1      17.319  20.925  14.775  1.00  0.00     0.066 A 
ATOM     74  C   UNL     1      15.019  19.597  13.898  1.00  0.00     0.162 A 
ATOM     75  C   UNL     1      16.978  19.687  15.328  1.00  0.00     0.162 A 
ATOM     76  C   UNL     1      15.826  19.017  14.890  1.00  0.00     0.200 A 
BRANCH  74  77
ATOM     77  O   UNL     1      13.875  18.934  13.455  1.00  0.00    -0.504 OA
ATOM     78  H   UNL     1      13.744  18.698  12.476  1.00  0.00     0.293 HD
ENDBRANCH  74  77
BRANCH  75  79
ATOM     79  O   UNL     1      17.800  19.135  16.312  1.00  0.00    -0.504 OA
ATOM     80  H   UNL     1      17.432  18.592  17.081  1.00  0.00     0.293 HD
ENDBRANCH  75  79
BRANCH  76  81
ATOM     81  O   UNL     1      15.493  17.780  15.447  1.00  0.00    -0.502 OA
ATOM     82  H   UNL     1      15.488  16.926  14.910  1.00  0.00     0.293 HD
ENDBRANCH  76  81
ENDBRANCH  69  71
ENDBRANCH  68  69
ENDBRANCH   4  68
TORSDOF 31
ENDMDL
MODEL 9
REMARK VINA RESULT:    77.399      2.463      9.032
REMARK INTER + INTRA:         186.287
REMARK INTER:                 184.612
REMARK INTRA:                   1.675
REMARK UNBOUND:                 2.556
REMARK SMILES O=C(OC[C@H]1O[C@H](OC(=O)c2cc(O)c(O)c(O)c2)[C@H](OC(=O)c2cc(O)c(O)c(O)c2)[C@@H](OC(=O)c2cc(O)c(O)c(O)c2)[C@H]1OC(=O)c1cc(O)c(O)c(O)c1)c1cc(O)c(O)c(O)c1
REMARK SMILES IDX 5 1 46 2 33 3 20 4 7 5 6 6 4 7 3 8 2 9 1 10 59 11 60 12
REMARK SMILES IDX 61 13 67 14 63 15 65 16 62 17 64 19 66 21 47 23 48 24 49 25
REMARK SMILES IDX 50 26 58 27 51 28 56 29 52 30 54 31 57 32 53 34 55 36 34 38
REMARK SMILES IDX 35 39 36 40 37 41 45 42 38 43 43 44 39 45 41 46 44 47 40 49
REMARK SMILES IDX 42 51 8 53 9 54 10 55 11 56 19 57 12 58 17 59 13 60 15 61
REMARK SMILES IDX 18 62 14 64 16 66 21 68 22 69 23 70 24 71 32 72 25 73 30 74
REMARK SMILES IDX 26 75 28 76 31 77 27 79 29 81
REMARK H PARENT 62 18 64 20 66 22 57 33 53 35 55 37 44 48 40 50 42 52 18 63
REMARK H PARENT 14 65 16 67 31 78 27 80 29 82
REMARK Flexibility Score: inf
ROOT
ATOM      1  C   UNL     1      21.263  26.265  13.864  1.00  0.00     0.205 C 
ATOM      2  C   UNL     1      21.601  24.799  14.190  1.00  0.00     0.254 C 
ATOM      3  C   UNL     1      20.291  24.097  14.562  1.00  0.00     0.267 C 
ATOM      4  C   UNL     1      19.285  24.231  13.404  1.00  0.00     0.290 C 
ATOM      5  C   UNL     1      19.143  25.719  13.010  1.00  0.00     0.357 C 
ATOM      6  O   UNL     1      20.399  26.327  12.737  1.00  0.00    -0.329 OA
ENDROOT
BRANCH   1   7
ATOM      7  C   UNL     1      22.521  27.108  13.583  1.00  0.00     0.269 C 
BRANCH   7   8
ATOM      8  O   UNL     1      23.683  26.315  13.805  1.00  0.00    -0.459 OA
BRANCH   8   9
ATOM      9  C   UNL     1      24.925  26.629  13.238  1.00  0.00     0.338 C 
ATOM     10  O   UNL     1      24.982  27.378  12.220  1.00  0.00    -0.246 OA
BRANCH   9  11
ATOM     11  C   UNL     1      26.163  26.058  13.808  1.00  0.00     0.067 A 
ATOM     12  C   UNL     1      26.903  25.113  13.086  1.00  0.00     0.066 A 
ATOM     13  C   UNL     1      28.046  24.525  13.633  1.00  0.00     0.162 A 
ATOM     14  C   UNL     1      26.588  26.424  15.102  1.00  0.00     0.066 A 
ATOM     15  C   UNL     1      28.451  24.866  14.945  1.00  0.00     0.200 A 
ATOM     16  C   UNL     1      27.717  25.823  15.669  1.00  0.00     0.162 A 
BRANCH  13  17
ATOM     17  O   UNL     1      28.753  23.622  12.837  1.00  0.00    -0.504 OA
ATOM     18  H   UNL     1      28.800  23.681  11.835  1.00  0.00     0.293 HD
ENDBRANCH  13  17
BRANCH  15  19
ATOM     19  O   UNL     1      29.562  24.275  15.555  1.00  0.00    -0.502 OA
ATOM     20  H   UNL     1      30.414  24.029  15.074  1.00  0.00     0.293 HD
ENDBRANCH  15  19
BRANCH  16  21
ATOM     21  O   UNL     1      28.091  26.191  16.962  1.00  0.00    -0.504 OA
ATOM     22  H   UNL     1      28.586  27.054  17.153  1.00  0.00     0.293 HD
ENDBRANCH  16  21
ENDBRANCH   9  11
ENDBRANCH   8   9
ENDBRANCH   7   8
ENDBRANCH   1   7
BRANCH   2  23
ATOM     23  O   UNL     1      22.165  24.154  13.046  1.00  0.00    -0.452 OA
BRANCH  23  24
ATOM     24  C   UNL     1      22.848  22.931  13.088  1.00  0.00     0.338 C 
ATOM     25  O   UNL     1      23.360  22.537  14.168  1.00  0.00    -0.246 OA
BRANCH  24  26
ATOM     26  C   UNL     1      22.943  22.107  11.863  1.00  0.00     0.067 A 
ATOM     27  C   UNL     1      23.520  22.624  10.689  1.00  0.00     0.066 A 
ATOM     28  C   UNL     1      22.404  20.810  11.844  1.00  0.00     0.066 A 
ATOM     29  C   UNL     1      23.545  21.862   9.509  1.00  0.00     0.162 A 
ATOM     30  C   UNL     1      22.436  20.044  10.675  1.00  0.00     0.162 A 
ATOM     31  C   UNL     1      23.004  20.565   9.503  1.00  0.00     0.200 A 
BRANCH  29  32
ATOM     32  O   UNL     1      24.099  22.389   8.345  1.00  0.00    -0.504 OA
ATOM     33  H   UNL     1      23.570  22.435   7.482  1.00  0.00     0.293 HD
ENDBRANCH  29  32
BRANCH  30  34
ATOM     34  O   UNL     1      21.889  18.763  10.696  1.00  0.00    -0.504 OA
ATOM     35  H   UNL     1      21.928  18.145   9.891  1.00  0.00     0.293 HD
ENDBRANCH  30  34
BRANCH  31  36
ATOM     36  O   UNL     1      23.014  19.789   8.347  1.00  0.00    -0.502 OA
ATOM     37  H   UNL     1      22.892  20.188   7.425  1.00  0.00     0.293 HD
ENDBRANCH  31  36
ENDBRANCH  24  26
ENDBRANCH  23  24
ENDBRANCH   2  23
BRANCH   3  38
ATOM     38  O   UNL     1      20.533  22.727  14.881  1.00  0.00    -0.450 OA
BRANCH  38  39
ATOM     39  C   UNL     1      20.702  22.277  16.198  1.00  0.00     0.338 C 
ATOM     40  O   UNL     1      19.694  21.988  16.900  1.00  0.00    -0.246 OA
BRANCH  39  41
ATOM     41  C   UNL     1      22.061  22.118  16.762  1.00  0.00     0.067 A 
ATOM     42  C   UNL     1      22.410  20.946  17.454  1.00  0.00     0.066 A 
ATOM     43  C   UNL     1      23.017  23.135  16.608  1.00  0.00     0.066 A 
ATOM     44  C   UNL     1      23.692  20.792  17.989  1.00  0.00     0.162 A 
ATOM     45  C   UNL     1      24.302  22.995  17.142  1.00  0.00     0.162 A 
ATOM     46  C   UNL     1      24.644  21.814  17.851  1.00  0.00     0.200 A 
BRANCH  44  47
ATOM     47  O   UNL     1      24.024  19.614  18.662  1.00  0.00    -0.504 OA
ATOM     48  H   UNL     1      23.680  18.708  18.354  1.00  0.00     0.293 HD
ENDBRANCH  44  47
BRANCH  45  49
ATOM     49  O   UNL     1      25.198  24.046  16.950  1.00  0.00    -0.504 OA
ATOM     50  H   UNL     1      24.938  24.955  16.595  1.00  0.00     0.293 HD
ENDBRANCH  45  49
BRANCH  46  51
ATOM     51  O   UNL     1      25.901  21.616  18.430  1.00  0.00    -0.502 OA
ATOM     52  H   UNL     1      26.363  20.715  18.476  1.00  0.00     0.293 HD
ENDBRANCH  46  51
ENDBRANCH  39  41
ENDBRANCH  38  39
ENDBRANCH   3  38
BRANCH   5  53
ATOM     53  O   UNL     1      18.438  26.437  14.022  1.00  0.00    -0.428 OA
BRANCH  53  54
ATOM     54  C   UNL     1      17.927  27.726  13.835  1.00  0.00     0.340 C 
ATOM     55  O   UNL     1      18.114  28.340  12.753  1.00  0.00    -0.246 OA
BRANCH  54  56
ATOM     56  C   UNL     1      17.159  28.361  14.918  1.00  0.00     0.067 A 
ATOM     57  C   UNL     1      17.341  27.972  16.251  1.00  0.00     0.066 A 
ATOM     58  C   UNL     1      16.244  29.378  14.620  1.00  0.00     0.066 A 
ATOM     59  C   UNL     1      16.646  28.606  17.288  1.00  0.00     0.162 A 
ATOM     60  C   UNL     1      15.519  30.003  15.635  1.00  0.00     0.162 A 
ATOM     61  C   UNL     1      15.723  29.638  16.982  1.00  0.00     0.200 A 
BRANCH  59  62
ATOM     62  O   UNL     1      16.910  28.182  18.595  1.00  0.00    -0.504 OA
ATOM     63  H   UNL     1      16.398  28.502  19.409  1.00  0.00     0.293 HD
ENDBRANCH  59  62
BRANCH  60  64
ATOM     64  O   UNL     1      14.593  30.985  15.283  1.00  0.00    -0.504 OA
ATOM     65  H   UNL     1      14.396  31.215  14.314  1.00  0.00     0.293 HD
ENDBRANCH  60  64
BRANCH  61  66
ATOM     66  O   UNL     1      15.004  30.315  17.978  1.00  0.00    -0.502 OA
ATOM     67  H   UNL     1      15.279  30.355  18.950  1.00  0.00     0.293 HD
ENDBRANCH  61  66
ENDBRANCH  54  56
ENDBRANCH  53  54
ENDBRANCH   5  53
BRANCH   4  68
ATOM     68  O   UNL     1      18.004  23.753  13.808  1.00  0.00    -0.448 OA
BRANCH  68  69
ATOM     69  C   UNL     1      17.265  22.794  13.110  1.00  0.00     0.339 C 
ATOM     70  O   UNL     1      16.255  22.256  13.642  1.00  0.00    -0.246 OA
BRANCH  69  71
ATOM     71  C   UNL     1      17.685  22.402  11.748  1.00  0.00     0.067 A 
ATOM     72  C   UNL     1      16.938  22.783  10.626  1.00  0.00     0.066 A 
ATOM     73  C   UNL     1      18.853  21.644  11.559  1.00  0.00     0.066 A 
ATOM     74  C   UNL     1      17.352  22.429   9.333  1.00  0.00     0.162 A 
ATOM     75  C   UNL     1      19.276  21.288  10.276  1.00  0.00     0.162 A 
ATOM     76  C   UNL     1      18.528  21.680   9.156  1.00  0.00     0.200 A 
BRANCH  74  77
ATOM     77  O   UNL     1      16.606  22.826   8.223  1.00  0.00    -0.504 OA
ATOM     78  H   UNL     1      15.951  23.600   8.274  1.00  0.00     0.293 HD
ENDBRANCH  74  77
BRANCH  75  79
ATOM     79  O   UNL     1      20.449  20.545  10.131  1.00  0.00    -0.504 OA
ATOM     80  H   UNL     1      20.440  19.562   9.894  1.00  0.00     0.293 HD
ENDBRANCH  75  79
BRANCH  76  81
ATOM     81  O   UNL     1      18.958  21.321   7.877  1.00  0.00    -0.502 OA
ATOM     82  H   UNL     1      18.833  20.392   7.503  1.00  0.00     0.293 HD
ENDBRANCH  76  81
ENDBRANCH  69  71
ENDBRANCH  68  69
ENDBRANCH   4  68
TORSDOF 31
ENDMDL
