MODEL 1
REMARK VINA RESULT:     6.098      0.000      0.000
REMARK INTER + INTRA:           7.867
REMARK INTER:                   8.059
REMARK INTRA:                  -0.192
REMARK UNBOUND:                -0.192
REMARK SMILES CC[C@@H](C=C[C@@H](C)[C@@H]1CC[C@@H]2[C@H]3CC[C@H]4C[C@H](O)CC[C@@]4(C)[C@H]3CC[C@@]21C)C(C)C
REMARK SMILES IDX 6 1 7 2 5 3 4 4 3 5 2 6 1 7 28 8 29 9 30 10 8 11 9 12 26 13
REMARK SMILES IDX 10 14 11 15 25 16 27 17 12 18 24 19 23 20 13 21 21 22 14 23
REMARK SMILES IDX 15 24 20 25 22 26 16 27 19 28 17 29 18 30
REMARK H PARENT 18 31
REMARK Flexibility Score: inf
ROOT
ATOM      1  C   UNL     1     135.630 123.527 143.077  1.00  0.00     0.012 C 
ATOM      2  C   UNL     1     136.584 124.107 144.141  1.00  0.00     0.012 C 
ENDROOT
BRANCH   1   3
ATOM      3  C   UNL     1     136.230 123.724 141.702  1.00  0.00    -0.028 C 
ATOM      4  C   UNL     1     137.004 122.801 141.104  1.00  0.00    -0.027 C 
BRANCH   4   5
ATOM      5  C   UNL     1     137.528 122.999 139.693  1.00  0.00     0.014 C 
BRANCH   5   6
ATOM      6  C   UNL     1     138.777 123.915 139.695  1.00  0.00     0.004 C 
ATOM      7  C   UNL     1     139.613 123.777 140.970  1.00  0.00     0.004 C 
ENDBRANCH   5   6
BRANCH   5   8
ATOM      8  C   UNL     1     136.432 123.527 138.717  1.00  0.00    -0.011 C 
ATOM      9  C   UNL     1     137.027 123.923 137.358  1.00  0.00     0.008 C 
ATOM     10  C   UNL     1     135.249 122.560 138.516  1.00  0.00     0.008 C 
ENDBRANCH   5   8
ENDBRANCH   4   5
ENDBRANCH   1   3
BRANCH   1  11
ATOM     11  C   UNL     1     134.182 124.119 143.193  1.00  0.00     0.002 C 
ATOM     12  C   UNL     1     133.111 123.070 142.858  1.00  0.00     0.005 C 
ATOM     13  C   UNL     1     133.828 125.356 142.297  1.00  0.00    -0.026 C 
ATOM     14  C   UNL     1     131.910 123.813 142.289  1.00  0.00     0.005 C 
ATOM     15  C   UNL     1     132.277 125.301 142.251  1.00  0.00    -0.001 C 
ATOM     16  C   UNL     1     134.423 125.215 140.872  1.00  0.00     0.007 C 
ATOM     17  C   UNL     1     134.318 126.667 142.962  1.00  0.00     0.012 C 
ATOM     18  C   UNL     1     131.566 126.046 141.076  1.00  0.00    -0.004 C 
ATOM     19  C   UNL     1     133.776 126.131 139.826  1.00  0.00     0.005 C 
ATOM     20  C   UNL     1     132.254 125.858 139.693  1.00  0.00    -0.001 C 
ATOM     21  C   UNL     1     131.343 127.537 141.385  1.00  0.00     0.004 C 
ATOM     22  C   UNL     1     131.469 126.614 138.518  1.00  0.00    -0.026 C 
ATOM     23  C   UNL     1     130.386 128.141 140.371  1.00  0.00     0.004 C 
ATOM     24  C   UNL     1     130.920 128.042 138.929  1.00  0.00    -0.002 C 
ATOM     25  C   UNL     1     132.339 126.746 137.208  1.00  0.00     0.010 C 
ATOM     26  C   UNL     1     130.236 125.740 138.143  1.00  0.00     0.012 C 
ATOM     27  C   UNL     1     131.921 129.165 138.584  1.00  0.00     0.036 C 
ATOM     28  C   UNL     1     131.904 127.922 136.323  1.00  0.00     0.032 C 
ATOM     29  C   UNL     1     132.133 129.270 137.053  1.00  0.00     0.114 C 
BRANCH  29  30
ATOM     30  O   UNL     1     131.268 130.243 136.527  1.00  0.00    -0.393 OA
ATOM     31  H   UNL     1     131.177 130.051 135.558  1.00  0.00     0.210 HD
ENDBRANCH  29  30
ENDBRANCH   1  11
TORSDOF 6
ENDMDL
MODEL 2
REMARK VINA RESULT:     8.134      1.614      4.662
REMARK INTER + INTRA:          10.557
REMARK INTER:                  10.872
REMARK INTRA:                  -0.315
REMARK UNBOUND:                -0.192
REMARK SMILES CC[C@@H](C=C[C@@H](C)[C@@H]1CC[C@@H]2[C@H]3CC[C@H]4C[C@H](O)CC[C@@]4(C)[C@H]3CC[C@@]21C)C(C)C
REMARK SMILES IDX 6 1 7 2 5 3 4 4 3 5 2 6 1 7 28 8 29 9 30 10 8 11 9 12 26 13
REMARK SMILES IDX 10 14 11 15 25 16 27 17 12 18 24 19 23 20 13 21 21 22 14 23
REMARK SMILES IDX 15 24 20 25 22 26 16 27 19 28 17 29 18 30
REMARK H PARENT 18 31
REMARK Flexibility Score: inf
ROOT
ATOM      1  C   UNL     1     137.951 123.731 140.932  1.00  0.00     0.012 C 
ATOM      2  C   UNL     1     139.312 123.007 140.988  1.00  0.00     0.012 C 
ENDROOT
BRANCH   1   3
ATOM      3  C   UNL     1     137.190 123.473 142.213  1.00  0.00    -0.028 C 
ATOM      4  C   UNL     1     136.577 124.448 142.908  1.00  0.00    -0.027 C 
BRANCH   4   5
ATOM      5  C   UNL     1     135.759 124.144 144.150  1.00  0.00     0.014 C 
BRANCH   5   6
ATOM      6  C   UNL     1     134.280 124.552 143.946  1.00  0.00     0.004 C 
ATOM      7  C   UNL     1     133.464 123.484 143.213  1.00  0.00     0.004 C 
ENDBRANCH   5   6
BRANCH   5   8
ATOM      8  C   UNL     1     136.360 124.792 145.435  1.00  0.00    -0.011 C 
ATOM      9  C   UNL     1     137.781 124.282 145.714  1.00  0.00     0.008 C 
ATOM     10  C   UNL     1     136.342 126.333 145.431  1.00  0.00     0.008 C 
ENDBRANCH   5   8
ENDBRANCH   4   5
ENDBRANCH   1   3
BRANCH   1  11
ATOM     11  C   UNL     1     137.127 123.346 139.654  1.00  0.00     0.002 C 
ATOM     12  C   UNL     1     137.790 123.871 138.371  1.00  0.00     0.005 C 
ATOM     13  C   UNL     1     135.641 123.840 139.571  1.00  0.00    -0.026 C 
ATOM     14  C   UNL     1     136.682 124.121 137.357  1.00  0.00     0.005 C 
ATOM     15  C   UNL     1     135.355 123.779 138.046  1.00  0.00    -0.001 C 
ATOM     16  C   UNL     1     135.495 125.291 140.098  1.00  0.00     0.007 C 
ATOM     17  C   UNL     1     134.705 122.882 140.350  1.00  0.00     0.012 C 
ATOM     18  C   UNL     1     134.176 124.648 137.501  1.00  0.00    -0.004 C 
ATOM     19  C   UNL     1     134.206 125.994 139.656  1.00  0.00     0.005 C 
ATOM     20  C   UNL     1     134.104 126.079 138.109  1.00  0.00    -0.001 C 
ATOM     21  C   UNL     1     132.822 123.928 137.620  1.00  0.00     0.004 C 
ATOM     22  C   UNL     1     132.899 126.938 137.494  1.00  0.00    -0.026 C 
ATOM     23  C   UNL     1     131.768 124.661 136.806  1.00  0.00     0.004 C 
ATOM     24  C   UNL     1     131.564 126.112 137.283  1.00  0.00    -0.002 C 
ATOM     25  C   UNL     1     132.587 128.225 138.352  1.00  0.00     0.010 C 
ATOM     26  C   UNL     1     133.353 127.441 136.092  1.00  0.00     0.012 C 
ATOM     27  C   UNL     1     130.626 126.213 138.503  1.00  0.00     0.036 C 
ATOM     28  C   UNL     1     131.145 128.719 138.177  1.00  0.00     0.032 C 
ATOM     29  C   UNL     1     130.137 127.669 138.710  1.00  0.00     0.114 C 
BRANCH  29  30
ATOM     30  O   UNL     1     128.897 127.840 138.077  1.00  0.00    -0.393 OA
ATOM     31  H   UNL     1     128.989 127.466 137.162  1.00  0.00     0.210 HD
ENDBRANCH  29  30
ENDBRANCH   1  11
TORSDOF 6
ENDMDL
MODEL 3
REMARK VINA RESULT:     8.259      2.925      6.942
REMARK INTER + INTRA:          10.723
REMARK INTER:                  11.136
REMARK INTRA:                  -0.413
REMARK UNBOUND:                -0.192
REMARK SMILES CC[C@@H](C=C[C@@H](C)[C@@H]1CC[C@@H]2[C@H]3CC[C@H]4C[C@H](O)CC[C@@]4(C)[C@H]3CC[C@@]21C)C(C)C
REMARK SMILES IDX 6 1 7 2 5 3 4 4 3 5 2 6 1 7 28 8 29 9 30 10 8 11 9 12 26 13
REMARK SMILES IDX 10 14 11 15 25 16 27 17 12 18 24 19 23 20 13 21 21 22 14 23
REMARK SMILES IDX 15 24 20 25 22 26 16 27 19 28 17 29 18 30
REMARK H PARENT 18 31
REMARK Flexibility Score: inf
ROOT
ATOM      1  C   UNL     1     135.951 123.835 138.035  1.00  0.00     0.012 C 
ATOM      2  C   UNL     1     137.288 124.200 137.358  1.00  0.00     0.012 C 
ENDROOT
BRANCH   1   3
ATOM      3  C   UNL     1     135.134 125.090 138.248  1.00  0.00    -0.028 C 
ATOM      4  C   UNL     1     133.798 125.127 138.094  1.00  0.00    -0.027 C 
BRANCH   4   5
ATOM      5  C   UNL     1     133.001 126.385 138.388  1.00  0.00     0.014 C 
BRANCH   5   6
ATOM      6  C   UNL     1     131.980 126.135 139.525  1.00  0.00     0.004 C 
ATOM      7  C   UNL     1     132.638 125.652 140.820  1.00  0.00     0.004 C 
ENDBRANCH   5   6
BRANCH   5   8
ATOM      8  C   UNL     1     132.311 126.966 137.116  1.00  0.00    -0.011 C 
ATOM      9  C   UNL     1     130.877 126.439 136.959  1.00  0.00     0.008 C 
ATOM     10  C   UNL     1     132.320 128.505 137.041  1.00  0.00     0.008 C 
ENDBRANCH   5   8
ENDBRANCH   4   5
ENDBRANCH   1   3
BRANCH   1  11
ATOM     11  C   UNL     1     136.160 123.020 139.359  1.00  0.00     0.002 C 
ATOM     12  C   UNL     1     134.854 122.366 139.836  1.00  0.00     0.005 C 
ATOM     13  C   UNL     1     136.703 123.794 140.610  1.00  0.00    -0.026 C 
ATOM     14  C   UNL     1     134.928 122.257 141.353  1.00  0.00     0.005 C 
ATOM     15  C   UNL     1     136.263 122.878 141.784  1.00  0.00    -0.001 C 
ATOM     16  C   UNL     1     136.055 125.197 140.736  1.00  0.00     0.007 C 
ATOM     17  C   UNL     1     138.247 123.912 140.548  1.00  0.00     0.012 C 
ATOM     18  C   UNL     1     136.171 123.525 143.204  1.00  0.00    -0.004 C 
ATOM     19  C   UNL     1     136.185 125.827 142.128  1.00  0.00     0.005 C 
ATOM     20  C   UNL     1     135.525 124.941 143.219  1.00  0.00    -0.001 C 
ATOM     21  C   UNL     1     137.528 123.528 143.929  1.00  0.00     0.004 C 
ATOM     22  C   UNL     1     135.425 125.545 144.700  1.00  0.00    -0.026 C 
ATOM     23  C   UNL     1     137.333 123.869 145.397  1.00  0.00     0.004 C 
ATOM     24  C   UNL     1     136.699 125.259 145.597  1.00  0.00    -0.002 C 
ATOM     25  C   UNL     1     135.129 127.095 144.693  1.00  0.00     0.010 C 
ATOM     26  C   UNL     1     134.211 124.866 145.400  1.00  0.00     0.012 C 
ATOM     27  C   UNL     1     137.730 126.403 145.515  1.00  0.00     0.036 C 
ATOM     28  C   UNL     1     135.606 127.796 145.972  1.00  0.00     0.032 C 
ATOM     29  C   UNL     1     137.149 127.718 146.096  1.00  0.00     0.114 C 
BRANCH  29  30
ATOM     30  O   UNL     1     137.520 127.836 147.445  1.00  0.00    -0.393 OA
ATOM     31  H   UNL     1     136.713 128.136 147.938  1.00  0.00     0.210 HD
ENDBRANCH  29  30
ENDBRANCH   1  11
TORSDOF 6
ENDMDL
MODEL 4
REMARK VINA RESULT:     8.550      3.105      7.841
REMARK INTER + INTRA:          11.108
REMARK INTER:                  10.641
REMARK INTRA:                   0.467
REMARK UNBOUND:                -0.192
REMARK SMILES CC[C@@H](C=C[C@@H](C)[C@@H]1CC[C@@H]2[C@H]3CC[C@H]4C[C@H](O)CC[C@@]4(C)[C@H]3CC[C@@]21C)C(C)C
REMARK SMILES IDX 6 1 7 2 5 3 4 4 3 5 2 6 1 7 28 8 29 9 30 10 8 11 9 12 26 13
REMARK SMILES IDX 10 14 11 15 25 16 27 17 12 18 24 19 23 20 13 21 21 22 14 23
REMARK SMILES IDX 15 24 20 25 22 26 16 27 19 28 17 29 18 30
REMARK H PARENT 18 31
REMARK Flexibility Score: inf
ROOT
ATOM      1  C   UNL     1     130.743 129.015 137.777  1.00  0.00     0.012 C 
ATOM      2  C   UNL     1     131.890 128.507 136.879  1.00  0.00     0.012 C 
ENDROOT
BRANCH   1   3
ATOM      3  C   UNL     1     131.000 130.456 138.156  1.00  0.00    -0.028 C 
ATOM      4  C   UNL     1     132.072 131.145 137.726  1.00  0.00    -0.027 C 
BRANCH   4   5
ATOM      5  C   UNL     1     132.261 132.612 138.066  1.00  0.00     0.014 C 
BRANCH   5   6
ATOM      6  C   UNL     1     132.411 133.459 136.778  1.00  0.00     0.004 C 
ATOM      7  C   UNL     1     131.630 134.774 136.837  1.00  0.00     0.004 C 
ENDBRANCH   5   6
BRANCH   5   8
ATOM      8  C   UNL     1     133.448 132.850 139.049  1.00  0.00    -0.011 C 
ATOM      9  C   UNL     1     134.776 132.348 138.466  1.00  0.00     0.008 C 
ATOM     10  C   UNL     1     133.594 134.311 139.518  1.00  0.00     0.008 C 
ENDBRANCH   5   8
ENDBRANCH   4   5
ENDBRANCH   1   3
BRANCH   1  11
ATOM     11  C   UNL     1     130.516 128.094 139.026  1.00  0.00     0.002 C 
ATOM     12  C   UNL     1     130.845 128.824 140.337  1.00  0.00     0.005 C 
ATOM     13  C   UNL     1     131.326 126.753 139.097  1.00  0.00    -0.026 C 
ATOM     14  C   UNL     1     131.307 127.773 141.338  1.00  0.00     0.005 C 
ATOM     15  C   UNL     1     131.288 126.422 140.613  1.00  0.00    -0.001 C 
ATOM     16  C   UNL     1     132.787 126.946 138.615  1.00  0.00     0.007 C 
ATOM     17  C   UNL     1     130.622 125.648 138.270  1.00  0.00     0.012 C 
ATOM     18  C   UNL     1     132.382 125.451 141.164  1.00  0.00    -0.004 C 
ATOM     19  C   UNL     1     133.747 125.834 139.056  1.00  0.00     0.005 C 
ATOM     20  C   UNL     1     133.809 125.714 140.602  1.00  0.00    -0.001 C 
ATOM     21  C   UNL     1     131.985 123.974 140.997  1.00  0.00     0.004 C 
ATOM     22  C   UNL     1     134.898 124.715 141.222  1.00  0.00    -0.026 C 
ATOM     23  C   UNL     1     132.912 123.090 141.814  1.00  0.00     0.004 C 
ATOM     24  C   UNL     1     134.385 123.225 141.381  1.00  0.00    -0.002 C 
ATOM     25  C   UNL     1     136.246 124.718 140.401  1.00  0.00     0.010 C 
ATOM     26  C   UNL     1     135.248 125.233 142.648  1.00  0.00     0.012 C 
ATOM     27  C   UNL     1     134.726 122.364 140.147  1.00  0.00     0.036 C 
ATOM     28  C   UNL     1     137.043 123.417 140.565  1.00  0.00     0.032 C 
ATOM     29  C   UNL     1     136.259 122.216 139.979  1.00  0.00     0.114 C 
BRANCH  29  30
ATOM     30  O   UNL     1     136.685 121.029 140.594  1.00  0.00    -0.393 OA
ATOM     31  H   UNL     1     136.028 120.326 140.346  1.00  0.00     0.210 HD
ENDBRANCH  29  30
ENDBRANCH   1  11
TORSDOF 6
ENDMDL
MODEL 5
REMARK VINA RESULT:     8.903      1.996      4.040
REMARK INTER + INTRA:          11.574
REMARK INTER:                  12.415
REMARK INTRA:                  -0.842
REMARK UNBOUND:                -0.192
REMARK SMILES CC[C@@H](C=C[C@@H](C)[C@@H]1CC[C@@H]2[C@H]3CC[C@H]4C[C@H](O)CC[C@@]4(C)[C@H]3CC[C@@]21C)C(C)C
REMARK SMILES IDX 6 1 7 2 5 3 4 4 3 5 2 6 1 7 28 8 29 9 30 10 8 11 9 12 26 13
REMARK SMILES IDX 10 14 11 15 25 16 27 17 12 18 24 19 23 20 13 21 21 22 14 23
REMARK SMILES IDX 15 24 20 25 22 26 16 27 19 28 17 29 18 30
REMARK H PARENT 18 31
REMARK Flexibility Score: inf
ROOT
ATOM      1  C   UNL     1     138.460 123.800 139.939  1.00  0.00     0.012 C 
ATOM      2  C   UNL     1     138.988 122.878 138.821  1.00  0.00     0.012 C 
ENDROOT
BRANCH   1   3
ATOM      3  C   UNL     1     139.407 123.756 141.118  1.00  0.00    -0.028 C 
ATOM      4  C   UNL     1     140.066 124.839 141.566  1.00  0.00    -0.027 C 
BRANCH   4   5
ATOM      5  C   UNL     1     140.952 124.776 142.798  1.00  0.00     0.014 C 
BRANCH   5   6
ATOM      6  C   UNL     1     140.150 125.145 144.070  1.00  0.00     0.004 C 
ATOM      7  C   UNL     1     138.822 124.392 144.175  1.00  0.00     0.004 C 
ENDBRANCH   5   6
BRANCH   5   8
ATOM      8  C   UNL     1     142.236 125.649 142.656  1.00  0.00    -0.011 C 
ATOM      9  C   UNL     1     142.407 126.603 143.847  1.00  0.00     0.008 C 
ATOM     10  C   UNL     1     143.528 124.838 142.438  1.00  0.00     0.008 C 
ENDBRANCH   5   8
ENDBRANCH   4   5
ENDBRANCH   1   3
BRANCH   1  11
ATOM     11  C   UNL     1     136.982 123.460 140.340  1.00  0.00     0.002 C 
ATOM     12  C   UNL     1     136.389 122.362 139.444  1.00  0.00     0.005 C 
ATOM     13  C   UNL     1     135.932 124.623 140.301  1.00  0.00    -0.026 C 
ATOM     14  C   UNL     1     134.886 122.596 139.374  1.00  0.00     0.005 C 
ATOM     15  C   UNL     1     134.587 123.854 140.199  1.00  0.00    -0.001 C 
ATOM     16  C   UNL     1     136.139 125.533 139.062  1.00  0.00     0.007 C 
ATOM     17  C   UNL     1     135.997 125.458 141.604  1.00  0.00     0.012 C 
ATOM     18  C   UNL     1     133.354 124.636 139.642  1.00  0.00    -0.004 C 
ATOM     19  C   UNL     1     134.925 126.402 138.710  1.00  0.00     0.005 C 
ATOM     20  C   UNL     1     133.671 125.536 138.412  1.00  0.00    -0.001 C 
ATOM     21  C   UNL     1     132.628 125.433 140.739  1.00  0.00     0.004 C 
ATOM     22  C   UNL     1     132.368 126.289 137.861  1.00  0.00    -0.026 C 
ATOM     23  C   UNL     1     131.279 125.912 140.229  1.00  0.00     0.004 C 
ATOM     24  C   UNL     1     131.410 126.831 138.999  1.00  0.00    -0.002 C 
ATOM     25  C   UNL     1     132.732 127.468 136.878  1.00  0.00     0.010 C 
ATOM     26  C   UNL     1     131.551 125.257 137.029  1.00  0.00     0.012 C 
ATOM     27  C   UNL     1     131.735 128.292 139.377  1.00  0.00     0.036 C 
ATOM     28  C   UNL     1     131.640 128.543 136.811  1.00  0.00     0.032 C 
ATOM     29  C   UNL     1     131.477 129.245 138.184  1.00  0.00     0.114 C 
BRANCH  29  30
ATOM     30  O   UNL     1     130.186 129.785 138.287  1.00  0.00    -0.393 OA
ATOM     31  H   UNL     1     129.630 129.332 137.601  1.00  0.00     0.210 HD
ENDBRANCH  29  30
ENDBRANCH   1  11
TORSDOF 6
ENDMDL
