MODEL 1
REMARK VINA RESULT:    -6.549      0.000      0.000
REMARK INTER + INTRA:          -7.123
REMARK INTER:                  -7.123
REMARK INTRA:                   0.000
REMARK UNBOUND:                 0.000
REMARK SMILES Cc1cc(O)c2c(c1)C(=O)c1cc(O)cc(O)c1C2=O
REMARK SMILES IDX 1 1 2 2 8 3 7 4 6 5 4 6 3 7 19 8 20 9 18 10 11 11 9 12 10 13
REMARK SMILES IDX 12 14 13 15 15 16 16 17 5 18 17 20 14 22
REMARK H PARENT 5 19 17 21 14 23
REMARK Flexibility Score: inf
ROOT
ATOM      1  C   UNL     1      44.269  55.076 135.498  1.00  0.00     0.044 C 
ATOM      2  C   UNL     1      43.840  53.643 135.602  1.00  0.00    -0.047 A 
ATOM      3  C   UNL     1      43.169  53.030 134.537  1.00  0.00     0.016 A 
ATOM      4  C   UNL     1      42.738  51.697 134.635  1.00  0.00     0.038 A 
ATOM      5  C   UNL     1      42.981  50.965 135.818  1.00  0.00     0.076 A 
ATOM      6  C   UNL     1      43.585  51.616 136.924  1.00  0.00     0.127 A 
ATOM      7  C   UNL     1      44.024  52.937 136.796  1.00  0.00     0.050 A 
ATOM      8  C   UNL     1      42.644  49.517 135.830  1.00  0.00     0.201 C 
ATOM      9  O   UNL     1      43.310  48.724 136.549  1.00  0.00    -0.288 OA
ATOM     10  C   UNL     1      41.653  48.982 134.861  1.00  0.00     0.076 A 
ATOM     11  C   UNL     1      41.410  49.718 133.680  1.00  0.00     0.041 A 
ATOM     12  C   UNL     1      42.021  51.058 133.505  1.00  0.00     0.194 C 
ATOM     13  O   UNL     1      41.911  51.664 132.404  1.00  0.00    -0.289 OA
ATOM     14  C   UNL     1      40.585  49.180 132.677  1.00  0.00     0.059 A 
ATOM     15  C   UNL     1      39.991  47.926 132.846  1.00  0.00     0.120 A 
ATOM     16  C   UNL     1      40.196  47.214 134.026  1.00  0.00     0.093 A 
ATOM     17  C   UNL     1      40.996  47.737 135.048  1.00  0.00     0.131 A 
ENDROOT
BRANCH   6  18
ATOM     18  O   UNL     1      43.734  51.005 138.172  1.00  0.00    -0.507 OA
ATOM     19  H   UNL     1      44.278  50.167 138.321  1.00  0.00     0.293 HD
ENDBRANCH   6  18
BRANCH  17  20
ATOM     20  O   UNL     1      41.080  47.010 136.237  1.00  0.00    -0.507 OA
ATOM     21  H   UNL     1      41.953  46.771 136.685  1.00  0.00     0.293 HD
ENDBRANCH  17  20
BRANCH  15  22
ATOM     22  O   UNL     1      39.183  47.384 131.848  1.00  0.00    -0.508 OA
ATOM     23  H   UNL     1      39.466  47.389 130.875  1.00  0.00     0.293 HD
ENDBRANCH  15  22
TORSDOF 3
ENDMDL
MODEL 2
REMARK VINA RESULT:    -6.430      3.495      6.564
REMARK INTER + INTRA:          -6.994
REMARK INTER:                  -6.994
REMARK INTRA:                   0.000
REMARK UNBOUND:                 0.000
REMARK SMILES Cc1cc(O)c2c(c1)C(=O)c1cc(O)cc(O)c1C2=O
REMARK SMILES IDX 1 1 2 2 8 3 7 4 6 5 4 6 3 7 19 8 20 9 18 10 11 11 9 12 10 13
REMARK SMILES IDX 12 14 13 15 15 16 16 17 5 18 17 20 14 22
REMARK H PARENT 5 19 17 21 14 23
REMARK Flexibility Score: inf
ROOT
ATOM      1  C   UNL     1      45.574  43.620 138.440  1.00  0.00     0.044 C 
ATOM      2  C   UNL     1      44.921  44.877 137.948  1.00  0.00    -0.047 A 
ATOM      3  C   UNL     1      45.704  45.957 137.523  1.00  0.00     0.016 A 
ATOM      4  C   UNL     1      45.102  47.149 137.087  1.00  0.00     0.038 A 
ATOM      5  C   UNL     1      43.695  47.264 137.077  1.00  0.00     0.076 A 
ATOM      6  C   UNL     1      42.910  46.198 137.589  1.00  0.00     0.127 A 
ATOM      7  C   UNL     1      43.530  45.014 137.998  1.00  0.00     0.050 A 
ATOM      8  C   UNL     1      43.093  48.480 136.473  1.00  0.00     0.201 C 
ATOM      9  O   UNL     1      41.960  48.413 135.924  1.00  0.00    -0.288 OA
ATOM     10  C   UNL     1      43.902  49.721 136.349  1.00  0.00     0.076 A 
ATOM     11  C   UNL     1      45.310  49.603 136.362  1.00  0.00     0.041 A 
ATOM     12  C   UNL     1      45.939  48.291 136.645  1.00  0.00     0.194 C 
ATOM     13  O   UNL     1      47.189  48.152 136.534  1.00  0.00    -0.289 OA
ATOM     14  C   UNL     1      46.109  50.731 136.111  1.00  0.00     0.059 A 
ATOM     15  C   UNL     1      45.521  51.975 135.862  1.00  0.00     0.120 A 
ATOM     16  C   UNL     1      44.133  52.104 135.888  1.00  0.00     0.093 A 
ATOM     17  C   UNL     1      43.316  51.000 136.157  1.00  0.00     0.131 A 
ENDROOT
BRANCH   6  18
ATOM     18  O   UNL     1      41.524  46.287 137.742  1.00  0.00    -0.507 OA
ATOM     19  H   UNL     1      40.944  45.515 138.038  1.00  0.00     0.293 HD
ENDBRANCH   6  18
BRANCH  17  20
ATOM     20  O   UNL     1      41.942  51.224 136.257  1.00  0.00    -0.507 OA
ATOM     21  H   UNL     1      41.328  51.298 135.458  1.00  0.00     0.293 HD
ENDBRANCH  17  20
BRANCH  15  22
ATOM     22  O   UNL     1      46.309  53.093 135.600  1.00  0.00    -0.508 OA
ATOM     23  H   UNL     1      46.227  53.609 134.732  1.00  0.00     0.293 HD
ENDBRANCH  15  22
TORSDOF 3
ENDMDL
MODEL 3
REMARK VINA RESULT:    -6.418      2.018      4.221
REMARK INTER + INTRA:          -6.981
REMARK INTER:                  -6.981
REMARK INTRA:                   0.000
REMARK UNBOUND:                 0.000
REMARK SMILES Cc1cc(O)c2c(c1)C(=O)c1cc(O)cc(O)c1C2=O
REMARK SMILES IDX 1 1 2 2 8 3 7 4 6 5 4 6 3 7 19 8 20 9 18 10 11 11 9 12 10 13
REMARK SMILES IDX 12 14 13 15 15 16 16 17 5 18 17 20 14 22
REMARK H PARENT 5 19 17 21 14 23
REMARK Flexibility Score: inf
ROOT
ATOM      1  C   UNL     1      42.794  54.250 131.452  1.00  0.00     0.044 C 
ATOM      2  C   UNL     1      42.315  53.026 132.174  1.00  0.00    -0.047 A 
ATOM      3  C   UNL     1      43.014  52.546 133.287  1.00  0.00     0.016 A 
ATOM      4  C   UNL     1      42.589  51.385 133.954  1.00  0.00     0.038 A 
ATOM      5  C   UNL     1      41.447  50.691 133.498  1.00  0.00     0.076 A 
ATOM      6  C   UNL     1      40.793  51.134 132.319  1.00  0.00     0.127 A 
ATOM      7  C   UNL     1      41.221  52.303 131.685  1.00  0.00     0.050 A 
ATOM      8  C   UNL     1      40.943  49.555 134.313  1.00  0.00     0.201 C 
ATOM      9  O   UNL     1      39.712  49.284 134.317  1.00  0.00    -0.288 OA
ATOM     10  C   UNL     1      41.856  48.864 135.260  1.00  0.00     0.076 A 
ATOM     11  C   UNL     1      42.999  49.560 135.712  1.00  0.00     0.041 A 
ATOM     12  C   UNL     1      43.341  50.879 135.128  1.00  0.00     0.194 C 
ATOM     13  O   UNL     1      44.285  51.560 135.614  1.00  0.00    -0.289 OA
ATOM     14  C   UNL     1      43.811  48.997 136.711  1.00  0.00     0.059 A 
ATOM     15  C   UNL     1      43.505  47.745 137.251  1.00  0.00     0.120 A 
ATOM     16  C   UNL     1      42.400  47.037 136.780  1.00  0.00     0.093 A 
ATOM     17  C   UNL     1      41.588  47.567 135.771  1.00  0.00     0.131 A 
ENDROOT
BRANCH   6  18
ATOM     18  O   UNL     1      39.744  50.426 131.726  1.00  0.00    -0.507 OA
ATOM     19  H   UNL     1      39.817  49.462 131.432  1.00  0.00     0.293 HD
ENDBRANCH   6  18
BRANCH  17  20
ATOM     20  O   UNL     1      40.555  46.762 135.286  1.00  0.00    -0.507 OA
ATOM     21  H   UNL     1      40.694  46.017 134.619  1.00  0.00     0.293 HD
ENDBRANCH  17  20
BRANCH  15  22
ATOM     22  O   UNL     1      44.300  47.188 138.251  1.00  0.00    -0.508 OA
ATOM     23  H   UNL     1      45.282  46.989 138.098  1.00  0.00     0.293 HD
ENDBRANCH  15  22
TORSDOF 3
ENDMDL
MODEL 4
REMARK VINA RESULT:    -6.328      2.156      5.185
REMARK INTER + INTRA:          -6.883
REMARK INTER:                  -6.883
REMARK INTRA:                   0.000
REMARK UNBOUND:                 0.000
REMARK SMILES Cc1cc(O)c2c(c1)C(=O)c1cc(O)cc(O)c1C2=O
REMARK SMILES IDX 1 1 2 2 8 3 7 4 6 5 4 6 3 7 19 8 20 9 18 10 11 11 9 12 10 13
REMARK SMILES IDX 12 14 13 15 15 16 16 17 5 18 17 20 14 22
REMARK H PARENT 5 19 17 21 14 23
REMARK Flexibility Score: inf
ROOT
ATOM      1  C   UNL     1      42.172  51.922 128.389  1.00  0.00     0.044 C 
ATOM      2  C   UNL     1      41.830  51.036 129.550  1.00  0.00    -0.047 A 
ATOM      3  C   UNL     1      42.402  51.268 130.806  1.00  0.00     0.016 A 
ATOM      4  C   UNL     1      42.110  50.426 131.892  1.00  0.00     0.038 A 
ATOM      5  C   UNL     1      41.232  49.334 131.719  1.00  0.00     0.076 A 
ATOM      6  C   UNL     1      40.722  49.054 130.424  1.00  0.00     0.127 A 
ATOM      7  C   UNL     1      41.011  49.917 129.363  1.00  0.00     0.050 A 
ATOM      8  C   UNL     1      40.832  48.556 132.920  1.00  0.00     0.201 C 
ATOM      9  O   UNL     1      39.701  48.001 132.960  1.00  0.00    -0.288 OA
ATOM     10  C   UNL     1      41.682  48.591 134.138  1.00  0.00     0.076 A 
ATOM     11  C   UNL     1      42.561  49.684 134.307  1.00  0.00     0.041 A 
ATOM     12  C   UNL     1      42.727  50.675 133.218  1.00  0.00     0.194 C 
ATOM     13  O   UNL     1      43.412  51.717 133.410  1.00  0.00    -0.289 OA
ATOM     14  C   UNL     1      43.280  49.824 135.507  1.00  0.00     0.059 A 
ATOM     15  C   UNL     1      43.143  48.882 136.530  1.00  0.00     0.120 A 
ATOM     16  C   UNL     1      42.307  47.781 136.351  1.00  0.00     0.093 A 
ATOM     17  C   UNL     1      41.597  47.607 135.159  1.00  0.00     0.131 A 
ENDROOT
BRANCH   6  18
ATOM     18  O   UNL     1      39.962  47.916 130.142  1.00  0.00    -0.507 OA
ATOM     19  H   UNL     1      40.052  47.382 129.289  1.00  0.00     0.293 HD
ENDBRANCH   6  18
BRANCH  17  20
ATOM     20  O   UNL     1      40.852  46.434 135.017  1.00  0.00    -0.507 OA
ATOM     21  H   UNL     1      40.041  46.216 135.578  1.00  0.00     0.293 HD
ENDBRANCH  17  20
BRANCH  15  22
ATOM     22  O   UNL     1      43.844  49.025 137.726  1.00  0.00    -0.508 OA
ATOM     23  H   UNL     1      43.366  49.183 138.605  1.00  0.00     0.293 HD
ENDBRANCH  15  22
TORSDOF 3
ENDMDL
MODEL 5
REMARK VINA RESULT:    -6.198      1.480      6.308
REMARK INTER + INTRA:          -6.741
REMARK INTER:                  -6.741
REMARK INTRA:                   0.000
REMARK UNBOUND:                 0.000
REMARK SMILES Cc1cc(O)c2c(c1)C(=O)c1cc(O)cc(O)c1C2=O
REMARK SMILES IDX 1 1 2 2 8 3 7 4 6 5 4 6 3 7 19 8 20 9 18 10 11 11 9 12 10 13
REMARK SMILES IDX 12 14 13 15 15 16 16 17 5 18 17 20 14 22
REMARK H PARENT 5 19 17 21 14 23
REMARK Flexibility Score: inf
ROOT
ATOM      1  C   UNL     1      39.085  47.000 133.632  1.00  0.00     0.044 C 
ATOM      2  C   UNL     1      39.926  48.241 133.589  1.00  0.00    -0.047 A 
ATOM      3  C   UNL     1      40.894  48.469 134.574  1.00  0.00     0.016 A 
ATOM      4  C   UNL     1      41.668  49.642 134.559  1.00  0.00     0.038 A 
ATOM      5  C   UNL     1      41.469  50.602 133.544  1.00  0.00     0.076 A 
ATOM      6  C   UNL     1      40.430  50.405 132.598  1.00  0.00     0.127 A 
ATOM      7  C   UNL     1      39.687  49.221 132.620  1.00  0.00     0.050 A 
ATOM      8  C   UNL     1      42.404  51.756 133.475  1.00  0.00     0.201 C 
ATOM      9  O   UNL     1      42.660  52.290 132.362  1.00  0.00    -0.288 OA
ATOM     10  C   UNL     1      43.174  52.155 134.681  1.00  0.00     0.076 A 
ATOM     11  C   UNL     1      43.368  51.192 135.697  1.00  0.00     0.041 A 
ATOM     12  C   UNL     1      42.686  49.879 135.611  1.00  0.00     0.194 C 
ATOM     13  O   UNL     1      42.954  48.972 136.447  1.00  0.00    -0.289 OA
ATOM     14  C   UNL     1      44.204  51.486 136.788  1.00  0.00     0.059 A 
ATOM     15  C   UNL     1      44.834  52.730 136.883  1.00  0.00     0.120 A 
ATOM     16  C   UNL     1      44.613  53.697 135.904  1.00  0.00     0.093 A 
ATOM     17  C   UNL     1      43.769  53.436 134.819  1.00  0.00     0.131 A 
ENDROOT
BRANCH   6  18
ATOM     18  O   UNL     1      40.079  51.369 131.649  1.00  0.00    -0.507 OA
ATOM     19  H   UNL     1      39.484  52.160 131.851  1.00  0.00     0.293 HD
ENDBRANCH   6  18
BRANCH  17  20
ATOM     20  O   UNL     1      43.524  54.483 133.928  1.00  0.00    -0.507 OA
ATOM     21  H   UNL     1      43.144  54.351 133.001  1.00  0.00     0.293 HD
ENDBRANCH  17  20
BRANCH  15  22
ATOM     22  O   UNL     1      45.673  53.020 137.957  1.00  0.00    -0.508 OA
ATOM     23  H   UNL     1      45.315  53.115 138.900  1.00  0.00     0.293 HD
ENDBRANCH  15  22
TORSDOF 3
ENDMDL
MODEL 6
REMARK VINA RESULT:    -6.144      2.030      4.598
REMARK INTER + INTRA:          -6.682
REMARK INTER:                  -6.682
REMARK INTRA:                   0.000
REMARK UNBOUND:                 0.000
REMARK SMILES Cc1cc(O)c2c(c1)C(=O)c1cc(O)cc(O)c1C2=O
REMARK SMILES IDX 1 1 2 2 8 3 7 4 6 5 4 6 3 7 19 8 20 9 18 10 11 11 9 12 10 13
REMARK SMILES IDX 12 14 13 15 15 16 16 17 5 18 17 20 14 22
REMARK H PARENT 5 19 17 21 14 23
REMARK Flexibility Score: inf
ROOT
ATOM      1  C   UNL     1      42.546  45.997 137.388  1.00  0.00     0.044 C 
ATOM      2  C   UNL     1      42.597  47.355 136.753  1.00  0.00    -0.047 A 
ATOM      3  C   UNL     1      41.756  47.660 135.676  1.00  0.00     0.016 A 
ATOM      4  C   UNL     1      41.815  48.919 135.056  1.00  0.00     0.038 A 
ATOM      5  C   UNL     1      42.732  49.888 135.519  1.00  0.00     0.076 A 
ATOM      6  C   UNL     1      43.639  49.544 136.554  1.00  0.00     0.127 A 
ATOM      7  C   UNL     1      43.548  48.292 137.170  1.00  0.00     0.050 A 
ATOM      8  C   UNL     1      42.664  51.254 134.938  1.00  0.00     0.201 C 
ATOM      9  O   UNL     1      42.997  52.250 135.636  1.00  0.00    -0.288 OA
ATOM     10  C   UNL     1      42.033  51.460 133.609  1.00  0.00     0.076 A 
ATOM     11  C   UNL     1      41.117  50.487 133.147  1.00  0.00     0.041 A 
ATOM     12  C   UNL     1      40.925  49.232 133.912  1.00  0.00     0.194 C 
ATOM     13  O   UNL     1      40.021  48.418 133.574  1.00  0.00    -0.289 OA
ATOM     14  C   UNL     1      40.397  50.711 131.962  1.00  0.00     0.059 A 
ATOM     15  C   UNL     1      40.589  51.885 131.227  1.00  0.00     0.120 A 
ATOM     16  C   UNL     1      41.520  52.829 131.658  1.00  0.00     0.093 A 
ATOM     17  C   UNL     1      42.265  52.619 132.823  1.00  0.00     0.131 A 
ENDROOT
BRANCH   6  18
ATOM     18  O   UNL     1      44.666  50.395 136.973  1.00  0.00    -0.507 OA
ATOM     19  H   UNL     1      45.170  50.277 137.840  1.00  0.00     0.293 HD
ENDBRANCH   6  18
BRANCH  17  20
ATOM     20  O   UNL     1      43.243  53.564 133.142  1.00  0.00    -0.507 OA
ATOM     21  H   UNL     1      43.073  54.560 133.160  1.00  0.00     0.293 HD
ENDBRANCH  17  20
BRANCH  15  22
ATOM     22  O   UNL     1      39.867  52.117 130.058  1.00  0.00    -0.508 OA
ATOM     23  H   UNL     1      40.319  52.439 129.211  1.00  0.00     0.293 HD
ENDBRANCH  15  22
TORSDOF 3
ENDMDL
MODEL 7
REMARK VINA RESULT:    -6.109      2.942      3.823
REMARK INTER + INTRA:          -6.644
REMARK INTER:                  -6.644
REMARK INTRA:                   0.000
REMARK UNBOUND:                 0.000
REMARK SMILES Cc1cc(O)c2c(c1)C(=O)c1cc(O)cc(O)c1C2=O
REMARK SMILES IDX 1 1 2 2 8 3 7 4 6 5 4 6 3 7 19 8 20 9 18 10 11 11 9 12 10 13
REMARK SMILES IDX 12 14 13 15 15 16 16 17 5 18 17 20 14 22
REMARK H PARENT 5 19 17 21 14 23
REMARK Flexibility Score: inf
ROOT
ATOM      1  C   UNL     1      47.555  48.050 136.629  1.00  0.00     0.044 C 
ATOM      2  C   UNL     1      46.095  48.009 136.285  1.00  0.00    -0.047 A 
ATOM      3  C   UNL     1      45.613  48.718 135.179  1.00  0.00     0.016 A 
ATOM      4  C   UNL     1      44.244  48.709 134.865  1.00  0.00     0.038 A 
ATOM      5  C   UNL     1      43.342  47.980 135.671  1.00  0.00     0.076 A 
ATOM      6  C   UNL     1      43.825  47.332 136.837  1.00  0.00     0.127 A 
ATOM      7  C   UNL     1      45.194  47.338 137.119  1.00  0.00     0.050 A 
ATOM      8  C   UNL     1      41.929  47.872 135.224  1.00  0.00     0.201 C 
ATOM      9  O   UNL     1      41.254  46.849 135.519  1.00  0.00    -0.288 OA
ATOM     10  C   UNL     1      41.375  48.876 134.279  1.00  0.00     0.076 A 
ATOM     11  C   UNL     1      42.280  49.606 133.476  1.00  0.00     0.041 A 
ATOM     12  C   UNL     1      43.740  49.470 133.696  1.00  0.00     0.194 C 
ATOM     13  O   UNL     1      44.553  50.020 132.903  1.00  0.00    -0.289 OA
ATOM     14  C   UNL     1      41.792  50.464 132.476  1.00  0.00     0.059 A 
ATOM     15  C   UNL     1      40.416  50.612 132.277  1.00  0.00     0.120 A 
ATOM     16  C   UNL     1      39.520  49.924 133.093  1.00  0.00     0.093 A 
ATOM     17  C   UNL     1      39.980  49.080 134.110  1.00  0.00     0.131 A 
ENDROOT
BRANCH   6  18
ATOM     18  O   UNL     1      42.980  46.708 137.759  1.00  0.00    -0.507 OA
ATOM     19  H   UNL     1      42.262  46.047 137.500  1.00  0.00     0.293 HD
ENDBRANCH   6  18
BRANCH  17  20
ATOM     20  O   UNL     1      39.025  48.496 134.946  1.00  0.00    -0.507 OA
ATOM     21  H   UNL     1      39.198  48.261 135.913  1.00  0.00     0.293 HD
ENDBRANCH  17  20
BRANCH  15  22
ATOM     22  O   UNL     1      39.929  51.451 131.278  1.00  0.00    -0.508 OA
ATOM     23  H   UNL     1      39.163  52.092 131.450  1.00  0.00     0.293 HD
ENDBRANCH  15  22
TORSDOF 3
ENDMDL
MODEL 8
REMARK VINA RESULT:    -6.102      5.420      7.110
REMARK INTER + INTRA:          -6.637
REMARK INTER:                  -6.637
REMARK INTRA:                   0.000
REMARK UNBOUND:                 0.000
REMARK SMILES Cc1cc(O)c2c(c1)C(=O)c1cc(O)cc(O)c1C2=O
REMARK SMILES IDX 1 1 2 2 8 3 7 4 6 5 4 6 3 7 19 8 20 9 18 10 11 11 9 12 10 13
REMARK SMILES IDX 12 14 13 15 15 16 16 17 5 18 17 20 14 22
REMARK H PARENT 5 19 17 21 14 23
REMARK Flexibility Score: inf
ROOT
ATOM      1  C   UNL     1      49.730  44.551 139.953  1.00  0.00     0.044 C 
ATOM      2  C   UNL     1      48.299  44.743 139.545  1.00  0.00    -0.047 A 
ATOM      3  C   UNL     1      47.975  45.624 138.507  1.00  0.00     0.016 A 
ATOM      4  C   UNL     1      46.637  45.832 138.136  1.00  0.00     0.038 A 
ATOM      5  C   UNL     1      45.605  45.149 138.816  1.00  0.00     0.076 A 
ATOM      6  C   UNL     1      45.933  44.323 139.922  1.00  0.00     0.127 A 
ATOM      7  C   UNL     1      47.273  44.115 140.260  1.00  0.00     0.050 A 
ATOM      8  C   UNL     1      44.217  45.281 138.301  1.00  0.00     0.201 C 
ATOM      9  O   UNL     1      43.400  44.332 138.451  1.00  0.00    -0.288 OA
ATOM     10  C   UNL     1      43.852  46.444 137.453  1.00  0.00     0.076 A 
ATOM     11  C   UNL     1      44.887  47.127 136.776  1.00  0.00     0.041 A 
ATOM     12  C   UNL     1      46.302  46.773 137.040  1.00  0.00     0.194 C 
ATOM     13  O   UNL     1      47.222  47.290 136.349  1.00  0.00    -0.289 OA
ATOM     14  C   UNL     1      44.571  48.144 135.859  1.00  0.00     0.059 A 
ATOM     15  C   UNL     1      43.239  48.495 135.620  1.00  0.00     0.120 A 
ATOM     16  C   UNL     1      42.217  47.851 136.315  1.00  0.00     0.093 A 
ATOM     17  C   UNL     1      42.506  46.850 137.250  1.00  0.00     0.131 A 
ENDROOT
BRANCH   6  18
ATOM     18  O   UNL     1      44.964  43.724 140.732  1.00  0.00    -0.507 OA
ATOM     19  H   UNL     1      44.860  42.725 140.832  1.00  0.00     0.293 HD
ENDBRANCH   6  18
BRANCH  17  20
ATOM     20  O   UNL     1      41.438  46.315 137.973  1.00  0.00    -0.507 OA
ATOM     21  H   UNL     1      40.526  46.142 137.576  1.00  0.00     0.293 HD
ENDBRANCH  17  20
BRANCH  15  22
ATOM     22  O   UNL     1      42.921  49.493 134.702  1.00  0.00    -0.508 OA
ATOM     23  H   UNL     1      43.577  50.231 134.472  1.00  0.00     0.293 HD
ENDBRANCH  15  22
TORSDOF 3
ENDMDL
MODEL 9
REMARK VINA RESULT:    -5.967      2.732      5.193
REMARK INTER + INTRA:          -6.490
REMARK INTER:                  -6.490
REMARK INTRA:                   0.000
REMARK UNBOUND:                 0.000
REMARK SMILES Cc1cc(O)c2c(c1)C(=O)c1cc(O)cc(O)c1C2=O
REMARK SMILES IDX 1 1 2 2 8 3 7 4 6 5 4 6 3 7 19 8 20 9 18 10 11 11 9 12 10 13
REMARK SMILES IDX 12 14 13 15 15 16 16 17 5 18 17 20 14 22
REMARK H PARENT 5 19 17 21 14 23
REMARK Flexibility Score: inf
ROOT
ATOM      1  C   UNL     1      40.374  51.130 131.751  1.00  0.00     0.044 C 
ATOM      2  C   UNL     1      40.943  50.253 132.826  1.00  0.00    -0.047 A 
ATOM      3  C   UNL     1      42.274  50.410 133.232  1.00  0.00     0.016 A 
ATOM      4  C   UNL     1      42.825  49.575 134.218  1.00  0.00     0.038 A 
ATOM      5  C   UNL     1      42.033  48.566 134.807  1.00  0.00     0.076 A 
ATOM      6  C   UNL     1      40.712  48.357 134.332  1.00  0.00     0.127 A 
ATOM      7  C   UNL     1      40.178  49.213 133.365  1.00  0.00     0.050 A 
ATOM      8  C   UNL     1      42.602  47.802 135.947  1.00  0.00     0.201 C 
ATOM      9  O   UNL     1      41.838  47.344 136.840  1.00  0.00    -0.288 OA
ATOM     10  C   UNL     1      44.075  47.739 136.132  1.00  0.00     0.076 A 
ATOM     11  C   UNL     1      44.865  48.749 135.539  1.00  0.00     0.041 A 
ATOM     12  C   UNL     1      44.238  49.744 134.636  1.00  0.00     0.194 C 
ATOM     13  O   UNL     1      44.912  50.720 134.205  1.00  0.00    -0.289 OA
ATOM     14  C   UNL     1      46.244  48.803 135.802  1.00  0.00     0.059 A 
ATOM     15  C   UNL     1      46.844  47.856 136.637  1.00  0.00     0.120 A 
ATOM     16  C   UNL     1      46.076  46.835 137.192  1.00  0.00     0.093 A 
ATOM     17  C   UNL     1      44.705  46.746 136.928  1.00  0.00     0.131 A 
ENDROOT
BRANCH   6  18
ATOM     18  O   UNL     1      39.914  47.294 134.764  1.00  0.00    -0.507 OA
ATOM     19  H   UNL     1      39.238  46.828 134.175  1.00  0.00     0.293 HD
ENDBRANCH   6  18
BRANCH  17  20
ATOM     20  O   UNL     1      44.019  45.644 137.444  1.00  0.00    -0.507 OA
ATOM     21  H   UNL     1      44.190  45.259 138.362  1.00  0.00     0.293 HD
ENDBRANCH  17  20
BRANCH  15  22
ATOM     22  O   UNL     1      48.209  47.915 136.911  1.00  0.00    -0.508 OA
ATOM     23  H   UNL     1      48.568  47.784 137.850  1.00  0.00     0.293 HD
ENDBRANCH  15  22
TORSDOF 3
ENDMDL
