MODEL 1
REMARK VINA RESULT:    -0.611      0.000      0.000
REMARK INTER + INTRA:          -0.105
REMARK INTER:                  -0.862
REMARK INTRA:                   0.757
REMARK UNBOUND:                 0.757
REMARK SMILES CC1=CCC(=C(C)C)C(=O)CC(C)=CCC1
REMARK SMILES IDX 12 1 14 2 13 3 15 4 16 5 2 6 1 7 3 8 11 10 9 11 10 12 5 13
REMARK SMILES IDX 6 14 7 15 8 16 4 17
REMARK H PARENT
REMARK Flexibility Score: 60.00
ROOT
ATOM      1  C   UNL     1      78.287  14.119   3.476  1.00  0.00    -0.070 C 
ATOM      2  C   UNL     1      78.253  14.338   4.812  1.00  0.00    -0.027 C 
ATOM      3  C   UNL     1      76.971  13.875   2.778  1.00  0.00     0.039 C 
ENDROOT
BRANCH   2   4
ATOM      4  C   UNL     1      79.447  14.497   5.722  1.00  0.00     0.032 C 
BRANCH   4   5
ATOM      5  C   UNL     1      80.459  15.531   5.194  1.00  0.00     0.034 C 
BRANCH   5   6
ATOM      6  C   UNL     1      79.843  16.907   5.032  1.00  0.00    -0.077 C 
ATOM      7  C   UNL     1      79.233  17.565   6.245  1.00  0.00     0.039 C 
ATOM      8  C   UNL     1      79.831  17.592   3.867  1.00  0.00    -0.023 CG0
ATOM      9  G   UNL     1      80.420  17.119   2.560  1.00  0.00     0.000 G0
ENDBRANCH   5   6
ENDBRANCH   4   5
ENDBRANCH   2   4
BRANCH   1  10
ATOM     10  C   UNL     1      79.569  14.041   2.665  1.00  0.00     0.111 C 
BRANCH  10  11
ATOM     11  C   UNL     1      79.539  14.982   1.486  1.00  0.00     0.163 C 
ATOM     12  O   UNL     1      79.560  14.484   0.329  1.00  0.00    -0.294 OA
BRANCH  11  13
ATOM     13  C   UNL     1      79.431  16.464   1.659  1.00  0.00    -0.002 C 
ATOM     14  C   UNL     1      78.491  17.200   0.991  1.00  0.00    -0.069 C 
ATOM     15  C   UNL     1      78.365  18.694   1.200  1.00  0.00     0.039 C 
ATOM     16  C   UNL     1      77.557  16.566  -0.016  1.00  0.00     0.039 C 
BRANCH  13  17
ATOM     17  C   UNL     1      80.461  17.132   2.554  1.00  0.00     0.066 CG0
ATOM     18  G   UNL     1      79.802  17.603   3.828  1.00  0.00     0.000 G0
ENDBRANCH  13  17
ENDBRANCH  11  13
ENDBRANCH  10  11
ENDBRANCH   1  10
TORSDOF 0
ENDMDL
MODEL 2
REMARK VINA RESULT:    -0.556      2.145      3.829
REMARK INTER + INTRA:          -0.027
REMARK INTER:                  -2.719
REMARK INTRA:                   2.692
REMARK UNBOUND:                 0.757
REMARK SMILES CC1=CCC(=C(C)C)C(=O)CC(C)=CCC1
REMARK SMILES IDX 12 1 14 2 13 3 15 4 16 5 2 6 1 7 3 8 11 10 9 11 10 12 5 13
REMARK SMILES IDX 6 14 7 15 8 16 4 17
REMARK H PARENT
REMARK Flexibility Score: 60.00
ROOT
ATOM      1  C   UNL     1      80.032  14.784   3.962  1.00  0.00    -0.070 C 
ATOM      2  C   UNL     1      79.118  13.929   3.445  1.00  0.00    -0.027 C 
ATOM      3  C   UNL     1      81.487  14.499   3.679  1.00  0.00     0.039 C 
ENDROOT
BRANCH   2   4
ATOM      4  C   UNL     1      77.628  13.961   3.687  1.00  0.00     0.032 C 
BRANCH   4   5
ATOM      5  C   UNL     1      76.814  13.875   2.383  1.00  0.00     0.034 C 
BRANCH   5   6
ATOM      6  C   UNL     1      77.486  14.607   1.238  1.00  0.00    -0.077 C 
ATOM      7  C   UNL     1      77.653  13.882  -0.075  1.00  0.00     0.039 C 
ATOM      8  C   UNL     1      77.921  15.884   1.316  1.00  0.00    -0.023 CG0
ATOM      9  G   UNL     1      77.813  16.781   2.526  1.00  0.00     0.000 G0
ENDBRANCH   5   6
ENDBRANCH   4   5
ENDBRANCH   2   4
BRANCH   1  10
ATOM     10  C   UNL     1      79.679  15.960   4.857  1.00  0.00     0.111 C 
BRANCH  10  11
ATOM     11  C   UNL     1      79.777  17.270   4.117  1.00  0.00     0.163 C 
ATOM     12  O   UNL     1      80.459  18.195   4.634  1.00  0.00    -0.294 OA
BRANCH  11  13
ATOM     13  C   UNL     1      79.139  17.474   2.779  1.00  0.00    -0.002 C 
ATOM     14  C   UNL     1      79.685  18.305   1.840  1.00  0.00    -0.069 C 
ATOM     15  C   UNL     1      79.052  18.475   0.476  1.00  0.00     0.039 C 
ATOM     16  C   UNL     1      80.925  19.121   2.129  1.00  0.00     0.039 C 
BRANCH  13  17
ATOM     17  C   UNL     1      77.814  16.774   2.533  1.00  0.00     0.066 CG0
ATOM     18  G   UNL     1      77.927  15.874   1.326  1.00  0.00     0.000 G0
ENDBRANCH  13  17
ENDBRANCH  11  13
ENDBRANCH  10  11
ENDBRANCH   1  10
TORSDOF 0
ENDMDL
