MODEL 1
REMARK VINA RESULT:    -7.734      0.000      0.000
REMARK INTER + INTRA:         -11.647
REMARK INTER:                 -10.220
REMARK INTRA:                  -1.427
REMARK UNBOUND:                -1.427
REMARK SMILES CC[C@@H](C=C[C@H](C)[C@@H]1CC[C@H]2[C@H]3CC[C@H]4C[C@H](O)CC[C@@]4(C)[C@H]3CC[C@]21C)C(C)C
REMARK SMILES IDX 6 1 7 2 5 3 4 4 3 5 2 6 1 7 28 8 29 9 30 10 8 11 9 12 26 13
REMARK SMILES IDX 10 14 11 15 25 16 27 17 12 18 24 19 23 20 13 21 21 22 14 23
REMARK SMILES IDX 15 24 20 25 22 26 16 27 19 28 17 29 18 30
REMARK H PARENT 18 31
REMARK Flexibility Score: inf
ROOT
ATOM      1  C   UNL     1      -0.819  21.325  47.230  1.00  0.00     0.012 C 
ATOM      2  C   UNL     1       0.439  21.949  47.856  1.00  0.00     0.012 C 
ENDROOT
BRANCH   1   3
ATOM      3  C   UNL     1      -0.704  19.820  47.350  1.00  0.00    -0.028 C 
ATOM      4  C   UNL     1      -1.033  19.006  46.332  1.00  0.00    -0.027 C 
BRANCH   4   5
ATOM      5  C   UNL     1      -0.956  17.493  46.439  1.00  0.00     0.014 C 
BRANCH   5   6
ATOM      6  C   UNL     1      -0.351  16.886  45.145  1.00  0.00     0.004 C 
ATOM      7  C   UNL     1       1.181  16.885  45.150  1.00  0.00     0.004 C 
ENDBRANCH   5   6
BRANCH   5   8
ATOM      8  C   UNL     1      -2.347  16.876  46.797  1.00  0.00    -0.011 C 
ATOM      9  C   UNL     1      -3.482  17.548  45.999  1.00  0.00     0.008 C 
ATOM     10  C   UNL     1      -2.661  16.991  48.300  1.00  0.00     0.008 C 
ENDBRANCH   5   8
ENDBRANCH   4   5
ENDBRANCH   1   3
BRANCH   1  11
ATOM     11  C   UNL     1      -2.151  21.812  47.902  1.00  0.00     0.002 C 
ATOM     12  C   UNL     1      -2.766  20.695  48.788  1.00  0.00     0.005 C 
ATOM     13  C   UNL     1      -3.329  22.274  46.985  1.00  0.00    -0.026 C 
ATOM     14  C   UNL     1      -4.282  20.722  48.590  1.00  0.00     0.005 C 
ATOM     15  C   UNL     1      -4.584  22.039  47.874  1.00  0.00    -0.001 C 
ATOM     16  C   UNL     1      -3.251  23.744  46.487  1.00  0.00     0.007 C 
ATOM     17  C   UNL     1      -3.434  21.367  45.722  1.00  0.00     0.012 C 
ATOM     18  C   UNL     1      -4.980  23.199  48.867  1.00  0.00    -0.004 C 
ATOM     19  C   UNL     1      -3.559  24.812  47.536  1.00  0.00     0.005 C 
ATOM     20  C   UNL     1      -4.943  24.592  48.179  1.00  0.00    -0.001 C 
ATOM     21  C   UNL     1      -4.234  23.249  50.226  1.00  0.00     0.004 C 
ATOM     22  C   UNL     1      -5.463  25.766  49.124  1.00  0.00    -0.026 C 
ATOM     23  C   UNL     1      -4.894  24.258  51.166  1.00  0.00     0.004 C 
ATOM     24  C   UNL     1      -4.897  25.689  50.595  1.00  0.00    -0.002 C 
ATOM     25  C   UNL     1      -5.218  27.195  48.511  1.00  0.00     0.010 C 
ATOM     26  C   UNL     1      -7.015  25.626  49.214  1.00  0.00     0.012 C 
ATOM     27  C   UNL     1      -3.517  26.357  50.790  1.00  0.00     0.036 C 
ATOM     28  C   UNL     1      -3.857  27.851  48.819  1.00  0.00     0.032 C 
ATOM     29  C   UNL     1      -3.515  27.806  50.307  1.00  0.00     0.114 C 
BRANCH  29  30
ATOM     30  O   UNL     1      -4.429  28.566  51.054  1.00  0.00    -0.393 OA
ATOM     31  H   UNL     1      -5.320  28.144  50.935  1.00  0.00     0.210 HD
ENDBRANCH  29  30
ENDBRANCH   1  11
TORSDOF 6
ENDMDL
MODEL 2
REMARK VINA RESULT:    -7.469      1.887      3.273
REMARK INTER + INTRA:         -11.297
REMARK INTER:                  -9.912
REMARK INTRA:                  -1.385
REMARK UNBOUND:                -1.427
REMARK SMILES CC[C@@H](C=C[C@H](C)[C@@H]1CC[C@H]2[C@H]3CC[C@H]4C[C@H](O)CC[C@@]4(C)[C@H]3CC[C@]21C)C(C)C
REMARK SMILES IDX 6 1 7 2 5 3 4 4 3 5 2 6 1 7 28 8 29 9 30 10 8 11 9 12 26 13
REMARK SMILES IDX 10 14 11 15 25 16 27 17 12 18 24 19 23 20 13 21 21 22 14 23
REMARK SMILES IDX 15 24 20 25 22 26 16 27 19 28 17 29 18 30
REMARK H PARENT 18 31
REMARK Flexibility Score: inf
ROOT
ATOM      1  C   UNL     1      -2.720  22.315  46.324  1.00  0.00     0.012 C 
ATOM      2  C   UNL     1      -1.187  22.296  46.428  1.00  0.00     0.012 C 
ENDROOT
BRANCH   1   3
ATOM      3  C   UNL     1      -3.206  20.881  46.296  1.00  0.00    -0.028 C 
ATOM      4  C   UNL     1      -2.453  19.873  46.769  1.00  0.00    -0.027 C 
BRANCH   4   5
ATOM      5  C   UNL     1      -2.905  18.424  46.723  1.00  0.00     0.014 C 
BRANCH   5   6
ATOM      6  C   UNL     1      -3.666  18.050  48.022  1.00  0.00     0.004 C 
ATOM      7  C   UNL     1      -3.144  18.800  49.253  1.00  0.00     0.004 C 
ENDBRANCH   5   6
BRANCH   5   8
ATOM      8  C   UNL     1      -1.707  17.463  46.433  1.00  0.00    -0.011 C 
ATOM      9  C   UNL     1      -0.354  18.174  46.637  1.00  0.00     0.008 C 
ATOM     10  C   UNL     1      -1.756  16.892  45.004  1.00  0.00     0.008 C 
ENDBRANCH   5   8
ENDBRANCH   4   5
ENDBRANCH   1   3
BRANCH   1  11
ATOM     11  C   UNL     1      -3.411  23.087  47.502  1.00  0.00     0.002 C 
ATOM     12  C   UNL     1      -4.791  22.463  47.842  1.00  0.00     0.005 C 
ATOM     13  C   UNL     1      -3.706  24.612  47.331  1.00  0.00    -0.026 C 
ATOM     14  C   UNL     1      -5.764  23.606  48.135  1.00  0.00     0.005 C 
ATOM     15  C   UNL     1      -4.897  24.855  48.301  1.00  0.00    -0.001 C 
ATOM     16  C   UNL     1      -2.516  25.563  47.641  1.00  0.00     0.007 C 
ATOM     17  C   UNL     1      -4.174  24.923  45.876  1.00  0.00     0.012 C 
ATOM     18  C   UNL     1      -4.538  25.155  49.808  1.00  0.00    -0.004 C 
ATOM     19  C   UNL     1      -2.173  25.726  49.120  1.00  0.00     0.005 C 
ATOM     20  C   UNL     1      -3.393  26.198  49.936  1.00  0.00    -0.001 C 
ATOM     21  C   UNL     1      -4.260  23.935  50.723  1.00  0.00     0.004 C 
ATOM     22  C   UNL     1      -3.099  26.616  51.447  1.00  0.00    -0.026 C 
ATOM     23  C   UNL     1      -4.176  24.366  52.186  1.00  0.00     0.004 C 
ATOM     24  C   UNL     1      -3.054  25.392  52.441  1.00  0.00    -0.002 C 
ATOM     25  C   UNL     1      -1.802  27.496  51.594  1.00  0.00     0.010 C 
ATOM     26  C   UNL     1      -4.270  27.543  51.900  1.00  0.00     0.012 C 
ATOM     27  C   UNL     1      -1.682  24.686  52.534  1.00  0.00     0.036 C 
ATOM     28  C   UNL     1      -0.473  26.736  51.778  1.00  0.00     0.032 C 
ATOM     29  C   UNL     1      -0.561  25.669  52.868  1.00  0.00     0.114 C 
BRANCH  29  30
ATOM     30  O   UNL     1      -0.789  26.254  54.124  1.00  0.00    -0.393 OA
ATOM     31  H   UNL     1      -1.717  26.018  54.388  1.00  0.00     0.210 HD
ENDBRANCH  29  30
ENDBRANCH   1  11
TORSDOF 6
ENDMDL
MODEL 3
REMARK VINA RESULT:    -7.408      1.637      2.417
REMARK INTER + INTRA:         -11.217
REMARK INTER:                  -9.959
REMARK INTRA:                  -1.258
REMARK UNBOUND:                -1.427
REMARK SMILES CC[C@@H](C=C[C@H](C)[C@@H]1CC[C@H]2[C@H]3CC[C@H]4C[C@H](O)CC[C@@]4(C)[C@H]3CC[C@]21C)C(C)C
REMARK SMILES IDX 6 1 7 2 5 3 4 4 3 5 2 6 1 7 28 8 29 9 30 10 8 11 9 12 26 13
REMARK SMILES IDX 10 14 11 15 25 16 27 17 12 18 24 19 23 20 13 21 21 22 14 23
REMARK SMILES IDX 15 24 20 25 22 26 16 27 19 28 17 29 18 30
REMARK H PARENT 18 31
REMARK Flexibility Score: inf
ROOT
ATOM      1  C   UNL     1      -1.462  21.886  46.536  1.00  0.00     0.012 C 
ATOM      2  C   UNL     1      -0.088  21.914  47.222  1.00  0.00     0.012 C 
ENDROOT
BRANCH   1   3
ATOM      3  C   UNL     1      -1.892  20.439  46.406  1.00  0.00    -0.028 C 
ATOM      4  C   UNL     1      -1.717  19.560  47.407  1.00  0.00    -0.027 C 
BRANCH   4   5
ATOM      5  C   UNL     1      -2.110  18.099  47.289  1.00  0.00     0.014 C 
BRANCH   5   6
ATOM      6  C   UNL     1      -2.537  17.766  45.835  1.00  0.00     0.004 C 
ATOM      7  C   UNL     1      -1.504  16.911  45.094  1.00  0.00     0.004 C 
ENDBRANCH   5   6
BRANCH   5   8
ATOM      8  C   UNL     1      -3.206  17.718  48.337  1.00  0.00    -0.011 C 
ATOM      9  C   UNL     1      -4.489  18.549  48.136  1.00  0.00     0.008 C 
ATOM     10  C   UNL     1      -2.714  17.908  49.783  1.00  0.00     0.008 C 
ENDBRANCH   5   8
ENDBRANCH   4   5
ENDBRANCH   1   3
BRANCH   1  11
ATOM     11  C   UNL     1      -2.558  22.698  47.312  1.00  0.00     0.002 C 
ATOM     12  C   UNL     1      -3.948  22.018  47.184  1.00  0.00     0.005 C 
ATOM     13  C   UNL     1      -2.816  24.187  46.911  1.00  0.00    -0.026 C 
ATOM     14  C   UNL     1      -4.994  23.119  47.002  1.00  0.00     0.005 C 
ATOM     15  C   UNL     1      -4.286  24.426  47.359  1.00  0.00    -0.001 C 
ATOM     16  C   UNL     1      -1.850  25.226  47.544  1.00  0.00     0.007 C 
ATOM     17  C   UNL     1      -2.729  24.364  45.364  1.00  0.00     0.012 C 
ATOM     18  C   UNL     1      -4.510  24.855  48.861  1.00  0.00    -0.004 C 
ATOM     19  C   UNL     1      -2.076  25.516  49.027  1.00  0.00     0.005 C 
ATOM     20  C   UNL     1      -3.523  25.971  49.302  1.00  0.00    -0.001 C 
ATOM     21  C   UNL     1      -4.550  23.722  49.919  1.00  0.00     0.004 C 
ATOM     22  C   UNL     1      -3.813  26.513  50.773  1.00  0.00    -0.026 C 
ATOM     23  C   UNL     1      -5.019  24.261  51.270  1.00  0.00     0.004 C 
ATOM     24  C   UNL     1      -4.099  25.368  51.820  1.00  0.00    -0.002 C 
ATOM     25  C   UNL     1      -2.687  27.477  51.300  1.00  0.00     0.010 C 
ATOM     26  C   UNL     1      -5.096  27.398  50.689  1.00  0.00     0.012 C 
ATOM     27  C   UNL     1      -2.835  24.755  52.465  1.00  0.00     0.036 C 
ATOM     28  C   UNL     1      -1.495  26.814  52.019  1.00  0.00     0.032 C 
ATOM     29  C   UNL     1      -1.943  25.824  53.093  1.00  0.00     0.114 C 
BRANCH  29  30
ATOM     30  O   UNL     1      -2.631  26.483  54.125  1.00  0.00    -0.393 OA
ATOM     31  H   UNL     1      -3.202  27.173  53.696  1.00  0.00     0.210 HD
ENDBRANCH  29  30
ENDBRANCH   1  11
TORSDOF 6
ENDMDL
MODEL 4
REMARK VINA RESULT:    -7.274      1.633      2.468
REMARK INTER + INTRA:         -11.040
REMARK INTER:                  -9.711
REMARK INTRA:                  -1.329
REMARK UNBOUND:                -1.427
REMARK SMILES CC[C@@H](C=C[C@H](C)[C@@H]1CC[C@H]2[C@H]3CC[C@H]4C[C@H](O)CC[C@@]4(C)[C@H]3CC[C@]21C)C(C)C
REMARK SMILES IDX 6 1 7 2 5 3 4 4 3 5 2 6 1 7 28 8 29 9 30 10 8 11 9 12 26 13
REMARK SMILES IDX 10 14 11 15 25 16 27 17 12 18 24 19 23 20 13 21 21 22 14 23
REMARK SMILES IDX 15 24 20 25 22 26 16 27 19 28 17 29 18 30
REMARK H PARENT 18 31
REMARK Flexibility Score: inf
ROOT
ATOM      1  C   UNL     1      -2.249  22.564  46.479  1.00  0.00     0.012 C 
ATOM      2  C   UNL     1      -1.267  23.413  45.655  1.00  0.00     0.012 C 
ENDROOT
BRANCH   1   3
ATOM      3  C   UNL     1      -1.465  21.450  47.140  1.00  0.00    -0.028 C 
ATOM      4  C   UNL     1      -1.742  20.157  46.902  1.00  0.00    -0.027 C 
BRANCH   4   5
ATOM      5  C   UNL     1      -0.990  19.023  47.577  1.00  0.00     0.014 C 
BRANCH   5   6
ATOM      6  C   UNL     1       0.033  18.389  46.597  1.00  0.00     0.004 C 
ATOM      7  C   UNL     1       1.467  18.418  47.137  1.00  0.00     0.004 C 
ENDBRANCH   5   6
BRANCH   5   8
ATOM      8  C   UNL     1      -1.974  17.968  48.181  1.00  0.00    -0.011 C 
ATOM      9  C   UNL     1      -2.338  16.883  47.148  1.00  0.00     0.008 C 
ATOM     10  C   UNL     1      -3.271  18.616  48.698  1.00  0.00     0.008 C 
ENDBRANCH   5   8
ENDBRANCH   4   5
ENDBRANCH   1   3
BRANCH   1  11
ATOM     11  C   UNL     1      -3.019  23.391  47.568  1.00  0.00     0.002 C 
ATOM     12  C   UNL     1      -2.518  23.034  48.993  1.00  0.00     0.005 C 
ATOM     13  C   UNL     1      -4.573  23.254  47.656  1.00  0.00    -0.026 C 
ATOM     14  C   UNL     1      -3.735  22.980  49.918  1.00  0.00     0.005 C 
ATOM     15  C   UNL     1      -4.879  23.626  49.135  1.00  0.00    -0.001 C 
ATOM     16  C   UNL     1      -5.380  24.141  46.667  1.00  0.00     0.007 C 
ATOM     17  C   UNL     1      -5.012  21.778  47.410  1.00  0.00     0.012 C 
ATOM     18  C   UNL     1      -5.056  25.159  49.462  1.00  0.00    -0.004 C 
ATOM     19  C   UNL     1      -5.424  25.630  47.005  1.00  0.00     0.005 C 
ATOM     20  C   UNL     1      -5.969  25.873  48.426  1.00  0.00    -0.001 C 
ATOM     21  C   UNL     1      -3.764  25.984  49.698  1.00  0.00     0.004 C 
ATOM     22  C   UNL     1      -6.269  27.393  48.805  1.00  0.00    -0.026 C 
ATOM     23  C   UNL     1      -4.101  27.370  50.243  1.00  0.00     0.004 C 
ATOM     24  C   UNL     1      -4.992  28.185  49.286  1.00  0.00    -0.002 C 
ATOM     25  C   UNL     1      -7.004  28.174  47.653  1.00  0.00     0.010 C 
ATOM     26  C   UNL     1      -7.282  27.376  49.992  1.00  0.00     0.012 C 
ATOM     27  C   UNL     1      -4.148  28.800  48.146  1.00  0.00     0.036 C 
ATOM     28  C   UNL     1      -6.105  28.846  46.596  1.00  0.00     0.032 C 
ATOM     29  C   UNL     1      -4.992  29.681  47.227  1.00  0.00     0.114 C 
BRANCH  29  30
ATOM     30  O   UNL     1      -5.525  30.762  47.949  1.00  0.00    -0.393 OA
ATOM     31  H   UNL     1      -6.388  30.455  48.331  1.00  0.00     0.210 HD
ENDBRANCH  29  30
ENDBRANCH   1  11
TORSDOF 6
ENDMDL
MODEL 5
REMARK VINA RESULT:    -7.131      2.046      4.368
REMARK INTER + INTRA:         -10.851
REMARK INTER:                  -9.692
REMARK INTRA:                  -1.159
REMARK UNBOUND:                -1.427
REMARK SMILES CC[C@@H](C=C[C@H](C)[C@@H]1CC[C@H]2[C@H]3CC[C@H]4C[C@H](O)CC[C@@]4(C)[C@H]3CC[C@]21C)C(C)C
REMARK SMILES IDX 6 1 7 2 5 3 4 4 3 5 2 6 1 7 28 8 29 9 30 10 8 11 9 12 26 13
REMARK SMILES IDX 10 14 11 15 25 16 27 17 12 18 24 19 23 20 13 21 21 22 14 23
REMARK SMILES IDX 15 24 20 25 22 26 16 27 19 28 17 29 18 30
REMARK H PARENT 18 31
REMARK Flexibility Score: inf
ROOT
ATOM      1  C   UNL     1      -4.639  22.433  48.901  1.00  0.00     0.012 C 
ATOM      2  C   UNL     1      -5.594  22.140  47.733  1.00  0.00     0.012 C 
ENDROOT
BRANCH   1   3
ATOM      3  C   UNL     1      -3.440  21.517  48.766  1.00  0.00    -0.028 C 
ATOM      4  C   UNL     1      -3.464  20.438  47.967  1.00  0.00    -0.027 C 
BRANCH   4   5
ATOM      5  C   UNL     1      -2.286  19.489  47.840  1.00  0.00     0.014 C 
BRANCH   5   6
ATOM      6  C   UNL     1      -1.398  19.882  46.630  1.00  0.00     0.004 C 
ATOM      7  C   UNL     1      -0.081  20.543  47.051  1.00  0.00     0.004 C 
ENDBRANCH   5   6
BRANCH   5   8
ATOM      8  C   UNL     1      -2.759  18.000  47.776  1.00  0.00    -0.011 C 
ATOM      9  C   UNL     1      -2.824  17.371  49.182  1.00  0.00     0.008 C 
ATOM     10  C   UNL     1      -1.842  17.139  46.889  1.00  0.00     0.008 C 
ENDBRANCH   5   8
ENDBRANCH   4   5
ENDBRANCH   1   3
BRANCH   1  11
ATOM     11  C   UNL     1      -4.164  23.927  48.952  1.00  0.00     0.002 C 
ATOM     12  C   UNL     1      -2.615  24.017  48.991  1.00  0.00     0.005 C 
ATOM     13  C   UNL     1      -4.635  24.826  50.141  1.00  0.00    -0.026 C 
ATOM     14  C   UNL     1      -2.234  25.133  49.964  1.00  0.00     0.005 C 
ATOM     15  C   UNL     1      -3.524  25.910  50.229  1.00  0.00    -0.001 C 
ATOM     16  C   UNL     1      -6.043  25.464  49.979  1.00  0.00     0.007 C 
ATOM     17  C   UNL     1      -4.650  24.015  51.473  1.00  0.00     0.012 C 
ATOM     18  C   UNL     1      -3.684  27.170  49.292  1.00  0.00    -0.004 C 
ATOM     19  C   UNL     1      -6.132  26.618  48.983  1.00  0.00     0.005 C 
ATOM     20  C   UNL     1      -5.130  27.740  49.324  1.00  0.00    -0.001 C 
ATOM     21  C   UNL     1      -3.194  27.027  47.828  1.00  0.00     0.004 C 
ATOM     22  C   UNL     1      -5.285  29.088  48.488  1.00  0.00    -0.026 C 
ATOM     23  C   UNL     1      -3.182  28.385  47.128  1.00  0.00     0.004 C 
ATOM     24  C   UNL     1      -4.575  29.042  47.080  1.00  0.00    -0.002 C 
ATOM     25  C   UNL     1      -6.785  29.541  48.337  1.00  0.00     0.010 C 
ATOM     26  C   UNL     1      -4.603  30.221  49.318  1.00  0.00     0.012 C 
ATOM     27  C   UNL     1      -5.428  28.426  45.948  1.00  0.00     0.036 C 
ATOM     28  C   UNL     1      -7.558  28.967  47.133  1.00  0.00     0.032 C 
ATOM     29  C   UNL     1      -6.786  29.115  45.823  1.00  0.00     0.114 C 
BRANCH  29  30
ATOM     30  O   UNL     1      -6.614  30.469  45.494  1.00  0.00    -0.393 OA
ATOM     31  H   UNL     1      -6.847  30.564  44.534  1.00  0.00     0.210 HD
ENDBRANCH  29  30
ENDBRANCH   1  11
TORSDOF 6
ENDMDL
MODEL 6
REMARK VINA RESULT:    -7.003      4.201      7.456
REMARK INTER + INTRA:         -10.681
REMARK INTER:                  -9.338
REMARK INTRA:                  -1.343
REMARK UNBOUND:                -1.427
REMARK SMILES CC[C@@H](C=C[C@H](C)[C@@H]1CC[C@H]2[C@H]3CC[C@H]4C[C@H](O)CC[C@@]4(C)[C@H]3CC[C@]21C)C(C)C
REMARK SMILES IDX 6 1 7 2 5 3 4 4 3 5 2 6 1 7 28 8 29 9 30 10 8 11 9 12 26 13
REMARK SMILES IDX 10 14 11 15 25 16 27 17 12 18 24 19 23 20 13 21 21 22 14 23
REMARK SMILES IDX 15 24 20 25 22 26 16 27 19 28 17 29 18 30
REMARK H PARENT 18 31
REMARK Flexibility Score: inf
ROOT
ATOM      1  C   UNL     1      -1.030  24.504  53.683  1.00  0.00     0.012 C 
ATOM      2  C   UNL     1      -1.160  22.988  53.901  1.00  0.00     0.012 C 
ENDROOT
BRANCH   1   3
ATOM      3  C   UNL     1       0.424  24.882  53.879  1.00  0.00    -0.028 C 
ATOM      4  C   UNL     1       1.396  23.955  53.899  1.00  0.00    -0.027 C 
BRANCH   4   5
ATOM      5  C   UNL     1       2.856  24.306  54.125  1.00  0.00     0.014 C 
BRANCH   5   6
ATOM      6  C   UNL     1       3.071  25.839  54.008  1.00  0.00     0.004 C 
ATOM      7  C   UNL     1       4.536  26.215  53.767  1.00  0.00     0.004 C 
ENDBRANCH   5   6
BRANCH   5   8
ATOM      8  C   UNL     1       3.790  23.496  53.169  1.00  0.00    -0.011 C 
ATOM      9  C   UNL     1       3.184  23.376  51.757  1.00  0.00     0.008 C 
ATOM     10  C   UNL     1       4.081  22.083  53.706  1.00  0.00     0.008 C 
ENDBRANCH   5   8
ENDBRANCH   4   5
ENDBRANCH   1   3
BRANCH   1  11
ATOM     11  C   UNL     1      -1.514  24.969  52.265  1.00  0.00     0.002 C 
ATOM     12  C   UNL     1      -0.680  26.179  51.763  1.00  0.00     0.005 C 
ATOM     13  C   UNL     1      -3.000  25.421  52.088  1.00  0.00    -0.026 C 
ATOM     14  C   UNL     1      -1.635  27.150  51.068  1.00  0.00     0.005 C 
ATOM     15  C   UNL     1      -2.937  26.376  50.862  1.00  0.00    -0.001 C 
ATOM     16  C   UNL     1      -4.025  24.275  51.867  1.00  0.00     0.007 C 
ATOM     17  C   UNL     1      -3.480  26.233  53.330  1.00  0.00     0.012 C 
ATOM     18  C   UNL     1      -3.034  25.709  49.436  1.00  0.00    -0.004 C 
ATOM     19  C   UNL     1      -3.991  23.618  50.488  1.00  0.00     0.005 C 
ATOM     20  C   UNL     1      -4.174  24.655  49.362  1.00  0.00    -0.001 C 
ATOM     21  C   UNL     1      -1.725  25.129  48.838  1.00  0.00     0.004 C 
ATOM     22  C   UNL     1      -4.377  24.060  47.896  1.00  0.00    -0.026 C 
ATOM     23  C   UNL     1      -1.924  24.750  47.372  1.00  0.00     0.004 C 
ATOM     24  C   UNL     1      -3.024  23.689  47.175  1.00  0.00    -0.002 C 
ATOM     25  C   UNL     1      -5.373  22.842  47.867  1.00  0.00     0.010 C 
ATOM     26  C   UNL     1      -5.071  25.170  47.045  1.00  0.00     0.012 C 
ATOM     27  C   UNL     1      -2.485  22.278  47.503  1.00  0.00     0.036 C 
ATOM     28  C   UNL     1      -4.760  21.447  48.108  1.00  0.00     0.032 C 
ATOM     29  C   UNL     1      -3.530  21.196  47.238  1.00  0.00     0.114 C 
BRANCH  29  30
ATOM     30  O   UNL     1      -3.875  21.179  45.877  1.00  0.00    -0.393 OA
ATOM     31  H   UNL     1      -4.311  22.049  45.679  1.00  0.00     0.210 HD
ENDBRANCH  29  30
ENDBRANCH   1  11
TORSDOF 6
ENDMDL
MODEL 7
REMARK VINA RESULT:    -6.838      3.185      5.301
REMARK INTER + INTRA:         -10.464
REMARK INTER:                  -9.481
REMARK INTRA:                  -0.982
REMARK UNBOUND:                -1.427
REMARK SMILES CC[C@@H](C=C[C@H](C)[C@@H]1CC[C@H]2[C@H]3CC[C@H]4C[C@H](O)CC[C@@]4(C)[C@H]3CC[C@]21C)C(C)C
REMARK SMILES IDX 6 1 7 2 5 3 4 4 3 5 2 6 1 7 28 8 29 9 30 10 8 11 9 12 26 13
REMARK SMILES IDX 10 14 11 15 25 16 27 17 12 18 24 19 23 20 13 21 21 22 14 23
REMARK SMILES IDX 15 24 20 25 22 26 16 27 19 28 17 29 18 30
REMARK H PARENT 18 31
REMARK Flexibility Score: inf
ROOT
ATOM      1  C   UNL     1      -1.716  22.673  49.118  1.00  0.00     0.012 C 
ATOM      2  C   UNL     1      -0.507  23.235  48.355  1.00  0.00     0.012 C 
ENDROOT
BRANCH   1   3
ATOM      3  C   UNL     1      -1.474  22.883  50.599  1.00  0.00    -0.028 C 
ATOM      4  C   UNL     1      -1.733  24.060  51.195  1.00  0.00    -0.027 C 
BRANCH   4   5
ATOM      5  C   UNL     1      -1.470  24.303  52.670  1.00  0.00     0.014 C 
BRANCH   5   6
ATOM      6  C   UNL     1      -1.239  22.960  53.411  1.00  0.00     0.004 C 
ATOM      7  C   UNL     1       0.126  22.892  54.105  1.00  0.00     0.004 C 
ENDBRANCH   5   6
BRANCH   5   8
ATOM      8  C   UNL     1      -2.608  25.157  53.317  1.00  0.00    -0.011 C 
ATOM      9  C   UNL     1      -3.810  25.306  52.364  1.00  0.00     0.008 C 
ATOM     10  C   UNL     1      -2.120  26.559  53.724  1.00  0.00     0.008 C 
ENDBRANCH   5   8
ENDBRANCH   4   5
ENDBRANCH   1   3
BRANCH   1  11
ATOM     11  C   UNL     1      -3.075  23.337  48.702  1.00  0.00     0.002 C 
ATOM     12  C   UNL     1      -4.269  22.387  48.988  1.00  0.00     0.005 C 
ATOM     13  C   UNL     1      -3.274  23.774  47.215  1.00  0.00    -0.026 C 
ATOM     14  C   UNL     1      -5.252  22.505  47.823  1.00  0.00     0.005 C 
ATOM     15  C   UNL     1      -4.819  23.745  47.040  1.00  0.00    -0.001 C 
ATOM     16  C   UNL     1      -2.685  25.163  46.842  1.00  0.00     0.007 C 
ATOM     17  C   UNL     1      -2.641  22.732  46.244  1.00  0.00     0.012 C 
ATOM     18  C   UNL     1      -5.608  25.044  47.464  1.00  0.00    -0.004 C 
ATOM     19  C   UNL     1      -3.457  26.370  47.371  1.00  0.00     0.005 C 
ATOM     20  C   UNL     1      -4.934  26.337  46.926  1.00  0.00    -0.001 C 
ATOM     21  C   UNL     1      -5.951  25.201  48.969  1.00  0.00     0.004 C 
ATOM     22  C   UNL     1      -5.781  27.653  47.231  1.00  0.00    -0.026 C 
ATOM     23  C   UNL     1      -6.919  26.364  49.183  1.00  0.00     0.004 C 
ATOM     24  C   UNL     1      -6.346  27.711  48.702  1.00  0.00    -0.002 C 
ATOM     25  C   UNL     1      -4.997  28.974  46.886  1.00  0.00     0.010 C 
ATOM     26  C   UNL     1      -7.003  27.643  46.260  1.00  0.00     0.012 C 
ATOM     27  C   UNL     1      -5.366  28.290  49.748  1.00  0.00     0.036 C 
ATOM     28  C   UNL     1      -4.107  29.556  48.002  1.00  0.00     0.032 C 
ATOM     29  C   UNL     1      -4.845  29.665  49.335  1.00  0.00     0.114 C 
BRANCH  29  30
ATOM     30  O   UNL     1      -5.908  30.579  49.245  1.00  0.00    -0.393 OA
ATOM     31  H   UNL     1      -5.505  31.485  49.196  1.00  0.00     0.210 HD
ENDBRANCH  29  30
ENDBRANCH   1  11
TORSDOF 6
ENDMDL
MODEL 8
REMARK VINA RESULT:    -6.683      3.750      5.668
REMARK INTER + INTRA:         -10.259
REMARK INTER:                  -8.957
REMARK INTRA:                  -1.302
REMARK UNBOUND:                -1.427
REMARK SMILES CC[C@@H](C=C[C@H](C)[C@@H]1CC[C@H]2[C@H]3CC[C@H]4C[C@H](O)CC[C@@]4(C)[C@H]3CC[C@]21C)C(C)C
REMARK SMILES IDX 6 1 7 2 5 3 4 4 3 5 2 6 1 7 28 8 29 9 30 10 8 11 9 12 26 13
REMARK SMILES IDX 10 14 11 15 25 16 27 17 12 18 24 19 23 20 13 21 21 22 14 23
REMARK SMILES IDX 15 24 20 25 22 26 16 27 19 28 17 29 18 30
REMARK H PARENT 18 31
REMARK Flexibility Score: inf
ROOT
ATOM      1  C   UNL     1      -2.566  23.231  48.938  1.00  0.00     0.012 C 
ATOM      2  C   UNL     1      -1.412  23.756  48.070  1.00  0.00     0.012 C 
ENDROOT
BRANCH   1   3
ATOM      3  C   UNL     1      -2.008  22.889  50.304  1.00  0.00    -0.028 C 
ATOM      4  C   UNL     1      -1.027  23.617  50.866  1.00  0.00    -0.027 C 
BRANCH   4   5
ATOM      5  C   UNL     1      -0.431  23.275  52.219  1.00  0.00     0.014 C 
BRANCH   5   6
ATOM      6  C   UNL     1      -1.430  23.614  53.357  1.00  0.00     0.004 C 
ATOM      7  C   UNL     1      -1.900  25.072  53.318  1.00  0.00     0.004 C 
ENDBRANCH   5   6
BRANCH   5   8
ATOM      8  C   UNL     1       0.959  23.963  52.418  1.00  0.00    -0.011 C 
ATOM      9  C   UNL     1       1.785  23.948  51.116  1.00  0.00     0.008 C 
ATOM     10  C   UNL     1       1.782  23.294  53.534  1.00  0.00     0.008 C 
ENDBRANCH   5   8
ENDBRANCH   4   5
ENDBRANCH   1   3
BRANCH   1  11
ATOM     11  C   UNL     1      -3.744  24.257  49.087  1.00  0.00     0.002 C 
ATOM     12  C   UNL     1      -4.318  24.238  50.529  1.00  0.00     0.005 C 
ATOM     13  C   UNL     1      -4.998  24.101  48.168  1.00  0.00    -0.026 C 
ATOM     14  C   UNL     1      -5.839  24.357  50.430  1.00  0.00     0.005 C 
ATOM     15  C   UNL     1      -6.129  24.782  48.990  1.00  0.00    -0.001 C 
ATOM     16  C   UNL     1      -4.870  24.725  46.750  1.00  0.00     0.007 C 
ATOM     17  C   UNL     1      -5.357  22.596  47.975  1.00  0.00     0.012 C 
ATOM     18  C   UNL     1      -6.282  26.344  48.831  1.00  0.00    -0.004 C 
ATOM     19  C   UNL     1      -4.935  26.250  46.694  1.00  0.00     0.005 C 
ATOM     20  C   UNL     1      -6.227  26.786  47.342  1.00  0.00    -0.001 C 
ATOM     21  C   UNL     1      -5.349  27.236  49.692  1.00  0.00     0.004 C 
ATOM     22  C   UNL     1      -6.508  28.344  47.145  1.00  0.00    -0.026 C 
ATOM     23  C   UNL     1      -5.782  28.699  49.617  1.00  0.00     0.004 C 
ATOM     24  C   UNL     1      -5.747  29.257  48.181  1.00  0.00    -0.002 C 
ATOM     25  C   UNL     1      -6.234  28.830  45.673  1.00  0.00     0.010 C 
ATOM     26  C   UNL     1      -8.038  28.562  47.365  1.00  0.00     0.012 C 
ATOM     27  C   UNL     1      -4.302  29.627  47.776  1.00  0.00     0.036 C 
ATOM     28  C   UNL     1      -4.793  29.276  45.353  1.00  0.00     0.032 C 
ATOM     29  C   UNL     1      -4.248  30.259  46.386  1.00  0.00     0.114 C 
BRANCH  29  30
ATOM     30  O   UNL     1      -4.980  31.458  46.371  1.00  0.00    -0.393 OA
ATOM     31  H   UNL     1      -5.803  31.286  45.844  1.00  0.00     0.210 HD
ENDBRANCH  29  30
ENDBRANCH   1  11
TORSDOF 6
ENDMDL
MODEL 9
REMARK VINA RESULT:    -6.668      1.644      2.499
REMARK INTER + INTRA:         -10.240
REMARK INTER:                  -8.973
REMARK INTRA:                  -1.267
REMARK UNBOUND:                -1.427
REMARK SMILES CC[C@@H](C=C[C@H](C)[C@@H]1CC[C@H]2[C@H]3CC[C@H]4C[C@H](O)CC[C@@]4(C)[C@H]3CC[C@]21C)C(C)C
REMARK SMILES IDX 6 1 7 2 5 3 4 4 3 5 2 6 1 7 28 8 29 9 30 10 8 11 9 12 26 13
REMARK SMILES IDX 10 14 11 15 25 16 27 17 12 18 24 19 23 20 13 21 21 22 14 23
REMARK SMILES IDX 15 24 20 25 22 26 16 27 19 28 17 29 18 30
REMARK H PARENT 18 31
REMARK Flexibility Score: inf
ROOT
ATOM      1  C   UNL     1      -1.732  22.674  48.641  1.00  0.00     0.012 C 
ATOM      2  C   UNL     1      -0.974  23.231  49.857  1.00  0.00     0.012 C 
ENDROOT
BRANCH   1   3
ATOM      3  C   UNL     1      -1.937  21.189  48.857  1.00  0.00    -0.028 C 
ATOM      4  C   UNL     1      -1.666  20.293  47.893  1.00  0.00    -0.027 C 
BRANCH   4   5
ATOM      5  C   UNL     1      -1.893  18.803  48.075  1.00  0.00     0.014 C 
BRANCH   5   6
ATOM      6  C   UNL     1      -2.040  18.102  46.699  1.00  0.00     0.004 C 
ATOM      7  C   UNL     1      -0.698  17.914  45.982  1.00  0.00     0.004 C 
ENDBRANCH   5   6
BRANCH   5   8
ATOM      8  C   UNL     1      -3.105  18.524  49.022  1.00  0.00    -0.011 C 
ATOM      9  C   UNL     1      -3.077  17.080  49.560  1.00  0.00     0.008 C 
ATOM     10  C   UNL     1      -4.454  18.767  48.322  1.00  0.00     0.008 C 
ENDBRANCH   5   8
ENDBRANCH   4   5
ENDBRANCH   1   3
BRANCH   1  11
ATOM     11  C   UNL     1      -3.116  23.372  48.401  1.00  0.00     0.002 C 
ATOM     12  C   UNL     1      -4.288  22.431  48.788  1.00  0.00     0.005 C 
ATOM     13  C   UNL     1      -3.471  23.863  46.960  1.00  0.00    -0.026 C 
ATOM     14  C   UNL     1      -5.392  22.603  47.743  1.00  0.00     0.005 C 
ATOM     15  C   UNL     1      -5.026  23.862  46.957  1.00  0.00    -0.001 C 
ATOM     16  C   UNL     1      -2.900  25.254  46.568  1.00  0.00     0.007 C 
ATOM     17  C   UNL     1      -2.968  22.844  45.892  1.00  0.00     0.012 C 
ATOM     18  C   UNL     1      -5.739  25.157  47.508  1.00  0.00    -0.004 C 
ATOM     19  C   UNL     1      -3.587  26.454  47.218  1.00  0.00     0.005 C 
ATOM     20  C   UNL     1      -5.104  26.457  46.940  1.00  0.00    -0.001 C 
ATOM     21  C   UNL     1      -5.909  25.269  49.046  1.00  0.00     0.004 C 
ATOM     22  C   UNL     1      -5.887  27.775  47.379  1.00  0.00    -0.026 C 
ATOM     23  C   UNL     1      -6.826  26.437  49.403  1.00  0.00     0.004 C 
ATOM     24  C   UNL     1      -6.285  27.792  48.905  1.00  0.00    -0.002 C 
ATOM     25  C   UNL     1      -5.122  29.095  46.991  1.00  0.00     0.010 C 
ATOM     26  C   UNL     1      -7.210  27.817  46.551  1.00  0.00     0.012 C 
ATOM     27  C   UNL     1      -5.184  28.320  49.853  1.00  0.00     0.036 C 
ATOM     28  C   UNL     1      -4.103  29.626  48.020  1.00  0.00     0.032 C 
ATOM     29  C   UNL     1      -4.687  29.701  49.429  1.00  0.00     0.114 C 
BRANCH  29  30
ATOM     30  O   UNL     1      -5.736  30.632  49.488  1.00  0.00    -0.393 OA
ATOM     31  H   UNL     1      -5.405  31.406  50.015  1.00  0.00     0.210 HD
ENDBRANCH  29  30
ENDBRANCH   1  11
TORSDOF 6
ENDMDL
