MODEL 1
REMARK VINA RESULT:    -6.334      0.000      0.000
REMARK INTER + INTRA:          -9.067
REMARK INTER:                  -8.556
REMARK INTRA:                  -0.511
REMARK UNBOUND:                -0.511
REMARK SMILES O=c1c(-c2ccc(O)cc2)coc2c([C@@H]3O[C@@H](CO)[C@H](O)[C@@H](O)[C@H]3O)c(O)ccc12
REMARK SMILES IDX 3 1 11 2 12 3 13 4 30 5 2 6 1 7 29 8 28 9 26 10 14 11 4 12
REMARK SMILES IDX 5 13 6 14 7 15 10 16 9 17 8 18 15 20 24 21 16 22 22 23 17 24
REMARK SMILES IDX 20 25 25 26 23 28 18 30 19 31 21 33 27 35
REMARK H PARENT 8 19 25 27 23 29 19 32 21 34 27 36
REMARK Flexibility Score: inf
ROOT
ATOM      1  C   UNL     1      -1.659  12.015  -6.052  1.00  0.00     0.065 A 
ATOM      2  C   UNL     1      -2.247  12.217  -7.305  1.00  0.00     0.208 A 
ATOM      3  O   UNL     1      -3.355  11.575  -7.649  1.00  0.00    -0.463 OA
ATOM      4  C   UNL     1      -3.986  10.712  -6.863  1.00  0.00     0.147 A 
ATOM      5  C   UNL     1      -3.472  10.473  -5.562  1.00  0.00     0.066 A 
ATOM      6  C   UNL     1      -2.295  11.133  -5.163  1.00  0.00     0.200 A 
ATOM      7  O   UNL     1      -1.824  10.953  -4.004  1.00  0.00    -0.288 OA
ATOM      8  C   UNL     1      -4.146   9.604  -4.697  1.00  0.00     0.020 A 
ATOM      9  C   UNL     1      -5.337   9.012  -5.088  1.00  0.00     0.047 A 
ATOM     10  C   UNL     1      -5.871   9.244  -6.357  1.00  0.00     0.125 A 
ATOM     11  C   UNL     1      -5.167  10.042  -7.306  1.00  0.00     0.069 A 
ENDROOT
BRANCH   1  12
ATOM     12  C   UNL     1      -0.410  12.732  -5.692  1.00  0.00    -0.011 A 
ATOM     13  C   UNL     1       0.839  12.257  -6.128  1.00  0.00     0.013 A 
ATOM     14  C   UNL     1       2.012  12.942  -5.796  1.00  0.00     0.047 A 
ATOM     15  C   UNL     1       1.953  14.109  -5.028  1.00  0.00     0.115 A 
ATOM     16  C   UNL     1      -0.463  13.911  -4.927  1.00  0.00     0.013 A 
ATOM     17  C   UNL     1       0.710  14.593  -4.595  1.00  0.00     0.047 A 
BRANCH  15  18
ATOM     18  O   UNL     1       3.129  14.781  -4.703  1.00  0.00    -0.508 OA
ATOM     19  H   UNL     1       3.876  14.325  -4.194  1.00  0.00     0.293 HD
ENDBRANCH  15  18
ENDBRANCH   1  12
BRANCH  11  20
ATOM     20  C   UNL     1      -5.739  10.132  -8.741  1.00  0.00     0.188 C 
ATOM     21  C   UNL     1      -4.988  10.924  -9.850  1.00  0.00     0.179 C 
ATOM     22  O   UNL     1      -6.078   8.842  -9.237  1.00  0.00    -0.362 OA
ATOM     23  C   UNL     1      -3.754  10.131 -10.335  1.00  0.00     0.177 C 
ATOM     24  C   UNL     1      -4.930   8.060  -9.532  1.00  0.00     0.176 C 
ATOM     25  C   UNL     1      -4.142   8.687 -10.706  1.00  0.00     0.177 C 
BRANCH  21  26
ATOM     26  O   UNL     1      -5.859  11.112 -10.939  1.00  0.00    -0.387 OA
ATOM     27  H   UNL     1      -6.213  10.218 -11.190  1.00  0.00     0.211 HD
ENDBRANCH  21  26
BRANCH  23  28
ATOM     28  O   UNL     1      -3.122  10.789 -11.407  1.00  0.00    -0.387 OA
ATOM     29  H   UNL     1      -3.807  10.982 -12.097  1.00  0.00     0.211 HD
ENDBRANCH  23  28
BRANCH  24  30
ATOM     30  C   UNL     1      -5.406   6.638  -9.869  1.00  0.00     0.191 C 
BRANCH  30  31
ATOM     31  O   UNL     1      -5.181   6.331 -11.219  1.00  0.00    -0.394 OA
ATOM     32  H   UNL     1      -6.075   6.242 -11.643  1.00  0.00     0.210 HD
ENDBRANCH  30  31
ENDBRANCH  24  30
BRANCH  25  33
ATOM     33  O   UNL     1      -2.980   7.939 -10.957  1.00  0.00    -0.388 OA
ATOM     34  H   UNL     1      -3.020   7.139 -10.369  1.00  0.00     0.211 HD
ENDBRANCH  25  33
ENDBRANCH  11  20
BRANCH  10  35
ATOM     35  O   UNL     1      -7.117   8.672  -6.628  1.00  0.00    -0.507 OA
ATOM     36  H   UNL     1      -7.660   8.152  -5.953  1.00  0.00     0.293 HD
ENDBRANCH  10  35
TORSDOF 9
ENDMDL
MODEL 2
REMARK VINA RESULT:    -5.642      2.001      3.635
REMARK INTER + INTRA:          -8.133
REMARK INTER:                  -8.118
REMARK INTRA:                  -0.014
REMARK UNBOUND:                -0.511
REMARK SMILES O=c1c(-c2ccc(O)cc2)coc2c([C@@H]3O[C@@H](CO)[C@H](O)[C@@H](O)[C@H]3O)c(O)ccc12
REMARK SMILES IDX 3 1 11 2 12 3 13 4 30 5 2 6 1 7 29 8 28 9 26 10 14 11 4 12
REMARK SMILES IDX 5 13 6 14 7 15 10 16 9 17 8 18 15 20 24 21 16 22 22 23 17 24
REMARK SMILES IDX 20 25 25 26 23 28 18 30 19 31 21 33 27 35
REMARK H PARENT 8 19 25 27 23 29 19 32 21 34 27 36
REMARK Flexibility Score: inf
ROOT
ATOM      1  C   UNL     1      -0.762  12.953  -6.140  1.00  0.00     0.065 A 
ATOM      2  C   UNL     1      -2.025  12.804  -5.559  1.00  0.00     0.208 A 
ATOM      3  O   UNL     1      -2.927  11.987  -6.088  1.00  0.00    -0.463 OA
ATOM      4  C   UNL     1      -2.718  11.261  -7.180  1.00  0.00     0.147 A 
ATOM      5  C   UNL     1      -1.451  11.331  -7.813  1.00  0.00     0.066 A 
ATOM      6  C   UNL     1      -0.470  12.190  -7.283  1.00  0.00     0.200 A 
ATOM      7  O   UNL     1       0.673  12.259  -7.815  1.00  0.00    -0.288 OA
ATOM      8  C   UNL     1      -1.190  10.539  -8.937  1.00  0.00     0.020 A 
ATOM      9  C   UNL     1      -2.149   9.653  -9.405  1.00  0.00     0.047 A 
ATOM     10  C   UNL     1      -3.397   9.556  -8.790  1.00  0.00     0.125 A 
ATOM     11  C   UNL     1      -3.741  10.414  -7.705  1.00  0.00     0.069 A 
ENDROOT
BRANCH   1  12
ATOM     12  C   UNL     1       0.227  13.885  -5.540  1.00  0.00    -0.011 A 
ATOM     13  C   UNL     1       1.596  13.566  -5.529  1.00  0.00     0.013 A 
ATOM     14  C   UNL     1       2.524  14.452  -4.974  1.00  0.00     0.047 A 
ATOM     15  C   UNL     1       2.099  15.666  -4.426  1.00  0.00     0.115 A 
ATOM     16  C   UNL     1      -0.194  15.111  -4.995  1.00  0.00     0.013 A 
ATOM     17  C   UNL     1       0.736  15.994  -4.439  1.00  0.00     0.047 A 
BRANCH  15  18
ATOM     18  O   UNL     1       3.034  16.539  -3.875  1.00  0.00    -0.508 OA
ATOM     19  H   UNL     1       3.055  16.733  -2.882  1.00  0.00     0.293 HD
ENDBRANCH  15  18
ENDBRANCH   1  12
BRANCH  11  20
ATOM     20  C   UNL     1      -5.192  10.359  -7.171  1.00  0.00     0.188 C 
ATOM     21  C   UNL     1      -5.752  11.493  -6.265  1.00  0.00     0.179 C 
ATOM     22  O   UNL     1      -6.115  10.105  -8.224  1.00  0.00    -0.362 OA
ATOM     23  C   UNL     1      -6.054  12.753  -7.106  1.00  0.00     0.177 C 
ATOM     24  C   UNL     1      -6.266  11.222  -9.087  1.00  0.00     0.176 C 
ATOM     25  C   UNL     1      -6.922  12.399  -8.329  1.00  0.00     0.177 C 
BRANCH  21  26
ATOM     26  O   UNL     1      -6.948  11.049  -5.672  1.00  0.00    -0.387 OA
ATOM     27  H   UNL     1      -6.730  10.766  -4.745  1.00  0.00     0.211 HD
ENDBRANCH  21  26
BRANCH  23  28
ATOM     28  O   UNL     1      -6.654  13.754  -6.318  1.00  0.00    -0.387 OA
ATOM     29  H   UNL     1      -7.296  13.316  -5.701  1.00  0.00     0.211 HD
ENDBRANCH  23  28
BRANCH  24  30
ATOM     30  C   UNL     1      -7.123  10.776 -10.283  1.00  0.00     0.191 C 
BRANCH  30  31
ATOM     31  O   UNL     1      -6.956   9.409 -10.549  1.00  0.00    -0.394 OA
ATOM     32  H   UNL     1      -6.058   9.307 -10.961  1.00  0.00     0.210 HD
ENDBRANCH  30  31
ENDBRANCH  24  30
BRANCH  25  33
ATOM     33  O   UNL     1      -7.020  13.518  -9.174  1.00  0.00    -0.388 OA
ATOM     34  H   UNL     1      -6.684  13.235 -10.065  1.00  0.00     0.211 HD
ENDBRANCH  25  33
ENDBRANCH  11  20
BRANCH  10  35
ATOM     35  O   UNL     1      -4.265   8.576  -9.281  1.00  0.00    -0.507 OA
ATOM     36  H   UNL     1      -4.263   8.245 -10.236  1.00  0.00     0.293 HD
ENDBRANCH  10  35
TORSDOF 9
ENDMDL
MODEL 3
REMARK VINA RESULT:    -5.488      1.770      4.514
REMARK INTER + INTRA:          -7.924
REMARK INTER:                  -8.676
REMARK INTRA:                   0.751
REMARK UNBOUND:                -0.511
REMARK SMILES O=c1c(-c2ccc(O)cc2)coc2c([C@@H]3O[C@@H](CO)[C@H](O)[C@@H](O)[C@H]3O)c(O)ccc12
REMARK SMILES IDX 3 1 11 2 12 3 13 4 30 5 2 6 1 7 29 8 28 9 26 10 14 11 4 12
REMARK SMILES IDX 5 13 6 14 7 15 10 16 9 17 8 18 15 20 24 21 16 22 22 23 17 24
REMARK SMILES IDX 20 25 25 26 23 28 18 30 19 31 21 33 27 35
REMARK H PARENT 8 19 25 27 23 29 19 32 21 34 27 36
REMARK Flexibility Score: inf
ROOT
ATOM      1  C   UNL     1      -1.386  11.903  -6.983  1.00  0.00     0.065 A 
ATOM      2  C   UNL     1      -2.311  11.255  -6.158  1.00  0.00     0.208 A 
ATOM      3  O   UNL     1      -3.373  10.648  -6.671  1.00  0.00    -0.463 OA
ATOM      4  C   UNL     1      -3.645  10.601  -7.969  1.00  0.00     0.147 A 
ATOM      5  C   UNL     1      -2.740  11.208  -8.877  1.00  0.00     0.066 A 
ATOM      6  C   UNL     1      -1.604  11.865  -8.370  1.00  0.00     0.200 A 
ATOM      7  O   UNL     1      -0.771  12.399  -9.156  1.00  0.00    -0.288 OA
ATOM      8  C   UNL     1      -2.978  11.130 -10.254  1.00  0.00     0.020 A 
ATOM      9  C   UNL     1      -4.071  10.423 -10.735  1.00  0.00     0.047 A 
ATOM     10  C   UNL     1      -4.967   9.805  -9.862  1.00  0.00     0.125 A 
ATOM     11  C   UNL     1      -4.817   9.943  -8.450  1.00  0.00     0.069 A 
ENDROOT
BRANCH   1  12
ATOM     12  C   UNL     1      -0.212  12.590  -6.388  1.00  0.00    -0.011 A 
ATOM     13  C   UNL     1      -0.357  13.837  -5.754  1.00  0.00     0.013 A 
ATOM     14  C   UNL     1       0.749  14.474  -5.186  1.00  0.00     0.047 A 
ATOM     15  C   UNL     1       2.012  13.877  -5.239  1.00  0.00     0.115 A 
ATOM     16  C   UNL     1       1.059  11.990  -6.431  1.00  0.00     0.013 A 
ATOM     17  C   UNL     1       2.164  12.631  -5.864  1.00  0.00     0.047 A 
BRANCH  15  18
ATOM     18  O   UNL     1       3.106  14.523  -4.670  1.00  0.00    -0.508 OA
ATOM     19  H   UNL     1       3.845  14.007  -4.209  1.00  0.00     0.293 HD
ENDBRANCH  15  18
ENDBRANCH   1  12
BRANCH  11  20
ATOM     20  C   UNL     1      -5.931   9.363  -7.546  1.00  0.00     0.188 C 
ATOM     21  C   UNL     1      -5.585   8.393  -6.379  1.00  0.00     0.179 C 
ATOM     22  O   UNL     1      -6.782  10.394  -7.058  1.00  0.00    -0.362 OA
ATOM     23  C   UNL     1      -4.959   9.172  -5.200  1.00  0.00     0.177 C 
ATOM     24  C   UNL     1      -6.141  11.205  -6.085  1.00  0.00     0.176 C 
ATOM     25  C   UNL     1      -5.837  10.378  -4.814  1.00  0.00     0.177 C 
BRANCH  21  26
ATOM     26  O   UNL     1      -6.770   7.779  -5.936  1.00  0.00    -0.387 OA
ATOM     27  H   UNL     1      -7.519   8.175  -6.457  1.00  0.00     0.211 HD
ENDBRANCH  21  26
BRANCH  23  28
ATOM     28  O   UNL     1      -4.733   8.324  -4.100  1.00  0.00    -0.387 OA
ATOM     29  H   UNL     1      -3.804   7.981  -4.161  1.00  0.00     0.211 HD
ENDBRANCH  23  28
BRANCH  24  30
ATOM     30  C   UNL     1      -7.073  12.388  -5.776  1.00  0.00     0.191 C 
BRANCH  30  31
ATOM     31  O   UNL     1      -6.363  13.469  -5.232  1.00  0.00    -0.394 OA
ATOM     32  H   UNL     1      -6.760  14.293  -5.617  1.00  0.00     0.210 HD
ENDBRANCH  30  31
ENDBRANCH  24  30
BRANCH  25  33
ATOM     33  O   UNL     1      -5.156  11.172  -3.877  1.00  0.00    -0.388 OA
ATOM     34  H   UNL     1      -5.716  11.978  -3.722  1.00  0.00     0.211 HD
ENDBRANCH  25  33
ENDBRANCH  11  20
BRANCH  10  35
ATOM     35  O   UNL     1      -5.988   9.047 -10.442  1.00  0.00    -0.507 OA
ATOM     36  H   UNL     1      -6.156   8.992 -11.437  1.00  0.00     0.293 HD
ENDBRANCH  10  35
TORSDOF 9
ENDMDL
MODEL 4
REMARK VINA RESULT:    -5.231      1.979      7.452
REMARK INTER + INTRA:          -7.576
REMARK INTER:                  -8.477
REMARK INTRA:                   0.901
REMARK UNBOUND:                -0.511
REMARK SMILES O=c1c(-c2ccc(O)cc2)coc2c([C@@H]3O[C@@H](CO)[C@H](O)[C@@H](O)[C@H]3O)c(O)ccc12
REMARK SMILES IDX 3 1 11 2 12 3 13 4 30 5 2 6 1 7 29 8 28 9 26 10 14 11 4 12
REMARK SMILES IDX 5 13 6 14 7 15 10 16 9 17 8 18 15 20 24 21 16 22 22 23 17 24
REMARK SMILES IDX 20 25 25 26 23 28 18 30 19 31 21 33 27 35
REMARK H PARENT 8 19 25 27 23 29 19 32 21 34 27 36
REMARK Flexibility Score: inf
ROOT
ATOM      1  C   UNL     1      -4.206   9.449  -8.802  1.00  0.00     0.065 A 
ATOM      2  C   UNL     1      -3.166  10.330  -9.112  1.00  0.00     0.208 A 
ATOM      3  O   UNL     1      -2.784  11.263  -8.250  1.00  0.00    -0.463 OA
ATOM      4  C   UNL     1      -3.334  11.438  -7.055  1.00  0.00     0.147 A 
ATOM      5  C   UNL     1      -4.377  10.565  -6.650  1.00  0.00     0.066 A 
ATOM      6  C   UNL     1      -4.812   9.566  -7.539  1.00  0.00     0.200 A 
ATOM      7  O   UNL     1      -5.726   8.762  -7.200  1.00  0.00    -0.288 OA
ATOM      8  C   UNL     1      -4.941  10.698  -5.376  1.00  0.00     0.020 A 
ATOM      9  C   UNL     1      -4.454  11.650  -4.492  1.00  0.00     0.047 A 
ATOM     10  C   UNL     1      -3.419  12.510  -4.862  1.00  0.00     0.125 A 
ATOM     11  C   UNL     1      -2.883  12.475  -6.183  1.00  0.00     0.069 A 
ENDROOT
BRANCH   1  12
ATOM     12  C   UNL     1      -4.629   8.422  -9.787  1.00  0.00    -0.011 A 
ATOM     13  C   UNL     1      -3.680   7.599 -10.417  1.00  0.00     0.013 A 
ATOM     14  C   UNL     1      -4.085   6.626 -11.336  1.00  0.00     0.047 A 
ATOM     15  C   UNL     1      -5.440   6.461 -11.635  1.00  0.00     0.115 A 
ATOM     16  C   UNL     1      -5.992   8.245 -10.086  1.00  0.00     0.013 A 
ATOM     17  C   UNL     1      -6.394   7.273 -11.006  1.00  0.00     0.047 A 
BRANCH  15  18
ATOM     18  O   UNL     1      -5.830   5.489 -12.554  1.00  0.00    -0.508 OA
ATOM     19  H   UNL     1      -6.780   5.439 -12.900  1.00  0.00     0.293 HD
ENDBRANCH  15  18
ENDBRANCH   1  12
BRANCH  11  20
ATOM     20  C   UNL     1      -1.847  13.557  -6.571  1.00  0.00     0.188 C 
ATOM     21  C   UNL     1      -1.103  14.376  -5.477  1.00  0.00     0.179 C 
ATOM     22  O   UNL     1      -0.898  13.046  -7.499  1.00  0.00    -0.362 OA
ATOM     23  C   UNL     1      -0.020  13.507  -4.800  1.00  0.00     0.177 C 
ATOM     24  C   UNL     1      -0.001  12.123  -6.897  1.00  0.00     0.176 C 
ATOM     25  C   UNL     1       0.886  12.841  -5.854  1.00  0.00     0.177 C 
BRANCH  21  26
ATOM     26  O   UNL     1      -0.479  15.481  -6.086  1.00  0.00    -0.387 OA
ATOM     27  H   UNL     1      -1.138  16.224  -6.092  1.00  0.00     0.211 HD
ENDBRANCH  21  26
BRANCH  23  28
ATOM     28  O   UNL     1       0.729  14.263  -3.878  1.00  0.00    -0.387 OA
ATOM     29  H   UNL     1       1.458  14.719  -4.373  1.00  0.00     0.211 HD
ENDBRANCH  23  28
BRANCH  24  30
ATOM     30  C   UNL     1       0.843  11.494  -8.017  1.00  0.00     0.191 C 
BRANCH  30  31
ATOM     31  O   UNL     1       1.417  10.282  -7.604  1.00  0.00    -0.394 OA
ATOM     32  H   UNL     1       0.665   9.675  -7.377  1.00  0.00     0.210 HD
ENDBRANCH  30  31
ENDBRANCH  24  30
BRANCH  25  33
ATOM     33  O   UNL     1       1.732  11.912  -5.225  1.00  0.00    -0.388 OA
ATOM     34  H   UNL     1       2.612  11.969  -5.683  1.00  0.00     0.211 HD
ENDBRANCH  25  33
ENDBRANCH  11  20
BRANCH  10  35
ATOM     35  O   UNL     1      -2.940  13.376  -3.875  1.00  0.00    -0.507 OA
ATOM     36  H   UNL     1      -3.435  13.590  -3.021  1.00  0.00     0.293 HD
ENDBRANCH  10  35
TORSDOF 9
ENDMDL
MODEL 5
REMARK VINA RESULT:    -4.854      2.251      8.215
REMARK INTER + INTRA:          -7.067
REMARK INTER:                  -7.437
REMARK INTRA:                   0.370
REMARK UNBOUND:                -0.511
REMARK SMILES O=c1c(-c2ccc(O)cc2)coc2c([C@@H]3O[C@@H](CO)[C@H](O)[C@@H](O)[C@H]3O)c(O)ccc12
REMARK SMILES IDX 3 1 11 2 12 3 13 4 30 5 2 6 1 7 29 8 28 9 26 10 14 11 4 12
REMARK SMILES IDX 5 13 6 14 7 15 10 16 9 17 8 18 15 20 24 21 16 22 22 23 17 24
REMARK SMILES IDX 20 25 25 26 23 28 18 30 19 31 21 33 27 35
REMARK H PARENT 8 19 25 27 23 29 19 32 21 34 27 36
REMARK Flexibility Score: inf
ROOT
ATOM      1  C   UNL     1      -5.094   8.130 -10.229  1.00  0.00     0.065 A 
ATOM      2  C   UNL     1      -5.681   8.170  -8.960  1.00  0.00     0.208 A 
ATOM      3  O   UNL     1      -5.394   9.145  -8.108  1.00  0.00    -0.463 OA
ATOM      4  C   UNL     1      -4.554  10.137  -8.372  1.00  0.00     0.147 A 
ATOM      5  C   UNL     1      -3.939  10.188  -9.649  1.00  0.00     0.066 A 
ATOM      6  C   UNL     1      -4.215   9.169 -10.579  1.00  0.00     0.200 A 
ATOM      7  O   UNL     1      -3.696   9.197 -11.731  1.00  0.00    -0.288 OA
ATOM      8  C   UNL     1      -3.086  11.250  -9.970  1.00  0.00     0.020 A 
ATOM      9  C   UNL     1      -2.876  12.276  -9.061  1.00  0.00     0.047 A 
ATOM     10  C   UNL     1      -3.483  12.257  -7.804  1.00  0.00     0.125 A 
ATOM     11  C   UNL     1      -4.278  11.145  -7.399  1.00  0.00     0.069 A 
ENDROOT
BRANCH   1  12
ATOM     12  C   UNL     1      -5.416   7.022 -11.163  1.00  0.00    -0.011 A 
ATOM     13  C   UNL     1      -6.546   6.212 -10.952  1.00  0.00     0.013 A 
ATOM     14  C   UNL     1      -6.851   5.177 -11.841  1.00  0.00     0.047 A 
ATOM     15  C   UNL     1      -6.035   4.938 -12.951  1.00  0.00     0.115 A 
ATOM     16  C   UNL     1      -4.605   6.782 -12.286  1.00  0.00     0.013 A 
ATOM     17  C   UNL     1      -4.911   5.745 -13.172  1.00  0.00     0.047 A 
BRANCH  15  18
ATOM     18  O   UNL     1      -6.350   3.903 -13.827  1.00  0.00    -0.508 OA
ATOM     19  H   UNL     1      -5.631   3.314 -14.230  1.00  0.00     0.293 HD
ENDBRANCH  15  18
ENDBRANCH   1  12
BRANCH  11  20
ATOM     20  C   UNL     1      -4.792  11.118  -5.939  1.00  0.00     0.188 C 
ATOM     21  C   UNL     1      -5.243   9.783  -5.278  1.00  0.00     0.179 C 
ATOM     22  O   UNL     1      -3.890  11.790  -5.067  1.00  0.00    -0.362 OA
ATOM     23  C   UNL     1      -4.013   8.921  -4.917  1.00  0.00     0.177 C 
ATOM     24  C   UNL     1      -2.691  11.057  -4.867  1.00  0.00     0.176 C 
ATOM     25  C   UNL     1      -2.987   9.741  -4.111  1.00  0.00     0.177 C 
BRANCH  21  26
ATOM     26  O   UNL     1      -5.948  10.080  -4.097  1.00  0.00    -0.387 OA
ATOM     27  H   UNL     1      -6.907  10.174  -4.343  1.00  0.00     0.211 HD
ENDBRANCH  21  26
BRANCH  23  28
ATOM     28  O   UNL     1      -4.400   7.755  -4.228  1.00  0.00    -0.387 OA
ATOM     29  H   UNL     1      -3.644   7.114  -4.259  1.00  0.00     0.211 HD
ENDBRANCH  23  28
BRANCH  24  30
ATOM     30  C   UNL     1      -1.722  11.953  -4.078  1.00  0.00     0.191 C 
BRANCH  30  31
ATOM     31  O   UNL     1      -0.392  11.543  -4.251  1.00  0.00    -0.394 OA
ATOM     32  H   UNL     1      -0.267  11.389  -5.224  1.00  0.00     0.210 HD
ENDBRANCH  30  31
ENDBRANCH  24  30
BRANCH  25  33
ATOM     33  O   UNL     1      -1.805   8.996  -3.963  1.00  0.00    -0.388 OA
ATOM     34  H   UNL     1      -1.139   9.596  -3.535  1.00  0.00     0.211 HD
ENDBRANCH  25  33
ENDBRANCH  11  20
BRANCH  10  35
ATOM     35  O   UNL     1      -3.278  13.375  -6.991  1.00  0.00    -0.507 OA
ATOM     36  H   UNL     1      -3.752  14.259  -7.114  1.00  0.00     0.293 HD
ENDBRANCH  10  35
TORSDOF 9
ENDMDL
MODEL 6
REMARK VINA RESULT:    -4.696      2.506      3.612
REMARK INTER + INTRA:          -6.854
REMARK INTER:                  -7.232
REMARK INTRA:                   0.378
REMARK UNBOUND:                -0.511
REMARK SMILES O=c1c(-c2ccc(O)cc2)coc2c([C@@H]3O[C@@H](CO)[C@H](O)[C@@H](O)[C@H]3O)c(O)ccc12
REMARK SMILES IDX 3 1 11 2 12 3 13 4 30 5 2 6 1 7 29 8 28 9 26 10 14 11 4 12
REMARK SMILES IDX 5 13 6 14 7 15 10 16 9 17 8 18 15 20 24 21 16 22 22 23 17 24
REMARK SMILES IDX 20 25 25 26 23 28 18 30 19 31 21 33 27 35
REMARK H PARENT 8 19 25 27 23 29 19 32 21 34 27 36
REMARK Flexibility Score: inf
ROOT
ATOM      1  C   UNL     1      -0.810  11.269  -7.306  1.00  0.00     0.065 A 
ATOM      2  C   UNL     1      -1.910  11.147  -8.161  1.00  0.00     0.208 A 
ATOM      3  O   UNL     1      -3.138  11.409  -7.734  1.00  0.00    -0.463 OA
ATOM      4  C   UNL     1      -3.425  11.798  -6.497  1.00  0.00     0.147 A 
ATOM      5  C   UNL     1      -2.362  11.976  -5.575  1.00  0.00     0.066 A 
ATOM      6  C   UNL     1      -1.045  11.704  -5.991  1.00  0.00     0.200 A 
ATOM      7  O   UNL     1      -0.077  11.871  -5.197  1.00  0.00    -0.288 OA
ATOM      8  C   UNL     1      -2.633  12.432  -4.280  1.00  0.00     0.020 A 
ATOM      9  C   UNL     1      -3.930  12.754  -3.910  1.00  0.00     0.047 A 
ATOM     10  C   UNL     1      -4.990  12.602  -4.805  1.00  0.00     0.125 A 
ATOM     11  C   UNL     1      -4.773  12.047  -6.100  1.00  0.00     0.069 A 
ENDROOT
BRANCH   1  12
ATOM     12  C   UNL     1       0.555  10.956  -7.800  1.00  0.00    -0.011 A 
ATOM     13  C   UNL     1       0.761   9.913  -8.720  1.00  0.00     0.013 A 
ATOM     14  C   UNL     1       2.047   9.629  -9.190  1.00  0.00     0.047 A 
ATOM     15  C   UNL     1       3.140  10.382  -8.752  1.00  0.00     0.115 A 
ATOM     16  C   UNL     1       1.657  11.715  -7.370  1.00  0.00     0.013 A 
ATOM     17  C   UNL     1       2.941  11.429  -7.841  1.00  0.00     0.047 A 
BRANCH  15  18
ATOM     18  O   UNL     1       4.416  10.088  -9.228  1.00  0.00    -0.508 OA
ATOM     19  H   UNL     1       4.913   9.259  -8.930  1.00  0.00     0.293 HD
ENDBRANCH  15  18
ENDBRANCH   1  12
BRANCH  11  20
ATOM     20  C   UNL     1      -6.013  11.764  -6.982  1.00  0.00     0.188 C 
ATOM     21  C   UNL     1      -5.860  11.475  -8.503  1.00  0.00     0.179 C 
ATOM     22  O   UNL     1      -6.838  10.762  -6.398  1.00  0.00    -0.362 OA
ATOM     23  C   UNL     1      -5.309  10.048  -8.726  1.00  0.00     0.177 C 
ATOM     24  C   UNL     1      -6.248   9.472  -6.468  1.00  0.00     0.176 C 
ATOM     25  C   UNL     1      -6.137   9.013  -7.940  1.00  0.00     0.177 C 
BRANCH  21  26
ATOM     26  O   UNL     1      -7.125  11.571  -9.111  1.00  0.00    -0.387 OA
ATOM     27  H   UNL     1      -7.637  10.759  -8.853  1.00  0.00     0.211 HD
ENDBRANCH  21  26
BRANCH  23  28
ATOM     28  O   UNL     1      -5.259   9.737 -10.098  1.00  0.00    -0.387 OA
ATOM     29  H   UNL     1      -6.132   9.341 -10.356  1.00  0.00     0.211 HD
ENDBRANCH  23  28
BRANCH  24  30
ATOM     30  C   UNL     1      -7.123   8.513  -5.644  1.00  0.00     0.191 C 
BRANCH  30  31
ATOM     31  O   UNL     1      -6.357   7.483  -5.078  1.00  0.00    -0.394 OA
ATOM     32  H   UNL     1      -6.392   6.721  -5.714  1.00  0.00     0.210 HD
ENDBRANCH  30  31
ENDBRANCH  24  30
BRANCH  25  33
ATOM     33  O   UNL     1      -5.505   7.760  -8.006  1.00  0.00    -0.388 OA
ATOM     34  H   UNL     1      -4.665   7.835  -7.480  1.00  0.00     0.211 HD
ENDBRANCH  25  33
ENDBRANCH  11  20
BRANCH  10  35
ATOM     35  O   UNL     1      -6.247  13.033  -4.369  1.00  0.00    -0.507 OA
ATOM     36  H   UNL     1      -6.916  13.513  -4.954  1.00  0.00     0.293 HD
ENDBRANCH  10  35
TORSDOF 9
ENDMDL
MODEL 7
REMARK VINA RESULT:    -4.338      1.664      2.466
REMARK INTER + INTRA:          -6.370
REMARK INTER:                  -6.107
REMARK INTRA:                  -0.263
REMARK UNBOUND:                -0.511
REMARK SMILES O=c1c(-c2ccc(O)cc2)coc2c([C@@H]3O[C@@H](CO)[C@H](O)[C@@H](O)[C@H]3O)c(O)ccc12
REMARK SMILES IDX 3 1 11 2 12 3 13 4 30 5 2 6 1 7 29 8 28 9 26 10 14 11 4 12
REMARK SMILES IDX 5 13 6 14 7 15 10 16 9 17 8 18 15 20 24 21 16 22 22 23 17 24
REMARK SMILES IDX 20 25 25 26 23 28 18 30 19 31 21 33 27 35
REMARK H PARENT 8 19 25 27 23 29 19 32 21 34 27 36
REMARK Flexibility Score: inf
ROOT
ATOM      1  C   UNL     1      -0.979  13.521  -5.167  1.00  0.00     0.065 A 
ATOM      2  C   UNL     1      -2.064  13.857  -5.981  1.00  0.00     0.208 A 
ATOM      3  O   UNL     1      -2.998  12.962  -6.276  1.00  0.00    -0.463 OA
ATOM      4  C   UNL     1      -2.987  11.709  -5.840  1.00  0.00     0.147 A 
ATOM      5  C   UNL     1      -1.935  11.295  -4.982  1.00  0.00     0.066 A 
ATOM      6  C   UNL     1      -0.924  12.215  -4.651  1.00  0.00     0.200 A 
ATOM      7  O   UNL     1       0.015  11.880  -3.875  1.00  0.00    -0.288 OA
ATOM      8  C   UNL     1      -1.927   9.993  -4.470  1.00  0.00     0.020 A 
ATOM      9  C   UNL     1      -2.966   9.121  -4.760  1.00  0.00     0.047 A 
ATOM     10  C   UNL     1      -4.020   9.510  -5.588  1.00  0.00     0.125 A 
ATOM     11  C   UNL     1      -4.017  10.793  -6.211  1.00  0.00     0.069 A 
ENDROOT
BRANCH   1  12
ATOM     12  C   UNL     1       0.064  14.533  -4.862  1.00  0.00    -0.011 A 
ATOM     13  C   UNL     1      -0.282  15.763  -4.276  1.00  0.00     0.013 A 
ATOM     14  C   UNL     1       0.706  16.708  -3.981  1.00  0.00     0.047 A 
ATOM     15  C   UNL     1       2.048  16.437  -4.263  1.00  0.00     0.115 A 
ATOM     16  C   UNL     1       1.417  14.263  -5.136  1.00  0.00     0.013 A 
ATOM     17  C   UNL     1       2.401  15.210  -4.841  1.00  0.00     0.047 A 
BRANCH  15  18
ATOM     18  O   UNL     1       3.021  17.388  -3.965  1.00  0.00    -0.508 OA
ATOM     19  H   UNL     1       3.976  17.286  -4.285  1.00  0.00     0.293 HD
ENDBRANCH  15  18
ENDBRANCH   1  12
BRANCH  11  20
ATOM     20  C   UNL     1      -5.135  11.100  -7.236  1.00  0.00     0.188 C 
ATOM     21  C   UNL     1      -5.153  12.446  -8.016  1.00  0.00     0.179 C 
ATOM     22  O   UNL     1      -5.294  10.026  -8.156  1.00  0.00    -0.362 OA
ATOM     23  C   UNL     1      -4.071  12.443  -9.118  1.00  0.00     0.177 C 
ATOM     24  C   UNL     1      -4.211   9.935  -9.069  1.00  0.00     0.176 C 
ATOM     25  C   UNL     1      -4.180  11.177  -9.989  1.00  0.00     0.177 C 
BRANCH  21  26
ATOM     26  O   UNL     1      -6.414  12.600  -8.622  1.00  0.00    -0.387 OA
ATOM     27  H   UNL     1      -7.094  12.283  -7.970  1.00  0.00     0.211 HD
ENDBRANCH  21  26
BRANCH  23  28
ATOM     28  O   UNL     1      -4.141  13.614  -9.896  1.00  0.00    -0.387 OA
ATOM     29  H   UNL     1      -5.051  13.996  -9.797  1.00  0.00     0.211 HD
ENDBRANCH  23  28
BRANCH  24  30
ATOM     30  C   UNL     1      -4.388   8.640  -9.878  1.00  0.00     0.191 C 
BRANCH  30  31
ATOM     31  O   UNL     1      -3.150   8.060 -10.191  1.00  0.00    -0.394 OA
ATOM     32  H   UNL     1      -2.853   8.467 -11.047  1.00  0.00     0.210 HD
ENDBRANCH  30  31
ENDBRANCH  24  30
BRANCH  25  33
ATOM     33  O   UNL     1      -3.075  11.106 -10.854  1.00  0.00    -0.388 OA
ATOM     34  H   UNL     1      -2.745  10.169 -10.823  1.00  0.00     0.211 HD
ENDBRANCH  25  33
ENDBRANCH  11  20
BRANCH  10  35
ATOM     35  O   UNL     1      -5.061   8.592  -5.752  1.00  0.00    -0.507 OA
ATOM     36  H   UNL     1      -5.005   7.619  -5.487  1.00  0.00     0.293 HD
ENDBRANCH  10  35
TORSDOF 9
ENDMDL
MODEL 8
REMARK VINA RESULT:    -4.138      2.424      7.964
REMARK INTER + INTRA:          -6.101
REMARK INTER:                  -5.555
REMARK INTRA:                  -0.546
REMARK UNBOUND:                -0.511
REMARK SMILES O=c1c(-c2ccc(O)cc2)coc2c([C@@H]3O[C@@H](CO)[C@H](O)[C@@H](O)[C@H]3O)c(O)ccc12
REMARK SMILES IDX 3 1 11 2 12 3 13 4 30 5 2 6 1 7 29 8 28 9 26 10 14 11 4 12
REMARK SMILES IDX 5 13 6 14 7 15 10 16 9 17 8 18 15 20 24 21 16 22 22 23 17 24
REMARK SMILES IDX 20 25 25 26 23 28 18 30 19 31 21 33 27 35
REMARK H PARENT 8 19 25 27 23 29 19 32 21 34 27 36
REMARK Flexibility Score: inf
ROOT
ATOM      1  C   UNL     1      -5.383   8.245 -10.031  1.00  0.00     0.065 A 
ATOM      2  C   UNL     1      -4.403   8.149  -9.038  1.00  0.00     0.208 A 
ATOM      3  O   UNL     1      -4.233   9.122  -8.152  1.00  0.00    -0.463 OA
ATOM      4  C   UNL     1      -4.954  10.236  -8.128  1.00  0.00     0.147 A 
ATOM      5  C   UNL     1      -5.991  10.398  -9.083  1.00  0.00     0.066 A 
ATOM      6  C   UNL     1      -6.198   9.389 -10.041  1.00  0.00     0.200 A 
ATOM      7  O   UNL     1      -7.125   9.498 -10.893  1.00  0.00    -0.288 OA
ATOM      8  C   UNL     1      -6.797  11.542  -9.048  1.00  0.00     0.020 A 
ATOM      9  C   UNL     1      -6.615  12.495  -8.056  1.00  0.00     0.047 A 
ATOM     10  C   UNL     1      -5.613  12.349  -7.097  1.00  0.00     0.125 A 
ATOM     11  C   UNL     1      -4.706  11.251  -7.154  1.00  0.00     0.069 A 
ENDROOT
BRANCH   1  12
ATOM     12  C   UNL     1      -5.546   7.152 -11.023  1.00  0.00    -0.011 A 
ATOM     13  C   UNL     1      -4.651   7.022 -12.098  1.00  0.00     0.013 A 
ATOM     14  C   UNL     1      -4.802   5.984 -13.023  1.00  0.00     0.047 A 
ATOM     15  C   UNL     1      -5.845   5.064 -12.885  1.00  0.00     0.115 A 
ATOM     16  C   UNL     1      -6.588   6.218 -10.885  1.00  0.00     0.013 A 
ATOM     17  C   UNL     1      -6.738   5.183 -11.812  1.00  0.00     0.047 A 
BRANCH  15  18
ATOM     18  O   UNL     1      -5.985   4.036 -13.815  1.00  0.00    -0.508 OA
ATOM     19  H   UNL     1      -5.185   3.647 -14.298  1.00  0.00     0.293 HD
ENDBRANCH  15  18
ENDBRANCH   1  12
BRANCH  11  20
ATOM     20  C   UNL     1      -3.526  11.234  -6.153  1.00  0.00     0.188 C 
ATOM     21  C   UNL     1      -2.356  10.222  -6.317  1.00  0.00     0.179 C 
ATOM     22  O   UNL     1      -2.991  12.540  -5.972  1.00  0.00    -0.362 OA
ATOM     23  C   UNL     1      -1.433  10.652  -7.480  1.00  0.00     0.177 C 
ATOM     24  C   UNL     1      -2.274  12.990  -7.112  1.00  0.00     0.176 C 
ATOM     25  C   UNL     1      -1.011  12.126  -7.327  1.00  0.00     0.177 C 
BRANCH  21  26
ATOM     26  O   UNL     1      -1.605  10.203  -5.128  1.00  0.00    -0.387 OA
ATOM     27  H   UNL     1      -1.384  11.146  -4.904  1.00  0.00     0.211 HD
ENDBRANCH  21  26
BRANCH  23  28
ATOM     28  O   UNL     1      -0.315   9.801  -7.576  1.00  0.00    -0.387 OA
ATOM     29  H   UNL     1      -0.108   9.460  -6.668  1.00  0.00     0.211 HD
ENDBRANCH  23  28
BRANCH  24  30
ATOM     30  C   UNL     1      -1.914  14.467  -6.884  1.00  0.00     0.191 C 
BRANCH  30  31
ATOM     31  O   UNL     1      -0.722  14.595  -6.156  1.00  0.00    -0.394 OA
ATOM     32  H   UNL     1      -0.863  15.335  -5.508  1.00  0.00     0.210 HD
ENDBRANCH  30  31
ENDBRANCH  24  30
BRANCH  25  33
ATOM     33  O   UNL     1      -0.336  12.543  -8.486  1.00  0.00    -0.388 OA
ATOM     34  H   UNL     1       0.294  11.814  -8.730  1.00  0.00     0.211 HD
ENDBRANCH  25  33
ENDBRANCH  11  20
BRANCH  10  35
ATOM     35  O   UNL     1      -5.563  13.317  -6.089  1.00  0.00    -0.507 OA
ATOM     36  H   UNL     1      -4.754  13.490  -5.509  1.00  0.00     0.293 HD
ENDBRANCH  10  35
TORSDOF 9
ENDMDL
MODEL 9
REMARK VINA RESULT:    -4.068      1.430      2.733
REMARK INTER + INTRA:          -6.006
REMARK INTER:                  -7.195
REMARK INTRA:                   1.189
REMARK UNBOUND:                -0.511
REMARK SMILES O=c1c(-c2ccc(O)cc2)coc2c([C@@H]3O[C@@H](CO)[C@H](O)[C@@H](O)[C@H]3O)c(O)ccc12
REMARK SMILES IDX 3 1 11 2 12 3 13 4 30 5 2 6 1 7 29 8 28 9 26 10 14 11 4 12
REMARK SMILES IDX 5 13 6 14 7 15 10 16 9 17 8 18 15 20 24 21 16 22 22 23 17 24
REMARK SMILES IDX 20 25 25 26 23 28 18 30 19 31 21 33 27 35
REMARK H PARENT 8 19 25 27 23 29 19 32 21 34 27 36
REMARK Flexibility Score: inf
ROOT
ATOM      1  C   UNL     1      -1.104  12.587  -5.563  1.00  0.00     0.065 A 
ATOM      2  C   UNL     1      -1.032  11.717  -6.655  1.00  0.00     0.208 A 
ATOM      3  O   UNL     1      -2.064  10.950  -6.984  1.00  0.00    -0.463 OA
ATOM      4  C   UNL     1      -3.218  10.940  -6.329  1.00  0.00     0.147 A 
ATOM      5  C   UNL     1      -3.384  11.817  -5.226  1.00  0.00     0.066 A 
ATOM      6  C   UNL     1      -2.310  12.642  -4.844  1.00  0.00     0.200 A 
ATOM      7  O   UNL     1      -2.434  13.446  -3.878  1.00  0.00    -0.288 OA
ATOM      8  C   UNL     1      -4.608  11.860  -4.549  1.00  0.00     0.020 A 
ATOM      9  C   UNL     1      -5.673  11.083  -4.980  1.00  0.00     0.047 A 
ATOM     10  C   UNL     1      -5.539  10.225  -6.072  1.00  0.00     0.125 A 
ATOM     11  C   UNL     1      -4.282  10.075  -6.728  1.00  0.00     0.069 A 
ENDROOT
BRANCH   1  12
ATOM     12  C   UNL     1       0.068  13.425  -5.201  1.00  0.00    -0.011 A 
ATOM     13  C   UNL     1      -0.110  14.684  -4.602  1.00  0.00     0.013 A 
ATOM     14  C   UNL     1       0.997  15.464  -4.254  1.00  0.00     0.047 A 
ATOM     15  C   UNL     1       2.292  14.997  -4.496  1.00  0.00     0.115 A 
ATOM     16  C   UNL     1       1.374  12.957  -5.435  1.00  0.00     0.013 A 
ATOM     17  C   UNL     1       2.478  13.740  -5.088  1.00  0.00     0.047 A 
BRANCH  15  18
ATOM     18  O   UNL     1       3.386  15.785  -4.145  1.00  0.00    -0.508 OA
ATOM     19  H   UNL     1       4.336  15.450  -4.253  1.00  0.00     0.293 HD
ENDBRANCH  15  18
ENDBRANCH   1  12
BRANCH  11  20
ATOM     20  C   UNL     1      -4.165   8.995  -7.830  1.00  0.00     0.188 C 
ATOM     21  C   UNL     1      -5.437   8.411  -8.511  1.00  0.00     0.179 C 
ATOM     22  O   UNL     1      -3.236   9.387  -8.834  1.00  0.00    -0.362 OA
ATOM     23  C   UNL     1      -6.032   9.435  -9.504  1.00  0.00     0.177 C 
ATOM     24  C   UNL     1      -3.734  10.441  -9.645  1.00  0.00     0.176 C 
ATOM     25  C   UNL     1      -4.949   9.955 -10.469  1.00  0.00     0.177 C 
BRANCH  21  26
ATOM     26  O   UNL     1      -5.077   7.251  -9.221  1.00  0.00    -0.387 OA
ATOM     27  H   UNL     1      -4.210   7.438  -9.669  1.00  0.00     0.211 HD
ENDBRANCH  21  26
BRANCH  23  28
ATOM     28  O   UNL     1      -7.125   8.884 -10.201  1.00  0.00    -0.387 OA
ATOM     29  H   UNL     1      -7.731   9.625 -10.458  1.00  0.00     0.211 HD
ENDBRANCH  23  28
BRANCH  24  30
ATOM     30  C   UNL     1      -2.589  10.910 -10.556  1.00  0.00     0.191 C 
BRANCH  30  31
ATOM     31  O   UNL     1      -1.718  11.776  -9.877  1.00  0.00    -0.394 OA
ATOM     32  H   UNL     1      -1.745  12.643 -10.360  1.00  0.00     0.210 HD
ENDBRANCH  30  31
ENDBRANCH  24  30
BRANCH  25  33
ATOM     33  O   UNL     1      -5.469  11.017 -11.228  1.00  0.00    -0.388 OA
ATOM     34  H   UNL     1      -6.408  10.780 -11.448  1.00  0.00     0.211 HD
ENDBRANCH  25  33
ENDBRANCH  11  20
BRANCH  10  35
ATOM     35  O   UNL     1      -6.690   9.547  -6.483  1.00  0.00    -0.507 OA
ATOM     36  H   UNL     1      -7.407   9.215  -5.853  1.00  0.00     0.293 HD
ENDBRANCH  10  35
TORSDOF 9
ENDMDL
