MODEL 1
REMARK VINA RESULT:    -5.413      0.000      0.000
REMARK INTER + INTRA:         -10.673
REMARK INTER:                  -9.526
REMARK INTRA:                  -1.147
REMARK UNBOUND:                -1.147
REMARK SMILES CCCCCCCCCCCCCCC(=O)[O-]
REMARK SMILES IDX 9 1 10 2 11 3 12 4 13 5 14 6 15 7 16 8 17 9 8 10 7 11 6 12
REMARK SMILES IDX 5 13 4 14 3 15 2 16 1 17
REMARK H PARENT
REMARK Flexibility Score: inf
ROOT
ATOM      1  C   UNL     1      -8.120  64.230  53.410  1.00  0.00     0.000 C 
ENDROOT
BRANCH   1   2
ATOM      2  C   UNL     1      -6.964  65.243  53.384  1.00  0.00     0.000 C 
BRANCH   2   3
ATOM      3  C   UNL     1      -6.354  65.406  51.982  1.00  0.00     0.000 C 
BRANCH   3   4
ATOM      4  C   UNL     1      -6.114  64.058  51.282  1.00  0.00     0.000 C 
BRANCH   4   5
ATOM      5  C   UNL     1      -6.811  63.968  49.913  1.00  0.00     0.006 C 
BRANCH   5   6
ATOM      6  C   UNL     1      -8.142  64.730  49.890  1.00  0.00     0.053 C 
BRANCH   6   7
ATOM      7  C   UNL     1      -9.091  64.164  48.877  1.00  0.00     0.041 C 
ATOM      8  O   UNL     1      -9.893  64.921  48.268  1.00  0.00    -0.550 OA
ATOM      9  O   UNL     1      -9.070  62.806  48.583  1.00  0.00    -0.550 OA
ENDBRANCH   6   7
ENDBRANCH   5   6
ENDBRANCH   4   5
ENDBRANCH   3   4
ENDBRANCH   2   3
ENDBRANCH   1   2
BRANCH   1  10
ATOM     10  C   UNL     1      -7.869  63.069  54.389  1.00  0.00     0.000 C 
BRANCH  10  11
ATOM     11  C   UNL     1      -7.776  61.709  53.679  1.00  0.00    -0.000 C 
BRANCH  11  12
ATOM     12  C   UNL     1      -6.344  61.147  53.663  1.00  0.00    -0.000 C 
BRANCH  12  13
ATOM     13  C   UNL     1      -5.665  61.226  55.048  1.00  0.00    -0.000 C 
BRANCH  13  14
ATOM     14  C   UNL     1      -6.308  60.311  56.107  1.00  0.00    -0.000 C 
BRANCH  14  15
ATOM     15  C   UNL     1      -5.654  58.924  56.253  1.00  0.00    -0.000 C 
BRANCH  15  16
ATOM     16  C   UNL     1      -4.124  58.944  56.417  1.00  0.00    -0.003 C 
ATOM     17  C   UNL     1      -3.677  59.478  57.779  1.00  0.00     0.004 C 
ENDBRANCH  15  16
ENDBRANCH  14  15
ENDBRANCH  13  14
ENDBRANCH  12  13
ENDBRANCH  11  12
ENDBRANCH  10  11
ENDBRANCH   1  10
TORSDOF 13
ENDMDL
MODEL 2
REMARK VINA RESULT:    -5.391     10.147     14.161
REMARK INTER + INTRA:         -10.635
REMARK INTER:                  -9.335
REMARK INTRA:                  -1.299
REMARK UNBOUND:                -1.147
REMARK SMILES CCCCCCCCCCCCCCC(=O)[O-]
REMARK SMILES IDX 9 1 10 2 11 3 12 4 13 5 14 6 15 7 16 8 17 9 8 10 7 11 6 12
REMARK SMILES IDX 5 13 4 14 3 15 2 16 1 17
REMARK H PARENT
REMARK Flexibility Score: inf
ROOT
ATOM      1  C   UNL     1     -10.110  62.243  38.891  1.00  0.00     0.000 C 
ENDROOT
BRANCH   1   2
ATOM      2  C   UNL     1     -11.543  61.971  39.375  1.00  0.00     0.000 C 
BRANCH   2   3
ATOM      3  C   UNL     1     -11.649  60.684  40.210  1.00  0.00     0.000 C 
BRANCH   3   4
ATOM      4  C   UNL     1     -12.948  59.906  39.935  1.00  0.00     0.000 C 
BRANCH   4   5
ATOM      5  C   UNL     1     -13.519  60.182  38.533  1.00  0.00     0.006 C 
BRANCH   5   6
ATOM      6  C   UNL     1     -15.052  60.247  38.535  1.00  0.00     0.053 C 
BRANCH   6   7
ATOM      7  C   UNL     1     -15.550  61.650  38.370  1.00  0.00     0.041 C 
ATOM      8  O   UNL     1     -14.741  62.615  38.370  1.00  0.00    -0.550 OA
ATOM      9  O   UNL     1     -16.906  61.892  38.185  1.00  0.00    -0.550 OA
ENDBRANCH   6   7
ENDBRANCH   5   6
ENDBRANCH   4   5
ENDBRANCH   3   4
ENDBRANCH   2   3
ENDBRANCH   1   2
BRANCH   1  10
ATOM     10  C   UNL     1      -9.957  63.628  38.235  1.00  0.00     0.000 C 
BRANCH  10  11
ATOM     11  C   UNL     1      -8.848  64.469  38.885  1.00  0.00    -0.000 C 
BRANCH  11  12
ATOM     12  C   UNL     1      -8.573  64.060  40.343  1.00  0.00    -0.000 C 
BRANCH  12  13
ATOM     13  C   UNL     1      -9.475  64.812  41.345  1.00  0.00    -0.000 C 
BRANCH  13  14
ATOM     14  C   UNL     1      -9.741  64.032  42.646  1.00  0.00    -0.000 C 
BRANCH  14  15
ATOM     15  C   UNL     1      -9.684  62.499  42.510  1.00  0.00    -0.000 C 
BRANCH  15  16
ATOM     16  C   UNL     1     -10.368  61.722  43.649  1.00  0.00    -0.003 C 
ATOM     17  C   UNL     1      -9.391  61.273  44.735  1.00  0.00     0.004 C 
ENDBRANCH  15  16
ENDBRANCH  14  15
ENDBRANCH  13  14
ENDBRANCH  12  13
ENDBRANCH  11  12
ENDBRANCH  10  11
ENDBRANCH   1  10
TORSDOF 13
ENDMDL
MODEL 3
REMARK VINA RESULT:    -5.181      9.575     14.272
REMARK INTER + INTRA:         -10.265
REMARK INTER:                  -8.733
REMARK INTRA:                  -1.532
REMARK UNBOUND:                -1.147
REMARK SMILES CCCCCCCCCCCCCCC(=O)[O-]
REMARK SMILES IDX 9 1 10 2 11 3 12 4 13 5 14 6 15 7 16 8 17 9 8 10 7 11 6 12
REMARK SMILES IDX 5 13 4 14 3 15 2 16 1 17
REMARK H PARENT
REMARK Flexibility Score: inf
ROOT
ATOM      1  C   UNL     1      -9.179  64.134  38.873  1.00  0.00     0.000 C 
ENDROOT
BRANCH   1   2
ATOM      2  C   UNL     1      -8.285  64.162  40.123  1.00  0.00     0.000 C 
BRANCH   2   3
ATOM      3  C   UNL     1      -8.928  64.929  41.291  1.00  0.00     0.000 C 
BRANCH   3   4
ATOM      4  C   UNL     1     -10.006  64.105  42.016  1.00  0.00     0.000 C 
BRANCH   4   5
ATOM      5  C   UNL     1      -9.569  62.653  42.276  1.00  0.00     0.006 C 
BRANCH   5   6
ATOM      6  C   UNL     1     -10.415  61.981  43.366  1.00  0.00     0.053 C 
BRANCH   6   7
ATOM      7  C   UNL     1      -9.601  61.650  44.579  1.00  0.00     0.041 C 
ATOM      8  O   UNL     1      -9.229  60.465  44.789  1.00  0.00    -0.550 OA
ATOM      9  O   UNL     1      -9.226  62.655  45.463  1.00  0.00    -0.550 OA
ENDBRANCH   6   7
ENDBRANCH   5   6
ENDBRANCH   4   5
ENDBRANCH   3   4
ENDBRANCH   2   3
ENDBRANCH   1   2
BRANCH   1  10
ATOM     10  C   UNL     1      -9.803  62.750  38.619  1.00  0.00     0.000 C 
BRANCH  10  11
ATOM     11  C   UNL     1     -11.300  62.830  38.282  1.00  0.00    -0.000 C 
BRANCH  11  12
ATOM     12  C   UNL     1     -12.193  62.335  39.433  1.00  0.00    -0.000 C 
BRANCH  12  13
ATOM     13  C   UNL     1     -11.757  60.952  39.964  1.00  0.00    -0.000 C 
BRANCH  13  14
ATOM     14  C   UNL     1     -12.820  59.853  39.777  1.00  0.00    -0.000 C 
BRANCH  14  15
ATOM     15  C   UNL     1     -13.699  60.003  38.522  1.00  0.00    -0.000 C 
BRANCH  15  16
ATOM     16  C   UNL     1     -15.175  60.336  38.802  1.00  0.00    -0.003 C 
ATOM     17  C   UNL     1     -15.600  61.689  38.229  1.00  0.00     0.004 C 
ENDBRANCH  15  16
ENDBRANCH  14  15
ENDBRANCH  13  14
ENDBRANCH  12  13
ENDBRANCH  11  12
ENDBRANCH  10  11
ENDBRANCH   1  10
TORSDOF 13
ENDMDL
MODEL 4
REMARK VINA RESULT:    -5.094      3.828      7.820
REMARK INTER + INTRA:         -10.112
REMARK INTER:                  -9.035
REMARK INTRA:                  -1.077
REMARK UNBOUND:                -1.147
REMARK SMILES CCCCCCCCCCCCCCC(=O)[O-]
REMARK SMILES IDX 9 1 10 2 11 3 12 4 13 5 14 6 15 7 16 8 17 9 8 10 7 11 6 12
REMARK SMILES IDX 5 13 4 14 3 15 2 16 1 17
REMARK H PARENT
REMARK Flexibility Score: inf
ROOT
ATOM      1  C   UNL     1      -7.706  63.092  53.688  1.00  0.00     0.000 C 
ENDROOT
BRANCH   1   2
ATOM      2  C   UNL     1      -6.361  62.556  53.174  1.00  0.00     0.000 C 
BRANCH   2   3
ATOM      3  C   UNL     1      -5.679  61.612  54.178  1.00  0.00     0.000 C 
BRANCH   3   4
ATOM      4  C   UNL     1      -6.606  60.479  54.648  1.00  0.00     0.000 C 
BRANCH   4   5
ATOM      5  C   UNL     1      -6.272  59.987  56.067  1.00  0.00     0.006 C 
BRANCH   5   6
ATOM      6  C   UNL     1      -5.263  58.830  56.056  1.00  0.00     0.053 C 
BRANCH   6   7
ATOM      7  C   UNL     1      -4.010  59.175  56.801  1.00  0.00     0.041 C 
ATOM      8  O   UNL     1      -3.600  60.366  56.835  1.00  0.00    -0.550 OA
ATOM      9  O   UNL     1      -3.311  58.188  57.484  1.00  0.00    -0.550 OA
ENDBRANCH   6   7
ENDBRANCH   5   6
ENDBRANCH   4   5
ENDBRANCH   3   4
ENDBRANCH   2   3
ENDBRANCH   1   2
BRANCH   1  10
ATOM     10  C   UNL     1      -7.888  64.598  53.419  1.00  0.00     0.000 C 
BRANCH  10  11
ATOM     11  C   UNL     1      -6.558  65.308  53.121  1.00  0.00    -0.000 C 
BRANCH  11  12
ATOM     12  C   UNL     1      -6.569  66.038  51.767  1.00  0.00    -0.000 C 
BRANCH  12  13
ATOM     13  C   UNL     1      -5.826  65.248  50.667  1.00  0.00    -0.000 C 
BRANCH  13  14
ATOM     14  C   UNL     1      -6.739  64.774  49.521  1.00  0.00    -0.000 C 
BRANCH  14  15
ATOM     15  C   UNL     1      -8.240  64.716  49.863  1.00  0.00    -0.000 C 
BRANCH  15  16
ATOM     16  C   UNL     1      -9.157  64.329  48.690  1.00  0.00    -0.003 C 
ATOM     17  C   UNL     1      -8.969  62.881  48.239  1.00  0.00     0.004 C 
ENDBRANCH  15  16
ENDBRANCH  14  15
ENDBRANCH  13  14
ENDBRANCH  12  13
ENDBRANCH  11  12
ENDBRANCH  10  11
ENDBRANCH   1  10
TORSDOF 13
ENDMDL
MODEL 5
REMARK VINA RESULT:    -5.071     12.136     14.406
REMARK INTER + INTRA:         -10.071
REMARK INTER:                  -8.344
REMARK INTRA:                  -1.727
REMARK UNBOUND:                -1.147
REMARK SMILES CCCCCCCCCCCCCCC(=O)[O-]
REMARK SMILES IDX 9 1 10 2 11 3 12 4 13 5 14 6 15 7 16 8 17 9 8 10 7 11 6 12
REMARK SMILES IDX 5 13 4 14 3 15 2 16 1 17
REMARK H PARENT
REMARK Flexibility Score: inf
ROOT
ATOM      1  C   UNL     1     -10.119  61.918  40.664  1.00  0.00     0.000 C 
ENDROOT
BRANCH   1   2
ATOM      2  C   UNL     1      -9.133  62.957  41.221  1.00  0.00     0.000 C 
BRANCH   2   3
ATOM      3  C   UNL     1      -9.824  64.016  42.097  1.00  0.00     0.000 C 
BRANCH   3   4
ATOM      4  C   UNL     1      -9.944  65.378  41.393  1.00  0.00     0.000 C 
BRANCH   4   5
ATOM      5  C   UNL     1      -8.669  66.230  41.528  1.00  0.00     0.006 C 
BRANCH   5   6
ATOM      6  C   UNL     1      -8.056  66.575  40.164  1.00  0.00     0.053 C 
BRANCH   6   7
ATOM      7  C   UNL     1      -7.402  65.385  39.529  1.00  0.00     0.041 C 
ATOM      8  O   UNL     1      -6.357  64.893  40.031  1.00  0.00    -0.550 OA
ATOM      9  O   UNL     1      -7.963  64.801  38.400  1.00  0.00    -0.550 OA
ENDBRANCH   6   7
ENDBRANCH   5   6
ENDBRANCH   4   5
ENDBRANCH   3   4
ENDBRANCH   2   3
ENDBRANCH   1   2
BRANCH   1  10
ATOM     10  C   UNL     1     -10.235  61.971  39.130  1.00  0.00     0.000 C 
BRANCH  10  11
ATOM     11  C   UNL     1     -11.188  63.075  38.648  1.00  0.00    -0.000 C 
BRANCH  11  12
ATOM     12  C   UNL     1     -12.446  63.195  39.526  1.00  0.00    -0.000 C 
BRANCH  12  13
ATOM     13  C   UNL     1     -13.742  62.898  38.741  1.00  0.00    -0.000 C 
BRANCH  13  14
ATOM     14  C   UNL     1     -14.437  61.590  39.163  1.00  0.00    -0.000 C 
BRANCH  14  15
ATOM     15  C   UNL     1     -13.776  60.302  38.636  1.00  0.00    -0.000 C 
BRANCH  15  16
ATOM     16  C   UNL     1     -12.891  59.565  39.656  1.00  0.00    -0.003 C 
ATOM     17  C   UNL     1     -13.198  59.953  41.103  1.00  0.00     0.004 C 
ENDBRANCH  15  16
ENDBRANCH  14  15
ENDBRANCH  13  14
ENDBRANCH  12  13
ENDBRANCH  11  12
ENDBRANCH  10  11
ENDBRANCH   1  10
TORSDOF 13
ENDMDL
MODEL 6
REMARK VINA RESULT:    -5.026      9.806     14.146
REMARK INTER + INTRA:          -9.993
REMARK INTER:                  -8.566
REMARK INTRA:                  -1.427
REMARK UNBOUND:                -1.147
REMARK SMILES CCCCCCCCCCCCCCC(=O)[O-]
REMARK SMILES IDX 9 1 10 2 11 3 12 4 13 5 14 6 15 7 16 8 17 9 8 10 7 11 6 12
REMARK SMILES IDX 5 13 4 14 3 15 2 16 1 17
REMARK H PARENT
REMARK Flexibility Score: inf
ROOT
ATOM      1  C   UNL     1      -8.469  65.040  38.687  1.00  0.00     0.000 C 
ENDROOT
BRANCH   1   2
ATOM      2  C   UNL     1      -8.329  64.543  40.135  1.00  0.00     0.000 C 
BRANCH   2   3
ATOM      3  C   UNL     1      -9.199  65.342  41.120  1.00  0.00     0.000 C 
BRANCH   3   4
ATOM      4  C   UNL     1     -10.012  64.436  42.060  1.00  0.00     0.000 C 
BRANCH   4   5
ATOM      5  C   UNL     1      -9.463  63.000  42.122  1.00  0.00     0.006 C 
BRANCH   5   6
ATOM      6  C   UNL     1     -10.336  62.084  42.990  1.00  0.00     0.053 C 
BRANCH   6   7
ATOM      7  C   UNL     1      -9.725  61.844  44.337  1.00  0.00     0.041 C 
ATOM      8  O   UNL     1      -9.569  60.669  44.763  1.00  0.00    -0.550 OA
ATOM      9  O   UNL     1      -9.300  62.917  45.111  1.00  0.00    -0.550 OA
ENDBRANCH   6   7
ENDBRANCH   5   6
ENDBRANCH   4   5
ENDBRANCH   3   4
ENDBRANCH   2   3
ENDBRANCH   1   2
BRANCH   1  10
ATOM     10  C   UNL     1      -9.517  64.248  37.885  1.00  0.00     0.000 C 
BRANCH  10  11
ATOM     11  C   UNL     1      -9.933  62.944  38.585  1.00  0.00    -0.000 C 
BRANCH  11  12
ATOM     12  C   UNL     1     -11.385  62.543  38.273  1.00  0.00    -0.000 C 
BRANCH  12  13
ATOM     13  C   UNL     1     -12.395  63.175  39.255  1.00  0.00    -0.000 C 
BRANCH  13  14
ATOM     14  C   UNL     1     -13.862  62.817  38.953  1.00  0.00    -0.000 C 
BRANCH  14  15
ATOM     15  C   UNL     1     -14.132  61.320  38.715  1.00  0.00    -0.000 C 
BRANCH  15  16
ATOM     16  C   UNL     1     -14.002  60.433  39.965  1.00  0.00    -0.003 C 
ATOM     17  C   UNL     1     -12.679  59.668  40.020  1.00  0.00     0.004 C 
ENDBRANCH  15  16
ENDBRANCH  14  15
ENDBRANCH  13  14
ENDBRANCH  12  13
ENDBRANCH  11  12
ENDBRANCH  10  11
ENDBRANCH   1  10
TORSDOF 13
ENDMDL
MODEL 7
REMARK VINA RESULT:    -4.918     12.982     15.274
REMARK INTER + INTRA:          -9.802
REMARK INTER:                  -8.653
REMARK INTRA:                  -1.150
REMARK UNBOUND:                -1.147
REMARK SMILES CCCCCCCCCCCCCCC(=O)[O-]
REMARK SMILES IDX 9 1 10 2 11 3 12 4 13 5 14 6 15 7 16 8 17 9 8 10 7 11 6 12
REMARK SMILES IDX 5 13 4 14 3 15 2 16 1 17
REMARK H PARENT
REMARK Flexibility Score: inf
ROOT
ATOM      1  C   UNL     1     -10.070  61.149  40.229  1.00  0.00     0.000 C 
ENDROOT
BRANCH   1   2
ATOM      2  C   UNL     1      -9.547  62.560  39.916  1.00  0.00     0.000 C 
BRANCH   2   3
ATOM      3  C   UNL     1      -9.929  63.030  38.502  1.00  0.00     0.000 C 
BRANCH   3   4
ATOM      4  C   UNL     1      -9.478  64.472  38.217  1.00  0.00     0.000 C 
BRANCH   4   5
ATOM      5  C   UNL     1      -8.264  64.892  39.063  1.00  0.00     0.006 C 
BRANCH   5   6
ATOM      6  C   UNL     1      -8.413  66.313  39.625  1.00  0.00     0.053 C 
BRANCH   6   7
ATOM      7  C   UNL     1      -8.756  66.303  41.083  1.00  0.00     0.041 C 
ATOM      8  O   UNL     1      -8.080  66.985  41.898  1.00  0.00    -0.550 OA
ATOM      9  O   UNL     1      -9.841  65.564  41.540  1.00  0.00    -0.550 OA
ENDBRANCH   6   7
ENDBRANCH   5   6
ENDBRANCH   4   5
ENDBRANCH   3   4
ENDBRANCH   2   3
ENDBRANCH   1   2
BRANCH   1  10
ATOM     10  C   UNL     1     -11.477  61.163  40.855  1.00  0.00     0.000 C 
BRANCH  10  11
ATOM     11  C   UNL     1     -12.455  60.227  40.127  1.00  0.00    -0.000 C 
BRANCH  11  12
ATOM     12  C   UNL     1     -13.061  60.869  38.867  1.00  0.00    -0.000 C 
BRANCH  12  13
ATOM     13  C   UNL     1     -13.301  62.385  39.036  1.00  0.00    -0.000 C 
BRANCH  13  14
ATOM     14  C   UNL     1     -14.711  62.840  38.616  1.00  0.00    -0.000 C 
BRANCH  14  15
ATOM     15  C   UNL     1     -15.617  61.726  38.058  1.00  0.00    -0.000 C 
BRANCH  15  16
ATOM     16  C   UNL     1     -16.709  61.235  39.025  1.00  0.00    -0.003 C 
ATOM     17  C   UNL     1     -16.875  59.716  39.015  1.00  0.00     0.004 C 
ENDBRANCH  15  16
ENDBRANCH  14  15
ENDBRANCH  13  14
ENDBRANCH  12  13
ENDBRANCH  11  12
ENDBRANCH  10  11
ENDBRANCH   1  10
TORSDOF 13
ENDMDL
MODEL 8
REMARK VINA RESULT:    -4.891     10.200     15.057
REMARK INTER + INTRA:          -9.755
REMARK INTER:                  -9.012
REMARK INTRA:                  -0.742
REMARK UNBOUND:                -1.147
REMARK SMILES CCCCCCCCCCCCCCC(=O)[O-]
REMARK SMILES IDX 9 1 10 2 11 3 12 4 13 5 14 6 15 7 16 8 17 9 8 10 7 11 6 12
REMARK SMILES IDX 5 13 4 14 3 15 2 16 1 17
REMARK H PARENT
REMARK Flexibility Score: inf
ROOT
ATOM      1  C   UNL     1     -10.611  62.872  38.206  1.00  0.00     0.000 C 
ENDROOT
BRANCH   1   2
ATOM      2  C   UNL     1     -10.010  64.170  38.768  1.00  0.00     0.000 C 
BRANCH   2   3
ATOM      3  C   UNL     1      -8.968  63.910  39.868  1.00  0.00     0.000 C 
BRANCH   3   4
ATOM      4  C   UNL     1      -9.563  64.013  41.283  1.00  0.00     0.000 C 
BRANCH   4   5
ATOM      5  C   UNL     1      -9.679  62.646  41.979  1.00  0.00     0.006 C 
BRANCH   5   6
ATOM      6  C   UNL     1      -9.797  62.781  43.503  1.00  0.00     0.053 C 
BRANCH   6   7
ATOM      7  C   UNL     1     -10.280  61.513  44.140  1.00  0.00     0.041 C 
ATOM      8  O   UNL     1      -9.562  60.914  44.983  1.00  0.00    -0.550 OA
ATOM      9  O   UNL     1     -11.536  61.009  43.824  1.00  0.00    -0.550 OA
ENDBRANCH   6   7
ENDBRANCH   5   6
ENDBRANCH   4   5
ENDBRANCH   3   4
ENDBRANCH   2   3
ENDBRANCH   1   2
BRANCH   1  10
ATOM     10  C   UNL     1     -11.807  62.365  39.032  1.00  0.00     0.000 C 
BRANCH  10  11
ATOM     11  C   UNL     1     -11.513  61.034  39.740  1.00  0.00    -0.000 C 
BRANCH  11  12
ATOM     12  C   UNL     1     -12.791  60.242  40.067  1.00  0.00    -0.000 C 
BRANCH  12  13
ATOM     13  C   UNL     1     -14.074  61.009  39.679  1.00  0.00    -0.000 C 
BRANCH  13  14
ATOM     14  C   UNL     1     -14.849  60.370  38.511  1.00  0.00    -0.000 C 
BRANCH  14  15
ATOM     15  C   UNL     1     -16.039  61.198  37.989  1.00  0.00    -0.000 C 
BRANCH  15  16
ATOM     16  C   UNL     1     -17.265  61.224  38.918  1.00  0.00    -0.003 C 
ATOM     17  C   UNL     1     -18.482  61.894  38.280  1.00  0.00     0.004 C 
ENDBRANCH  15  16
ENDBRANCH  14  15
ENDBRANCH  13  14
ENDBRANCH  12  13
ENDBRANCH  11  12
ENDBRANCH  10  11
ENDBRANCH   1  10
TORSDOF 13
ENDMDL
