MODEL 1
REMARK VINA RESULT:    -3.566      0.000      0.000
REMARK INTER + INTRA:          -4.259
REMARK INTER:                  -4.087
REMARK INTRA:                  -0.173
REMARK UNBOUND:                -0.173
REMARK SMILES CC=Cc1ccc(O)c(OC)c1
REMARK SMILES IDX 4 1 12 2 9 3 7 4 6 5 5 6 3 7 1 8 2 9 10 10 11 11 8 12
REMARK H PARENT 8 13
REMARK Flexibility Score: inf
ROOT
ATOM      1  C   UNL     1     142.393 143.934 142.803  1.00  0.00    -0.022 A 
ATOM      2  C   UNL     1     141.784 144.017 141.540  1.00  0.00     0.058 A 
ATOM      3  C   UNL     1     140.533 144.647 141.382  1.00  0.00     0.161 A 
ATOM      4  C   UNL     1     139.899 145.205 142.499  1.00  0.00     0.157 A 
ATOM      5  C   UNL     1     140.507 145.140 143.758  1.00  0.00     0.051 A 
ATOM      6  C   UNL     1     141.747 144.514 143.912  1.00  0.00     0.012 A 
ENDROOT
BRANCH   1   7
ATOM      7  C   UNL     1     143.715 143.268 142.912  1.00  0.00     0.003 C 
ATOM      8  C   UNL     1     145.787 142.246 142.053  1.00  0.00     0.035 C 
ATOM      9  C   UNL     1     144.456 142.899 141.860  1.00  0.00    -0.030 C 
ENDBRANCH   1   7
BRANCH   3  10
ATOM     10  O   UNL     1     139.893 144.738 140.136  1.00  0.00    -0.493 OA
ATOM     11  C   UNL     1     140.192 145.716 139.145  1.00  0.00     0.278 C 
ENDBRANCH   3  10
BRANCH   4  12
ATOM     12  O   UNL     1     138.661 145.829 142.349  1.00  0.00    -0.504 OA
ATOM     13  H   UNL     1     137.853 145.326 141.999  1.00  0.00     0.293 HD
ENDBRANCH   4  12
TORSDOF 3
ENDMDL
MODEL 2
REMARK VINA RESULT:    -3.553      5.045      6.102
REMARK INTER + INTRA:          -4.245
REMARK INTER:                  -4.072
REMARK INTRA:                  -0.173
REMARK UNBOUND:                -0.173
REMARK SMILES CC=Cc1ccc(O)c(OC)c1
REMARK SMILES IDX 4 1 12 2 9 3 7 4 6 5 5 6 3 7 1 8 2 9 10 10 11 11 8 12
REMARK H PARENT 8 13
REMARK Flexibility Score: inf
ROOT
ATOM      1  C   UNL     1     137.652 142.371 142.857  1.00  0.00    -0.022 A 
ATOM      2  C   UNL     1     137.588 141.759 141.594  1.00  0.00     0.058 A 
ATOM      3  C   UNL     1     136.972 140.501 141.432  1.00  0.00     0.161 A 
ATOM      4  C   UNL     1     136.411 139.862 142.544  1.00  0.00     0.157 A 
ATOM      5  C   UNL     1     136.458 140.473 143.803  1.00  0.00     0.051 A 
ATOM      6  C   UNL     1     137.069 141.719 143.961  1.00  0.00     0.012 A 
ENDROOT
BRANCH   1   7
ATOM      7  C   UNL     1     138.303 143.700 142.971  1.00  0.00     0.003 C 
ATOM      8  C   UNL     1     139.346 145.764 142.119  1.00  0.00     0.035 C 
ATOM      9  C   UNL     1     138.712 144.424 141.922  1.00  0.00    -0.030 C 
ENDBRANCH   1   7
BRANCH   3  10
ATOM     10  O   UNL     1     136.899 139.859 140.185  1.00  0.00    -0.493 OA
ATOM     11  C   UNL     1     135.934 140.154 139.181  1.00  0.00     0.278 C 
ENDBRANCH   3  10
BRANCH   4  12
ATOM     12  O   UNL     1     135.801 138.618 142.390  1.00  0.00    -0.504 OA
ATOM     13  H   UNL     1     134.977 138.499 141.811  1.00  0.00     0.293 HD
ENDBRANCH   4  12
TORSDOF 3
ENDMDL
MODEL 3
REMARK VINA RESULT:    -3.553      4.999      6.056
REMARK INTER + INTRA:          -4.244
REMARK INTER:                  -4.073
REMARK INTRA:                  -0.171
REMARK UNBOUND:                -0.173
REMARK SMILES CC=Cc1ccc(O)c(OC)c1
REMARK SMILES IDX 4 1 12 2 9 3 7 4 6 5 5 6 3 7 1 8 2 9 10 10 11 11 8 12
REMARK H PARENT 8 13
REMARK Flexibility Score: inf
ROOT
ATOM      1  C   UNL     1     143.957 139.236 142.803  1.00  0.00    -0.022 A 
ATOM      2  C   UNL     1     144.038 139.846 141.540  1.00  0.00     0.058 A 
ATOM      3  C   UNL     1     144.649 141.107 141.386  1.00  0.00     0.161 A 
ATOM      4  C   UNL     1     145.188 141.751 142.507  1.00  0.00     0.157 A 
ATOM      5  C   UNL     1     145.125 141.142 143.765  1.00  0.00     0.051 A 
ATOM      6  C   UNL     1     144.519 139.892 143.915  1.00  0.00     0.012 A 
ENDROOT
BRANCH   1   7
ATOM      7  C   UNL     1     143.313 137.903 142.907  1.00  0.00     0.003 C 
ATOM      8  C   UNL     1     142.291 135.833 142.042  1.00  0.00     0.035 C 
ATOM      9  C   UNL     1     142.919 137.178 141.854  1.00  0.00    -0.030 C 
ENDBRANCH   1   7
BRANCH   3  10
ATOM     10  O   UNL     1     144.737 141.748 140.140  1.00  0.00    -0.493 OA
ATOM     11  C   UNL     1     145.740 141.481 139.165  1.00  0.00     0.278 C 
ENDBRANCH   3  10
BRANCH   4  12
ATOM     12  O   UNL     1     145.792 142.999 142.360  1.00  0.00    -0.504 OA
ATOM     13  H   UNL     1     145.528 143.631 141.612  1.00  0.00     0.293 HD
ENDBRANCH   4  12
TORSDOF 3
ENDMDL
MODEL 4
REMARK VINA RESULT:    -3.538      7.469      8.594
REMARK INTER + INTRA:          -4.227
REMARK INTER:                  -4.060
REMARK INTRA:                  -0.167
REMARK UNBOUND:                -0.173
REMARK SMILES CC=Cc1ccc(O)c(OC)c1
REMARK SMILES IDX 4 1 12 2 9 3 7 4 6 5 5 6 3 7 1 8 2 9 10 10 11 11 8 12
REMARK H PARENT 8 13
REMARK Flexibility Score: inf
ROOT
ATOM      1  C   UNL     1     139.233 137.672 142.837  1.00  0.00    -0.022 A 
ATOM      2  C   UNL     1     139.831 137.597 141.568  1.00  0.00     0.058 A 
ATOM      3  C   UNL     1     141.090 136.986 141.399  1.00  0.00     0.161 A 
ATOM      4  C   UNL     1     141.743 136.439 142.510  1.00  0.00     0.157 A 
ATOM      5  C   UNL     1     141.146 136.495 143.774  1.00  0.00     0.051 A 
ATOM      6  C   UNL     1     139.898 137.102 143.940  1.00  0.00     0.012 A 
ENDROOT
BRANCH   1   7
ATOM      7  C   UNL     1     137.902 138.317 142.958  1.00  0.00     0.003 C 
ATOM      8  C   UNL     1     135.809 139.312 142.119  1.00  0.00     0.035 C 
ATOM      9  C   UNL     1     137.149 138.679 141.913  1.00  0.00    -0.030 C 
ENDBRANCH   1   7
BRANCH   3  10
ATOM     10  O   UNL     1     141.719 136.904 140.146  1.00  0.00    -0.493 OA
ATOM     11  C   UNL     1     141.467 135.887 139.182  1.00  0.00     0.278 C 
ENDBRANCH   3  10
BRANCH   4  12
ATOM     12  O   UNL     1     142.989 135.833 142.348  1.00  0.00    -0.504 OA
ATOM     13  H   UNL     1     143.198 135.259 141.539  1.00  0.00     0.293 HD
ENDBRANCH   4  12
TORSDOF 3
ENDMDL
MODEL 5
REMARK VINA RESULT:    -3.234      1.209      2.622
REMARK INTER + INTRA:          -3.880
REMARK INTER:                  -3.709
REMARK INTRA:                  -0.171
REMARK UNBOUND:                -0.173
REMARK SMILES CC=Cc1ccc(O)c(OC)c1
REMARK SMILES IDX 4 1 12 2 9 3 7 4 6 5 5 6 3 7 1 8 2 9 10 10 11 11 8 12
REMARK H PARENT 8 13
REMARK Flexibility Score: inf
ROOT
ATOM      1  C   UNL     1     142.557 143.740 141.115  1.00  0.00    -0.022 A 
ATOM      2  C   UNL     1     141.845 143.911 142.314  1.00  0.00     0.058 A 
ATOM      3  C   UNL     1     140.696 144.726 142.361  1.00  0.00     0.161 A 
ATOM      4  C   UNL     1     140.257 145.363 141.194  1.00  0.00     0.157 A 
ATOM      5  C   UNL     1     140.953 145.186 139.993  1.00  0.00     0.051 A 
ATOM      6  C   UNL     1     142.091 144.377 139.949  1.00  0.00     0.012 A 
ENDROOT
BRANCH   1   7
ATOM      7  C   UNL     1     143.754 142.862 141.118  1.00  0.00     0.003 C 
ATOM      8  C   UNL     1     145.853 141.939 142.020  1.00  0.00     0.035 C 
ATOM      9  C   UNL     1     144.682 142.867 142.082  1.00  0.00    -0.030 C 
ENDBRANCH   1   7
BRANCH   3  10
ATOM     10  O   UNL     1     139.968 144.924 143.546  1.00  0.00    -0.493 OA
ATOM     11  C   UNL     1     139.093 143.962 144.125  1.00  0.00     0.278 C 
ENDBRANCH   3  10
BRANCH   4  12
ATOM     12  O   UNL     1     139.122 146.172 141.236  1.00  0.00    -0.504 OA
ATOM     13  H   UNL     1     138.209 145.792 141.459  1.00  0.00     0.293 HD
ENDBRANCH   4  12
TORSDOF 3
ENDMDL
MODEL 6
REMARK VINA RESULT:    -3.229      4.668      6.616
REMARK INTER + INTRA:          -3.873
REMARK INTER:                  -3.706
REMARK INTRA:                  -0.167
REMARK UNBOUND:                -0.173
REMARK SMILES CC=Cc1ccc(O)c(OC)c1
REMARK SMILES IDX 4 1 12 2 9 3 7 4 6 5 5 6 3 7 1 8 2 9 10 10 11 11 8 12
REMARK H PARENT 8 13
REMARK Flexibility Score: inf
ROOT
ATOM      1  C   UNL     1     143.867 139.029 140.969  1.00  0.00    -0.022 A 
ATOM      2  C   UNL     1     143.961 139.820 142.126  1.00  0.00     0.058 A 
ATOM      3  C   UNL     1     144.753 140.986 142.142  1.00  0.00     0.161 A 
ATOM      4  C   UNL     1     145.445 141.362 140.984  1.00  0.00     0.157 A 
ATOM      5  C   UNL     1     145.344 140.587 139.822  1.00  0.00     0.051 A 
ATOM      6  C   UNL     1     144.558 139.432 139.810  1.00  0.00     0.012 A 
ENDROOT
BRANCH   1   7
ATOM      7  C   UNL     1     143.011 137.817 141.005  1.00  0.00     0.003 C 
ATOM      8  C   UNL     1     141.999 135.817 142.029  1.00  0.00     0.035 C 
ATOM      9  C   UNL     1     142.897 137.013 142.068  1.00  0.00    -0.030 C 
ENDBRANCH   1   7
BRANCH   3  10
ATOM     10  O   UNL     1     144.875 141.793 143.285  1.00  0.00    -0.493 OA
ATOM     11  C   UNL     1     143.939 142.794 143.669  1.00  0.00     0.278 C 
ENDBRANCH   3  10
BRANCH   4  12
ATOM     12  O   UNL     1     146.230 142.513 140.993  1.00  0.00    -0.504 OA
ATOM     13  H   UNL     1     145.927 143.366 140.535  1.00  0.00     0.293 HD
ENDBRANCH   4  12
TORSDOF 3
ENDMDL
MODEL 7
REMARK VINA RESULT:    -3.223      4.887      6.389
REMARK INTER + INTRA:          -3.866
REMARK INTER:                  -3.692
REMARK INTRA:                  -0.174
REMARK UNBOUND:                -0.173
REMARK SMILES CC=Cc1ccc(O)c(OC)c1
REMARK SMILES IDX 4 1 12 2 9 3 7 4 6 5 5 6 3 7 1 8 2 9 10 10 11 11 8 12
REMARK H PARENT 8 13
REMARK Flexibility Score: inf
ROOT
ATOM      1  C   UNL     1     137.823 142.650 141.242  1.00  0.00    -0.022 A 
ATOM      2  C   UNL     1     137.629 141.881 142.403  1.00  0.00     0.058 A 
ATOM      3  C   UNL     1     136.861 140.700 142.366  1.00  0.00     0.161 A 
ATOM      4  C   UNL     1     136.295 140.286 141.154  1.00  0.00     0.157 A 
ATOM      5  C   UNL     1     136.497 141.038 139.991  1.00  0.00     0.051 A 
ATOM      6  C   UNL     1     137.258 142.209 140.030  1.00  0.00     0.012 A 
ENDROOT
BRANCH   1   7
ATOM      7  C   UNL     1     138.649 143.880 141.334  1.00  0.00     0.003 C 
ATOM      8  C   UNL     1     139.837 145.699 142.496  1.00  0.00     0.035 C 
ATOM      9  C   UNL     1     138.988 144.468 142.487  1.00  0.00    -0.030 C 
ENDBRANCH   1   7
BRANCH   3  10
ATOM     10  O   UNL     1     136.641 139.916 143.510  1.00  0.00    -0.493 OA
ATOM     11  C   UNL     1     137.625 139.092 144.125  1.00  0.00     0.278 C 
ENDBRANCH   3  10
BRANCH   4  12
ATOM     12  O   UNL     1     135.534 139.119 141.113  1.00  0.00    -0.504 OA
ATOM     13  H   UNL     1     135.968 138.204 141.050  1.00  0.00     0.293 HD
ENDBRANCH   4  12
TORSDOF 3
ENDMDL
MODEL 8
REMARK VINA RESULT:    -3.221      7.184      8.678
REMARK INTER + INTRA:          -3.865
REMARK INTER:                  -3.721
REMARK INTRA:                  -0.143
REMARK UNBOUND:                -0.173
REMARK SMILES CC=Cc1ccc(O)c(OC)c1
REMARK SMILES IDX 4 1 12 2 9 3 7 4 6 5 5 6 3 7 1 8 2 9 10 10 11 11 8 12
REMARK H PARENT 8 13
REMARK Flexibility Score: inf
ROOT
ATOM      1  C   UNL     1     139.244 137.805 141.251  1.00  0.00    -0.022 A 
ATOM      2  C   UNL     1     139.943 137.959 142.460  1.00  0.00     0.058 A 
ATOM      3  C   UNL     1     141.167 137.295 142.677  1.00  0.00     0.161 A 
ATOM      4  C   UNL     1     141.694 136.480 141.668  1.00  0.00     0.157 A 
ATOM      5  C   UNL     1     141.012 136.334 140.454  1.00  0.00     0.051 A 
ATOM      6  C   UNL     1     139.799 136.994 140.242  1.00  0.00     0.012 A 
ENDROOT
BRANCH   1   7
ATOM      7  C   UNL     1     137.965 138.536 141.071  1.00  0.00     0.003 C 
ATOM      8  C   UNL     1     135.795 139.462 141.780  1.00  0.00     0.035 C 
ATOM      9  C   UNL     1     137.054 138.698 142.037  1.00  0.00    -0.030 C 
ENDBRANCH   1   7
BRANCH   3  10
ATOM     10  O   UNL     1     141.884 137.421 143.878  1.00  0.00    -0.493 OA
ATOM     11  C   UNL     1     142.876 138.412 144.125  1.00  0.00     0.278 C 
ENDBRANCH   3  10
BRANCH   4  12
ATOM     12  O   UNL     1     142.904 135.820 141.877  1.00  0.00    -0.504 OA
ATOM     13  H   UNL     1     142.963 134.807 141.874  1.00  0.00     0.293 HD
ENDBRANCH   4  12
TORSDOF 3
ENDMDL
