MODEL 1
REMARK VINA RESULT:    -4.352      0.000      0.000
REMARK INTER + INTRA:          -9.182
REMARK INTER:                  -7.406
REMARK INTRA:                  -1.776
REMARK UNBOUND:                -1.776
REMARK SMILES CCCCCCCCCCCCCC(=O)[O-]
REMARK SMILES IDX 8 1 9 2 10 3 11 4 12 5 13 6 14 7 15 8 16 9 7 10 6 11 5 12
REMARK SMILES IDX 4 13 3 14 2 15 1 16
REMARK H PARENT
REMARK Flexibility Score: inf
ROOT
ATOM      1  C   UNL     1      39.800  63.849   7.695  1.00  0.00     0.000 C 
ENDROOT
BRANCH   1   2
ATOM      2  C   UNL     1      39.747  62.346   7.998  1.00  0.00     0.000 C 
BRANCH   2   3
ATOM      3  C   UNL     1      41.110  61.831   8.479  1.00  0.00     0.000 C 
BRANCH   3   4
ATOM      4  C   UNL     1      41.450  60.435   7.933  1.00  0.00     0.000 C 
BRANCH   4   5
ATOM      5  C   UNL     1      40.433  59.347   8.339  1.00  0.00     0.006 C 
BRANCH   5   6
ATOM      6  C   UNL     1      41.113  58.023   8.706  1.00  0.00     0.053 C 
BRANCH   6   7
ATOM      7  C   UNL     1      41.227  57.141   7.504  1.00  0.00     0.041 C 
ATOM      8  O   UNL     1      41.938  56.102   7.544  1.00  0.00    -0.550 OA
ATOM      9  O   UNL     1      40.507  57.439   6.353  1.00  0.00    -0.550 OA
ENDBRANCH   6   7
ENDBRANCH   5   6
ENDBRANCH   4   5
ENDBRANCH   3   4
ENDBRANCH   2   3
ENDBRANCH   1   2
BRANCH   1  10
ATOM     10  C   UNL     1      41.183  64.428   8.025  1.00  0.00     0.000 C 
BRANCH  10  11
ATOM     11  C   UNL     1      41.845  65.107   6.816  1.00  0.00    -0.000 C 
BRANCH  11  12
ATOM     12  C   UNL     1      41.591  64.354   5.499  1.00  0.00    -0.000 C 
BRANCH  12  13
ATOM     13  C   UNL     1      42.772  63.435   5.116  1.00  0.00    -0.000 C 
BRANCH  13  14
ATOM     14  C   UNL     1      42.342  62.012   4.723  1.00  0.00    -0.000 C 
BRANCH  14  15
ATOM     15  C   UNL     1      40.947  61.964   4.086  1.00  0.00    -0.003 C 
ATOM     16  C   UNL     1      40.163  60.748   4.570  1.00  0.00     0.004 C 
ENDBRANCH  14  15
ENDBRANCH  13  14
ENDBRANCH  12  13
ENDBRANCH  11  12
ENDBRANCH  10  11
ENDBRANCH   1  10
TORSDOF 12
ENDMDL
MODEL 2
REMARK VINA RESULT:    -4.324      1.242      2.319
REMARK INTER + INTRA:          -9.135
REMARK INTER:                  -7.644
REMARK INTRA:                  -1.491
REMARK UNBOUND:                -1.776
REMARK SMILES CCCCCCCCCCCCCC(=O)[O-]
REMARK SMILES IDX 8 1 9 2 10 3 11 4 12 5 13 6 14 7 15 8 16 9 7 10 6 11 5 12
REMARK SMILES IDX 4 13 3 14 2 15 1 16
REMARK H PARENT
REMARK Flexibility Score: inf
ROOT
ATOM      1  C   UNL     1      41.081  61.603   8.375  1.00  0.00     0.000 C 
ENDROOT
BRANCH   1   2
ATOM      2  C   UNL     1      39.772  60.994   7.858  1.00  0.00     0.000 C 
BRANCH   2   3
ATOM      3  C   UNL     1      40.017  59.622   7.216  1.00  0.00     0.000 C 
BRANCH   3   4
ATOM      4  C   UNL     1      39.697  58.452   8.160  1.00  0.00     0.000 C 
BRANCH   4   5
ATOM      5  C   UNL     1      40.949  57.788   8.771  1.00  0.00     0.006 C 
BRANCH   5   6
ATOM      6  C   UNL     1      42.223  58.113   7.980  1.00  0.00     0.053 C 
BRANCH   6   7
ATOM      7  C   UNL     1      42.635  56.943   7.145  1.00  0.00     0.041 C 
ATOM      8  O   UNL     1      42.082  55.823   7.306  1.00  0.00    -0.550 OA
ATOM      9  O   UNL     1      43.596  57.101   6.154  1.00  0.00    -0.550 OA
ENDBRANCH   6   7
ENDBRANCH   5   6
ENDBRANCH   4   5
ENDBRANCH   3   4
ENDBRANCH   2   3
ENDBRANCH   1   2
BRANCH   1  10
ATOM     10  C   UNL     1      40.914  63.102   8.664  1.00  0.00     0.000 C 
BRANCH  10  11
ATOM     11  C   UNL     1      39.470  63.586   8.460  1.00  0.00    -0.000 C 
BRANCH  11  12
ATOM     12  C   UNL     1      39.375  64.783   7.498  1.00  0.00    -0.000 C 
BRANCH  12  13
ATOM     13  C   UNL     1      40.659  64.957   6.657  1.00  0.00    -0.000 C 
BRANCH  13  14
ATOM     14  C   UNL     1      40.549  64.372   5.239  1.00  0.00    -0.000 C 
BRANCH  14  15
ATOM     15  C   UNL     1      41.628  63.323   4.940  1.00  0.00    -0.003 C 
ATOM     16  C   UNL     1      41.009  62.039   4.394  1.00  0.00     0.004 C 
ENDBRANCH  14  15
ENDBRANCH  13  14
ENDBRANCH  12  13
ENDBRANCH  11  12
ENDBRANCH  10  11
ENDBRANCH   1  10
TORSDOF 12
ENDMDL
MODEL 3
REMARK VINA RESULT:    -4.321      2.219      3.717
REMARK INTER + INTRA:          -9.129
REMARK INTER:                  -7.777
REMARK INTRA:                  -1.352
REMARK UNBOUND:                -1.776
REMARK SMILES CCCCCCCCCCCCCC(=O)[O-]
REMARK SMILES IDX 8 1 9 2 10 3 11 4 12 5 13 6 14 7 15 8 16 9 7 10 6 11 5 12
REMARK SMILES IDX 4 13 3 14 2 15 1 16
REMARK H PARENT
REMARK Flexibility Score: inf
ROOT
ATOM      1  C   UNL     1      41.983  64.145   5.766  1.00  0.00     0.000 C 
ENDROOT
BRANCH   1   2
ATOM      2  C   UNL     1      41.854  62.763   6.419  1.00  0.00     0.000 C 
BRANCH   2   3
ATOM      3  C   UNL     1      40.769  61.925   5.729  1.00  0.00     0.000 C 
BRANCH   3   4
ATOM      4  C   UNL     1      39.801  61.263   6.722  1.00  0.00     0.000 C 
BRANCH   4   5
ATOM      5  C   UNL     1      40.372  61.132   8.150  1.00  0.00     0.006 C 
BRANCH   5   6
ATOM      6  C   UNL     1      40.501  59.669   8.592  1.00  0.00     0.053 C 
BRANCH   6   7
ATOM      7  C   UNL     1      41.262  58.879   7.576  1.00  0.00     0.041 C 
ATOM      8  O   UNL     1      40.686  57.977   6.911  1.00  0.00    -0.550 OA
ATOM      9  O   UNL     1      42.598  59.171   7.326  1.00  0.00    -0.550 OA
ENDBRANCH   6   7
ENDBRANCH   5   6
ENDBRANCH   4   5
ENDBRANCH   3   4
ENDBRANCH   2   3
ENDBRANCH   1   2
BRANCH   1  10
ATOM     10  C   UNL     1      41.430  65.242   6.687  1.00  0.00     0.000 C 
BRANCH  10  11
ATOM     11  C   UNL     1      40.803  64.677   7.972  1.00  0.00    -0.000 C 
BRANCH  11  12
ATOM     12  C   UNL     1      39.269  64.791   7.984  1.00  0.00    -0.000 C 
BRANCH  12  13
ATOM     13  C   UNL     1      38.715  65.338   6.651  1.00  0.00    -0.000 C 
BRANCH  13  14
ATOM     14  C   UNL     1      37.505  66.272   6.825  1.00  0.00    -0.000 C 
BRANCH  14  15
ATOM     15  C   UNL     1      37.250  67.157   5.598  1.00  0.00    -0.003 C 
ATOM     16  C   UNL     1      38.294  66.907   4.514  1.00  0.00     0.004 C 
ENDBRANCH  14  15
ENDBRANCH  13  14
ENDBRANCH  12  13
ENDBRANCH  11  12
ENDBRANCH  10  11
ENDBRANCH   1  10
TORSDOF 12
ENDMDL
MODEL 4
REMARK VINA RESULT:    -4.309      3.377      5.758
REMARK INTER + INTRA:          -9.108
REMARK INTER:                  -7.229
REMARK INTRA:                  -1.879
REMARK UNBOUND:                -1.776
REMARK SMILES CCCCCCCCCCCCCC(=O)[O-]
REMARK SMILES IDX 8 1 9 2 10 3 11 4 12 5 13 6 14 7 15 8 16 9 7 10 6 11 5 12
REMARK SMILES IDX 4 13 3 14 2 15 1 16
REMARK H PARENT
REMARK Flexibility Score: inf
ROOT
ATOM      1  C   UNL     1      42.705  60.275   6.800  1.00  0.00     0.000 C 
ENDROOT
BRANCH   1   2
ATOM      2  C   UNL     1      41.791  61.501   6.915  1.00  0.00     0.000 C 
BRANCH   2   3
ATOM      3  C   UNL     1      41.219  61.632   8.334  1.00  0.00     0.000 C 
BRANCH   3   4
ATOM      4  C   UNL     1      39.778  62.166   8.351  1.00  0.00     0.000 C 
BRANCH   4   5
ATOM      5  C   UNL     1      39.672  63.651   8.760  1.00  0.00     0.006 C 
BRANCH   5   6
ATOM      6  C   UNL     1      39.181  64.537   7.608  1.00  0.00     0.053 C 
BRANCH   6   7
ATOM      7  C   UNL     1      40.324  64.938   6.731  1.00  0.00     0.041 C 
ATOM      8  O   UNL     1      41.476  65.082   7.217  1.00  0.00    -0.550 OA
ATOM      9  O   UNL     1      40.126  65.106   5.366  1.00  0.00    -0.550 OA
ENDBRANCH   6   7
ENDBRANCH   5   6
ENDBRANCH   4   5
ENDBRANCH   3   4
ENDBRANCH   2   3
ENDBRANCH   1   2
BRANCH   1  10
ATOM     10  C   UNL     1      42.639  59.418   8.073  1.00  0.00     0.000 C 
BRANCH  10  11
ATOM     11  C   UNL     1      42.120  57.997   7.804  1.00  0.00    -0.000 C 
BRANCH  11  12
ATOM     12  C   UNL     1      40.851  57.666   8.608  1.00  0.00    -0.000 C 
BRANCH  12  13
ATOM     13  C   UNL     1      39.594  58.337   8.013  1.00  0.00    -0.000 C 
BRANCH  13  14
ATOM     14  C   UNL     1      39.284  57.895   6.573  1.00  0.00    -0.000 C 
BRANCH  14  15
ATOM     15  C   UNL     1      39.378  59.044   5.561  1.00  0.00    -0.003 C 
ATOM     16  C   UNL     1      38.249  60.050   5.765  1.00  0.00     0.004 C 
ENDBRANCH  14  15
ENDBRANCH  13  14
ENDBRANCH  12  13
ENDBRANCH  11  12
ENDBRANCH  10  11
ENDBRANCH   1  10
TORSDOF 12
ENDMDL
MODEL 5
REMARK VINA RESULT:    -4.287      3.380      5.524
REMARK INTER + INTRA:          -9.071
REMARK INTER:                  -7.284
REMARK INTRA:                  -1.787
REMARK UNBOUND:                -1.776
REMARK SMILES CCCCCCCCCCCCCC(=O)[O-]
REMARK SMILES IDX 8 1 9 2 10 3 11 4 12 5 13 6 14 7 15 8 16 9 7 10 6 11 5 12
REMARK SMILES IDX 4 13 3 14 2 15 1 16
REMARK H PARENT
REMARK Flexibility Score: inf
ROOT
ATOM      1  C   UNL     1      40.594  59.318   8.021  1.00  0.00     0.000 C 
ENDROOT
BRANCH   1   2
ATOM      2  C   UNL     1      40.167  60.735   8.425  1.00  0.00     0.000 C 
BRANCH   2   3
ATOM      3  C   UNL     1      41.356  61.703   8.383  1.00  0.00     0.000 C 
BRANCH   3   4
ATOM      4  C   UNL     1      40.926  63.179   8.351  1.00  0.00     0.000 C 
BRANCH   4   5
ATOM      5  C   UNL     1      39.518  63.401   7.759  1.00  0.00     0.006 C 
BRANCH   5   6
ATOM      6  C   UNL     1      38.972  64.801   8.067  1.00  0.00     0.053 C 
BRANCH   6   7
ATOM      7  C   UNL     1      38.625  65.518   6.803  1.00  0.00     0.041 C 
ATOM      8  O   UNL     1      39.392  65.454   5.806  1.00  0.00    -0.550 OA
ATOM      9  O   UNL     1      37.428  66.219   6.707  1.00  0.00    -0.550 OA
ENDBRANCH   6   7
ENDBRANCH   5   6
ENDBRANCH   4   5
ENDBRANCH   3   4
ENDBRANCH   2   3
ENDBRANCH   1   2
BRANCH   1  10
ATOM     10  C   UNL     1      39.889  58.880   6.729  1.00  0.00     0.000 C 
BRANCH  10  11
ATOM     11  C   UNL     1      39.038  59.999   6.109  1.00  0.00    -0.000 C 
BRANCH  11  12
ATOM     12  C   UNL     1      39.268  60.151   4.595  1.00  0.00    -0.000 C 
BRANCH  12  13
ATOM     13  C   UNL     1      40.724  60.545   4.264  1.00  0.00    -0.000 C 
BRANCH  13  14
ATOM     14  C   UNL     1      40.973  62.062   4.298  1.00  0.00    -0.000 C 
BRANCH  14  15
ATOM     15  C   UNL     1      42.342  62.430   4.885  1.00  0.00    -0.003 C 
ATOM     16  C   UNL     1      42.466  63.938   5.085  1.00  0.00     0.004 C 
ENDBRANCH  14  15
ENDBRANCH  13  14
ENDBRANCH  12  13
ENDBRANCH  11  12
ENDBRANCH  10  11
ENDBRANCH   1  10
TORSDOF 12
ENDMDL
MODEL 6
REMARK VINA RESULT:    -4.286      1.557      2.158
REMARK INTER + INTRA:          -9.068
REMARK INTER:                  -7.209
REMARK INTRA:                  -1.859
REMARK UNBOUND:                -1.776
REMARK SMILES CCCCCCCCCCCCCC(=O)[O-]
REMARK SMILES IDX 8 1 9 2 10 3 11 4 12 5 13 6 14 7 15 8 16 9 7 10 6 11 5 12
REMARK SMILES IDX 4 13 3 14 2 15 1 16
REMARK H PARENT
REMARK Flexibility Score: inf
ROOT
ATOM      1  C   UNL     1      39.658  62.245   7.899  1.00  0.00     0.000 C 
ENDROOT
BRANCH   1   2
ATOM      2  C   UNL     1      40.483  61.213   8.678  1.00  0.00     0.000 C 
BRANCH   2   3
ATOM      3  C   UNL     1      41.744  60.813   7.901  1.00  0.00     0.000 C 
BRANCH   3   4
ATOM      4  C   UNL     1      41.908  59.290   7.768  1.00  0.00     0.000 C 
BRANCH   4   5
ATOM      5  C   UNL     1      41.472  58.737   6.395  1.00  0.00     0.006 C 
BRANCH   5   6
ATOM      6  C   UNL     1      40.344  57.705   6.515  1.00  0.00     0.053 C 
BRANCH   6   7
ATOM      7  C   UNL     1      39.066  58.369   6.917  1.00  0.00     0.041 C 
ATOM      8  O   UNL     1      38.503  58.058   8.000  1.00  0.00    -0.550 OA
ATOM      9  O   UNL     1      38.521  59.368   6.120  1.00  0.00    -0.550 OA
ENDBRANCH   6   7
ENDBRANCH   5   6
ENDBRANCH   4   5
ENDBRANCH   3   4
ENDBRANCH   2   3
ENDBRANCH   1   2
BRANCH   1  10
ATOM     10  C   UNL     1      39.531  63.556   8.687  1.00  0.00     0.000 C 
BRANCH  10  11
ATOM     11  C   UNL     1      40.095  64.764   7.922  1.00  0.00    -0.000 C 
BRANCH  11  12
ATOM     12  C   UNL     1      41.628  64.728   7.801  1.00  0.00    -0.000 C 
BRANCH  12  13
ATOM     13  C   UNL     1      42.103  64.950   6.348  1.00  0.00    -0.000 C 
BRANCH  13  14
ATOM     14  C   UNL     1      42.290  63.645   5.556  1.00  0.00    -0.000 C 
BRANCH  14  15
ATOM     15  C   UNL     1      41.103  63.326   4.639  1.00  0.00    -0.003 C 
ATOM     16  C   UNL     1      40.984  61.825   4.395  1.00  0.00     0.004 C 
ENDBRANCH  14  15
ENDBRANCH  13  14
ENDBRANCH  12  13
ENDBRANCH  11  12
ENDBRANCH  10  11
ENDBRANCH   1  10
TORSDOF 12
ENDMDL
MODEL 7
REMARK VINA RESULT:    -4.281      1.371      1.853
REMARK INTER + INTRA:          -9.060
REMARK INTER:                  -7.168
REMARK INTRA:                  -1.892
REMARK UNBOUND:                -1.776
REMARK SMILES CCCCCCCCCCCCCC(=O)[O-]
REMARK SMILES IDX 8 1 9 2 10 3 11 4 12 5 13 6 14 7 15 8 16 9 7 10 6 11 5 12
REMARK SMILES IDX 4 13 3 14 2 15 1 16
REMARK H PARENT
REMARK Flexibility Score: inf
ROOT
ATOM      1  C   UNL     1      39.106  64.940   6.919  1.00  0.00     0.000 C 
ENDROOT
BRANCH   1   2
ATOM      2  C   UNL     1      39.841  64.414   8.158  1.00  0.00     0.000 C 
BRANCH   2   3
ATOM      3  C   UNL     1      39.693  62.892   8.283  1.00  0.00     0.000 C 
BRANCH   3   4
ATOM      4  C   UNL     1      41.042  62.168   8.428  1.00  0.00     0.000 C 
BRANCH   4   5
ATOM      5  C   UNL     1      40.961  60.649   8.168  1.00  0.00     0.006 C 
BRANCH   5   6
ATOM      6  C   UNL     1      39.519  60.172   7.956  1.00  0.00     0.053 C 
BRANCH   6   7
ATOM      7  C   UNL     1      39.444  58.681   8.031  1.00  0.00     0.041 C 
ATOM      8  O   UNL     1      40.414  58.018   8.487  1.00  0.00    -0.550 OA
ATOM      9  O   UNL     1      38.283  58.022   7.642  1.00  0.00    -0.550 OA
ENDBRANCH   6   7
ENDBRANCH   5   6
ENDBRANCH   4   5
ENDBRANCH   3   4
ENDBRANCH   2   3
ENDBRANCH   1   2
BRANCH   1  10
ATOM     10  C   UNL     1      40.083  65.168   5.756  1.00  0.00     0.000 C 
BRANCH  10  11
ATOM     11  C   UNL     1      41.526  65.403   6.231  1.00  0.00    -0.000 C 
BRANCH  11  12
ATOM     12  C   UNL     1      42.531  64.439   5.578  1.00  0.00    -0.000 C 
BRANCH  12  13
ATOM     13  C   UNL     1      41.835  63.215   4.942  1.00  0.00    -0.000 C 
BRANCH  13  14
ATOM     14  C   UNL     1      42.654  61.918   5.048  1.00  0.00    -0.000 C 
BRANCH  14  15
ATOM     15  C   UNL     1      41.875  60.679   4.588  1.00  0.00    -0.003 C 
ATOM     16  C   UNL     1      40.390  60.991   4.430  1.00  0.00     0.004 C 
ENDBRANCH  14  15
ENDBRANCH  13  14
ENDBRANCH  12  13
ENDBRANCH  11  12
ENDBRANCH  10  11
ENDBRANCH   1  10
TORSDOF 12
ENDMDL
MODEL 8
REMARK VINA RESULT:    -4.233      3.173      5.703
REMARK INTER + INTRA:          -8.979
REMARK INTER:                  -6.820
REMARK INTRA:                  -2.159
REMARK UNBOUND:                -1.776
REMARK SMILES CCCCCCCCCCCCCC(=O)[O-]
REMARK SMILES IDX 8 1 9 2 10 3 11 4 12 5 13 6 14 7 15 8 16 9 7 10 6 11 5 12
REMARK SMILES IDX 4 13 3 14 2 15 1 16
REMARK H PARENT
REMARK Flexibility Score: inf
ROOT
ATOM      1  C   UNL     1      38.793  59.213   5.707  1.00  0.00     0.000 C 
ENDROOT
BRANCH   1   2
ATOM      2  C   UNL     1      40.033  59.829   5.049  1.00  0.00     0.000 C 
BRANCH   2   3
ATOM      3  C   UNL     1      40.426  61.145   5.735  1.00  0.00     0.000 C 
BRANCH   3   4
ATOM      4  C   UNL     1      41.673  61.007   6.625  1.00  0.00     0.000 C 
BRANCH   4   5
ATOM      5  C   UNL     1      41.407  61.310   8.114  1.00  0.00     0.006 C 
BRANCH   5   6
ATOM      6  C   UNL     1      40.009  61.897   8.347  1.00  0.00     0.053 C 
BRANCH   6   7
ATOM      7  C   UNL     1      40.104  63.340   8.728  1.00  0.00     0.041 C 
ATOM      8  O   UNL     1      41.216  63.931   8.705  1.00  0.00    -0.550 OA
ATOM      9  O   UNL     1      38.955  64.048   9.061  1.00  0.00    -0.550 OA
ENDBRANCH   6   7
ENDBRANCH   5   6
ENDBRANCH   4   5
ENDBRANCH   3   4
ENDBRANCH   2   3
ENDBRANCH   1   2
BRANCH   1  10
ATOM     10  C   UNL     1      39.163  57.958   6.511  1.00  0.00     0.000 C 
BRANCH  10  11
ATOM     11  C   UNL     1      39.228  58.223   8.024  1.00  0.00    -0.000 C 
BRANCH  11  12
ATOM     12  C   UNL     1      40.561  57.777   8.649  1.00  0.00    -0.000 C 
BRANCH  12  13
ATOM     13  C   UNL     1      41.432  56.979   7.654  1.00  0.00    -0.000 C 
BRANCH  13  14
ATOM     14  C   UNL     1      42.786  57.643   7.353  1.00  0.00    -0.000 C 
BRANCH  14  15
ATOM     15  C   UNL     1      43.392  57.187   6.019  1.00  0.00    -0.003 C 
ATOM     16  C   UNL     1      42.329  56.574   5.113  1.00  0.00     0.004 C 
ENDBRANCH  14  15
ENDBRANCH  13  14
ENDBRANCH  12  13
ENDBRANCH  11  12
ENDBRANCH  10  11
ENDBRANCH   1  10
TORSDOF 12
ENDMDL
MODEL 9
REMARK VINA RESULT:    -4.114      3.265      5.617
REMARK INTER + INTRA:          -8.777
REMARK INTER:                  -6.854
REMARK INTRA:                  -1.923
REMARK UNBOUND:                -1.776
REMARK SMILES CCCCCCCCCCCCCC(=O)[O-]
REMARK SMILES IDX 8 1 9 2 10 3 11 4 12 5 13 6 14 7 15 8 16 9 7 10 6 11 5 12
REMARK SMILES IDX 4 13 3 14 2 15 1 16
REMARK H PARENT
REMARK Flexibility Score: inf
ROOT
ATOM      1  C   UNL     1      42.338  59.447   7.111  1.00  0.00     0.000 C 
ENDROOT
BRANCH   1   2
ATOM      2  C   UNL     1      41.990  60.635   8.017  1.00  0.00     0.000 C 
BRANCH   2   3
ATOM      3  C   UNL     1      40.508  60.613   8.413  1.00  0.00     0.000 C 
BRANCH   3   4
ATOM      4  C   UNL     1      39.761  61.896   8.014  1.00  0.00     0.000 C 
BRANCH   4   5
ATOM      5  C   UNL     1      40.208  63.144   8.803  1.00  0.00     0.006 C 
BRANCH   5   6
ATOM      6  C   UNL     1      40.905  64.177   7.910  1.00  0.00     0.053 C 
BRANCH   6   7
ATOM      7  C   UNL     1      39.913  64.858   7.023  1.00  0.00     0.041 C 
ATOM      8  O   UNL     1      40.190  65.084   5.815  1.00  0.00    -0.550 OA
ATOM      9  O   UNL     1      38.660  65.202   7.517  1.00  0.00    -0.550 OA
ENDBRANCH   6   7
ENDBRANCH   5   6
ENDBRANCH   4   5
ENDBRANCH   3   4
ENDBRANCH   2   3
ENDBRANCH   1   2
BRANCH   1  10
ATOM     10  C   UNL     1      41.888  58.123   7.745  1.00  0.00     0.000 C 
BRANCH  10  11
ATOM     11  C   UNL     1      40.939  57.324   6.837  1.00  0.00    -0.000 C 
BRANCH  11  12
ATOM     12  C   UNL     1      40.709  58.002   5.475  1.00  0.00    -0.000 C 
BRANCH  12  13
ATOM     13  C   UNL     1      39.268  58.537   5.328  1.00  0.00    -0.000 C 
BRANCH  13  14
ATOM     14  C   UNL     1      39.201  60.016   4.910  1.00  0.00    -0.000 C 
BRANCH  14  15
ATOM     15  C   UNL     1      40.406  60.454   4.067  1.00  0.00    -0.003 C 
ATOM     16  C   UNL     1      40.930  61.813   4.522  1.00  0.00     0.004 C 
ENDBRANCH  14  15
ENDBRANCH  13  14
ENDBRANCH  12  13
ENDBRANCH  11  12
ENDBRANCH  10  11
ENDBRANCH   1  10
TORSDOF 12
ENDMDL
