MODEL 1
REMARK VINA RESULT:    -3.601      0.000      0.000
REMARK INTER + INTRA:          -4.297
REMARK INTER:                  -4.127
REMARK INTRA:                  -0.169
REMARK UNBOUND:                -0.169
REMARK SMILES CC=Cc1ccc(O)c(OC)c1
REMARK SMILES IDX 4 1 12 2 9 3 7 4 6 5 5 6 3 7 1 8 2 9 10 10 11 11 8 12
REMARK H PARENT 8 13
REMARK Flexibility Score: inf
ROOT
ATOM      1  C   UNL     1     229.786 239.963 235.068  1.00  0.00    -0.022 A 
ATOM      2  C   UNL     1     230.796 239.155 234.519  1.00  0.00     0.058 A 
ATOM      3  C   UNL     1     231.826 239.715 233.737  1.00  0.00     0.161 A 
ATOM      4  C   UNL     1     231.831 241.101 233.498  1.00  0.00     0.157 A 
ATOM      5  C   UNL     1     230.820 241.905 234.031  1.00  0.00     0.051 A 
ATOM      6  C   UNL     1     229.803 241.345 234.805  1.00  0.00     0.012 A 
ENDROOT
BRANCH   1   7
ATOM      7  C   UNL     1     228.721 239.318 235.876  1.00  0.00     0.003 C 
ATOM      8  C   UNL     1     227.811 237.717 237.513  1.00  0.00     0.035 C 
ATOM      9  C   UNL     1     228.942 238.325 236.746  1.00  0.00    -0.030 C 
ENDBRANCH   1   7
BRANCH   3  10
ATOM     10  O   UNL     1     232.851 238.931 233.184  1.00  0.00    -0.493 OA
ATOM     11  C   UNL     1     232.678 238.019 232.103  1.00  0.00     0.278 C 
ENDBRANCH   3  10
BRANCH   4  12
ATOM     12  O   UNL     1     232.831 241.697 232.731  1.00  0.00    -0.504 OA
ATOM     13  H   UNL     1     233.660 241.193 232.438  1.00  0.00     0.293 HD
ENDBRANCH   4  12
TORSDOF 3
ENDMDL
MODEL 2
REMARK VINA RESULT:    -3.586      8.143      9.784
REMARK INTER + INTRA:          -4.280
REMARK INTER:                  -4.126
REMARK INTRA:                  -0.154
REMARK UNBOUND:                -0.169
REMARK SMILES CC=Cc1ccc(O)c(OC)c1
REMARK SMILES IDX 4 1 12 2 9 3 7 4 6 5 5 6 3 7 1 8 2 9 10 10 11 11 8 12
REMARK H PARENT 8 13
REMARK Flexibility Score: inf
ROOT
ATOM      1  C   UNL     1     228.451 229.786 235.133  1.00  0.00    -0.022 A 
ATOM      2  C   UNL     1     229.277 230.726 234.494  1.00  0.00     0.058 A 
ATOM      3  C   UNL     1     228.728 231.742 233.686  1.00  0.00     0.161 A 
ATOM      4  C   UNL     1     227.333 231.803 233.513  1.00  0.00     0.157 A 
ATOM      5  C   UNL     1     226.511 230.861 234.135  1.00  0.00     0.051 A 
ATOM      6  C   UNL     1     227.060 229.858 234.935  1.00  0.00     0.012 A 
ENDROOT
BRANCH   1   7
ATOM      7  C   UNL     1     229.085 228.733 235.965  1.00  0.00     0.003 C 
ATOM      8  C   UNL     1     230.760 227.812 237.520  1.00  0.00     0.035 C 
ATOM      9  C   UNL     1     230.172 228.930 236.720  1.00  0.00    -0.030 C 
ENDBRANCH   1   7
BRANCH   3  10
ATOM     10  O   UNL     1     229.531 232.698 233.043  1.00  0.00    -0.493 OA
ATOM     11  C   UNL     1     230.782 232.417 232.422  1.00  0.00     0.278 C 
ENDBRANCH   3  10
BRANCH   4  12
ATOM     12  O   UNL     1     226.748 232.792 232.723  1.00  0.00    -0.504 OA
ATOM     13  H   UNL     1     227.288 233.365 232.086  1.00  0.00     0.293 HD
ENDBRANCH   4  12
TORSDOF 3
ENDMDL
MODEL 3
REMARK VINA RESULT:    -3.532     11.335     13.799
REMARK INTER + INTRA:          -4.217
REMARK INTER:                  -4.046
REMARK INTRA:                  -0.171
REMARK UNBOUND:                -0.169
REMARK SMILES CC=Cc1ccc(O)c(OC)c1
REMARK SMILES IDX 4 1 12 2 9 3 7 4 6 5 5 6 3 7 1 8 2 9 10 10 11 11 8 12
REMARK H PARENT 8 13
REMARK Flexibility Score: inf
ROOT
ATOM      1  C   UNL     1     238.694 228.479 235.211  1.00  0.00    -0.022 A 
ATOM      2  C   UNL     1     237.695 229.305 234.669  1.00  0.00     0.058 A 
ATOM      3  C   UNL     1     236.675 228.770 233.858  1.00  0.00     0.161 A 
ATOM      4  C   UNL     1     236.668 227.391 233.584  1.00  0.00     0.157 A 
ATOM      5  C   UNL     1     237.667 226.569 234.110  1.00  0.00     0.051 A 
ATOM      6  C   UNL     1     238.676 227.104 234.913  1.00  0.00     0.012 A 
ENDROOT
BRANCH   1   7
ATOM      7  C   UNL     1     239.750 229.099 236.050  1.00  0.00     0.003 C 
ATOM      8  C   UNL     1     240.702 230.796 237.561  1.00  0.00     0.035 C 
ATOM      9  C   UNL     1     239.583 230.228 236.749  1.00  0.00    -0.030 C 
ENDBRANCH   1   7
BRANCH   3  10
ATOM     10  O   UNL     1     235.660 229.573 233.311  1.00  0.00    -0.493 OA
ATOM     11  C   UNL     1     235.847 230.490 232.237  1.00  0.00     0.278 C 
ENDBRANCH   3  10
BRANCH   4  12
ATOM     12  O   UNL     1     235.676 226.819 232.787  1.00  0.00    -0.504 OA
ATOM     13  H   UNL     1     235.708 226.853 231.776  1.00  0.00     0.293 HD
ENDBRANCH   4  12
TORSDOF 3
ENDMDL
MODEL 4
REMARK VINA RESULT:    -3.524      8.151      9.822
REMARK INTER + INTRA:          -4.209
REMARK INTER:                  -4.053
REMARK INTRA:                  -0.155
REMARK UNBOUND:                -0.169
REMARK SMILES CC=Cc1ccc(O)c(OC)c1
REMARK SMILES IDX 4 1 12 2 9 3 7 4 6 5 5 6 3 7 1 8 2 9 10 10 11 11 8 12
REMARK H PARENT 8 13
REMARK Flexibility Score: inf
ROOT
ATOM      1  C   UNL     1     240.129 238.826 235.257  1.00  0.00    -0.022 A 
ATOM      2  C   UNL     1     239.309 237.859 234.651  1.00  0.00     0.058 A 
ATOM      3  C   UNL     1     239.859 236.853 233.833  1.00  0.00     0.161 A 
ATOM      4  C   UNL     1     241.248 236.828 233.616  1.00  0.00     0.157 A 
ATOM      5  C   UNL     1     242.065 237.795 234.205  1.00  0.00     0.051 A 
ATOM      6  C   UNL     1     241.514 238.790 235.015  1.00  0.00     0.012 A 
ENDROOT
BRANCH   1   7
ATOM      7  C   UNL     1     239.493 239.868 236.101  1.00  0.00     0.003 C 
ATOM      8  C   UNL     1     237.761 240.801 237.585  1.00  0.00     0.035 C 
ATOM      9  C   UNL     1     238.344 239.694 236.765  1.00  0.00    -0.030 C 
ENDBRANCH   1   7
BRANCH   3  10
ATOM     10  O   UNL     1     239.062 235.871 233.223  1.00  0.00    -0.493 OA
ATOM     11  C   UNL     1     237.790 236.116 232.628  1.00  0.00     0.278 C 
ENDBRANCH   3  10
BRANCH   4  12
ATOM     12  O   UNL     1     241.835 235.849 232.814  1.00  0.00    -0.504 OA
ATOM     13  H   UNL     1     241.407 235.526 231.955  1.00  0.00     0.293 HD
ENDBRANCH   4  12
TORSDOF 3
ENDMDL
MODEL 5
REMARK VINA RESULT:    -3.430      1.275      2.778
REMARK INTER + INTRA:          -4.101
REMARK INTER:                  -3.926
REMARK INTRA:                  -0.175
REMARK UNBOUND:                -0.169
REMARK SMILES CC=Cc1ccc(O)c(OC)c1
REMARK SMILES IDX 4 1 12 2 9 3 7 4 6 5 5 6 3 7 1 8 2 9 10 10 11 11 8 12
REMARK H PARENT 8 13
REMARK Flexibility Score: inf
ROOT
ATOM      1  C   UNL     1     229.602 239.780 235.244  1.00  0.00    -0.022 A 
ATOM      2  C   UNL     1     229.345 241.084 234.785  1.00  0.00     0.058 A 
ATOM      3  C   UNL     1     230.298 241.783 234.019  1.00  0.00     0.161 A 
ATOM      4  C   UNL     1     231.527 241.165 233.721  1.00  0.00     0.157 A 
ATOM      5  C   UNL     1     231.791 239.876 234.188  1.00  0.00     0.051 A 
ATOM      6  C   UNL     1     230.842 239.188 234.947  1.00  0.00     0.012 A 
ENDROOT
BRANCH   1   7
ATOM      7  C   UNL     1     228.564 239.096 236.055  1.00  0.00     0.003 C 
ATOM      8  C   UNL     1     227.725 237.496 237.730  1.00  0.00     0.035 C 
ATOM      9  C   UNL     1     228.830 238.148 236.962  1.00  0.00    -0.030 C 
ENDBRANCH   1   7
BRANCH   3  10
ATOM     10  O   UNL     1     230.062 243.082 233.541  1.00  0.00    -0.493 OA
ATOM     11  C   UNL     1     228.992 243.441 232.672  1.00  0.00     0.278 C 
ENDBRANCH   3  10
BRANCH   4  12
ATOM     12  O   UNL     1     232.498 241.820 232.965  1.00  0.00    -0.504 OA
ATOM     13  H   UNL     1     233.135 241.322 232.355  1.00  0.00     0.293 HD
ENDBRANCH   4  12
TORSDOF 3
ENDMDL
MODEL 6
REMARK VINA RESULT:    -3.395      9.086     10.789
REMARK INTER + INTRA:          -4.061
REMARK INTER:                  -3.889
REMARK INTRA:                  -0.172
REMARK UNBOUND:                -0.169
REMARK SMILES CC=Cc1ccc(O)c(OC)c1
REMARK SMILES IDX 4 1 12 2 9 3 7 4 6 5 5 6 3 7 1 8 2 9 10 10 11 11 8 12
REMARK H PARENT 8 13
REMARK Flexibility Score: inf
ROOT
ATOM      1  C   UNL     1     228.678 229.507 235.454  1.00  0.00    -0.022 A 
ATOM      2  C   UNL     1     227.424 229.242 234.876  1.00  0.00     0.058 A 
ATOM      3  C   UNL     1     226.779 230.205 234.075  1.00  0.00     0.161 A 
ATOM      4  C   UNL     1     227.398 231.450 233.864  1.00  0.00     0.157 A 
ATOM      5  C   UNL     1     228.638 231.721 234.448  1.00  0.00     0.051 A 
ATOM      6  C   UNL     1     229.273 230.763 235.241  1.00  0.00     0.012 A 
ENDROOT
BRANCH   1   7
ATOM      7  C   UNL     1     229.307 228.459 236.296  1.00  0.00     0.003 C 
ATOM      8  C   UNL     1     231.014 227.524 237.807  1.00  0.00     0.035 C 
ATOM      9  C   UNL     1     230.436 228.636 236.991  1.00  0.00    -0.030 C 
ENDBRANCH   1   7
BRANCH   3  10
ATOM     10  O   UNL     1     225.530 229.962 233.479  1.00  0.00    -0.493 OA
ATOM     11  C   UNL     1     225.212 228.804 232.713  1.00  0.00     0.278 C 
ENDBRANCH   3  10
BRANCH   4  12
ATOM     12  O   UNL     1     226.796 232.431 233.077  1.00  0.00    -0.504 OA
ATOM     13  H   UNL     1     227.247 233.314 232.875  1.00  0.00     0.293 HD
ENDBRANCH   4  12
TORSDOF 3
ENDMDL
MODEL 7
REMARK VINA RESULT:    -3.394     13.196     14.615
REMARK INTER + INTRA:          -4.059
REMARK INTER:                  -3.884
REMARK INTRA:                  -0.175
REMARK UNBOUND:                -0.169
REMARK SMILES CC=Cc1ccc(O)c(OC)c1
REMARK SMILES IDX 4 1 12 2 9 3 7 4 6 5 5 6 3 7 1 8 2 9 10 10 11 11 8 12
REMARK H PARENT 8 13
REMARK Flexibility Score: inf
ROOT
ATOM      1  C   UNL     1     239.004 228.641 235.487  1.00  0.00    -0.022 A 
ATOM      2  C   UNL     1     239.268 227.386 234.913  1.00  0.00     0.058 A 
ATOM      3  C   UNL     1     238.315 226.748 234.095  1.00  0.00     0.161 A 
ATOM      4  C   UNL     1     237.079 227.378 233.863  1.00  0.00     0.157 A 
ATOM      5  C   UNL     1     236.807 228.619 234.443  1.00  0.00     0.051 A 
ATOM      6  C   UNL     1     237.756 229.247 235.252  1.00  0.00     0.012 A 
ENDROOT
BRANCH   1   7
ATOM      7  C   UNL     1     240.042 229.262 236.347  1.00  0.00     0.003 C 
ATOM      8  C   UNL     1     240.983 230.989 237.831  1.00  0.00     0.035 C 
ATOM      9  C   UNL     1     239.882 230.424 236.993  1.00  0.00    -0.030 C 
ENDBRANCH   1   7
BRANCH   3  10
ATOM     10  O   UNL     1     238.558 225.498 233.503  1.00  0.00    -0.493 OA
ATOM     11  C   UNL     1     239.680 225.200 232.678  1.00  0.00     0.278 C 
ENDBRANCH   3  10
BRANCH   4  12
ATOM     12  O   UNL     1     236.107 226.783 233.059  1.00  0.00    -0.504 OA
ATOM     13  H   UNL     1     235.903 227.113 232.124  1.00  0.00     0.293 HD
ENDBRANCH   4  12
TORSDOF 3
ENDMDL
MODEL 8
REMARK VINA RESULT:    -3.385      8.569     10.221
REMARK INTER + INTRA:          -4.049
REMARK INTER:                  -3.869
REMARK INTRA:                  -0.179
REMARK UNBOUND:                -0.169
REMARK SMILES CC=Cc1ccc(O)c(OC)c1
REMARK SMILES IDX 4 1 12 2 9 3 7 4 6 5 5 6 3 7 1 8 2 9 10 10 11 11 8 12
REMARK H PARENT 8 13
REMARK Flexibility Score: inf
ROOT
ATOM      1  C   UNL     1     239.772 238.902 235.302  1.00  0.00    -0.022 A 
ATOM      2  C   UNL     1     241.105 239.123 234.918  1.00  0.00     0.058 A 
ATOM      3  C   UNL     1     241.799 238.179 234.135  1.00  0.00     0.161 A 
ATOM      4  C   UNL     1     241.145 236.996 233.746  1.00  0.00     0.157 A 
ATOM      5  C   UNL     1     239.824 236.767 234.139  1.00  0.00     0.051 A 
ATOM      6  C   UNL     1     239.141 237.706 234.914  1.00  0.00     0.012 A 
ENDROOT
BRANCH   1   7
ATOM      7  C   UNL     1     239.094 239.928 236.134  1.00  0.00     0.003 C 
ATOM      8  C   UNL     1     237.419 240.763 237.736  1.00  0.00     0.035 C 
ATOM      9  C   UNL     1     238.056 239.670 236.940  1.00  0.00    -0.030 C 
ENDBRANCH   1   7
BRANCH   3  10
ATOM     10  O   UNL     1     243.129 238.380 233.731  1.00  0.00    -0.493 OA
ATOM     11  C   UNL     1     243.528 239.233 232.662  1.00  0.00     0.278 C 
ENDBRANCH   3  10
BRANCH   4  12
ATOM     12  O   UNL     1     241.793 236.035 232.971  1.00  0.00    -0.504 OA
ATOM     13  H   UNL     1     242.726 235.706 233.187  1.00  0.00     0.293 HD
ENDBRANCH   4  12
TORSDOF 3
ENDMDL
MODEL 9
REMARK VINA RESULT:    -3.311      8.795     10.899
REMARK INTER + INTRA:          -3.965
REMARK INTER:                  -3.792
REMARK INTRA:                  -0.172
REMARK UNBOUND:                -0.169
REMARK SMILES CC=Cc1ccc(O)c(OC)c1
REMARK SMILES IDX 4 1 12 2 9 3 7 4 6 5 5 6 3 7 1 8 2 9 10 10 11 11 8 12
REMARK H PARENT 8 13
REMARK Flexibility Score: inf
ROOT
ATOM      1  C   UNL     1     228.483 231.308 233.994  1.00  0.00    -0.022 A 
ATOM      2  C   UNL     1     227.125 231.072 233.720  1.00  0.00     0.058 A 
ATOM      3  C   UNL     1     226.462 229.952 234.259  1.00  0.00     0.161 A 
ATOM      4  C   UNL     1     227.178 229.056 235.072  1.00  0.00     0.157 A 
ATOM      5  C   UNL     1     228.531 229.280 235.334  1.00  0.00     0.051 A 
ATOM      6  C   UNL     1     229.183 230.391 234.798  1.00  0.00     0.012 A 
ENDROOT
BRANCH   1   7
ATOM      7  C   UNL     1     229.132 232.499 233.391  1.00  0.00     0.003 C 
ATOM      8  C   UNL     1     230.775 233.687 231.991  1.00  0.00     0.035 C 
ATOM      9  C   UNL     1     230.167 232.439 232.545  1.00  0.00    -0.030 C 
ENDBRANCH   1   7
BRANCH   3  10
ATOM     10  O   UNL     1     225.103 229.699 234.008  1.00  0.00    -0.493 OA
ATOM     11  C   UNL     1     224.582 229.247 232.761  1.00  0.00     0.278 C 
ENDBRANCH   3  10
BRANCH   4  12
ATOM     12  O   UNL     1     226.560 227.935 235.627  1.00  0.00    -0.504 OA
ATOM     13  H   UNL     1     225.647 227.618 235.328  1.00  0.00     0.293 HD
ENDBRANCH   4  12
TORSDOF 3
ENDMDL
