MODEL 1
REMARK VINA RESULT:    -4.811      0.000      0.000
REMARK INTER + INTRA:          -7.735
REMARK INTER:                  -7.343
REMARK INTRA:                  -0.393
REMARK UNBOUND:                -0.393
REMARK SMILES CC1=CCC[C@@H](C)C(=O)C[C@H](C(C)C)C(=O)C1
REMARK SMILES IDX 8 1 9 2 6 3 7 4 5 5 4 6 3 7 2 8 1 9 10 11 11 12 15 13 16 14
REMARK SMILES IDX 17 15 12 17 13 18 14 19
REMARK H PARENT
REMARK Flexibility Score: 70.00
ROOT
ATOM      1  C   UNL     1      18.624  27.813 -12.977  1.00  0.00     0.136 C 
ATOM      2  O   UNL     1      18.360  26.960 -12.142  1.00  0.00    -0.299 OA
ENDROOT
BRANCH   1   3
ATOM      3  C   UNL     1      17.997  27.746 -14.382  1.00  0.00     0.053 C 
ATOM      4  C   UNL     1      17.551  26.335 -14.779  1.00  0.00     0.016 C 
BRANCH   3   5
ATOM      5  C   UNL     1      19.096  28.246 -15.295  1.00  0.00     0.015 C 
BRANCH   5   6
ATOM      6  C   UNL     1      20.024  27.447 -16.165  1.00  0.00     0.028 C 
BRANCH   6   7
ATOM      7  C   UNL     1      21.177  28.369 -16.586  1.00  0.00    -0.028 C 
ATOM      8  C   UNL     1      22.366  28.648 -15.935  1.00  0.00    -0.070 CG0
ATOM      9  C   UNL     1      23.343  29.514 -16.698  1.00  0.00     0.039 C 
ATOM     10  G   UNL     1      22.804  28.200 -14.512  1.00  0.00     0.000 G0
ENDBRANCH   6   7
ENDBRANCH   5   6
ENDBRANCH   3   5
ENDBRANCH   1   3
BRANCH   1  11
ATOM     11  C   UNL     1      19.626  28.918 -12.613  1.00  0.00     0.087 C 
BRANCH  11  12
ATOM     12  C   UNL     1      21.118  28.456 -12.368  1.00  0.00     0.066 C 
BRANCH  12  13
ATOM     13  C   UNL     1      22.176  29.019 -13.351  1.00  0.00     0.140 C 
ATOM     14  O   UNL     1      22.469  30.203 -13.261  1.00  0.00    -0.299 OA
BRANCH  13  15
ATOM     15  C   UNL     1      22.792  28.209 -14.507  1.00  0.00     0.106 CG0
ATOM     16  G   UNL     1      22.356  28.660 -15.929  1.00  0.00     0.000 G0
ENDBRANCH  13  15
ENDBRANCH  12  13
BRANCH  12  17
ATOM     17  C   UNL     1      21.587  28.717 -10.897  1.00  0.00    -0.006 C 
ATOM     18  C   UNL     1      20.496  28.419  -9.851  1.00  0.00     0.008 C 
ATOM     19  C   UNL     1      22.835  27.879 -10.551  1.00  0.00     0.008 C 
ENDBRANCH  12  17
ENDBRANCH  11  12
ENDBRANCH   1  11
TORSDOF 1
ENDMDL
MODEL 2
REMARK VINA RESULT:    -4.525      1.677      3.995
REMARK INTER + INTRA:          -7.298
REMARK INTER:                  -7.289
REMARK INTRA:                  -0.009
REMARK UNBOUND:                -0.393
REMARK SMILES CC1=CCC[C@@H](C)C(=O)C[C@H](C(C)C)C(=O)C1
REMARK SMILES IDX 8 1 9 2 6 3 7 4 5 5 4 6 3 7 2 8 1 9 10 11 11 12 15 13 16 14
REMARK SMILES IDX 17 15 12 17 13 18 14 19
REMARK H PARENT
REMARK Flexibility Score: 70.00
ROOT
ATOM      1  C   UNL     1      20.730  29.394 -12.304  1.00  0.00     0.136 C 
ATOM      2  O   UNL     1      20.094  30.326 -11.833  1.00  0.00    -0.299 OA
ENDROOT
BRANCH   1   3
ATOM      3  C   UNL     1      22.268  29.454 -12.367  1.00  0.00     0.053 C 
ATOM      4  C   UNL     1      22.851  30.702 -11.696  1.00  0.00     0.016 C 
BRANCH   3   5
ATOM      5  C   UNL     1      22.572  29.442 -13.849  1.00  0.00     0.015 C 
BRANCH   5   6
ATOM      6  C   UNL     1      23.173  28.338 -14.671  1.00  0.00     0.028 C 
BRANCH   6   7
ATOM      7  C   UNL     1      22.696  28.522 -16.119  1.00  0.00    -0.028 C 
ATOM      8  C   UNL     1      21.461  28.253 -16.683  1.00  0.00    -0.070 CG0
ATOM      9  C   UNL     1      21.294  28.672 -18.126  1.00  0.00     0.039 C 
ATOM     10  G   UNL     1      20.242  27.552 -16.020  1.00  0.00     0.000 G0
ENDBRANCH   6   7
ENDBRANCH   5   6
ENDBRANCH   3   5
ENDBRANCH   1   3
BRANCH   1  11
ATOM     11  C   UNL     1      19.964  28.190 -12.874  1.00  0.00     0.087 C 
BRANCH  11  12
ATOM     12  C   UNL     1      18.805  28.519 -13.896  1.00  0.00     0.066 C 
BRANCH  12  13
ATOM     13  C   UNL     1      19.197  28.521 -15.396  1.00  0.00     0.140 C 
ATOM     14  O   UNL     1      18.582  29.263 -16.148  1.00  0.00    -0.299 OA
BRANCH  13  15
ATOM     15  C   UNL     1      20.231  27.560 -16.014  1.00  0.00     0.106 CG0
ATOM     16  G   UNL     1      21.449  28.254 -16.688  1.00  0.00     0.000 G0
ENDBRANCH  13  15
ENDBRANCH  12  13
BRANCH  12  17
ATOM     17  C   UNL     1      17.552  27.602 -13.690  1.00  0.00    -0.006 C 
ATOM     18  C   UNL     1      17.467  26.455 -14.714  1.00  0.00     0.008 C 
ATOM     19  C   UNL     1      17.533  26.992 -12.273  1.00  0.00     0.008 C 
ENDBRANCH  12  17
ENDBRANCH  11  12
ENDBRANCH   1  11
TORSDOF 1
ENDMDL
MODEL 3
REMARK VINA RESULT:    -4.412      1.984      4.271
REMARK INTER + INTRA:          -7.126
REMARK INTER:                  -6.968
REMARK INTRA:                  -0.158
REMARK UNBOUND:                -0.393
REMARK SMILES CC1=CCC[C@@H](C)C(=O)C[C@H](C(C)C)C(=O)C1
REMARK SMILES IDX 8 1 9 2 6 3 7 4 5 5 4 6 3 7 2 8 1 9 10 11 11 12 15 13 16 14
REMARK SMILES IDX 17 15 12 17 13 18 14 19
REMARK H PARENT
REMARK Flexibility Score: 70.00
ROOT
ATOM      1  C   UNL     1      19.980  27.741 -15.588  1.00  0.00     0.136 C 
ATOM      2  O   UNL     1      20.252  26.700 -16.167  1.00  0.00    -0.299 OA
ENDROOT
BRANCH   1   3
ATOM      3  C   UNL     1      19.097  27.720 -14.325  1.00  0.00     0.053 C 
ATOM      4  C   UNL     1      17.600  27.619 -14.636  1.00  0.00     0.016 C 
BRANCH   3   5
ATOM      5  C   UNL     1      19.422  29.026 -13.633  1.00  0.00     0.015 C 
BRANCH   5   6
ATOM      6  C   UNL     1      20.054  29.239 -12.287  1.00  0.00     0.028 C 
BRANCH   6   7
ATOM      7  C   UNL     1      21.343  30.045 -12.499  1.00  0.00    -0.028 C 
ATOM      8  C   UNL     1      22.502  29.697 -13.172  1.00  0.00    -0.070 CG0
ATOM      9  C   UNL     1      23.541  30.788 -13.295  1.00  0.00     0.039 C 
ATOM     10  G   UNL     1      22.869  28.318 -13.789  1.00  0.00     0.000 G0
ENDBRANCH   6   7
ENDBRANCH   5   6
ENDBRANCH   3   5
ENDBRANCH   1   3
BRANCH   1  11
ATOM     11  C   UNL     1      20.491  29.067 -16.170  1.00  0.00     0.087 C 
BRANCH  11  12
ATOM     12  C   UNL     1      22.061  29.246 -16.227  1.00  0.00     0.066 C 
BRANCH  12  13
ATOM     13  C   UNL     1      22.890  28.287 -15.335  1.00  0.00     0.140 C 
ATOM     14  O   UNL     1      23.517  27.392 -15.884  1.00  0.00    -0.299 OA
BRANCH  13  15
ATOM     15  C   UNL     1      22.877  28.320 -13.794  1.00  0.00     0.106 CG0
ATOM     16  G   UNL     1      22.505  29.695 -13.172  1.00  0.00     0.000 G0
ENDBRANCH  13  15
ENDBRANCH  12  13
BRANCH  12  17
ATOM     17  C   UNL     1      22.612  29.195 -17.692  1.00  0.00    -0.006 C 
ATOM     18  C   UNL     1      21.521  28.903 -18.740  1.00  0.00     0.008 C 
ATOM     19  C   UNL     1      23.311  30.516 -18.072  1.00  0.00     0.008 C 
ENDBRANCH  12  17
ENDBRANCH  11  12
ENDBRANCH   1  11
TORSDOF 1
ENDMDL
MODEL 4
REMARK VINA RESULT:    -4.198      1.836      3.909
REMARK INTER + INTRA:          -6.800
REMARK INTER:                  -6.335
REMARK INTRA:                  -0.465
REMARK UNBOUND:                -0.393
REMARK SMILES CC1=CCC[C@@H](C)C(=O)C[C@H](C(C)C)C(=O)C1
REMARK SMILES IDX 8 1 9 2 6 3 7 4 5 5 4 6 3 7 2 8 1 9 10 11 11 12 15 13 16 14
REMARK SMILES IDX 17 15 12 17 13 18 14 19
REMARK H PARENT
REMARK Flexibility Score: 70.00
ROOT
ATOM      1  C   UNL     1      20.313  28.234 -16.458  1.00  0.00     0.136 C 
ATOM      2  O   UNL     1      20.045  27.101 -16.830  1.00  0.00    -0.299 OA
ENDROOT
BRANCH   1   3
ATOM      3  C   UNL     1      21.549  28.964 -17.016  1.00  0.00     0.053 C 
ATOM      4  C   UNL     1      21.552  29.064 -18.545  1.00  0.00     0.016 C 
BRANCH   3   5
ATOM      5  C   UNL     1      22.714  28.134 -16.523  1.00  0.00     0.015 C 
BRANCH   5   6
ATOM      6  C   UNL     1      23.101  27.813 -15.108  1.00  0.00     0.028 C 
BRANCH   6   7
ATOM      7  C   UNL     1      23.236  29.141 -14.349  1.00  0.00    -0.028 C 
ATOM      8  C   UNL     1      22.640  29.547 -13.168  1.00  0.00    -0.070 CG0
ATOM      9  C   UNL     1      23.093  30.886 -12.631  1.00  0.00     0.039 C 
ATOM     10  G   UNL     1      21.548  28.805 -12.345  1.00  0.00     0.000 G0
ENDBRANCH   6   7
ENDBRANCH   5   6
ENDBRANCH   3   5
ENDBRANCH   1   3
BRANCH   1  11
ATOM     11  C   UNL     1      19.423  28.893 -15.393  1.00  0.00     0.087 C 
BRANCH  11  12
ATOM     12  C   UNL     1      19.435  28.223 -13.962  1.00  0.00     0.066 C 
BRANCH  12  13
ATOM     13  C   UNL     1      20.107  29.042 -12.830  1.00  0.00     0.140 C 
ATOM     14  O   UNL     1      19.488  29.987 -12.363  1.00  0.00    -0.299 OA
BRANCH  13  15
ATOM     15  C   UNL     1      21.550  28.812 -12.343  1.00  0.00     0.106 CG0
ATOM     16  G   UNL     1      22.646  29.538 -13.173  1.00  0.00     0.000 G0
ENDBRANCH  13  15
ENDBRANCH  12  13
BRANCH  12  17
ATOM     17  C   UNL     1      18.005  27.780 -13.500  1.00  0.00    -0.006 C 
ATOM     18  C   UNL     1      17.340  26.780 -14.465  1.00  0.00     0.008 C 
ATOM     19  C   UNL     1      18.042  27.149 -12.093  1.00  0.00     0.008 C 
ENDBRANCH  12  17
ENDBRANCH  11  12
ENDBRANCH   1  11
TORSDOF 1
ENDMDL
MODEL 5
REMARK VINA RESULT:    -3.986      9.741     11.920
REMARK INTER + INTRA:          -6.475
REMARK INTER:                  -5.925
REMARK INTRA:                  -0.550
REMARK UNBOUND:                -0.393
REMARK SMILES CC1=CCC[C@@H](C)C(=O)C[C@H](C(C)C)C(=O)C1
REMARK SMILES IDX 8 1 9 2 6 3 7 4 5 5 4 6 3 7 2 8 1 9 10 11 11 12 15 13 16 14
REMARK SMILES IDX 17 15 12 17 13 18 14 19
REMARK H PARENT
REMARK Flexibility Score: 70.00
ROOT
ATOM      1  C   UNL     1      21.664  23.651 -23.759  1.00  0.00     0.136 C 
ATOM      2  O   UNL     1      20.572  23.118 -23.894  1.00  0.00    -0.299 OA
ENDROOT
BRANCH   1   3
ATOM      3  C   UNL     1      22.923  23.012 -24.376  1.00  0.00     0.053 C 
ATOM      4  C   UNL     1      24.228  23.625 -23.856  1.00  0.00     0.016 C 
BRANCH   3   5
ATOM      5  C   UNL     1      22.763  23.254 -25.861  1.00  0.00     0.015 C 
BRANCH   5   6
ATOM      6  C   UNL     1      22.652  24.564 -26.588  1.00  0.00     0.028 C 
BRANCH   6   7
ATOM      7  C   UNL     1      21.247  24.638 -27.203  1.00  0.00    -0.028 C 
ATOM      8  C   UNL     1      20.258  25.592 -27.034  1.00  0.00    -0.070 CG0
ATOM      9  C   UNL     1      19.027  25.419 -27.895  1.00  0.00     0.039 C 
ATOM     10  G   UNL     1      20.253  26.797 -26.052  1.00  0.00     0.000 G0
ENDBRANCH   6   7
ENDBRANCH   5   6
ENDBRANCH   3   5
ENDBRANCH   1   3
BRANCH   1  11
ATOM     11  C   UNL     1      21.761  24.936 -22.924  1.00  0.00     0.087 C 
BRANCH  11  12
ATOM     12  C   UNL     1      21.569  26.295 -23.709  1.00  0.00     0.066 C 
BRANCH  12  13
ATOM     13  C   UNL     1      20.275  26.419 -24.553  1.00  0.00     0.140 C 
ATOM     14  O   UNL     1      19.216  26.109 -24.026  1.00  0.00    -0.299 OA
BRANCH  13  15
ATOM     15  C   UNL     1      20.255  26.796 -26.047  1.00  0.00     0.106 CG0
ATOM     16  G   UNL     1      20.246  25.589 -27.027  1.00  0.00     0.000 G0
ENDBRANCH  13  15
ENDBRANCH  12  13
BRANCH  12  17
ATOM     17  C   UNL     1      21.699  27.545 -22.775  1.00  0.00    -0.006 C 
ATOM     18  C   UNL     1      22.771  27.375 -21.681  1.00  0.00     0.008 C 
ATOM     19  C   UNL     1      22.028  28.816 -23.584  1.00  0.00     0.008 C 
ENDBRANCH  12  17
ENDBRANCH  11  12
ENDBRANCH   1  11
TORSDOF 1
ENDMDL
MODEL 6
REMARK VINA RESULT:    -3.963     15.132     17.600
REMARK INTER + INTRA:          -6.441
REMARK INTER:                  -6.006
REMARK INTRA:                  -0.434
REMARK UNBOUND:                -0.393
REMARK SMILES CC1=CCC[C@@H](C)C(=O)C[C@H](C(C)C)C(=O)C1
REMARK SMILES IDX 8 1 9 2 6 3 7 4 5 5 4 6 3 7 2 8 1 9 10 11 11 12 15 13 16 14
REMARK SMILES IDX 17 15 12 17 13 18 14 19
REMARK H PARENT
REMARK Flexibility Score: 70.00
ROOT
ATOM      1  C   UNL     1      30.271  38.623 -24.034  1.00  0.00     0.136 C 
ATOM      2  O   UNL     1      29.848  39.730 -24.335  1.00  0.00    -0.299 OA
ENDROOT
BRANCH   1   3
ATOM      3  C   UNL     1      30.021  38.051 -22.626  1.00  0.00     0.053 C 
ATOM      4  C   UNL     1      28.656  38.442 -22.049  1.00  0.00     0.016 C 
BRANCH   3   5
ATOM      5  C   UNL     1      31.147  38.625 -21.795  1.00  0.00     0.015 C 
BRANCH   5   6
ATOM      6  C   UNL     1      32.280  37.900 -21.127  1.00  0.00     0.028 C 
BRANCH   6   7
ATOM      7  C   UNL     1      31.882  36.422 -21.008  1.00  0.00    -0.028 C 
ATOM      8  C   UNL     1      32.330  35.326 -21.724  1.00  0.00    -0.070 CG0
ATOM      9  C   UNL     1      31.813  33.983 -21.260  1.00  0.00     0.039 C 
ATOM     10  G   UNL     1      33.277  35.315 -22.958  1.00  0.00     0.000 G0
ENDBRANCH   6   7
ENDBRANCH   5   6
ENDBRANCH   3   5
ENDBRANCH   1   3
BRANCH   1  11
ATOM     11  C   UNL     1      31.096  37.841 -25.068  1.00  0.00     0.087 C 
BRANCH  11  12
ATOM     12  C   UNL     1      32.527  37.360 -24.600  1.00  0.00     0.066 C 
BRANCH  12  13
ATOM     13  C   UNL     1      32.666  35.851 -24.272  1.00  0.00     0.140 C 
ATOM     14  O   UNL     1      32.177  35.048 -25.053  1.00  0.00    -0.299 OA
BRANCH  13  15
ATOM     15  C   UNL     1      33.277  35.308 -22.966  1.00  0.00     0.106 CG0
ATOM     16  G   UNL     1      32.324  35.334 -21.737  1.00  0.00     0.000 G0
ENDBRANCH  13  15
ENDBRANCH  12  13
BRANCH  12  17
ATOM     17  C   UNL     1      33.653  37.776 -25.606  1.00  0.00    -0.006 C 
ATOM     18  C   UNL     1      33.112  38.495 -26.856  1.00  0.00     0.008 C 
ATOM     19  C   UNL     1      34.695  38.690 -24.932  1.00  0.00     0.008 C 
ENDBRANCH  12  17
ENDBRANCH  11  12
ENDBRANCH   1  11
TORSDOF 1
ENDMDL
MODEL 7
REMARK VINA RESULT:    -3.909      1.464      1.978
REMARK INTER + INTRA:          -6.358
REMARK INTER:                  -6.298
REMARK INTRA:                  -0.060
REMARK UNBOUND:                -0.393
REMARK SMILES CC1=CCC[C@@H](C)C(=O)C[C@H](C(C)C)C(=O)C1
REMARK SMILES IDX 8 1 9 2 6 3 7 4 5 5 4 6 3 7 2 8 1 9 10 11 11 12 15 13 16 14
REMARK SMILES IDX 17 15 12 17 13 18 14 19
REMARK H PARENT
REMARK Flexibility Score: 70.00
ROOT
ATOM      1  C   UNL     1      20.236  29.198 -12.033  1.00  0.00     0.136 C 
ATOM      2  O   UNL     1      20.485  30.395 -12.019  1.00  0.00    -0.299 OA
ENDROOT
BRANCH   1   3
ATOM      3  C   UNL     1      18.832  28.700 -12.425  1.00  0.00     0.053 C 
ATOM      4  C   UNL     1      18.577  27.241 -12.032  1.00  0.00     0.016 C 
BRANCH   3   5
ATOM      5  C   UNL     1      18.792  28.872 -13.928  1.00  0.00     0.015 C 
BRANCH   5   6
ATOM      6  C   UNL     1      19.186  27.888 -14.993  1.00  0.00     0.028 C 
BRANCH   6   7
ATOM      7  C   UNL     1      20.125  28.610 -15.969  1.00  0.00    -0.028 C 
ATOM      8  C   UNL     1      21.509  28.646 -16.000  1.00  0.00    -0.070 CG0
ATOM      9  C   UNL     1      22.120  29.360 -17.185  1.00  0.00     0.039 C 
ATOM     10  G   UNL     1      22.502  28.065 -14.955  1.00  0.00     0.000 G0
ENDBRANCH   6   7
ENDBRANCH   5   6
ENDBRANCH   3   5
ENDBRANCH   1   3
BRANCH   1  11
ATOM     11  C   UNL     1      21.332  28.210 -11.607  1.00  0.00     0.087 C 
BRANCH  11  12
ATOM     12  C   UNL     1      22.756  28.422 -12.259  1.00  0.00     0.066 C 
BRANCH  12  13
ATOM     13  C   UNL     1      22.768  28.952 -13.716  1.00  0.00     0.140 C 
ATOM     14  O   UNL     1      22.882  30.157 -13.887  1.00  0.00    -0.299 OA
BRANCH  13  15
ATOM     15  C   UNL     1      22.525  28.066 -14.954  1.00  0.00     0.106 CG0
ATOM     16  G   UNL     1      21.510  28.641 -15.981  1.00  0.00     0.000 G0
ENDBRANCH  13  15
ENDBRANCH  12  13
BRANCH  12  17
ATOM     17  C   UNL     1      23.687  29.320 -11.375  1.00  0.00    -0.006 C 
ATOM     18  C   UNL     1      23.134  29.553  -9.957  1.00  0.00     0.008 C 
ATOM     19  C   UNL     1      25.099  28.712 -11.254  1.00  0.00     0.008 C 
ENDBRANCH  12  17
ENDBRANCH  11  12
ENDBRANCH   1  11
TORSDOF 1
ENDMDL
MODEL 8
REMARK VINA RESULT:    -3.883     15.285     18.023
REMARK INTER + INTRA:          -6.319
REMARK INTER:                  -5.807
REMARK INTRA:                  -0.512
REMARK UNBOUND:                -0.393
REMARK SMILES CC1=CCC[C@@H](C)C(=O)C[C@H](C(C)C)C(=O)C1
REMARK SMILES IDX 8 1 9 2 6 3 7 4 5 5 4 6 3 7 2 8 1 9 10 11 11 12 15 13 16 14
REMARK SMILES IDX 17 15 12 17 13 18 14 19
REMARK H PARENT
REMARK Flexibility Score: 70.00
ROOT
ATOM      1  C   UNL     1      34.974  35.651 -23.674  1.00  0.00     0.136 C 
ATOM      2  O   UNL     1      35.822  35.453 -22.816  1.00  0.00    -0.299 OA
ENDROOT
BRANCH   1   3
ATOM      3  C   UNL     1      35.365  36.284 -25.023  1.00  0.00     0.053 C 
ATOM      4  C   UNL     1      36.722  36.995 -24.985  1.00  0.00     0.016 C 
BRANCH   3   5
ATOM      5  C   UNL     1      34.246  37.263 -25.304  1.00  0.00     0.015 C 
BRANCH   5   6
ATOM      6  C   UNL     1      34.070  38.658 -24.778  1.00  0.00     0.028 C 
BRANCH   6   7
ATOM      7  C   UNL     1      32.564  38.950 -24.723  1.00  0.00    -0.028 C 
ATOM      8  C   UNL     1      31.690  38.880 -23.652  1.00  0.00    -0.070 CG0
ATOM      9  C   UNL     1      30.281  39.359 -23.923  1.00  0.00     0.039 C 
ATOM     10  G   UNL     1      31.975  38.348 -22.219  1.00  0.00     0.000 G0
ENDBRANCH   6   7
ENDBRANCH   5   6
ENDBRANCH   3   5
ENDBRANCH   1   3
BRANCH   1  11
ATOM     11  C   UNL     1      33.510  35.305 -23.361  1.00  0.00     0.087 C 
BRANCH  11  12
ATOM     12  C   UNL     1      32.956  35.805 -21.968  1.00  0.00     0.066 C 
BRANCH  12  13
ATOM     13  C   UNL     1      31.784  36.818 -22.023  1.00  0.00     0.140 C 
ATOM     14  O   UNL     1      30.645  36.376 -22.020  1.00  0.00    -0.299 OA
BRANCH  13  15
ATOM     15  C   UNL     1      31.970  38.337 -22.202  1.00  0.00     0.106 CG0
ATOM     16  G   UNL     1      31.700  38.867 -23.638  1.00  0.00     0.000 G0
ENDBRANCH  13  15
ENDBRANCH  12  13
BRANCH  12  17
ATOM     17  C   UNL     1      32.570  34.618 -21.022  1.00  0.00    -0.006 C 
ATOM     18  C   UNL     1      32.206  33.330 -21.783  1.00  0.00     0.008 C 
ATOM     19  C   UNL     1      33.711  34.295 -20.035  1.00  0.00     0.008 C 
ENDBRANCH  12  17
ENDBRANCH  11  12
ENDBRANCH   1  11
TORSDOF 1
ENDMDL
MODEL 9
REMARK VINA RESULT:    -3.687     15.004     16.910
REMARK INTER + INTRA:          -6.019
REMARK INTER:                  -5.606
REMARK INTRA:                  -0.413
REMARK UNBOUND:                -0.393
REMARK SMILES CC1=CCC[C@@H](C)C(=O)C[C@H](C(C)C)C(=O)C1
REMARK SMILES IDX 8 1 9 2 6 3 7 4 5 5 4 6 3 7 2 8 1 9 10 11 11 12 15 13 16 14
REMARK SMILES IDX 17 15 12 17 13 18 14 19
REMARK H PARENT
REMARK Flexibility Score: 70.00
ROOT
ATOM      1  C   UNL     1      33.370  36.829 -24.298  1.00  0.00     0.136 C 
ATOM      2  O   UNL     1      34.275  36.765 -23.479  1.00  0.00    -0.299 OA
ENDROOT
BRANCH   1   3
ATOM      3  C   UNL     1      33.374  35.911 -25.535  1.00  0.00     0.053 C 
ATOM      4  C   UNL     1      32.272  36.252 -26.543  1.00  0.00     0.016 C 
BRANCH   3   5
ATOM      5  C   UNL     1      33.175  34.526 -24.960  1.00  0.00     0.015 C 
BRANCH   5   6
ATOM      6  C   UNL     1      32.055  34.025 -24.094  1.00  0.00     0.028 C 
BRANCH   6   7
ATOM      7  C   UNL     1      32.620  33.802 -22.684  1.00  0.00    -0.028 C 
ATOM      8  C   UNL     1      32.222  34.349 -21.477  1.00  0.00    -0.070 CG0
ATOM      9  C   UNL     1      32.924  33.812 -20.250  1.00  0.00     0.039 C 
ATOM     10  G   UNL     1      31.162  35.461 -21.236  1.00  0.00     0.000 G0
ENDBRANCH   6   7
ENDBRANCH   5   6
ENDBRANCH   3   5
ENDBRANCH   1   3
BRANCH   1  11
ATOM     11  C   UNL     1      32.261  37.872 -24.093  1.00  0.00     0.087 C 
BRANCH  11  12
ATOM     12  C   UNL     1      31.111  37.479 -23.082  1.00  0.00     0.066 C 
BRANCH  12  13
ATOM     13  C   UNL     1      31.569  36.870 -21.732  1.00  0.00     0.140 C 
ATOM     14  O   UNL     1      32.376  37.500 -21.063  1.00  0.00    -0.299 OA
BRANCH  13  15
ATOM     15  C   UNL     1      31.161  35.468 -21.239  1.00  0.00     0.106 CG0
ATOM     16  G   UNL     1      32.224  34.357 -21.470  1.00  0.00     0.000 G0
ENDBRANCH  13  15
ENDBRANCH  12  13
BRANCH  12  17
ATOM     17  C   UNL     1      30.130  38.669 -22.806  1.00  0.00    -0.006 C 
ATOM     18  C   UNL     1      29.502  39.246 -24.089  1.00  0.00     0.008 C 
ATOM     19  C   UNL     1      28.992  38.246 -21.855  1.00  0.00     0.008 C 
ENDBRANCH  12  17
ENDBRANCH  11  12
ENDBRANCH   1  11
TORSDOF 1
ENDMDL
