MODEL 1
REMARK VINA RESULT:    -4.053      0.000      0.000
REMARK INTER + INTRA:          -9.160
REMARK INTER:                  -7.370
REMARK INTRA:                  -1.790
REMARK UNBOUND:                -1.790
REMARK SMILES CCCCCCCCCCCCCC[C@H](C)C(=O)[O-]
REMARK SMILES IDX 9 1 10 2 11 3 12 4 13 5 14 6 15 7 16 8 17 9 18 10 19 11 8 12
REMARK SMILES IDX 7 13 6 14 5 15 4 16 3 17 2 18 1 19
REMARK H PARENT
REMARK Flexibility Score: inf
ROOT
ATOM      1  C   UNL     1     119.358 110.837 111.834  1.00  0.00     0.000 C 
ENDROOT
BRANCH   1   2
ATOM      2  C   UNL     1     120.444 109.980 112.507  1.00  0.00     0.000 C 
BRANCH   2   3
ATOM      3  C   UNL     1     121.354 110.802 113.434  1.00  0.00     0.000 C 
BRANCH   3   4
ATOM      4  C   UNL     1     120.837 112.231 113.663  1.00  0.00     0.000 C 
BRANCH   4   5
ATOM      5  C   UNL     1     120.401 112.427 115.123  1.00  0.00     0.001 C 
BRANCH   5   6
ATOM      6  C   UNL     1     121.160 111.512 116.103  1.00  0.00     0.009 C 
BRANCH   6   7
ATOM      7  C   UNL     1     120.388 111.197 117.404  1.00  0.00     0.032 C 
ATOM      8  C   UNL     1     119.368 112.300 117.700  1.00  0.00     0.014 C 
BRANCH   7   9
ATOM      9  C   UNL     1     121.322 111.044 118.574  1.00  0.00     0.044 C 
ATOM     10  O   UNL     1     122.291 110.243 118.509  1.00  0.00    -0.550 OA
ATOM     11  O   UNL     1     121.124 111.787 119.733  1.00  0.00    -0.550 OA
ENDBRANCH   7   9
ENDBRANCH   6   7
ENDBRANCH   5   6
ENDBRANCH   4   5
ENDBRANCH   3   4
ENDBRANCH   2   3
ENDBRANCH   1   2
BRANCH   1  12
ATOM     12  C   UNL     1     119.046 110.374 110.401  1.00  0.00     0.000 C 
BRANCH  12  13
ATOM     13  C   UNL     1     120.208 109.589 109.768  1.00  0.00    -0.000 C 
BRANCH  13  14
ATOM     14  C   UNL     1     120.104 109.510 108.237  1.00  0.00    -0.000 C 
BRANCH  14  15
ATOM     15  C   UNL     1     121.063 110.477 107.525  1.00  0.00    -0.000 C 
BRANCH  15  16
ATOM     16  C   UNL     1     120.460 111.884 107.439  1.00  0.00    -0.000 C 
BRANCH  16  17
ATOM     17  C   UNL     1     121.459 112.941 107.933  1.00  0.00    -0.000 C 
BRANCH  17  18
ATOM     18  C   UNL     1     121.308 113.239 109.433  1.00  0.00    -0.003 C 
ATOM     19  C   UNL     1     122.394 112.577 110.280  1.00  0.00     0.004 C 
ENDBRANCH  17  18
ENDBRANCH  16  17
ENDBRANCH  15  16
ENDBRANCH  14  15
ENDBRANCH  13  14
ENDBRANCH  12  13
ENDBRANCH   1  12
TORSDOF 14
ENDMDL
MODEL 2
REMARK VINA RESULT:    -4.044      2.567      4.173
REMARK INTER + INTRA:          -9.144
REMARK INTER:                  -6.433
REMARK INTRA:                  -2.710
REMARK UNBOUND:                -1.790
REMARK SMILES CCCCCCCCCCCCCC[C@H](C)C(=O)[O-]
REMARK SMILES IDX 9 1 10 2 11 3 12 4 13 5 14 6 15 7 16 8 17 9 18 10 19 11 8 12
REMARK SMILES IDX 7 13 6 14 5 15 4 16 3 17 2 18 1 19
REMARK H PARENT
REMARK Flexibility Score: inf
ROOT
ATOM      1  C   UNL     1     120.004 111.045 107.642  1.00  0.00     0.000 C 
ENDROOT
BRANCH   1   2
ATOM      2  C   UNL     1     119.659 111.313 109.118  1.00  0.00     0.000 C 
BRANCH   2   3
ATOM      3  C   UNL     1     119.330 110.025 109.890  1.00  0.00     0.000 C 
BRANCH   3   4
ATOM      4  C   UNL     1     119.084 110.274 111.386  1.00  0.00     0.000 C 
BRANCH   4   5
ATOM      5  C   UNL     1     120.370 110.053 112.196  1.00  0.00     0.001 C 
BRANCH   5   6
ATOM      6  C   UNL     1     121.072 111.371 112.579  1.00  0.00     0.009 C 
BRANCH   6   7
ATOM      7  C   UNL     1     120.130 112.593 112.653  1.00  0.00     0.032 C 
ATOM      8  C   UNL     1     120.619 113.702 111.717  1.00  0.00     0.014 C 
BRANCH   7   9
ATOM      9  C   UNL     1     120.026 113.124 114.057  1.00  0.00     0.044 C 
ATOM     10  O   UNL     1     119.256 114.087 114.313  1.00  0.00    -0.550 OA
ATOM     11  O   UNL     1     120.775 112.554 115.080  1.00  0.00    -0.550 OA
ENDBRANCH   7   9
ENDBRANCH   6   7
ENDBRANCH   5   6
ENDBRANCH   4   5
ENDBRANCH   3   4
ENDBRANCH   2   3
ENDBRANCH   1   2
BRANCH   1  12
ATOM     12  C   UNL     1     120.061 109.544 107.314  1.00  0.00     0.000 C 
BRANCH  12  13
ATOM     13  C   UNL     1     121.430 109.112 106.759  1.00  0.00    -0.000 C 
BRANCH  13  14
ATOM     14  C   UNL     1     121.971 107.847 107.442  1.00  0.00    -0.000 C 
BRANCH  14  15
ATOM     15  C   UNL     1     122.152 108.020 108.958  1.00  0.00    -0.000 C 
BRANCH  15  16
ATOM     16  C   UNL     1     123.491 108.695 109.277  1.00  0.00    -0.000 C 
BRANCH  16  17
ATOM     17  C   UNL     1     123.273 110.085 109.894  1.00  0.00    -0.000 C 
BRANCH  17  18
ATOM     18  C   UNL     1     123.855 111.213 109.028  1.00  0.00    -0.003 C 
ATOM     19  C   UNL     1     123.064 112.516 109.144  1.00  0.00     0.004 C 
ENDBRANCH  17  18
ENDBRANCH  16  17
ENDBRANCH  15  16
ENDBRANCH  14  15
ENDBRANCH  13  14
ENDBRANCH  12  13
ENDBRANCH   1  12
TORSDOF 14
ENDMDL
MODEL 3
REMARK VINA RESULT:    -4.024      3.883      8.215
REMARK INTER + INTRA:          -9.107
REMARK INTER:                  -7.581
REMARK INTRA:                  -1.526
REMARK UNBOUND:                -1.790
REMARK SMILES CCCCCCCCCCCCCC[C@H](C)C(=O)[O-]
REMARK SMILES IDX 9 1 10 2 11 3 12 4 13 5 14 6 15 7 16 8 17 9 18 10 19 11 8 12
REMARK SMILES IDX 7 13 6 14 5 15 4 16 3 17 2 18 1 19
REMARK H PARENT
REMARK Flexibility Score: inf
ROOT
ATOM      1  C   UNL     1     120.391 114.059 112.545  1.00  0.00     0.000 C 
ENDROOT
BRANCH   1   2
ATOM      2  C   UNL     1     120.170 112.983 111.468  1.00  0.00     0.000 C 
BRANCH   2   3
ATOM      3  C   UNL     1     120.734 111.612 111.878  1.00  0.00     0.000 C 
BRANCH   3   4
ATOM      4  C   UNL     1     119.657 110.518 111.935  1.00  0.00     0.000 C 
BRANCH   4   5
ATOM      5  C   UNL     1     119.060 110.265 110.542  1.00  0.00     0.001 C 
BRANCH   5   6
ATOM      6  C   UNL     1     120.069 109.630 109.565  1.00  0.00     0.009 C 
BRANCH   6   7
ATOM      7  C   UNL     1     119.992 110.184 108.124  1.00  0.00     0.032 C 
ATOM      8  C   UNL     1     120.016 109.038 107.109  1.00  0.00     0.014 C 
BRANCH   7   9
ATOM      9  C   UNL     1     121.122 111.136 107.839  1.00  0.00     0.044 C 
ATOM     10  O   UNL     1     122.231 110.697 107.434  1.00  0.00    -0.550 OA
ATOM     11  O   UNL     1     120.950 112.504 108.017  1.00  0.00    -0.550 OA
ENDBRANCH   7   9
ENDBRANCH   6   7
ENDBRANCH   5   6
ENDBRANCH   4   5
ENDBRANCH   3   4
ENDBRANCH   2   3
ENDBRANCH   1   2
BRANCH   1  12
ATOM     12  C   UNL     1     119.742 113.689 113.889  1.00  0.00     0.000 C 
BRANCH  12  13
ATOM     13  C   UNL     1     120.777 113.489 115.010  1.00  0.00    -0.000 C 
BRANCH  13  14
ATOM     14  C   UNL     1     120.792 112.050 115.550  1.00  0.00    -0.000 C 
BRANCH  14  15
ATOM     15  C   UNL     1     120.918 111.990 117.081  1.00  0.00    -0.000 C 
BRANCH  15  16
ATOM     16  C   UNL     1     119.568 111.665 117.730  1.00  0.00    -0.000 C 
BRANCH  16  17
ATOM     17  C   UNL     1     118.869 112.944 118.215  1.00  0.00    -0.000 C 
BRANCH  17  18
ATOM     18  C   UNL     1     117.552 113.214 117.470  1.00  0.00    -0.003 C 
ATOM     19  C   UNL     1     117.545 114.563 116.751  1.00  0.00     0.004 C 
ENDBRANCH  17  18
ENDBRANCH  16  17
ENDBRANCH  15  16
ENDBRANCH  14  15
ENDBRANCH  13  14
ENDBRANCH  12  13
ENDBRANCH   1  12
TORSDOF 14
ENDMDL
MODEL 4
REMARK VINA RESULT:    -3.969      5.820      8.524
REMARK INTER + INTRA:          -9.008
REMARK INTER:                  -6.935
REMARK INTRA:                  -2.073
REMARK UNBOUND:                -1.790
REMARK SMILES CCCCCCCCCCCCCC[C@H](C)C(=O)[O-]
REMARK SMILES IDX 9 1 10 2 11 3 12 4 13 5 14 6 15 7 16 8 17 9 18 10 19 11 8 12
REMARK SMILES IDX 7 13 6 14 5 15 4 16 3 17 2 18 1 19
REMARK H PARENT
REMARK Flexibility Score: inf
ROOT
ATOM      1  C   UNL     1     123.237 112.254 109.765  1.00  0.00     0.000 C 
ENDROOT
BRANCH   1   2
ATOM      2  C   UNL     1     123.821 110.929 109.243  1.00  0.00     0.000 C 
BRANCH   2   3
ATOM      3  C   UNL     1     122.914 109.725 109.546  1.00  0.00     0.000 C 
BRANCH   3   4
ATOM      4  C   UNL     1     123.233 108.504 108.669  1.00  0.00     0.000 C 
BRANCH   4   5
ATOM      5  C   UNL     1     121.964 107.686 108.388  1.00  0.00     0.001 C 
BRANCH   5   6
ATOM      6  C   UNL     1     122.034 106.909 107.059  1.00  0.00     0.009 C 
BRANCH   6   7
ATOM      7  C   UNL     1     121.189 107.523 105.920  1.00  0.00     0.032 C 
ATOM      8  C   UNL     1     119.831 107.987 106.453  1.00  0.00     0.014 C 
BRANCH   7   9
ATOM      9  C   UNL     1     120.984 106.543 104.797  1.00  0.00     0.044 C 
ATOM     10  O   UNL     1     121.965 106.156 104.108  1.00  0.00    -0.550 OA
ATOM     11  O   UNL     1     119.714 106.055 104.513  1.00  0.00    -0.550 OA
ENDBRANCH   7   9
ENDBRANCH   6   7
ENDBRANCH   5   6
ENDBRANCH   4   5
ENDBRANCH   3   4
ENDBRANCH   2   3
ENDBRANCH   1   2
BRANCH   1  12
ATOM     12  C   UNL     1     122.886 113.230 108.630  1.00  0.00     0.000 C 
BRANCH  12  13
ATOM     13  C   UNL     1     121.372 113.301 108.359  1.00  0.00    -0.000 C 
BRANCH  13  14
ATOM     14  C   UNL     1     120.927 112.349 107.238  1.00  0.00    -0.000 C 
BRANCH  14  15
ATOM     15  C   UNL     1     120.095 111.166 107.758  1.00  0.00    -0.000 C 
BRANCH  15  16
ATOM     16  C   UNL     1     119.583 111.437 109.178  1.00  0.00    -0.000 C 
BRANCH  16  17
ATOM     17  C   UNL     1     119.311 110.122 109.924  1.00  0.00    -0.000 C 
BRANCH  17  18
ATOM     18  C   UNL     1     119.099 110.332 111.431  1.00  0.00    -0.003 C 
ATOM     19  C   UNL     1     120.347 110.016 112.254  1.00  0.00     0.004 C 
ENDBRANCH  17  18
ENDBRANCH  16  17
ENDBRANCH  15  16
ENDBRANCH  14  15
ENDBRANCH  13  14
ENDBRANCH  12  13
ENDBRANCH   1  12
TORSDOF 14
ENDMDL
MODEL 5
REMARK VINA RESULT:    -3.956      3.788      8.261
REMARK INTER + INTRA:          -8.983
REMARK INTER:                  -7.470
REMARK INTRA:                  -1.513
REMARK UNBOUND:                -1.790
REMARK SMILES CCCCCCCCCCCCCC[C@H](C)C(=O)[O-]
REMARK SMILES IDX 9 1 10 2 11 3 12 4 13 5 14 6 15 7 16 8 17 9 18 10 19 11 8 12
REMARK SMILES IDX 7 13 6 14 5 15 4 16 3 17 2 18 1 19
REMARK H PARENT
REMARK Flexibility Score: inf
ROOT
ATOM      1  C   UNL     1     121.172 112.671 114.323  1.00  0.00     0.000 C 
ENDROOT
BRANCH   1   2
ATOM      2  C   UNL     1     121.362 111.239 113.792  1.00  0.00     0.000 C 
BRANCH   2   3
ATOM      3  C   UNL     1     120.971 111.102 112.312  1.00  0.00     0.000 C 
BRANCH   3   4
ATOM      4  C   UNL     1     119.928 109.999 112.071  1.00  0.00     0.000 C 
BRANCH   4   5
ATOM      5  C   UNL     1     119.171 110.240 110.757  1.00  0.00     0.001 C 
BRANCH   5   6
ATOM      6  C   UNL     1     119.638 111.511 110.021  1.00  0.00     0.009 C 
BRANCH   6   7
ATOM      7  C   UNL     1     119.851 111.323 108.502  1.00  0.00     0.032 C 
ATOM      8  C   UNL     1     120.084 109.846 108.175  1.00  0.00     0.014 C 
BRANCH   7   9
ATOM      9  C   UNL     1     121.012 112.142 108.003  1.00  0.00     0.044 C 
ATOM     10  O   UNL     1     122.053 112.252 108.702  1.00  0.00    -0.550 OA
ATOM     11  O   UNL     1     120.944 112.777 106.769  1.00  0.00    -0.550 OA
ENDBRANCH   7   9
ENDBRANCH   6   7
ENDBRANCH   5   6
ENDBRANCH   4   5
ENDBRANCH   3   4
ENDBRANCH   2   3
ENDBRANCH   1   2
BRANCH   1  12
ATOM     12  C   UNL     1     119.989 113.393 113.657  1.00  0.00     0.000 C 
BRANCH  12  13
ATOM     13  C   UNL     1     119.224 114.301 114.637  1.00  0.00    -0.000 C 
BRANCH  13  14
ATOM     14  C   UNL     1     119.634 114.070 116.099  1.00  0.00    -0.000 C 
BRANCH  14  15
ATOM     15  C   UNL     1     118.439 113.742 117.008  1.00  0.00    -0.000 C 
BRANCH  15  16
ATOM     16  C   UNL     1     118.860 112.817 118.156  1.00  0.00    -0.000 C 
BRANCH  16  17
ATOM     17  C   UNL     1     119.586 111.573 117.621  1.00  0.00    -0.000 C 
BRANCH  17  18
ATOM     18  C   UNL     1     120.953 111.356 118.289  1.00  0.00    -0.003 C 
ATOM     19  C   UNL     1     121.104 112.138 119.594  1.00  0.00     0.004 C 
ENDBRANCH  17  18
ENDBRANCH  16  17
ENDBRANCH  15  16
ENDBRANCH  14  15
ENDBRANCH  13  14
ENDBRANCH  12  13
ENDBRANCH   1  12
TORSDOF 14
ENDMDL
MODEL 6
REMARK VINA RESULT:    -3.924      1.836      3.110
REMARK INTER + INTRA:          -8.926
REMARK INTER:                  -6.917
REMARK INTRA:                  -2.009
REMARK UNBOUND:                -1.790
REMARK SMILES CCCCCCCCCCCCCC[C@H](C)C(=O)[O-]
REMARK SMILES IDX 9 1 10 2 11 3 12 4 13 5 14 6 15 7 16 8 17 9 18 10 19 11 8 12
REMARK SMILES IDX 7 13 6 14 5 15 4 16 3 17 2 18 1 19
REMARK H PARENT
REMARK Flexibility Score: inf
ROOT
ATOM      1  C   UNL     1     121.405 113.065 111.688  1.00  0.00     0.000 C 
ENDROOT
BRANCH   1   2
ATOM      2  C   UNL     1     121.274 114.393 112.453  1.00  0.00     0.000 C 
BRANCH   2   3
ATOM      3  C   UNL     1     119.836 114.937 112.450  1.00  0.00     0.000 C 
BRANCH   3   4
ATOM      4  C   UNL     1     119.307 115.230 113.862  1.00  0.00     0.000 C 
BRANCH   4   5
ATOM      5  C   UNL     1     119.262 113.947 114.706  1.00  0.00     0.001 C 
BRANCH   5   6
ATOM      6  C   UNL     1     120.087 114.054 116.004  1.00  0.00     0.009 C 
BRANCH   6   7
ATOM      7  C   UNL     1     120.719 112.722 116.465  1.00  0.00     0.032 C 
ATOM      8  C   UNL     1     121.093 111.861 115.256  1.00  0.00     0.014 C 
BRANCH   7   9
ATOM      9  C   UNL     1     119.790 111.954 117.366  1.00  0.00     0.044 C 
ATOM     10  O   UNL     1     119.876 110.700 117.441  1.00  0.00    -0.550 OA
ATOM     11  O   UNL     1     118.834 112.622 118.123  1.00  0.00    -0.550 OA
ENDBRANCH   7   9
ENDBRANCH   6   7
ENDBRANCH   5   6
ENDBRANCH   4   5
ENDBRANCH   3   4
ENDBRANCH   2   3
ENDBRANCH   1   2
BRANCH   1  12
ATOM     12  C   UNL     1     120.043 112.500 111.251  1.00  0.00     0.000 C 
BRANCH  12  13
ATOM     13  C   UNL     1     119.632 111.257 112.061  1.00  0.00    -0.000 C 
BRANCH  13  14
ATOM     14  C   UNL     1     120.349 109.982 111.592  1.00  0.00    -0.000 C 
BRANCH  14  15
ATOM     15  C   UNL     1     119.961 109.573 110.162  1.00  0.00    -0.000 C 
BRANCH  15  16
ATOM     16  C   UNL     1     121.174 109.026 109.400  1.00  0.00    -0.000 C 
BRANCH  16  17
ATOM     17  C   UNL     1     121.629 110.012 108.312  1.00  0.00    -0.000 C 
BRANCH  17  18
ATOM     18  C   UNL     1     120.448 110.672 107.584  1.00  0.00    -0.003 C 
ATOM     19  C   UNL     1     120.605 112.187 107.455  1.00  0.00     0.004 C 
ENDBRANCH  17  18
ENDBRANCH  16  17
ENDBRANCH  15  16
ENDBRANCH  14  15
ENDBRANCH  13  14
ENDBRANCH  12  13
ENDBRANCH   1  12
TORSDOF 14
ENDMDL
MODEL 7
REMARK VINA RESULT:    -3.881      4.208      6.657
REMARK INTER + INTRA:          -8.848
REMARK INTER:                  -6.472
REMARK INTRA:                  -2.376
REMARK UNBOUND:                -1.790
REMARK SMILES CCCCCCCCCCCCCC[C@H](C)C(=O)[O-]
REMARK SMILES IDX 9 1 10 2 11 3 12 4 13 5 14 6 15 7 16 8 17 9 18 10 19 11 8 12
REMARK SMILES IDX 7 13 6 14 5 15 4 16 3 17 2 18 1 19
REMARK H PARENT
REMARK Flexibility Score: inf
ROOT
ATOM      1  C   UNL     1     122.049 111.800 113.018  1.00  0.00     0.000 C 
ENDROOT
BRANCH   1   2
ATOM      2  C   UNL     1     120.738 111.058 113.332  1.00  0.00     0.000 C 
BRANCH   2   3
ATOM      3  C   UNL     1     120.418 109.963 112.300  1.00  0.00     0.000 C 
BRANCH   3   4
ATOM      4  C   UNL     1     119.204 110.307 111.424  1.00  0.00     0.000 C 
BRANCH   4   5
ATOM      5  C   UNL     1     119.460 109.918 109.960  1.00  0.00     0.001 C 
BRANCH   5   6
ATOM      6  C   UNL     1     120.759 109.111 109.772  1.00  0.00     0.009 C 
BRANCH   6   7
ATOM      7  C   UNL     1     121.223 108.986 108.304  1.00  0.00     0.032 C 
ATOM      8  C   UNL     1     120.039 109.179 107.352  1.00  0.00     0.014 C 
BRANCH   7   9
ATOM      9  C   UNL     1     121.869 107.652 108.042  1.00  0.00     0.044 C 
ATOM     10  O   UNL     1     122.785 107.234 108.799  1.00  0.00    -0.550 OA
ATOM     11  O   UNL     1     121.459 106.871 106.967  1.00  0.00    -0.550 OA
ENDBRANCH   7   9
ENDBRANCH   6   7
ENDBRANCH   5   6
ENDBRANCH   4   5
ENDBRANCH   3   4
ENDBRANCH   2   3
ENDBRANCH   1   2
BRANCH   1  12
ATOM     12  C   UNL     1     122.882 111.092 111.936  1.00  0.00     0.000 C 
BRANCH  12  13
ATOM     13  C   UNL     1     123.183 112.004 110.733  1.00  0.00    -0.000 C 
BRANCH  13  14
ATOM     14  C   UNL     1     122.255 113.226 110.670  1.00  0.00    -0.000 C 
BRANCH  14  15
ATOM     15  C   UNL     1     121.152 113.083 109.610  1.00  0.00    -0.000 C 
BRANCH  15  16
ATOM     16  C   UNL     1     121.703 112.449 108.327  1.00  0.00    -0.000 C 
BRANCH  16  17
ATOM     17  C   UNL     1     120.834 112.818 107.115  1.00  0.00    -0.000 C 
BRANCH  17  18
ATOM     18  C   UNL     1     121.640 113.497 105.997  1.00  0.00    -0.003 C 
ATOM     19  C   UNL     1     120.777 114.389 105.104  1.00  0.00     0.004 C 
ENDBRANCH  17  18
ENDBRANCH  16  17
ENDBRANCH  15  16
ENDBRANCH  14  15
ENDBRANCH  13  14
ENDBRANCH  12  13
ENDBRANCH   1  12
TORSDOF 14
ENDMDL
MODEL 8
REMARK VINA RESULT:    -3.874      5.190      8.533
REMARK INTER + INTRA:          -8.835
REMARK INTER:                  -6.706
REMARK INTRA:                  -2.130
REMARK UNBOUND:                -1.790
REMARK SMILES CCCCCCCCCCCCCC[C@H](C)C(=O)[O-]
REMARK SMILES IDX 9 1 10 2 11 3 12 4 13 5 14 6 15 7 16 8 17 9 18 10 19 11 8 12
REMARK SMILES IDX 7 13 6 14 5 15 4 16 3 17 2 18 1 19
REMARK H PARENT
REMARK Flexibility Score: inf
ROOT
ATOM      1  C   UNL     1     122.255 111.611 106.245  1.00  0.00     0.000 C 
ENDROOT
BRANCH   1   2
ATOM      2  C   UNL     1     123.630 111.845 106.894  1.00  0.00     0.000 C 
BRANCH   2   3
ATOM      3  C   UNL     1     124.260 110.547 107.427  1.00  0.00     0.000 C 
BRANCH   3   4
ATOM      4  C   UNL     1     123.598 109.285 106.854  1.00  0.00     0.000 C 
BRANCH   4   5
ATOM      5  C   UNL     1     123.167 108.334 107.981  1.00  0.00     0.001 C 
BRANCH   5   6
ATOM      6  C   UNL     1     121.826 107.631 107.691  1.00  0.00     0.009 C 
BRANCH   6   7
ATOM      7  C   UNL     1     121.107 108.135 106.420  1.00  0.00     0.032 C 
ATOM      8  C   UNL     1     119.676 108.567 106.751  1.00  0.00     0.014 C 
BRANCH   7   9
ATOM      9  C   UNL     1     121.082 107.081 105.347  1.00  0.00     0.044 C 
ATOM     10  O   UNL     1     120.122 107.029 104.534  1.00  0.00    -0.550 OA
ATOM     11  O   UNL     1     122.119 106.160 105.242  1.00  0.00    -0.550 OA
ENDBRANCH   7   9
ENDBRANCH   6   7
ENDBRANCH   5   6
ENDBRANCH   4   5
ENDBRANCH   3   4
ENDBRANCH   2   3
ENDBRANCH   1   2
BRANCH   1  12
ATOM     12  C   UNL     1     121.131 112.384 106.955  1.00  0.00     0.000 C 
BRANCH  12  13
ATOM     13  C   UNL     1     121.301 112.403 108.485  1.00  0.00    -0.000 C 
BRANCH  13  14
ATOM     14  C   UNL     1     120.902 111.072 109.140  1.00  0.00    -0.000 C 
BRANCH  14  15
ATOM     15  C   UNL     1     119.417 111.023 109.531  1.00  0.00    -0.000 C 
BRANCH  15  16
ATOM     16  C   UNL     1     119.214 110.212 110.817  1.00  0.00    -0.000 C 
BRANCH  16  17
ATOM     17  C   UNL     1     119.693 111.001 112.045  1.00  0.00    -0.000 C 
BRANCH  17  18
ATOM     18  C   UNL     1     120.788 110.261 112.830  1.00  0.00    -0.003 C 
ATOM     19  C   UNL     1     121.171 110.976 114.126  1.00  0.00     0.004 C 
ENDBRANCH  17  18
ENDBRANCH  16  17
ENDBRANCH  15  16
ENDBRANCH  14  15
ENDBRANCH  13  14
ENDBRANCH  12  13
ENDBRANCH   1  12
TORSDOF 14
ENDMDL
MODEL 9
REMARK VINA RESULT:    -3.863      3.649      6.287
REMARK INTER + INTRA:          -8.814
REMARK INTER:                  -6.229
REMARK INTRA:                  -2.585
REMARK UNBOUND:                -1.790
REMARK SMILES CCCCCCCCCCCCCC[C@H](C)C(=O)[O-]
REMARK SMILES IDX 9 1 10 2 11 3 12 4 13 5 14 6 15 7 16 8 17 9 18 10 19 11 8 12
REMARK SMILES IDX 7 13 6 14 5 15 4 16 3 17 2 18 1 19
REMARK H PARENT
REMARK Flexibility Score: inf
ROOT
ATOM      1  C   UNL     1     122.827 111.601 106.511  1.00  0.00     0.000 C 
ENDROOT
BRANCH   1   2
ATOM      2  C   UNL     1     121.394 112.119 106.722  1.00  0.00     0.000 C 
BRANCH   2   3
ATOM      3  C   UNL     1     120.705 111.472 107.935  1.00  0.00     0.000 C 
BRANCH   3   4
ATOM      4  C   UNL     1     120.093 110.101 107.611  1.00  0.00     0.000 C 
BRANCH   4   5
ATOM      5  C   UNL     1     119.899 109.273 108.891  1.00  0.00     0.001 C 
BRANCH   5   6
ATOM      6  C   UNL     1     120.942 109.597 109.978  1.00  0.00     0.009 C 
BRANCH   6   7
ATOM      7  C   UNL     1     120.335 110.016 111.335  1.00  0.00     0.032 C 
ATOM      8  C   UNL     1     118.832 110.274 111.192  1.00  0.00     0.014 C 
BRANCH   7   9
ATOM      9  C   UNL     1     121.008 111.245 111.884  1.00  0.00     0.044 C 
ATOM     10  O   UNL     1     120.585 111.778 112.943  1.00  0.00    -0.550 OA
ATOM     11  O   UNL     1     122.104 111.797 111.230  1.00  0.00    -0.550 OA
ENDBRANCH   7   9
ENDBRANCH   6   7
ENDBRANCH   5   6
ENDBRANCH   4   5
ENDBRANCH   3   4
ENDBRANCH   2   3
ENDBRANCH   1   2
BRANCH   1  12
ATOM     12  C   UNL     1     123.603 111.460 107.831  1.00  0.00     0.000 C 
BRANCH  12  13
ATOM     13  C   UNL     1     124.442 110.170 107.889  1.00  0.00    -0.000 C 
BRANCH  13  14
ATOM     14  C   UNL     1     123.681 108.947 107.355  1.00  0.00    -0.000 C 
BRANCH  14  15
ATOM     15  C   UNL     1     123.642 107.785 108.360  1.00  0.00    -0.000 C 
BRANCH  15  16
ATOM     16  C   UNL     1     122.549 106.776 107.991  1.00  0.00    -0.000 C 
BRANCH  16  17
ATOM     17  C   UNL     1     122.019 107.035 106.572  1.00  0.00    -0.000 C 
BRANCH  17  18
ATOM     18  C   UNL     1     120.820 106.141 106.218  1.00  0.00    -0.003 C 
ATOM     19  C   UNL     1     119.643 106.929 105.645  1.00  0.00     0.004 C 
ENDBRANCH  17  18
ENDBRANCH  16  17
ENDBRANCH  15  16
ENDBRANCH  14  15
ENDBRANCH  13  14
ENDBRANCH  12  13
ENDBRANCH   1  12
TORSDOF 14
ENDMDL
