MODEL 1
REMARK VINA RESULT:    -4.668      0.000      0.000
REMARK INTER + INTRA:         -16.088
REMARK INTER:                 -12.309
REMARK INTRA:                  -3.779
REMARK UNBOUND:                -3.779
REMARK SMILES CCCCCCCCCCCCCCCCCCCCCCCCCCCCCC(=O)[O-]
REMARK SMILES IDX 16 1 17 2 18 3 19 4 20 5 21 6 22 7 23 8 24 9 25 10 26 11
REMARK SMILES IDX 27 12 28 13 29 14 30 15 31 16 32 17 15 18 14 19 13 20 12 21
REMARK SMILES IDX 11 22 10 23 9 24 8 25 7 26 6 27 5 28 4 29 3 30 2 31 1 32
REMARK H PARENT
REMARK Flexibility Score: inf
ROOT
ATOM      1  C   UNL     1       4.872  60.849  59.224  1.00  0.00     0.000 C 
ENDROOT
BRANCH   1   2
ATOM      2  C   UNL     1       5.583  61.853  60.146  1.00  0.00     0.000 C 
BRANCH   2   3
ATOM      3  C   UNL     1       7.080  61.541  60.316  1.00  0.00     0.000 C 
BRANCH   3   4
ATOM      4  C   UNL     1       7.967  62.282  59.298  1.00  0.00     0.000 C 
BRANCH   4   5
ATOM      5  C   UNL     1       9.376  62.643  59.804  1.00  0.00     0.000 C 
BRANCH   5   6
ATOM      6  C   UNL     1      10.388  62.859  58.667  1.00  0.00     0.000 C 
BRANCH   6   7
ATOM      7  C   UNL     1      10.043  64.114  57.856  1.00  0.00     0.000 C 
BRANCH   7   8
ATOM      8  C   UNL     1      10.490  63.964  56.392  1.00  0.00     0.000 C 
BRANCH   8   9
ATOM      9  C   UNL     1      10.570  65.314  55.651  1.00  0.00     0.000 C 
BRANCH   9  10
ATOM     10  C   UNL     1      11.541  65.323  54.459  1.00  0.00     0.000 C 
BRANCH  10  11
ATOM     11  C   UNL     1      11.258  64.204  53.442  1.00  0.00     0.000 C 
BRANCH  11  12
ATOM     12  C   UNL     1      10.598  64.733  52.158  1.00  0.00     0.000 C 
BRANCH  12  13
ATOM     13  C   UNL     1      11.481  65.763  51.432  1.00  0.00     0.006 C 
BRANCH  13  14
ATOM     14  C   UNL     1      10.683  66.990  50.970  1.00  0.00     0.053 C 
BRANCH  14  15
ATOM     15  C   UNL     1      11.483  68.250  51.079  1.00  0.00     0.041 C 
ATOM     16  O   UNL     1      11.691  68.958  50.058  1.00  0.00    -0.550 OA
ATOM     17  O   UNL     1      11.978  68.658  52.312  1.00  0.00    -0.550 OA
ENDBRANCH  14  15
ENDBRANCH  13  14
ENDBRANCH  12  13
ENDBRANCH  11  12
ENDBRANCH  10  11
ENDBRANCH   9  10
ENDBRANCH   8   9
ENDBRANCH   7   8
ENDBRANCH   6   7
ENDBRANCH   5   6
ENDBRANCH   4   5
ENDBRANCH   3   4
ENDBRANCH   2   3
ENDBRANCH   1   2
BRANCH   1  18
ATOM     18  C   UNL     1       4.518  61.457  57.857  1.00  0.00     0.000 C 
BRANCH  18  19
ATOM     19  C   UNL     1       5.241  60.767  56.688  1.00  0.00     0.000 C 
BRANCH  19  20
ATOM     20  C   UNL     1       6.237  59.677  57.133  1.00  0.00     0.000 C 
BRANCH  20  21
ATOM     21  C   UNL     1       7.653  59.921  56.582  1.00  0.00     0.000 C 
BRANCH  21  22
ATOM     22  C   UNL     1       7.700  61.082  55.577  1.00  0.00     0.000 C 
BRANCH  22  23
ATOM     23  C   UNL     1       9.022  61.123  54.789  1.00  0.00     0.000 C 
BRANCH  23  24
ATOM     24  C   UNL     1       8.794  61.443  53.302  1.00  0.00    -0.000 C 
BRANCH  24  25
ATOM     25  C   UNL     1       7.299  61.568  52.928  1.00  0.00    -0.000 C 
BRANCH  25  26
ATOM     26  C   UNL     1       7.070  61.947  51.457  1.00  0.00    -0.000 C 
BRANCH  26  27
ATOM     27  C   UNL     1       8.385  62.100  50.675  1.00  0.00    -0.000 C 
BRANCH  27  28
ATOM     28  C   UNL     1       8.161  62.136  49.154  1.00  0.00    -0.000 C 
BRANCH  28  29
ATOM     29  C   UNL     1       9.481  62.215  48.369  1.00  0.00    -0.000 C 
BRANCH  29  30
ATOM     30  C   UNL     1       9.526  63.409  47.404  1.00  0.00    -0.000 C 
BRANCH  30  31
ATOM     31  C   UNL     1       9.667  64.753  48.135  1.00  0.00    -0.003 C 
ATOM     32  C   UNL     1      10.805  65.582  47.548  1.00  0.00     0.004 C 
ENDBRANCH  30  31
ENDBRANCH  29  30
ENDBRANCH  28  29
ENDBRANCH  27  28
ENDBRANCH  26  27
ENDBRANCH  25  26
ENDBRANCH  24  25
ENDBRANCH  23  24
ENDBRANCH  22  23
ENDBRANCH  21  22
ENDBRANCH  20  21
ENDBRANCH  19  20
ENDBRANCH  18  19
ENDBRANCH   1  18
TORSDOF 28
ENDMDL
MODEL 2
REMARK VINA RESULT:    -4.582      1.158      6.870
REMARK INTER + INTRA:         -15.860
REMARK INTER:                 -12.337
REMARK INTRA:                  -3.523
REMARK UNBOUND:                -3.779
REMARK SMILES CCCCCCCCCCCCCCCCCCCCCCCCCCCCCC(=O)[O-]
REMARK SMILES IDX 16 1 17 2 18 3 19 4 20 5 21 6 22 7 23 8 24 9 25 10 26 11
REMARK SMILES IDX 27 12 28 13 29 14 30 15 31 16 32 17 15 18 14 19 13 20 12 21
REMARK SMILES IDX 11 22 10 23 9 24 8 25 7 26 6 27 5 28 4 29 3 30 2 31 1 32
REMARK H PARENT
REMARK Flexibility Score: inf
ROOT
ATOM      1  C   UNL     1       8.260  60.267  54.432  1.00  0.00     0.000 C 
ENDROOT
BRANCH   1   2
ATOM      2  C   UNL     1       8.267  61.413  53.408  1.00  0.00     0.000 C 
BRANCH   2   3
ATOM      3  C   UNL     1       6.962  61.490  52.597  1.00  0.00     0.000 C 
BRANCH   3   4
ATOM      4  C   UNL     1       7.102  62.325  51.311  1.00  0.00     0.000 C 
BRANCH   4   5
ATOM      5  C   UNL     1       5.776  62.656  50.602  1.00  0.00     0.000 C 
BRANCH   5   6
ATOM      6  C   UNL     1       5.840  62.455  49.079  1.00  0.00     0.000 C 
BRANCH   6   7
ATOM      7  C   UNL     1       6.484  63.666  48.393  1.00  0.00     0.000 C 
BRANCH   7   8
ATOM      8  C   UNL     1       7.023  63.287  47.002  1.00  0.00     0.000 C 
BRANCH   8   9
ATOM      9  C   UNL     1       8.564  63.265  46.945  1.00  0.00     0.000 C 
BRANCH   9  10
ATOM     10  C   UNL     1       9.244  63.110  48.315  1.00  0.00     0.000 C 
BRANCH  10  11
ATOM     11  C   UNL     1       9.855  64.421  48.839  1.00  0.00     0.000 C 
BRANCH  11  12
ATOM     12  C   UNL     1       9.577  64.639  50.335  1.00  0.00     0.000 C 
BRANCH  12  13
ATOM     13  C   UNL     1      10.739  65.359  51.043  1.00  0.00     0.006 C 
BRANCH  13  14
ATOM     14  C   UNL     1      11.759  65.933  50.050  1.00  0.00     0.053 C 
BRANCH  14  15
ATOM     15  C   UNL     1      11.713  67.428  50.003  1.00  0.00     0.041 C 
ATOM     16  O   UNL     1      11.199  68.076  50.953  1.00  0.00    -0.550 OA
ATOM     17  O   UNL     1      12.261  68.109  48.922  1.00  0.00    -0.550 OA
ENDBRANCH  14  15
ENDBRANCH  13  14
ENDBRANCH  12  13
ENDBRANCH  11  12
ENDBRANCH  10  11
ENDBRANCH   9  10
ENDBRANCH   8   9
ENDBRANCH   7   8
ENDBRANCH   6   7
ENDBRANCH   5   6
ENDBRANCH   4   5
ENDBRANCH   3   4
ENDBRANCH   2   3
ENDBRANCH   1   2
BRANCH   1  18
ATOM     18  C   UNL     1       7.858  60.739  55.839  1.00  0.00     0.000 C 
BRANCH  18  19
ATOM     19  C   UNL     1       7.518  59.578  56.787  1.00  0.00     0.000 C 
BRANCH  19  20
ATOM     20  C   UNL     1       6.034  59.535  57.208  1.00  0.00     0.000 C 
BRANCH  20  21
ATOM     21  C   UNL     1       5.290  60.834  56.854  1.00  0.00     0.000 C 
BRANCH  21  22
ATOM     22  C   UNL     1       4.278  61.246  57.935  1.00  0.00     0.000 C 
BRANCH  22  23
ATOM     23  C   UNL     1       4.817  61.022  59.359  1.00  0.00     0.000 C 
BRANCH  23  24
ATOM     24  C   UNL     1       5.721  62.180  59.819  1.00  0.00    -0.000 C 
BRANCH  24  25
ATOM     25  C   UNL     1       7.204  61.768  59.976  1.00  0.00    -0.000 C 
BRANCH  25  26
ATOM     26  C   UNL     1       8.148  62.527  59.030  1.00  0.00    -0.000 C 
BRANCH  26  27
ATOM     27  C   UNL     1       9.623  62.401  59.441  1.00  0.00    -0.000 C 
BRANCH  27  28
ATOM     28  C   UNL     1      10.560  63.191  58.513  1.00  0.00    -0.000 C 
BRANCH  28  29
ATOM     29  C   UNL     1       9.869  64.413  57.885  1.00  0.00    -0.000 C 
BRANCH  29  30
ATOM     30  C   UNL     1      10.304  64.658  56.432  1.00  0.00    -0.000 C 
BRANCH  30  31
ATOM     31  C   UNL     1      10.546  63.352  55.661  1.00  0.00    -0.003 C 
ATOM     32  C   UNL     1      11.075  63.631  54.258  1.00  0.00     0.004 C 
ENDBRANCH  30  31
ENDBRANCH  29  30
ENDBRANCH  28  29
ENDBRANCH  27  28
ENDBRANCH  26  27
ENDBRANCH  25  26
ENDBRANCH  24  25
ENDBRANCH  23  24
ENDBRANCH  22  23
ENDBRANCH  21  22
ENDBRANCH  20  21
ENDBRANCH  19  20
ENDBRANCH  18  19
ENDBRANCH   1  18
TORSDOF 28
ENDMDL
MODEL 3
REMARK VINA RESULT:    -4.550      2.521      5.528
REMARK INTER + INTRA:         -15.776
REMARK INTER:                 -11.807
REMARK INTRA:                  -3.969
REMARK UNBOUND:                -3.779
REMARK SMILES CCCCCCCCCCCCCCCCCCCCCCCCCCCCCC(=O)[O-]
REMARK SMILES IDX 16 1 17 2 18 3 19 4 20 5 21 6 22 7 23 8 24 9 25 10 26 11
REMARK SMILES IDX 27 12 28 13 29 14 30 15 31 16 32 17 15 18 14 19 13 20 12 21
REMARK SMILES IDX 11 22 10 23 9 24 8 25 7 26 6 27 5 28 4 29 3 30 2 31 1 32
REMARK H PARENT
REMARK Flexibility Score: inf
ROOT
ATOM      1  C   UNL     1       5.722  60.022  57.271  1.00  0.00     0.000 C 
ENDROOT
BRANCH   1   2
ATOM      2  C   UNL     1       6.695  58.893  56.893  1.00  0.00     0.000 C 
BRANCH   2   3
ATOM      3  C   UNL     1       7.889  59.397  56.063  1.00  0.00     0.000 C 
BRANCH   3   4
ATOM      4  C   UNL     1       7.684  60.823  55.521  1.00  0.00     0.000 C 
BRANCH   4   5
ATOM      5  C   UNL     1       8.927  61.458  54.872  1.00  0.00     0.000 C 
BRANCH   5   6
ATOM      6  C   UNL     1       8.923  61.360  53.338  1.00  0.00     0.000 C 
BRANCH   6   7
ATOM      7  C   UNL     1       7.500  61.493  52.783  1.00  0.00     0.000 C 
BRANCH   7   8
ATOM      8  C   UNL     1       7.511  62.148  51.391  1.00  0.00     0.000 C 
BRANCH   8   9
ATOM      9  C   UNL     1       8.776  61.802  50.579  1.00  0.00     0.000 C 
BRANCH   9  10
ATOM     10  C   UNL     1       8.607  61.944  49.058  1.00  0.00     0.000 C 
BRANCH  10  11
ATOM     11  C   UNL     1       9.610  62.925  48.428  1.00  0.00     0.000 C 
BRANCH  11  12
ATOM     12  C   UNL     1       8.997  63.724  47.266  1.00  0.00     0.000 C 
BRANCH  12  13
ATOM     13  C   UNL     1       7.583  63.236  46.906  1.00  0.00     0.006 C 
BRANCH  13  14
ATOM     14  C   UNL     1       6.519  64.318  47.135  1.00  0.00     0.053 C 
BRANCH  14  15
ATOM     15  C   UNL     1       5.344  63.793  47.899  1.00  0.00     0.041 C 
ATOM     16  O   UNL     1       5.468  62.775  48.631  1.00  0.00    -0.550 OA
ATOM     17  O   UNL     1       4.117  64.442  47.824  1.00  0.00    -0.550 OA
ENDBRANCH  14  15
ENDBRANCH  13  14
ENDBRANCH  12  13
ENDBRANCH  11  12
ENDBRANCH  10  11
ENDBRANCH   9  10
ENDBRANCH   8   9
ENDBRANCH   7   8
ENDBRANCH   6   7
ENDBRANCH   5   6
ENDBRANCH   4   5
ENDBRANCH   3   4
ENDBRANCH   2   3
ENDBRANCH   1   2
BRANCH   1  18
ATOM     18  C   UNL     1       5.551  60.164  58.793  1.00  0.00     0.000 C 
BRANCH  18  19
ATOM     19  C   UNL     1       5.785  61.599  59.292  1.00  0.00     0.000 C 
BRANCH  19  20
ATOM     20  C   UNL     1       7.236  61.871  59.739  1.00  0.00     0.000 C 
BRANCH  20  21
ATOM     21  C   UNL     1       8.043  62.629  58.672  1.00  0.00     0.000 C 
BRANCH  21  22
ATOM     22  C   UNL     1       9.551  62.348  58.765  1.00  0.00     0.000 C 
BRANCH  22  23
ATOM     23  C   UNL     1      10.387  63.350  57.947  1.00  0.00     0.000 C 
BRANCH  23  24
ATOM     24  C   UNL     1       9.553  64.564  57.502  1.00  0.00    -0.000 C 
BRANCH  24  25
ATOM     25  C   UNL     1      10.366  65.591  56.680  1.00  0.00    -0.000 C 
BRANCH  25  26
ATOM     26  C   UNL     1      11.380  64.940  55.727  1.00  0.00    -0.000 C 
BRANCH  26  27
ATOM     27  C   UNL     1      11.196  65.392  54.269  1.00  0.00    -0.000 C 
BRANCH  27  28
ATOM     28  C   UNL     1      10.974  64.209  53.313  1.00  0.00    -0.000 C 
BRANCH  28  29
ATOM     29  C   UNL     1      10.331  64.642  51.985  1.00  0.00    -0.000 C 
BRANCH  29  30
ATOM     30  C   UNL     1      11.287  65.458  51.101  1.00  0.00    -0.000 C 
BRANCH  30  31
ATOM     31  C   UNL     1      10.625  66.721  50.528  1.00  0.00    -0.003 C 
ATOM     32  C   UNL     1       9.262  66.401  49.923  1.00  0.00     0.004 C 
ENDBRANCH  30  31
ENDBRANCH  29  30
ENDBRANCH  28  29
ENDBRANCH  27  28
ENDBRANCH  26  27
ENDBRANCH  25  26
ENDBRANCH  24  25
ENDBRANCH  23  24
ENDBRANCH  22  23
ENDBRANCH  21  22
ENDBRANCH  20  21
ENDBRANCH  19  20
ENDBRANCH  18  19
ENDBRANCH   1  18
TORSDOF 28
ENDMDL
MODEL 4
REMARK VINA RESULT:    -4.520      1.836      6.639
REMARK INTER + INTRA:         -15.698
REMARK INTER:                 -12.046
REMARK INTRA:                  -3.652
REMARK UNBOUND:                -3.779
REMARK SMILES CCCCCCCCCCCCCCCCCCCCCCCCCCCCCC(=O)[O-]
REMARK SMILES IDX 16 1 17 2 18 3 19 4 20 5 21 6 22 7 23 8 24 9 25 10 26 11
REMARK SMILES IDX 27 12 28 13 29 14 30 15 31 16 32 17 15 18 14 19 13 20 12 21
REMARK SMILES IDX 11 22 10 23 9 24 8 25 7 26 6 27 5 28 4 29 3 30 2 31 1 32
REMARK H PARENT
REMARK Flexibility Score: inf
ROOT
ATOM      1  C   UNL     1       7.031  61.672  52.957  1.00  0.00     0.000 C 
ENDROOT
BRANCH   1   2
ATOM      2  C   UNL     1       8.435  61.099  53.206  1.00  0.00     0.000 C 
BRANCH   2   3
ATOM      3  C   UNL     1       8.923  61.336  54.646  1.00  0.00     0.000 C 
BRANCH   3   4
ATOM      4  C   UNL     1       7.926  60.835  55.707  1.00  0.00     0.000 C 
BRANCH   4   5
ATOM      5  C   UNL     1       7.888  59.307  55.895  1.00  0.00     0.000 C 
BRANCH   5   6
ATOM      6  C   UNL     1       6.758  58.843  56.827  1.00  0.00     0.000 C 
BRANCH   6   7
ATOM      7  C   UNL     1       5.770  59.983  57.103  1.00  0.00     0.000 C 
BRANCH   7   8
ATOM      8  C   UNL     1       5.265  59.935  58.555  1.00  0.00     0.000 C 
BRANCH   8   9
ATOM      9  C   UNL     1       6.224  60.630  59.543  1.00  0.00     0.000 C 
BRANCH   9  10
ATOM     10  C   UNL     1       6.900  61.892  58.984  1.00  0.00     0.000 C 
BRANCH  10  11
ATOM     11  C   UNL     1       8.182  62.277  59.742  1.00  0.00     0.000 C 
BRANCH  11  12
ATOM     12  C   UNL     1       9.422  62.274  58.833  1.00  0.00     0.000 C 
BRANCH  12  13
ATOM     13  C   UNL     1       9.801  63.689  58.361  1.00  0.00     0.006 C 
BRANCH  13  14
ATOM     14  C   UNL     1      10.398  63.690  56.947  1.00  0.00     0.053 C 
BRANCH  14  15
ATOM     15  C   UNL     1      10.354  65.050  56.323  1.00  0.00     0.041 C 
ATOM     16  O   UNL     1       9.660  65.964  56.844  1.00  0.00    -0.550 OA
ATOM     17  O   UNL     1      11.097  65.316  55.179  1.00  0.00    -0.550 OA
ENDBRANCH  14  15
ENDBRANCH  13  14
ENDBRANCH  12  13
ENDBRANCH  11  12
ENDBRANCH  10  11
ENDBRANCH   9  10
ENDBRANCH   8   9
ENDBRANCH   7   8
ENDBRANCH   6   7
ENDBRANCH   5   6
ENDBRANCH   4   5
ENDBRANCH   3   4
ENDBRANCH   2   3
ENDBRANCH   1   2
BRANCH   1  18
ATOM     18  C   UNL     1       6.734  61.868  51.461  1.00  0.00     0.000 C 
BRANCH  18  19
ATOM     19  C   UNL     1       7.835  62.653  50.729  1.00  0.00     0.000 C 
BRANCH  19  20
ATOM     20  C   UNL     1       8.565  61.832  49.646  1.00  0.00     0.000 C 
BRANCH  20  21
ATOM     21  C   UNL     1       8.637  62.574  48.300  1.00  0.00     0.000 C 
BRANCH  21  22
ATOM     22  C   UNL     1       9.995  62.398  47.603  1.00  0.00     0.000 C 
BRANCH  22  23
ATOM     23  C   UNL     1      10.064  63.140  46.257  1.00  0.00     0.000 C 
BRANCH  23  24
ATOM     24  C   UNL     1       9.305  64.479  46.300  1.00  0.00    -0.000 C 
BRANCH  24  25
ATOM     25  C   UNL     1      10.239  65.709  46.234  1.00  0.00    -0.000 C 
BRANCH  25  26
ATOM     26  C   UNL     1      10.023  66.699  47.390  1.00  0.00    -0.000 C 
BRANCH  26  27
ATOM     27  C   UNL     1       8.925  66.239  48.363  1.00  0.00    -0.000 C 
BRANCH  27  28
ATOM     28  C   UNL     1       9.466  65.987  49.779  1.00  0.00    -0.000 C 
BRANCH  28  29
ATOM     29  C   UNL     1      10.850  65.317  49.768  1.00  0.00    -0.000 C 
BRANCH  29  30
ATOM     30  C   UNL     1      11.875  66.058  50.639  1.00  0.00    -0.000 C 
BRANCH  30  31
ATOM     31  C   UNL     1      12.043  67.529  50.230  1.00  0.00    -0.003 C 
ATOM     32  C   UNL     1      11.872  68.457  51.428  1.00  0.00     0.004 C 
ENDBRANCH  30  31
ENDBRANCH  29  30
ENDBRANCH  28  29
ENDBRANCH  27  28
ENDBRANCH  26  27
ENDBRANCH  25  26
ENDBRANCH  24  25
ENDBRANCH  23  24
ENDBRANCH  22  23
ENDBRANCH  21  22
ENDBRANCH  20  21
ENDBRANCH  19  20
ENDBRANCH  18  19
ENDBRANCH   1  18
TORSDOF 28
ENDMDL
MODEL 5
REMARK VINA RESULT:    -4.511      1.839      5.385
REMARK INTER + INTRA:         -15.673
REMARK INTER:                 -11.816
REMARK INTRA:                  -3.857
REMARK UNBOUND:                -3.779
REMARK SMILES CCCCCCCCCCCCCCCCCCCCCCCCCCCCCC(=O)[O-]
REMARK SMILES IDX 16 1 17 2 18 3 19 4 20 5 21 6 22 7 23 8 24 9 25 10 26 11
REMARK SMILES IDX 27 12 28 13 29 14 30 15 31 16 32 17 15 18 14 19 13 20 12 21
REMARK SMILES IDX 11 22 10 23 9 24 8 25 7 26 6 27 5 28 4 29 3 30 2 31 1 32
REMARK H PARENT
REMARK Flexibility Score: inf
ROOT
ATOM      1  C   UNL     1       7.658  60.853  55.503  1.00  0.00     0.000 C 
ENDROOT
BRANCH   1   2
ATOM      2  C   UNL     1       7.513  59.681  56.488  1.00  0.00     0.000 C 
BRANCH   2   3
ATOM      3  C   UNL     1       6.141  59.660  57.184  1.00  0.00     0.000 C 
BRANCH   3   4
ATOM      4  C   UNL     1       5.248  60.849  56.784  1.00  0.00     0.000 C 
BRANCH   4   5
ATOM      5  C   UNL     1       4.509  61.530  57.952  1.00  0.00     0.000 C 
BRANCH   5   6
ATOM      6  C   UNL     1       4.099  60.548  59.061  1.00  0.00     0.000 C 
BRANCH   6   7
ATOM      7  C   UNL     1       4.787  60.899  60.386  1.00  0.00     0.000 C 
BRANCH   7   8
ATOM      8  C   UNL     1       5.905  61.932  60.169  1.00  0.00     0.000 C 
BRANCH   8   9
ATOM      9  C   UNL     1       7.218  61.550  60.883  1.00  0.00     0.000 C 
BRANCH   9  10
ATOM     10  C   UNL     1       8.488  62.073  60.192  1.00  0.00     0.000 C 
BRANCH  10  11
ATOM     11  C   UNL     1       8.240  62.543  58.749  1.00  0.00     0.000 C 
BRANCH  11  12
ATOM     12  C   UNL     1       9.072  63.785  58.386  1.00  0.00     0.000 C 
BRANCH  12  13
ATOM     13  C   UNL     1      10.373  63.419  57.650  1.00  0.00     0.006 C 
BRANCH  13  14
ATOM     14  C   UNL     1      10.271  63.655  56.137  1.00  0.00     0.053 C 
BRANCH  14  15
ATOM     15  C   UNL     1      10.813  64.993  55.743  1.00  0.00     0.041 C 
ATOM     16  O   UNL     1      10.422  66.034  56.335  1.00  0.00    -0.550 OA
ATOM     17  O   UNL     1      11.769  65.090  54.739  1.00  0.00    -0.550 OA
ENDBRANCH  14  15
ENDBRANCH  13  14
ENDBRANCH  12  13
ENDBRANCH  11  12
ENDBRANCH  10  11
ENDBRANCH   9  10
ENDBRANCH   8   9
ENDBRANCH   7   8
ENDBRANCH   6   7
ENDBRANCH   5   6
ENDBRANCH   4   5
ENDBRANCH   3   4
ENDBRANCH   2   3
ENDBRANCH   1   2
BRANCH   1  18
ATOM     18  C   UNL     1       8.719  60.583  54.423  1.00  0.00     0.000 C 
BRANCH  18  19
ATOM     19  C   UNL     1       8.567  61.492  53.192  1.00  0.00     0.000 C 
BRANCH  19  20
ATOM     20  C   UNL     1       7.125  61.562  52.649  1.00  0.00     0.000 C 
BRANCH  20  21
ATOM     21  C   UNL     1       7.047  62.284  51.293  1.00  0.00     0.000 C 
BRANCH  21  22
ATOM     22  C   UNL     1       5.635  62.248  50.688  1.00  0.00     0.000 C 
BRANCH  22  23
ATOM     23  C   UNL     1       5.612  62.715  49.222  1.00  0.00     0.000 C 
BRANCH  23  24
ATOM     24  C   UNL     1       6.034  64.189  49.082  1.00  0.00    -0.000 C 
BRANCH  24  25
ATOM     25  C   UNL     1       6.737  64.495  47.739  1.00  0.00    -0.000 C 
BRANCH  25  26
ATOM     26  C   UNL     1       6.976  63.243  46.880  1.00  0.00    -0.000 C 
BRANCH  26  27
ATOM     27  C   UNL     1       8.458  62.837  46.829  1.00  0.00    -0.000 C 
BRANCH  27  28
ATOM     28  C   UNL     1       9.391  64.044  46.649  1.00  0.00    -0.000 C 
BRANCH  28  29
ATOM     29  C   UNL     1      10.351  64.226  47.837  1.00  0.00    -0.000 C 
BRANCH  29  30
ATOM     30  C   UNL     1       9.829  63.572  49.126  1.00  0.00    -0.000 C 
BRANCH  30  31
ATOM     31  C   UNL     1       9.762  64.559  50.302  1.00  0.00    -0.003 C 
ATOM     32  C   UNL     1       9.479  65.976  49.815  1.00  0.00     0.004 C 
ENDBRANCH  30  31
ENDBRANCH  29  30
ENDBRANCH  28  29
ENDBRANCH  27  28
ENDBRANCH  26  27
ENDBRANCH  25  26
ENDBRANCH  24  25
ENDBRANCH  23  24
ENDBRANCH  22  23
ENDBRANCH  21  22
ENDBRANCH  20  21
ENDBRANCH  19  20
ENDBRANCH  18  19
ENDBRANCH   1  18
TORSDOF 28
ENDMDL
MODEL 6
REMARK VINA RESULT:    -4.474      8.904     13.830
REMARK INTER + INTRA:         -15.577
REMARK INTER:                 -12.844
REMARK INTRA:                  -2.733
REMARK UNBOUND:                -3.779
REMARK SMILES CCCCCCCCCCCCCCCCCCCCCCCCCCCCCC(=O)[O-]
REMARK SMILES IDX 16 1 17 2 18 3 19 4 20 5 21 6 22 7 23 8 24 9 25 10 26 11
REMARK SMILES IDX 27 12 28 13 29 14 30 15 31 16 32 17 15 18 14 19 13 20 12 21
REMARK SMILES IDX 11 22 10 23 9 24 8 25 7 26 6 27 5 28 4 29 3 30 2 31 1 32
REMARK H PARENT
REMARK Flexibility Score: inf
ROOT
ATOM      1  C   UNL     1       3.375  59.625  43.457  1.00  0.00     0.000 C 
ENDROOT
BRANCH   1   2
ATOM      2  C   UNL     1       3.436  58.104  43.240  1.00  0.00     0.000 C 
BRANCH   2   3
ATOM      3  C   UNL     1       2.043  57.452  43.231  1.00  0.00     0.000 C 
BRANCH   3   4
ATOM      4  C   UNL     1       0.941  58.383  43.770  1.00  0.00     0.000 C 
BRANCH   4   5
ATOM      5  C   UNL     1      -0.477  57.783  43.770  1.00  0.00     0.000 C 
BRANCH   5   6
ATOM      6  C   UNL     1      -1.200  57.943  45.117  1.00  0.00     0.000 C 
BRANCH   6   7
ATOM      7  C   UNL     1      -2.712  57.750  44.955  1.00  0.00     0.000 C 
BRANCH   7   8
ATOM      8  C   UNL     1      -3.308  57.023  46.172  1.00  0.00     0.000 C 
BRANCH   8   9
ATOM      9  C   UNL     1      -2.288  56.837  47.314  1.00  0.00     0.000 C 
BRANCH   9  10
ATOM     10  C   UNL     1      -2.688  57.516  48.634  1.00  0.00     0.000 C 
BRANCH  10  11
ATOM     11  C   UNL     1      -2.271  58.995  48.703  1.00  0.00     0.000 C 
BRANCH  11  12
ATOM     12  C   UNL     1      -3.476  59.947  48.632  1.00  0.00     0.000 C 
BRANCH  12  13
ATOM     13  C   UNL     1      -3.781  60.394  47.191  1.00  0.00     0.006 C 
BRANCH  13  14
ATOM     14  C   UNL     1      -3.750  61.920  47.036  1.00  0.00     0.053 C 
BRANCH  14  15
ATOM     15  C   UNL     1      -3.167  62.337  45.722  1.00  0.00     0.041 C 
ATOM     16  O   UNL     1      -3.030  63.560  45.450  1.00  0.00    -0.550 OA
ATOM     17  O   UNL     1      -2.752  61.378  44.807  1.00  0.00    -0.550 OA
ENDBRANCH  14  15
ENDBRANCH  13  14
ENDBRANCH  12  13
ENDBRANCH  11  12
ENDBRANCH  10  11
ENDBRANCH   9  10
ENDBRANCH   8   9
ENDBRANCH   7   8
ENDBRANCH   6   7
ENDBRANCH   5   6
ENDBRANCH   4   5
ENDBRANCH   3   4
ENDBRANCH   2   3
ENDBRANCH   1   2
BRANCH   1  18
ATOM     18  C   UNL     1       4.742  60.301  43.259  1.00  0.00     0.000 C 
BRANCH  18  19
ATOM     19  C   UNL     1       4.722  61.803  43.588  1.00  0.00     0.000 C 
BRANCH  19  20
ATOM     20  C   UNL     1       6.123  62.408  43.808  1.00  0.00     0.000 C 
BRANCH  20  21
ATOM     21  C   UNL     1       6.356  62.823  45.270  1.00  0.00     0.000 C 
BRANCH  21  22
ATOM     22  C   UNL     1       5.874  64.254  45.559  1.00  0.00     0.000 C 
BRANCH  22  23
ATOM     23  C   UNL     1       6.495  64.835  46.842  1.00  0.00     0.000 C 
BRANCH  23  24
ATOM     24  C   UNL     1       5.721  64.405  48.100  1.00  0.00    -0.000 C 
BRANCH  24  25
ATOM     25  C   UNL     1       6.644  63.966  49.261  1.00  0.00    -0.000 C 
BRANCH  25  26
ATOM     26  C   UNL     1       6.764  62.440  49.397  1.00  0.00    -0.000 C 
BRANCH  26  27
ATOM     27  C   UNL     1       8.221  61.953  49.328  1.00  0.00    -0.000 C 
BRANCH  27  28
ATOM     28  C   UNL     1       9.181  63.048  48.836  1.00  0.00    -0.000 C 
BRANCH  28  29
ATOM     29  C   UNL     1      10.112  62.551  47.718  1.00  0.00    -0.000 C 
BRANCH  29  30
ATOM     30  C   UNL     1       9.946  63.343  46.411  1.00  0.00    -0.000 C 
BRANCH  30  31
ATOM     31  C   UNL     1      10.105  62.461  45.163  1.00  0.00    -0.003 C 
ATOM     32  C   UNL     1      10.866  61.179  45.489  1.00  0.00     0.004 C 
ENDBRANCH  30  31
ENDBRANCH  29  30
ENDBRANCH  28  29
ENDBRANCH  27  28
ENDBRANCH  26  27
ENDBRANCH  25  26
ENDBRANCH  24  25
ENDBRANCH  23  24
ENDBRANCH  22  23
ENDBRANCH  21  22
ENDBRANCH  20  21
ENDBRANCH  19  20
ENDBRANCH  18  19
ENDBRANCH   1  18
TORSDOF 28
ENDMDL
MODEL 7
REMARK VINA RESULT:    -4.464     10.175     13.397
REMARK INTER + INTRA:         -15.551
REMARK INTER:                 -11.252
REMARK INTRA:                  -4.298
REMARK UNBOUND:                -3.779
REMARK SMILES CCCCCCCCCCCCCCCCCCCCCCCCCCCCCC(=O)[O-]
REMARK SMILES IDX 16 1 17 2 18 3 19 4 20 5 21 6 22 7 23 8 24 9 25 10 26 11
REMARK SMILES IDX 27 12 28 13 29 14 30 15 31 16 32 17 15 18 14 19 13 20 12 21
REMARK SMILES IDX 11 22 10 23 9 24 8 25 7 26 6 27 5 28 4 29 3 30 2 31 1 32
REMARK H PARENT
REMARK Flexibility Score: inf
ROOT
ATOM      1  C   UNL     1      -1.252  58.169  45.070  1.00  0.00     0.000 C 
ENDROOT
BRANCH   1   2
ATOM      2  C   UNL     1      -0.566  57.797  43.746  1.00  0.00     0.000 C 
BRANCH   2   3
ATOM      3  C   UNL     1       0.869  58.345  43.649  1.00  0.00     0.000 C 
BRANCH   3   4
ATOM      4  C   UNL     1       0.918  59.880  43.537  1.00  0.00     0.000 C 
BRANCH   4   5
ATOM      5  C   UNL     1       1.495  60.604  44.768  1.00  0.00     0.000 C 
BRANCH   5   6
ATOM      6  C   UNL     1       1.776  62.094  44.514  1.00  0.00     0.000 C 
BRANCH   6   7
ATOM      7  C   UNL     1       1.808  62.878  45.831  1.00  0.00     0.000 C 
BRANCH   7   8
ATOM      8  C   UNL     1       3.089  63.724  45.936  1.00  0.00     0.000 C 
BRANCH   8   9
ATOM      9  C   UNL     1       3.407  64.147  47.385  1.00  0.00     0.000 C 
BRANCH   9  10
ATOM     10  C   UNL     1       3.145  65.633  47.680  1.00  0.00     0.000 C 
BRANCH  10  11
ATOM     11  C   UNL     1       2.438  66.363  46.524  1.00  0.00     0.000 C 
BRANCH  11  12
ATOM     12  C   UNL     1       0.959  66.648  46.829  1.00  0.00     0.000 C 
BRANCH  12  13
ATOM     13  C   UNL     1       0.785  67.597  48.029  1.00  0.00     0.006 C 
BRANCH  13  14
ATOM     14  C   UNL     1      -0.186  67.037  49.077  1.00  0.00     0.053 C 
BRANCH  14  15
ATOM     15  C   UNL     1       0.276  67.316  50.473  1.00  0.00     0.041 C 
ATOM     16  O   UNL     1      -0.168  68.314  51.099  1.00  0.00    -0.550 OA
ATOM     17  O   UNL     1       1.179  66.460  51.092  1.00  0.00    -0.550 OA
ENDBRANCH  14  15
ENDBRANCH  13  14
ENDBRANCH  12  13
ENDBRANCH  11  12
ENDBRANCH  10  11
ENDBRANCH   9  10
ENDBRANCH   8   9
ENDBRANCH   7   8
ENDBRANCH   6   7
ENDBRANCH   5   6
ENDBRANCH   4   5
ENDBRANCH   3   4
ENDBRANCH   2   3
ENDBRANCH   1   2
BRANCH   1  18
ATOM     18  C   UNL     1      -2.722  57.720  45.116  1.00  0.00     0.000 C 
BRANCH  18  19
ATOM     19  C   UNL     1      -3.014  56.743  46.267  1.00  0.00     0.000 C 
BRANCH  19  20
ATOM     20  C   UNL     1      -1.750  56.264  47.010  1.00  0.00     0.000 C 
BRANCH  20  21
ATOM     21  C   UNL     1      -1.874  56.421  48.535  1.00  0.00     0.000 C 
BRANCH  21  22
ATOM     22  C   UNL     1      -2.890  57.504  48.933  1.00  0.00     0.000 C 
BRANCH  22  23
ATOM     23  C   UNL     1      -2.288  58.920  48.884  1.00  0.00     0.000 C 
BRANCH  23  24
ATOM     24  C   UNL     1      -3.377  60.004  48.812  1.00  0.00    -0.000 C 
BRANCH  24  25
ATOM     25  C   UNL     1      -4.061  60.089  47.427  1.00  0.00    -0.000 C 
BRANCH  25  26
ATOM     26  C   UNL     1      -3.866  61.447  46.736  1.00  0.00    -0.000 C 
BRANCH  26  27
ATOM     27  C   UNL     1      -3.414  61.307  45.274  1.00  0.00    -0.000 C 
BRANCH  27  28
ATOM     28  C   UNL     1      -1.975  61.803  45.055  1.00  0.00    -0.000 C 
BRANCH  28  29
ATOM     29  C   UNL     1      -1.879  62.844  43.928  1.00  0.00    -0.000 C 
BRANCH  29  30
ATOM     30  C   UNL     1      -1.341  64.198  44.415  1.00  0.00    -0.000 C 
BRANCH  30  31
ATOM     31  C   UNL     1      -1.574  64.418  45.918  1.00  0.00    -0.003 C 
ATOM     32  C   UNL     1      -2.848  65.220  46.165  1.00  0.00     0.004 C 
ENDBRANCH  30  31
ENDBRANCH  29  30
ENDBRANCH  28  29
ENDBRANCH  27  28
ENDBRANCH  26  27
ENDBRANCH  25  26
ENDBRANCH  24  25
ENDBRANCH  23  24
ENDBRANCH  22  23
ENDBRANCH  21  22
ENDBRANCH  20  21
ENDBRANCH  19  20
ENDBRANCH  18  19
ENDBRANCH   1  18
TORSDOF 28
ENDMDL
MODEL 8
REMARK VINA RESULT:    -4.460      3.501      8.767
REMARK INTER + INTRA:         -15.538
REMARK INTER:                 -11.941
REMARK INTRA:                  -3.598
REMARK UNBOUND:                -3.779
REMARK SMILES CCCCCCCCCCCCCCCCCCCCCCCCCCCCCC(=O)[O-]
REMARK SMILES IDX 16 1 17 2 18 3 19 4 20 5 21 6 22 7 23 8 24 9 25 10 26 11
REMARK SMILES IDX 27 12 28 13 29 14 30 15 31 16 32 17 15 18 14 19 13 20 12 21
REMARK SMILES IDX 11 22 10 23 9 24 8 25 7 26 6 27 5 28 4 29 3 30 2 31 1 32
REMARK H PARENT
REMARK Flexibility Score: inf
ROOT
ATOM      1  C   UNL     1      10.903  66.984  50.629  1.00  0.00     0.000 C 
ENDROOT
BRANCH   1   2
ATOM      2  C   UNL     1      11.197  65.481  50.764  1.00  0.00     0.000 C 
BRANCH   2   3
ATOM      3  C   UNL     1      10.464  64.840  51.955  1.00  0.00     0.000 C 
BRANCH   3   4
ATOM      4  C   UNL     1      11.301  64.842  53.247  1.00  0.00     0.000 C 
BRANCH   4   5
ATOM      5  C   UNL     1      11.166  63.575  54.113  1.00  0.00     0.000 C 
BRANCH   5   6
ATOM      6  C   UNL     1      10.508  63.843  55.475  1.00  0.00     0.000 C 
BRANCH   6   7
ATOM      7  C   UNL     1       9.814  62.584  56.007  1.00  0.00     0.000 C 
BRANCH   7   8
ATOM      8  C   UNL     1       9.364  61.674  54.851  1.00  0.00     0.000 C 
BRANCH   8   9
ATOM      9  C   UNL     1       7.958  61.079  55.073  1.00  0.00     0.000 C 
BRANCH   9  10
ATOM     10  C   UNL     1       7.935  59.548  55.204  1.00  0.00     0.000 C 
BRANCH  10  11
ATOM     11  C   UNL     1       7.723  59.069  56.651  1.00  0.00     0.000 C 
BRANCH  11  12
ATOM     12  C   UNL     1       6.245  59.111  57.072  1.00  0.00     0.000 C 
BRANCH  12  13
ATOM     13  C   UNL     1       5.957  60.241  58.075  1.00  0.00     0.006 C 
BRANCH  13  14
ATOM     14  C   UNL     1       5.144  61.382  57.449  1.00  0.00     0.053 C 
BRANCH  14  15
ATOM     15  C   UNL     1       3.925  61.707  58.254  1.00  0.00     0.041 C 
ATOM     16  O   UNL     1       3.354  60.809  58.928  1.00  0.00    -0.550 OA
ATOM     17  O   UNL     1       3.432  63.006  58.280  1.00  0.00    -0.550 OA
ENDBRANCH  14  15
ENDBRANCH  13  14
ENDBRANCH  12  13
ENDBRANCH  11  12
ENDBRANCH  10  11
ENDBRANCH   9  10
ENDBRANCH   8   9
ENDBRANCH   7   8
ENDBRANCH   6   7
ENDBRANCH   5   6
ENDBRANCH   4   5
ENDBRANCH   3   4
ENDBRANCH   2   3
ENDBRANCH   1   2
BRANCH   1  18
ATOM     18  C   UNL     1      11.995  67.727  49.841  1.00  0.00     0.000 C 
BRANCH  18  19
ATOM     19  C   UNL     1      11.424  68.726  48.822  1.00  0.00     0.000 C 
BRANCH  19  20
ATOM     20  C   UNL     1      10.607  68.063  47.694  1.00  0.00     0.000 C 
BRANCH  20  21
ATOM     21  C   UNL     1       9.118  68.444  47.751  1.00  0.00     0.000 C 
BRANCH  21  22
ATOM     22  C   UNL     1       8.198  67.280  47.350  1.00  0.00     0.000 C 
BRANCH  22  23
ATOM     23  C   UNL     1       8.393  66.042  48.243  1.00  0.00     0.000 C 
BRANCH  23  24
ATOM     24  C   UNL     1       8.627  64.767  47.414  1.00  0.00    -0.000 C 
BRANCH  24  25
ATOM     25  C   UNL     1      10.077  64.237  47.511  1.00  0.00    -0.000 C 
BRANCH  25  26
ATOM     26  C   UNL     1      10.153  62.742  47.860  1.00  0.00    -0.000 C 
BRANCH  26  27
ATOM     27  C   UNL     1       8.872  62.225  48.533  1.00  0.00    -0.000 C 
BRANCH  27  28
ATOM     28  C   UNL     1       9.071  61.940  50.030  1.00  0.00    -0.000 C 
BRANCH  28  29
ATOM     29  C   UNL     1       7.781  62.139  50.842  1.00  0.00    -0.000 C 
BRANCH  29  30
ATOM     30  C   UNL     1       6.797  63.107  50.165  1.00  0.00    -0.000 C 
BRANCH  30  31
ATOM     31  C   UNL     1       5.357  62.573  50.158  1.00  0.00    -0.003 C 
ATOM     32  C   UNL     1       4.555  63.139  51.326  1.00  0.00     0.004 C 
ENDBRANCH  30  31
ENDBRANCH  29  30
ENDBRANCH  28  29
ENDBRANCH  27  28
ENDBRANCH  26  27
ENDBRANCH  25  26
ENDBRANCH  24  25
ENDBRANCH  23  24
ENDBRANCH  22  23
ENDBRANCH  21  22
ENDBRANCH  20  21
ENDBRANCH  19  20
ENDBRANCH  18  19
ENDBRANCH   1  18
TORSDOF 28
ENDMDL
MODEL 9
REMARK VINA RESULT:    -4.347      8.926     12.579
REMARK INTER + INTRA:         -15.242
REMARK INTER:                 -10.635
REMARK INTRA:                  -4.607
REMARK UNBOUND:                -3.779
REMARK SMILES CCCCCCCCCCCCCCCCCCCCCCCCCCCCCC(=O)[O-]
REMARK SMILES IDX 16 1 17 2 18 3 19 4 20 5 21 6 22 7 23 8 24 9 25 10 26 11
REMARK SMILES IDX 27 12 28 13 29 14 30 15 31 16 32 17 15 18 14 19 13 20 12 21
REMARK SMILES IDX 11 22 10 23 9 24 8 25 7 26 6 27 5 28 4 29 3 30 2 31 1 32
REMARK H PARENT
REMARK Flexibility Score: inf
ROOT
ATOM      1  C   UNL     1       1.503  61.965  45.520  1.00  0.00     0.000 C 
ENDROOT
BRANCH   1   2
ATOM      2  C   UNL     1       1.304  62.901  44.316  1.00  0.00     0.000 C 
BRANCH   2   3
ATOM      3  C   UNL     1       1.128  64.371  44.733  1.00  0.00     0.000 C 
BRANCH   3   4
ATOM      4  C   UNL     1       0.352  64.531  46.053  1.00  0.00     0.000 C 
BRANCH   4   5
ATOM      5  C   UNL     1       1.030  65.433  47.102  1.00  0.00     0.000 C 
BRANCH   5   6
ATOM      6  C   UNL     1       2.310  64.817  47.689  1.00  0.00     0.000 C 
BRANCH   6   7
ATOM      7  C   UNL     1       3.464  65.826  47.668  1.00  0.00     0.000 C 
BRANCH   7   8
ATOM      8  C   UNL     1       3.739  66.318  46.237  1.00  0.00     0.000 C 
BRANCH   8   9
ATOM      9  C   UNL     1       5.021  65.708  45.633  1.00  0.00     0.000 C 
BRANCH   9  10
ATOM     10  C   UNL     1       4.861  64.261  45.141  1.00  0.00     0.000 C 
BRANCH  10  11
ATOM     11  C   UNL     1       5.555  63.233  46.052  1.00  0.00     0.000 C 
BRANCH  11  12
ATOM     12  C   UNL     1       6.844  63.785  46.682  1.00  0.00     0.000 C 
BRANCH  12  13
ATOM     13  C   UNL     1       7.163  63.119  48.032  1.00  0.00     0.006 C 
BRANCH  13  14
ATOM     14  C   UNL     1       6.343  63.717  49.183  1.00  0.00     0.053 C 
BRANCH  14  15
ATOM     15  C   UNL     1       6.164  62.744  50.307  1.00  0.00     0.041 C 
ATOM     16  O   UNL     1       7.139  62.052  50.706  1.00  0.00    -0.550 OA
ATOM     17  O   UNL     1       4.929  62.618  50.931  1.00  0.00    -0.550 OA
ENDBRANCH  14  15
ENDBRANCH  13  14
ENDBRANCH  12  13
ENDBRANCH  11  12
ENDBRANCH  10  11
ENDBRANCH   9  10
ENDBRANCH   8   9
ENDBRANCH   7   8
ENDBRANCH   6   7
ENDBRANCH   5   6
ENDBRANCH   4   5
ENDBRANCH   3   4
ENDBRANCH   2   3
ENDBRANCH   1   2
BRANCH   1  18
ATOM     18  C   UNL     1       0.541  60.766  45.496  1.00  0.00     0.000 C 
BRANCH  18  19
ATOM     19  C   UNL     1       0.701  59.893  44.240  1.00  0.00     0.000 C 
BRANCH  19  20
ATOM     20  C   UNL     1      -0.116  58.586  44.286  1.00  0.00     0.000 C 
BRANCH  20  21
ATOM     21  C   UNL     1      -1.174  58.598  45.402  1.00  0.00     0.000 C 
BRANCH  21  22
ATOM     22  C   UNL     1      -2.448  57.831  45.014  1.00  0.00     0.000 C 
BRANCH  22  23
ATOM     23  C   UNL     1      -2.916  56.870  46.121  1.00  0.00     0.000 C 
BRANCH  23  24
ATOM     24  C   UNL     1      -1.738  56.350  46.965  1.00  0.00    -0.000 C 
BRANCH  24  25
ATOM     25  C   UNL     1      -1.975  56.484  48.487  1.00  0.00    -0.000 C 
BRANCH  25  26
ATOM     26  C   UNL     1      -2.979  57.590  48.850  1.00  0.00    -0.000 C 
BRANCH  26  27
ATOM     27  C   UNL     1      -2.338  58.987  48.869  1.00  0.00    -0.000 C 
BRANCH  27  28
ATOM     28  C   UNL     1      -3.380  60.111  48.755  1.00  0.00    -0.000 C 
BRANCH  28  29
ATOM     29  C   UNL     1      -3.879  60.304  47.314  1.00  0.00    -0.000 C 
BRANCH  29  30
ATOM     30  C   UNL     1      -3.285  61.551  46.642  1.00  0.00    -0.000 C 
BRANCH  30  31
ATOM     31  C   UNL     1      -3.321  61.468  45.108  1.00  0.00    -0.003 C 
ATOM     32  C   UNL     1      -2.463  62.561  44.478  1.00  0.00     0.004 C 
ENDBRANCH  30  31
ENDBRANCH  29  30
ENDBRANCH  28  29
ENDBRANCH  27  28
ENDBRANCH  26  27
ENDBRANCH  25  26
ENDBRANCH  24  25
ENDBRANCH  23  24
ENDBRANCH  22  23
ENDBRANCH  21  22
ENDBRANCH  20  21
ENDBRANCH  19  20
ENDBRANCH  18  19
ENDBRANCH   1  18
TORSDOF 28
ENDMDL
