MODEL 1
REMARK VINA RESULT:    -5.897      0.000      0.000
REMARK INTER + INTRA:         -10.391
REMARK INTER:                  -8.999
REMARK INTRA:                  -1.392
REMARK UNBOUND:                -1.392
REMARK SMILES CC(=O)CCC=C(C)CCC=C(C)CCC=C(C)C
REMARK SMILES IDX 10 1 11 2 12 3 13 4 14 5 15 6 16 7 18 8 17 9 19 10 9 11 7 12
REMARK SMILES IDX 6 13 8 14 5 15 4 16 2 17 3 18 1 19
REMARK H PARENT
REMARK Flexibility Score: inf
ROOT
ATOM      1  C   UNL     1      -7.644  -2.202 -11.435  1.00  0.00     0.032 C 
ENDROOT
BRANCH   1   2
ATOM      2  C   UNL     1      -7.320  -3.599 -11.913  1.00  0.00    -0.028 C 
ATOM      3  C   UNL     1      -7.546  -4.083 -13.157  1.00  0.00    -0.077 C 
ATOM      4  C   UNL     1      -7.197  -5.526 -13.424  1.00  0.00     0.039 C 
BRANCH   3   5
ATOM      5  C   UNL     1      -8.114  -3.247 -14.294  1.00  0.00     0.034 C 
BRANCH   5   6
ATOM      6  C   UNL     1      -8.880  -4.081 -15.334  1.00  0.00     0.032 C 
BRANCH   6   7
ATOM      7  C   UNL     1     -10.377  -3.901 -15.232  1.00  0.00    -0.028 C 
ATOM      8  C   UNL     1     -10.767  -6.182 -14.271  1.00  0.00     0.039 C 
ATOM      9  C   UNL     1     -11.229  -4.818 -14.722  1.00  0.00    -0.080 C 
ATOM     10  C   UNL     1     -12.704  -4.514 -14.661  1.00  0.00     0.039 C 
ENDBRANCH   6   7
ENDBRANCH   5   6
ENDBRANCH   3   5
ENDBRANCH   1   2
BRANCH   1  11
ATOM     11  C   UNL     1      -6.372  -1.354 -11.285  1.00  0.00     0.034 C 
BRANCH  11  12
ATOM     12  C   UNL     1      -5.852  -1.350  -9.858  1.00  0.00    -0.077 C 
ATOM     13  C   UNL     1      -6.191  -0.402  -8.954  1.00  0.00    -0.028 C 
ATOM     14  C   UNL     1      -4.902  -2.438  -9.427  1.00  0.00     0.039 C 
BRANCH  13  15
ATOM     15  C   UNL     1      -7.198   0.699  -9.191  1.00  0.00     0.035 C 
BRANCH  15  16
ATOM     16  C   UNL     1      -6.519   2.072  -9.279  1.00  0.00     0.079 C 
BRANCH  16  17
ATOM     17  C   UNL     1      -6.153   2.421 -10.698  1.00  0.00     0.130 C 
ATOM     18  O   UNL     1      -6.964   3.000 -11.405  1.00  0.00    -0.300 OA
ATOM     19  C   UNL     1      -4.808   2.072 -11.265  1.00  0.00     0.087 C 
ENDBRANCH  16  17
ENDBRANCH  15  16
ENDBRANCH  13  15
ENDBRANCH  11  12
ENDBRANCH   1  11
TORSDOF 9
ENDMDL
MODEL 2
REMARK VINA RESULT:    -5.795      2.736      7.789
REMARK INTER + INTRA:         -10.235
REMARK INTER:                  -8.721
REMARK INTRA:                  -1.514
REMARK UNBOUND:                -1.392
REMARK SMILES CC(=O)CCC=C(C)CCC=C(C)CCC=C(C)C
REMARK SMILES IDX 10 1 11 2 12 3 13 4 14 5 15 6 16 7 18 8 17 9 19 10 9 11 7 12
REMARK SMILES IDX 6 13 8 14 5 15 4 16 2 17 3 18 1 19
REMARK H PARENT
REMARK Flexibility Score: inf
ROOT
ATOM      1  C   UNL     1      -7.361  -1.279 -11.736  1.00  0.00     0.032 C 
ENDROOT
BRANCH   1   2
ATOM      2  C   UNL     1      -6.561  -1.514 -10.476  1.00  0.00    -0.028 C 
ATOM      3  C   UNL     1      -5.306  -1.064 -10.240  1.00  0.00    -0.077 C 
ATOM      4  C   UNL     1      -4.655  -1.450  -8.935  1.00  0.00     0.039 C 
BRANCH   3   5
ATOM      5  C   UNL     1      -4.531  -0.184 -11.209  1.00  0.00     0.034 C 
BRANCH   5   6
ATOM      6  C   UNL     1      -4.304   1.242 -10.682  1.00  0.00     0.032 C 
BRANCH   6   7
ATOM      7  C   UNL     1      -5.420   2.186 -11.065  1.00  0.00    -0.028 C 
ATOM      8  C   UNL     1      -6.432   2.206  -8.772  1.00  0.00     0.039 C 
ATOM      9  C   UNL     1      -6.356   2.656 -10.210  1.00  0.00    -0.080 C 
ATOM     10  C   UNL     1      -7.414   3.607 -10.711  1.00  0.00     0.039 C 
ENDBRANCH   6   7
ENDBRANCH   5   6
ENDBRANCH   3   5
ENDBRANCH   1   2
BRANCH   1  11
ATOM     11  C   UNL     1      -7.862  -2.603 -12.334  1.00  0.00     0.034 C 
BRANCH  11  12
ATOM     12  C   UNL     1      -7.279  -2.864 -13.713  1.00  0.00    -0.077 C 
ATOM     13  C   UNL     1      -7.995  -3.409 -14.723  1.00  0.00    -0.028 C 
ATOM     14  C   UNL     1      -5.835  -2.518 -13.969  1.00  0.00     0.039 C 
BRANCH  13  15
ATOM     15  C   UNL     1      -9.471  -3.727 -14.665  1.00  0.00     0.035 C 
BRANCH  15  16
ATOM     16  C   UNL     1      -9.719  -5.240 -14.600  1.00  0.00     0.079 C 
BRANCH  16  17
ATOM     17  C   UNL     1     -11.156  -5.554 -14.271  1.00  0.00     0.130 C 
ATOM     18  O   UNL     1     -11.422  -6.572 -13.650  1.00  0.00    -0.300 OA
ATOM     19  C   UNL     1     -12.269  -4.640 -14.688  1.00  0.00     0.087 C 
ENDBRANCH  16  17
ENDBRANCH  15  16
ENDBRANCH  13  15
ENDBRANCH  11  12
ENDBRANCH   1  11
TORSDOF 9
ENDMDL
MODEL 3
REMARK VINA RESULT:    -5.794      1.681      3.769
REMARK INTER + INTRA:         -10.234
REMARK INTER:                  -7.859
REMARK INTRA:                  -2.375
REMARK UNBOUND:                -1.392
REMARK SMILES CC(=O)CCC=C(C)CCC=C(C)CCC=C(C)C
REMARK SMILES IDX 10 1 11 2 12 3 13 4 14 5 15 6 16 7 18 8 17 9 19 10 9 11 7 12
REMARK SMILES IDX 6 13 8 14 5 15 4 16 2 17 3 18 1 19
REMARK H PARENT
REMARK Flexibility Score: inf
ROOT
ATOM      1  C   UNL     1      -7.749  -2.326 -11.361  1.00  0.00     0.032 C 
ENDROOT
BRANCH   1   2
ATOM      2  C   UNL     1      -8.191  -2.471 -12.800  1.00  0.00    -0.028 C 
ATOM      3  C   UNL     1      -7.895  -3.508 -13.618  1.00  0.00    -0.077 C 
ATOM      4  C   UNL     1      -8.389  -3.443 -15.042  1.00  0.00     0.039 C 
BRANCH   3   5
ATOM      5  C   UNL     1      -7.111  -4.733 -13.173  1.00  0.00     0.034 C 
BRANCH   5   6
ATOM      6  C   UNL     1      -5.673  -4.762 -13.720  1.00  0.00     0.032 C 
BRANCH   6   7
ATOM      7  C   UNL     1      -4.774  -3.759 -13.037  1.00  0.00    -0.028 C 
ATOM      8  C   UNL     1      -4.713  -2.207 -15.004  1.00  0.00     0.039 C 
ATOM      9  C   UNL     1      -4.368  -2.591 -13.586  1.00  0.00    -0.080 C 
ATOM     10  C   UNL     1      -3.480  -1.664 -12.797  1.00  0.00     0.039 C 
ENDBRANCH   6   7
ENDBRANCH   5   6
ENDBRANCH   3   5
ENDBRANCH   1   2
BRANCH   1  11
ATOM     11  C   UNL     1      -6.770  -1.154 -11.194  1.00  0.00     0.034 C 
BRANCH  11  12
ATOM     12  C   UNL     1      -6.077  -1.175  -9.843  1.00  0.00    -0.077 C 
ATOM     13  C   UNL     1      -6.283  -0.232  -8.895  1.00  0.00    -0.028 C 
ATOM     14  C   UNL     1      -5.103  -2.286  -9.543  1.00  0.00     0.039 C 
BRANCH  13  15
ATOM     15  C   UNL     1      -7.289   0.890  -8.995  1.00  0.00     0.035 C 
BRANCH  15  16
ATOM     16  C   UNL     1      -6.599   2.256  -9.104  1.00  0.00     0.079 C 
BRANCH  16  17
ATOM     17  C   UNL     1      -6.344   2.638 -10.540  1.00  0.00     0.130 C 
ATOM     18  O   UNL     1      -7.153   3.340 -11.129  1.00  0.00    -0.300 OA
ATOM     19  C   UNL     1      -5.115   2.173 -11.264  1.00  0.00     0.087 C 
ENDBRANCH  16  17
ENDBRANCH  15  16
ENDBRANCH  13  15
ENDBRANCH  11  12
ENDBRANCH   1  11
TORSDOF 9
ENDMDL
MODEL 4
REMARK VINA RESULT:    -5.788      2.515      7.828
REMARK INTER + INTRA:         -10.226
REMARK INTER:                  -8.892
REMARK INTRA:                  -1.333
REMARK UNBOUND:                -1.392
REMARK SMILES CC(=O)CCC=C(C)CCC=C(C)CCC=C(C)C
REMARK SMILES IDX 10 1 11 2 12 3 13 4 14 5 15 6 16 7 18 8 17 9 19 10 9 11 7 12
REMARK SMILES IDX 6 13 8 14 5 15 4 16 2 17 3 18 1 19
REMARK H PARENT
REMARK Flexibility Score: inf
ROOT
ATOM      1  C   UNL     1      -8.070  -2.664 -13.457  1.00  0.00     0.032 C 
ENDROOT
BRANCH   1   2
ATOM      2  C   UNL     1      -6.611  -2.431 -13.139  1.00  0.00    -0.028 C 
ATOM      3  C   UNL     1      -6.124  -1.924 -11.982  1.00  0.00    -0.077 C 
ATOM      4  C   UNL     1      -4.633  -1.719 -11.877  1.00  0.00     0.039 C 
BRANCH   3   5
ATOM      5  C   UNL     1      -6.994  -1.569 -10.787  1.00  0.00     0.034 C 
BRANCH   5   6
ATOM      6  C   UNL     1      -6.364  -0.503  -9.875  1.00  0.00     0.032 C 
BRANCH   6   7
ATOM      7  C   UNL     1      -6.993   0.859 -10.055  1.00  0.00    -0.028 C 
ATOM      8  C   UNL     1      -4.930   1.878 -11.047  1.00  0.00     0.039 C 
ATOM      9  C   UNL     1      -6.375   1.923 -10.615  1.00  0.00    -0.080 C 
ATOM     10  C   UNL     1      -7.115   3.229 -10.752  1.00  0.00     0.039 C 
ENDBRANCH   6   7
ENDBRANCH   5   6
ENDBRANCH   3   5
ENDBRANCH   1   2
BRANCH   1  11
ATOM     11  C   UNL     1      -8.353  -4.150 -13.722  1.00  0.00     0.034 C 
BRANCH  11  12
ATOM     12  C   UNL     1      -8.089  -4.534 -15.168  1.00  0.00    -0.077 C 
ATOM     13  C   UNL     1      -9.012  -4.393 -16.147  1.00  0.00    -0.028 C 
ATOM     14  C   UNL     1      -6.747  -5.114 -15.532  1.00  0.00     0.039 C 
BRANCH  13  15
ATOM     15  C   UNL     1     -10.366  -3.746 -15.973  1.00  0.00     0.035 C 
BRANCH  15  16
ATOM     16  C   UNL     1     -11.489  -4.791 -15.946  1.00  0.00     0.079 C 
BRANCH  16  17
ATOM     17  C   UNL     1     -11.827  -5.208 -14.538  1.00  0.00     0.130 C 
ATOM     18  O   UNL     1     -12.617  -4.542 -13.886  1.00  0.00    -0.300 OA
ATOM     19  C   UNL     1     -11.213  -6.428 -13.917  1.00  0.00     0.087 C 
ENDBRANCH  16  17
ENDBRANCH  15  16
ENDBRANCH  13  15
ENDBRANCH  11  12
ENDBRANCH   1  11
TORSDOF 9
ENDMDL
MODEL 5
REMARK VINA RESULT:    -5.743      1.490      2.315
REMARK INTER + INTRA:         -10.156
REMARK INTER:                  -8.793
REMARK INTRA:                  -1.363
REMARK UNBOUND:                -1.392
REMARK SMILES CC(=O)CCC=C(C)CCC=C(C)CCC=C(C)C
REMARK SMILES IDX 10 1 11 2 12 3 13 4 14 5 15 6 16 7 18 8 17 9 19 10 9 11 7 12
REMARK SMILES IDX 6 13 8 14 5 15 4 16 2 17 3 18 1 19
REMARK H PARENT
REMARK Flexibility Score: inf
ROOT
ATOM      1  C   UNL     1      -8.259  -2.815 -13.372  1.00  0.00     0.032 C 
ENDROOT
BRANCH   1   2
ATOM      2  C   UNL     1      -7.771  -3.666 -14.521  1.00  0.00    -0.028 C 
ATOM      3  C   UNL     1      -7.979  -4.996 -14.666  1.00  0.00    -0.077 C 
ATOM      4  C   UNL     1      -7.365  -5.678 -15.863  1.00  0.00     0.039 C 
BRANCH   3   5
ATOM      5  C   UNL     1      -8.808  -5.828 -13.699  1.00  0.00     0.034 C 
BRANCH   5   6
ATOM      6  C   UNL     1      -9.983  -6.553 -14.378  1.00  0.00     0.032 C 
BRANCH   6   7
ATOM      7  C   UNL     1     -11.305  -5.862 -14.139  1.00  0.00    -0.028 C 
ATOM      8  C   UNL     1     -11.140  -4.443 -16.197  1.00  0.00     0.039 C 
ATOM      9  C   UNL     1     -11.854  -4.945 -14.966  1.00  0.00    -0.080 C 
ATOM     10  C   UNL     1     -13.190  -4.336 -14.624  1.00  0.00     0.039 C 
ENDBRANCH   6   7
ENDBRANCH   5   6
ENDBRANCH   3   5
ENDBRANCH   1   2
BRANCH   1  11
ATOM     11  C   UNL     1      -7.092  -2.100 -12.673  1.00  0.00     0.034 C 
BRANCH  11  12
ATOM     12  C   UNL     1      -6.876  -2.607 -11.257  1.00  0.00    -0.077 C 
ATOM     13  C   UNL     1      -6.543  -1.795 -10.228  1.00  0.00    -0.028 C 
ATOM     14  C   UNL     1      -7.021  -4.082 -10.983  1.00  0.00     0.039 C 
BRANCH  13  15
ATOM     15  C   UNL     1      -6.450  -0.289 -10.308  1.00  0.00     0.035 C 
BRANCH  15  16
ATOM     16  C   UNL     1      -7.078   0.379  -9.078  1.00  0.00     0.079 C 
BRANCH  16  17
ATOM     17  C   UNL     1      -6.607   1.802  -8.918  1.00  0.00     0.130 C 
ATOM     18  O   UNL     1      -5.884   2.094  -7.977  1.00  0.00    -0.300 OA
ATOM     19  C   UNL     1      -7.006   2.870  -9.892  1.00  0.00     0.087 C 
ENDBRANCH  16  17
ENDBRANCH  15  16
ENDBRANCH  13  15
ENDBRANCH  11  12
ENDBRANCH   1  11
TORSDOF 9
ENDMDL
MODEL 6
REMARK VINA RESULT:    -5.699      4.348      6.938
REMARK INTER + INTRA:         -10.089
REMARK INTER:                  -7.572
REMARK INTRA:                  -2.517
REMARK UNBOUND:                -1.392
REMARK SMILES CC(=O)CCC=C(C)CCC=C(C)CCC=C(C)C
REMARK SMILES IDX 10 1 11 2 12 3 13 4 14 5 15 6 16 7 18 8 17 9 19 10 9 11 7 12
REMARK SMILES IDX 6 13 8 14 5 15 4 16 2 17 3 18 1 19
REMARK H PARENT
REMARK Flexibility Score: inf
ROOT
ATOM      1  C   UNL     1      -4.810   1.609 -11.381  1.00  0.00     0.032 C 
ENDROOT
BRANCH   1   2
ATOM      2  C   UNL     1      -5.940   2.601 -11.226  1.00  0.00    -0.028 C 
ATOM      3  C   UNL     1      -6.670   2.800 -10.104  1.00  0.00    -0.077 C 
ATOM      4  C   UNL     1      -7.795   3.804 -10.166  1.00  0.00     0.039 C 
BRANCH   3   5
ATOM      5  C   UNL     1      -6.406   2.082  -8.790  1.00  0.00     0.034 C 
BRANCH   5   6
ATOM      6  C   UNL     1      -7.024   0.675  -8.734  1.00  0.00     0.032 C 
BRANCH   6   7
ATOM      7  C   UNL     1      -5.980  -0.416  -8.699  1.00  0.00    -0.028 C 
ATOM      8  C   UNL     1      -6.805  -1.522 -10.790  1.00  0.00     0.039 C 
ATOM      9  C   UNL     1      -5.846  -1.382  -9.634  1.00  0.00    -0.080 C 
ATOM     10  C   UNL     1      -4.751  -2.409  -9.495  1.00  0.00     0.039 C 
ENDBRANCH   6   7
ENDBRANCH   5   6
ENDBRANCH   3   5
ENDBRANCH   1   2
BRANCH   1  11
ATOM     11  C   UNL     1      -3.518   2.131 -10.733  1.00  0.00     0.034 C 
BRANCH  11  12
ATOM     12  C   UNL     1      -2.707   1.016 -10.096  1.00  0.00    -0.077 C 
ATOM     13  C   UNL     1      -2.397   0.992  -8.779  1.00  0.00    -0.028 C 
ATOM     14  C   UNL     1      -2.207  -0.108 -10.966  1.00  0.00     0.039 C 
BRANCH  13  15
ATOM     15  C   UNL     1      -2.894   1.984  -7.754  1.00  0.00     0.035 C 
BRANCH  15  16
ATOM     16  C   UNL     1      -3.343   1.285  -6.465  1.00  0.00     0.079 C 
BRANCH  16  17
ATOM     17  C   UNL     1      -2.221   1.192  -5.463  1.00  0.00     0.130 C 
ATOM     18  O   UNL     1      -1.574   0.159  -5.378  1.00  0.00    -0.300 OA
ATOM     19  C   UNL     1      -1.879   2.344  -4.566  1.00  0.00     0.087 C 
ENDBRANCH  16  17
ENDBRANCH  15  16
ENDBRANCH  13  15
ENDBRANCH  11  12
ENDBRANCH   1  11
TORSDOF 9
ENDMDL
MODEL 7
REMARK VINA RESULT:    -5.684      3.889      7.782
REMARK INTER + INTRA:         -10.066
REMARK INTER:                  -7.779
REMARK INTRA:                  -2.287
REMARK UNBOUND:                -1.392
REMARK SMILES CC(=O)CCC=C(C)CCC=C(C)CCC=C(C)C
REMARK SMILES IDX 10 1 11 2 12 3 13 4 14 5 15 6 16 7 18 8 17 9 19 10 9 11 7 12
REMARK SMILES IDX 6 13 8 14 5 15 4 16 2 17 3 18 1 19
REMARK H PARENT
REMARK Flexibility Score: inf
ROOT
ATOM      1  C   UNL     1     -10.342  -3.853 -16.121  1.00  0.00     0.032 C 
ENDROOT
BRANCH   1   2
ATOM      2  C   UNL     1      -8.879  -4.229 -16.154  1.00  0.00    -0.028 C 
ATOM      3  C   UNL     1      -7.989  -4.038 -15.152  1.00  0.00    -0.077 C 
ATOM      4  C   UNL     1      -6.555  -4.437 -15.399  1.00  0.00     0.039 C 
BRANCH   3   5
ATOM      5  C   UNL     1      -8.362  -3.463 -13.794  1.00  0.00     0.034 C 
BRANCH   5   6
ATOM      6  C   UNL     1      -7.200  -3.485 -12.787  1.00  0.00     0.032 C 
BRANCH   6   7
ATOM      7  C   UNL     1      -7.331  -4.599 -11.776  1.00  0.00    -0.028 C 
ATOM      8  C   UNL     1      -5.837  -3.492 -10.096  1.00  0.00     0.039 C 
ATOM      9  C   UNL     1      -6.758  -4.597 -10.551  1.00  0.00    -0.080 C 
ATOM     10  C   UNL     1      -6.976  -5.765  -9.623  1.00  0.00     0.039 C 
ENDBRANCH   6   7
ENDBRANCH   5   6
ENDBRANCH   3   5
ENDBRANCH   1   2
BRANCH   1  11
ATOM     11  C   UNL     1     -11.237  -5.098 -16.022  1.00  0.00     0.034 C 
BRANCH  11  12
ATOM     12  C   UNL     1     -11.660  -5.386 -14.592  1.00  0.00    -0.077 C 
ATOM     13  C   UNL     1     -11.270  -6.492 -13.917  1.00  0.00    -0.028 C 
ATOM     14  C   UNL     1     -12.568  -4.408 -13.891  1.00  0.00     0.039 C 
BRANCH  13  15
ATOM     15  C   UNL     1     -10.292  -7.521 -14.434  1.00  0.00     0.035 C 
BRANCH  15  16
ATOM     16  C   UNL     1      -8.885  -7.294 -13.868  1.00  0.00     0.079 C 
BRANCH  16  17
ATOM     17  C   UNL     1      -7.818  -7.744 -14.833  1.00  0.00     0.130 C 
ATOM     18  O   UNL     1      -6.693  -7.981 -14.419  1.00  0.00    -0.300 OA
ATOM     19  C   UNL     1      -8.109  -7.908 -16.295  1.00  0.00     0.087 C 
ENDBRANCH  16  17
ENDBRANCH  15  16
ENDBRANCH  13  15
ENDBRANCH  11  12
ENDBRANCH   1  11
TORSDOF 9
ENDMDL
MODEL 8
REMARK VINA RESULT:    -5.618      4.675      6.904
REMARK INTER + INTRA:          -9.966
REMARK INTER:                  -8.157
REMARK INTRA:                  -1.808
REMARK UNBOUND:                -1.392
REMARK SMILES CC(=O)CCC=C(C)CCC=C(C)CCC=C(C)C
REMARK SMILES IDX 10 1 11 2 12 3 13 4 14 5 15 6 16 7 18 8 17 9 19 10 9 11 7 12
REMARK SMILES IDX 6 13 8 14 5 15 4 16 2 17 3 18 1 19
REMARK H PARENT
REMARK Flexibility Score: inf
ROOT
ATOM      1  C   UNL     1      -5.917  -4.488 -14.413  1.00  0.00     0.032 C 
ENDROOT
BRANCH   1   2
ATOM      2  C   UNL     1      -7.400  -4.687 -14.623  1.00  0.00    -0.028 C 
ATOM      3  C   UNL     1      -8.364  -3.766 -14.384  1.00  0.00    -0.077 C 
ATOM      4  C   UNL     1      -9.798  -4.176 -14.610  1.00  0.00     0.039 C 
BRANCH   3   5
ATOM      5  C   UNL     1      -8.075  -2.347 -13.920  1.00  0.00     0.034 C 
BRANCH   5   6
ATOM      6  C   UNL     1      -8.430  -2.110 -12.443  1.00  0.00     0.032 C 
BRANCH   6   7
ATOM      7  C   UNL     1      -7.211  -1.849 -11.589  1.00  0.00    -0.028 C 
ATOM      8  C   UNL     1      -6.955  -4.246 -10.906  1.00  0.00     0.039 C 
ATOM      9  C   UNL     1      -6.517  -2.802 -10.927  1.00  0.00    -0.080 C 
ATOM     10  C   UNL     1      -5.306  -2.417 -10.117  1.00  0.00     0.039 C 
ENDBRANCH   6   7
ENDBRANCH   5   6
ENDBRANCH   3   5
ENDBRANCH   1   2
BRANCH   1  11
ATOM     11  C   UNL     1      -5.237  -3.968 -15.689  1.00  0.00     0.034 C 
BRANCH  11  12
ATOM     12  C   UNL     1      -4.370  -2.750 -15.419  1.00  0.00    -0.077 C 
ATOM     13  C   UNL     1      -3.480  -2.267 -16.316  1.00  0.00    -0.028 C 
ATOM     14  C   UNL     1      -4.489  -2.053 -14.088  1.00  0.00     0.039 C 
BRANCH  13  15
ATOM     15  C   UNL     1      -3.302  -2.786 -17.724  1.00  0.00     0.035 C 
BRANCH  15  16
ATOM     16  C   UNL     1      -2.945  -1.657 -18.699  1.00  0.00     0.079 C 
BRANCH  16  17
ATOM     17  C   UNL     1      -1.454  -1.512 -18.860  1.00  0.00     0.130 C 
ATOM     18  O   UNL     1      -0.831  -0.798 -18.089  1.00  0.00    -0.300 OA
ATOM     19  C   UNL     1      -0.714  -2.229 -19.951  1.00  0.00     0.087 C 
ENDBRANCH  16  17
ENDBRANCH  15  16
ENDBRANCH  13  15
ENDBRANCH  11  12
ENDBRANCH   1  11
TORSDOF 9
ENDMDL
MODEL 9
REMARK VINA RESULT:    -5.519      1.708      2.600
REMARK INTER + INTRA:          -9.815
REMARK INTER:                  -7.937
REMARK INTRA:                  -1.878
REMARK UNBOUND:                -1.392
REMARK SMILES CC(=O)CCC=C(C)CCC=C(C)CCC=C(C)C
REMARK SMILES IDX 10 1 11 2 12 3 13 4 14 5 15 6 16 7 18 8 17 9 19 10 9 11 7 12
REMARK SMILES IDX 6 13 8 14 5 15 4 16 2 17 3 18 1 19
REMARK H PARENT
REMARK Flexibility Score: inf
ROOT
ATOM      1  C   UNL     1      -7.938  -2.512 -13.125  1.00  0.00     0.032 C 
ENDROOT
BRANCH   1   2
ATOM      2  C   UNL     1      -6.675  -2.363 -13.941  1.00  0.00    -0.028 C 
ATOM      3  C   UNL     1      -6.027  -3.361 -14.588  1.00  0.00    -0.077 C 
ATOM      4  C   UNL     1      -4.748  -3.017 -15.310  1.00  0.00     0.039 C 
BRANCH   3   5
ATOM      5  C   UNL     1      -6.529  -4.796 -14.637  1.00  0.00     0.034 C 
BRANCH   5   6
ATOM      6  C   UNL     1      -7.570  -5.035 -15.743  1.00  0.00     0.032 C 
BRANCH   6   7
ATOM      7  C   UNL     1      -8.943  -5.340 -15.191  1.00  0.00    -0.028 C 
ATOM      8  C   UNL     1     -10.063  -3.499 -16.469  1.00  0.00     0.039 C 
ATOM      9  C   UNL     1     -10.074  -4.686 -15.537  1.00  0.00    -0.080 C 
ATOM     10  C   UNL     1     -11.390  -5.095 -14.925  1.00  0.00     0.039 C 
ENDBRANCH   6   7
ENDBRANCH   5   6
ENDBRANCH   3   5
ENDBRANCH   1   2
BRANCH   1  11
ATOM     11  C   UNL     1      -7.707  -2.107 -11.661  1.00  0.00     0.034 C 
BRANCH  11  12
ATOM     12  C   UNL     1      -6.703  -3.011 -10.968  1.00  0.00    -0.077 C 
ATOM     13  C   UNL     1      -5.551  -2.554 -10.428  1.00  0.00    -0.028 C 
ATOM     14  C   UNL     1      -6.990  -4.489 -10.889  1.00  0.00     0.039 C 
BRANCH  13  15
ATOM     15  C   UNL     1      -5.155  -1.099 -10.337  1.00  0.00     0.035 C 
BRANCH  15  16
ATOM     16  C   UNL     1      -5.552  -0.490  -8.986  1.00  0.00     0.079 C 
BRANCH  16  17
ATOM     17  C   UNL     1      -6.720   0.452  -9.123  1.00  0.00     0.130 C 
ATOM     18  O   UNL     1      -7.739   0.245  -8.481  1.00  0.00    -0.300 OA
ATOM     19  C   UNL     1      -6.659   1.644 -10.032  1.00  0.00     0.087 C 
ENDBRANCH  16  17
ENDBRANCH  15  16
ENDBRANCH  13  15
ENDBRANCH  11  12
ENDBRANCH   1  11
TORSDOF 9
ENDMDL
