MODEL 1
REMARK VINA RESULT:    -3.933      0.000      0.000
REMARK INTER + INTRA:          -4.916
REMARK INTER:                  -4.623
REMARK INTRA:                  -0.293
REMARK UNBOUND:                -0.293
REMARK SMILES O=c1cc(-c2ccc(O)c(O)c2)oc2cc(O)cc(O)c12
REMARK SMILES IDX 4 1 3 2 2 3 1 4 21 5 19 6 18 7 16 8 15 9 14 10 13 11 5 12
REMARK SMILES IDX 6 13 7 14 8 15 12 16 10 17 9 18 11 20 20 22 17 24
REMARK H PARENT 9 19 11 21 20 23 17 25
REMARK Flexibility Score: inf
ROOT
ATOM      1  C   UNL     1      -8.641 -22.422  20.062  1.00  0.00     0.138 A 
ATOM      2  C   UNL     1      -7.366 -22.893  19.724  1.00  0.00     0.100 A 
ATOM      3  C   UNL     1      -6.895 -22.736  18.420  1.00  0.00     0.197 A 
ATOM      4  O   UNL     1      -5.724 -23.120  18.162  1.00  0.00    -0.289 OA
ATOM      5  C   UNL     1      -7.722 -22.136  17.440  1.00  0.00     0.107 A 
ATOM      6  C   UNL     1      -7.361 -21.954  16.071  1.00  0.00     0.134 A 
ATOM      7  C   UNL     1      -8.226 -21.257  15.217  1.00  0.00     0.093 A 
ATOM      8  C   UNL     1      -9.460 -20.787  15.666  1.00  0.00     0.123 A 
ATOM      9  C   UNL     1      -9.844 -21.004  16.989  1.00  0.00     0.094 A 
ATOM     10  C   UNL     1      -8.990 -21.665  17.875  1.00  0.00     0.146 A 
ATOM     11  O   UNL     1      -9.386 -21.834  19.132  1.00  0.00    -0.456 OA
ENDROOT
BRANCH   1  12
ATOM     12  C   UNL     1      -9.193 -22.565  21.433  1.00  0.00     0.021 A 
ATOM     13  C   UNL     1     -10.579 -22.449  21.635  1.00  0.00     0.016 A 
ATOM     14  C   UNL     1     -11.124 -22.573  22.915  1.00  0.00     0.051 A 
ATOM     15  C   UNL     1     -10.292 -22.803  24.017  1.00  0.00     0.157 A 
ATOM     16  C   UNL     1      -8.361 -22.784  22.549  1.00  0.00     0.062 A 
ATOM     17  C   UNL     1      -8.908 -22.906  23.834  1.00  0.00     0.158 A 
BRANCH  15  18
ATOM     18  O   UNL     1     -10.832 -22.928  25.296  1.00  0.00    -0.504 OA
ATOM     19  H   UNL     1     -10.707 -23.772  25.844  1.00  0.00     0.293 HD
ENDBRANCH  15  18
BRANCH  17  20
ATOM     20  O   UNL     1      -8.081 -23.125  24.935  1.00  0.00    -0.504 OA
ATOM     21  H   UNL     1      -7.773 -24.055  25.191  1.00  0.00     0.293 HD
ENDBRANCH  17  20
ENDBRANCH   1  12
BRANCH   6  22
ATOM     22  O   UNL     1      -6.189 -22.452  15.496  1.00  0.00    -0.507 OA
ATOM     23  H   UNL     1      -5.923 -23.424  15.472  1.00  0.00     0.293 HD
ENDBRANCH   6  22
BRANCH   8  24
ATOM     24  O   UNL     1     -10.300 -20.112  14.783  1.00  0.00    -0.508 OA
ATOM     25  H   UNL     1     -11.223 -19.800  15.064  1.00  0.00     0.293 HD
ENDBRANCH   8  24
TORSDOF 5
ENDMDL
MODEL 2
REMARK VINA RESULT:    -3.754      1.153      2.637
REMARK INTER + INTRA:          -4.705
REMARK INTER:                  -4.388
REMARK INTRA:                  -0.317
REMARK UNBOUND:                -0.293
REMARK SMILES O=c1cc(-c2ccc(O)c(O)c2)oc2cc(O)cc(O)c12
REMARK SMILES IDX 4 1 3 2 2 3 1 4 21 5 19 6 18 7 16 8 15 9 14 10 13 11 5 12
REMARK SMILES IDX 6 13 7 14 8 15 12 16 10 17 9 18 11 20 20 22 17 24
REMARK H PARENT 9 19 11 21 20 23 17 25
REMARK Flexibility Score: inf
ROOT
ATOM      1  C   UNL     1      -9.115 -22.163  19.719  1.00  0.00     0.138 A 
ATOM      2  C   UNL     1     -10.088 -21.759  18.796  1.00  0.00     0.100 A 
ATOM      3  C   UNL     1      -9.726 -21.527  17.468  1.00  0.00     0.197 A 
ATOM      4  O   UNL     1     -10.633 -21.219  16.651  1.00  0.00    -0.289 OA
ATOM      5  C   UNL     1      -8.374 -21.666  17.072  1.00  0.00     0.107 A 
ATOM      6  C   UNL     1      -7.882 -21.423  15.754  1.00  0.00     0.134 A 
ATOM      7  C   UNL     1      -6.539 -21.690  15.459  1.00  0.00     0.093 A 
ATOM      8  C   UNL     1      -5.658 -22.135  16.445  1.00  0.00     0.123 A 
ATOM      9  C   UNL     1      -6.117 -22.328  17.748  1.00  0.00     0.094 A 
ATOM     10  C   UNL     1      -7.458 -22.104  18.066  1.00  0.00     0.146 A 
ATOM     11  O   UNL     1      -7.858 -22.317  19.316  1.00  0.00    -0.456 OA
ENDROOT
BRANCH   1  12
ATOM     12  C   UNL     1      -9.444 -22.421  21.144  1.00  0.00     0.021 A 
ATOM     13  C   UNL     1     -10.788 -22.413  21.556  1.00  0.00     0.016 A 
ATOM     14  C   UNL     1     -11.124 -22.645  22.892  1.00  0.00     0.051 A 
ATOM     15  C   UNL     1     -10.122 -22.879  23.841  1.00  0.00     0.157 A 
ATOM     16  C   UNL     1      -8.440 -22.644  22.108  1.00  0.00     0.062 A 
ATOM     17  C   UNL     1      -8.778 -22.875  23.449  1.00  0.00     0.158 A 
BRANCH  15  18
ATOM     18  O   UNL     1     -10.453 -23.112  25.175  1.00  0.00    -0.504 OA
ATOM     19  H   UNL     1     -10.781 -24.018  25.488  1.00  0.00     0.293 HD
ENDBRANCH  15  18
BRANCH  17  20
ATOM     20  O   UNL     1      -7.782 -23.097  24.399  1.00  0.00    -0.504 OA
ATOM     21  H   UNL     1      -6.888 -22.623  24.351  1.00  0.00     0.293 HD
ENDBRANCH  17  20
ENDBRANCH   1  12
BRANCH   6  22
ATOM     22  O   UNL     1      -8.655 -20.903  14.712  1.00  0.00    -0.507 OA
ATOM     23  H   UNL     1      -9.485 -20.344  14.830  1.00  0.00     0.293 HD
ENDBRANCH   6  22
BRANCH   8  24
ATOM     24  O   UNL     1      -4.325 -22.376  16.117  1.00  0.00    -0.508 OA
ATOM     25  H   UNL     1      -4.066 -23.086  15.443  1.00  0.00     0.293 HD
ENDBRANCH   8  24
TORSDOF 5
ENDMDL
