MODEL 1
REMARK VINA RESULT:    -4.268      0.000      0.000
REMARK INTER + INTRA:          -4.892
REMARK INTER:                  -4.642
REMARK INTRA:                  -0.250
REMARK UNBOUND:                -0.250
REMARK SMILES O=C([O-])c1ccccc1O
REMARK SMILES IDX 4 1 9 2 5 3 8 4 6 5 7 6 2 7 1 8 3 9 10 10
REMARK H PARENT 10 11
REMARK Flexibility Score: inf
ROOT
ATOM      1  C   UNL     1      15.159  16.078  19.577  1.00  0.00     0.039 A 
ATOM      2  C   UNL     1      13.874  16.479  19.138  1.00  0.00     0.124 A 
ATOM      3  C   UNL     1      15.924  16.977  20.346  1.00  0.00     0.014 A 
ATOM      4  C   UNL     1      13.387  17.752  19.470  1.00  0.00     0.047 A 
ATOM      5  C   UNL     1      15.426  18.242  20.670  1.00  0.00     0.001 A 
ATOM      6  C   UNL     1      14.161  18.629  20.232  1.00  0.00     0.004 A 
ENDROOT
BRANCH   1   7
ATOM      7  C   UNL     1      15.720  14.742  19.253  1.00  0.00     0.075 C 
ATOM      8  O   UNL     1      15.635  14.267  18.090  1.00  0.00    -0.545 OA
ATOM      9  O   UNL     1      16.353  13.990  20.236  1.00  0.00    -0.545 OA
ENDBRANCH   1   7
BRANCH   2  10
ATOM     10  O   UNL     1      13.082  15.622  18.375  1.00  0.00    -0.507 OA
ATOM     11  H   UNL     1      12.430  14.976  18.804  1.00  0.00     0.293 HD
ENDBRANCH   2  10
TORSDOF 2
ENDMDL
MODEL 2
REMARK VINA RESULT:    -4.193      2.125      3.776
REMARK INTER + INTRA:          -4.810
REMARK INTER:                  -4.560
REMARK INTRA:                  -0.250
REMARK UNBOUND:                -0.250
REMARK SMILES O=C([O-])c1ccccc1O
REMARK SMILES IDX 4 1 9 2 5 3 8 4 6 5 7 6 2 7 1 8 3 9 10 10
REMARK H PARENT 10 11
REMARK Flexibility Score: inf
ROOT
ATOM      1  C   UNL     1      15.553  15.966  18.499  1.00  0.00     0.039 A 
ATOM      2  C   UNL     1      16.119  14.674  18.617  1.00  0.00     0.124 A 
ATOM      3  C   UNL     1      16.058  16.841  17.517  1.00  0.00     0.014 A 
ATOM      4  C   UNL     1      17.164  14.288  17.765  1.00  0.00     0.047 A 
ATOM      5  C   UNL     1      17.100  16.443  16.675  1.00  0.00     0.001 A 
ATOM      6  C   UNL     1      17.652  15.169  16.799  1.00  0.00     0.004 A 
ENDROOT
BRANCH   1   7
ATOM      7  C   UNL     1      14.445  16.424  19.375  1.00  0.00     0.075 C 
ATOM      8  O   UNL     1      13.384  16.896  18.888  1.00  0.00    -0.545 OA
ATOM      9  O   UNL     1      14.564  16.337  20.758  1.00  0.00    -0.545 OA
ENDBRANCH   1   7
BRANCH   2  10
ATOM     10  O   UNL     1      15.649  13.775  19.574  1.00  0.00    -0.507 OA
ATOM     11  H   UNL     1      15.712  13.971  20.566  1.00  0.00     0.293 HD
ENDBRANCH   2  10
TORSDOF 2
ENDMDL
MODEL 3
REMARK VINA RESULT:    -4.110      1.804      2.424
REMARK INTER + INTRA:          -4.719
REMARK INTER:                  -4.471
REMARK INTRA:                  -0.249
REMARK UNBOUND:                -0.250
REMARK SMILES O=C([O-])c1ccccc1O
REMARK SMILES IDX 4 1 9 2 5 3 8 4 6 5 7 6 2 7 1 8 3 9 10 10
REMARK H PARENT 10 11
REMARK Flexibility Score: inf
ROOT
ATOM      1  C   UNL     1      16.844  15.765  18.984  1.00  0.00     0.039 A 
ATOM      2  C   UNL     1      15.857  15.155  19.796  1.00  0.00     0.124 A 
ATOM      3  C   UNL     1      17.076  17.147  19.122  1.00  0.00     0.014 A 
ATOM      4  C   UNL     1      15.133  15.928  20.717  1.00  0.00     0.047 A 
ATOM      5  C   UNL     1      16.347  17.905  20.043  1.00  0.00     0.001 A 
ATOM      6  C   UNL     1      15.378  17.296  20.838  1.00  0.00     0.004 A 
ENDROOT
BRANCH   1   7
ATOM      7  C   UNL     1      17.637  14.992  17.996  1.00  0.00     0.075 C 
ATOM      8  O   UNL     1      17.088  14.145  17.242  1.00  0.00    -0.545 OA
ATOM      9  O   UNL     1      19.009  15.192  17.887  1.00  0.00    -0.545 OA
ENDBRANCH   1   7
BRANCH   2  10
ATOM     10  O   UNL     1      15.594  13.789  19.694  1.00  0.00    -0.507 OA
ATOM     11  H   UNL     1      15.308  13.366  18.819  1.00  0.00     0.293 HD
ENDBRANCH   2  10
TORSDOF 2
ENDMDL
MODEL 4
REMARK VINA RESULT:    -4.108     19.156     20.581
REMARK INTER + INTRA:          -4.718
REMARK INTER:                  -4.469
REMARK INTRA:                  -0.249
REMARK UNBOUND:                -0.250
REMARK SMILES O=C([O-])c1ccccc1O
REMARK SMILES IDX 4 1 9 2 5 3 8 4 6 5 7 6 2 7 1 8 3 9 10 10
REMARK H PARENT 10 11
REMARK Flexibility Score: inf
ROOT
ATOM      1  C   UNL     1       2.841  14.940   3.393  1.00  0.00     0.039 A 
ATOM      2  C   UNL     1       3.746  13.863   3.227  1.00  0.00     0.124 A 
ATOM      3  C   UNL     1       1.844  15.144   2.419  1.00  0.00     0.014 A 
ATOM      4  C   UNL     1       3.637  13.025   2.107  1.00  0.00     0.047 A 
ATOM      5  C   UNL     1       1.747  14.301   1.309  1.00  0.00     0.001 A 
ATOM      6  C   UNL     1       2.642  13.244   1.153  1.00  0.00     0.004 A 
ENDROOT
BRANCH   1   7
ATOM      7  C   UNL     1       2.914  15.855   4.559  1.00  0.00     0.075 C 
ATOM      8  O   UNL     1       2.935  15.407   5.736  1.00  0.00    -0.545 OA
ATOM      9  O   UNL     1       2.959  17.232   4.369  1.00  0.00    -0.545 OA
ENDBRANCH   1   7
BRANCH   2  10
ATOM     10  O   UNL     1       4.748  13.623   4.166  1.00  0.00    -0.507 OA
ATOM     11  H   UNL     1       5.665  13.287   3.893  1.00  0.00     0.293 HD
ENDBRANCH   2  10
TORSDOF 2
ENDMDL
MODEL 5
REMARK VINA RESULT:    -4.027      2.136      2.716
REMARK INTER + INTRA:          -4.630
REMARK INTER:                  -4.376
REMARK INTRA:                  -0.254
REMARK UNBOUND:                -0.250
REMARK SMILES O=C([O-])c1ccccc1O
REMARK SMILES IDX 4 1 9 2 5 3 8 4 6 5 7 6 2 7 1 8 3 9 10 10
REMARK H PARENT 10 11
REMARK Flexibility Score: inf
ROOT
ATOM      1  C   UNL     1      16.250  16.090  17.736  1.00  0.00     0.039 A 
ATOM      2  C   UNL     1      15.250  15.488  18.538  1.00  0.00     0.124 A 
ATOM      3  C   UNL     1      16.061  17.416  17.298  1.00  0.00     0.014 A 
ATOM      4  C   UNL     1      14.098  16.211  18.881  1.00  0.00     0.047 A 
ATOM      5  C   UNL     1      14.908  18.125  17.648  1.00  0.00     0.001 A 
ATOM      6  C   UNL     1      13.929  17.524  18.438  1.00  0.00     0.004 A 
ENDROOT
BRANCH   1   7
ATOM      7  C   UNL     1      17.486  15.367  17.345  1.00  0.00     0.075 C 
ATOM      8  O   UNL     1      18.613  15.926  17.409  1.00  0.00    -0.545 OA
ATOM      9  O   UNL     1      17.418  14.052  16.898  1.00  0.00    -0.545 OA
ENDBRANCH   1   7
BRANCH   2  10
ATOM     10  O   UNL     1      15.396  14.178  18.994  1.00  0.00    -0.507 OA
ATOM     11  H   UNL     1      16.214  13.882  19.514  1.00  0.00     0.293 HD
ENDBRANCH   2  10
TORSDOF 2
ENDMDL
MODEL 6
REMARK VINA RESULT:    -3.985      2.968      3.563
REMARK INTER + INTRA:          -4.584
REMARK INTER:                  -4.373
REMARK INTRA:                  -0.211
REMARK UNBOUND:                -0.250
REMARK SMILES O=C([O-])c1ccccc1O
REMARK SMILES IDX 4 1 9 2 5 3 8 4 6 5 7 6 2 7 1 8 3 9 10 10
REMARK H PARENT 10 11
REMARK Flexibility Score: inf
ROOT
ATOM      1  C   UNL     1      16.909  16.039  17.394  1.00  0.00     0.039 A 
ATOM      2  C   UNL     1      16.732  17.350  16.888  1.00  0.00     0.124 A 
ATOM      3  C   UNL     1      15.965  15.532  18.308  1.00  0.00     0.014 A 
ATOM      4  C   UNL     1      15.631  18.116  17.301  1.00  0.00     0.047 A 
ATOM      5  C   UNL     1      14.874  16.307  18.711  1.00  0.00     0.001 A 
ATOM      6  C   UNL     1      14.707  17.596  18.208  1.00  0.00     0.004 A 
ENDROOT
BRANCH   1   7
ATOM      7  C   UNL     1      18.055  15.188  16.989  1.00  0.00     0.075 C 
ATOM      8  O   UNL     1      19.235  15.495  17.304  1.00  0.00    -0.545 OA
ATOM      9  O   UNL     1      17.842  14.030  16.248  1.00  0.00    -0.545 OA
ENDBRANCH   1   7
BRANCH   2  10
ATOM     10  O   UNL     1      17.640  17.892  15.980  1.00  0.00    -0.507 OA
ATOM     11  H   UNL     1      18.167  17.309  15.340  1.00  0.00     0.293 HD
ENDBRANCH   2  10
TORSDOF 2
ENDMDL
MODEL 7
REMARK VINA RESULT:    -3.912      2.294      3.064
REMARK INTER + INTRA:          -4.504
REMARK INTER:                  -4.285
REMARK INTRA:                  -0.220
REMARK UNBOUND:                -0.250
REMARK SMILES O=C([O-])c1ccccc1O
REMARK SMILES IDX 4 1 9 2 5 3 8 4 6 5 7 6 2 7 1 8 3 9 10 10
REMARK H PARENT 10 11
REMARK Flexibility Score: inf
ROOT
ATOM      1  C   UNL     1      16.472  15.406  18.034  1.00  0.00     0.039 A 
ATOM      2  C   UNL     1      15.538  16.421  18.352  1.00  0.00     0.124 A 
ATOM      3  C   UNL     1      16.779  14.436  19.010  1.00  0.00     0.014 A 
ATOM      4  C   UNL     1      14.939  16.449  19.621  1.00  0.00     0.047 A 
ATOM      5  C   UNL     1      16.174  14.476  20.269  1.00  0.00     0.001 A 
ATOM      6  C   UNL     1      15.257  15.480  20.574  1.00  0.00     0.004 A 
ENDROOT
BRANCH   1   7
ATOM      7  C   UNL     1      17.133  15.333  16.707  1.00  0.00     0.075 C 
ATOM      8  O   UNL     1      17.313  16.368  16.013  1.00  0.00    -0.545 OA
ATOM      9  O   UNL     1      17.568  14.110  16.206  1.00  0.00    -0.545 OA
ENDBRANCH   1   7
BRANCH   2  10
ATOM     10  O   UNL     1      15.204  17.401  17.418  1.00  0.00    -0.507 OA
ATOM     11  H   UNL     1      15.346  17.260  16.424  1.00  0.00     0.293 HD
ENDBRANCH   2  10
TORSDOF 2
ENDMDL
MODEL 8
REMARK VINA RESULT:    -3.900     17.393     18.623
REMARK INTER + INTRA:          -4.492
REMARK INTER:                  -4.243
REMARK INTRA:                  -0.249
REMARK UNBOUND:                -0.250
REMARK SMILES O=C([O-])c1ccccc1O
REMARK SMILES IDX 4 1 9 2 5 3 8 4 6 5 7 6 2 7 1 8 3 9 10 10
REMARK H PARENT 10 11
REMARK Flexibility Score: inf
ROOT
ATOM      1  C   UNL     1       2.949  16.548   5.068  1.00  0.00     0.039 A 
ATOM      2  C   UNL     1       2.834  16.153   6.423  1.00  0.00     0.124 A 
ATOM      3  C   UNL     1       2.832  17.915   4.748  1.00  0.00     0.014 A 
ATOM      4  C   UNL     1       2.606  17.117   7.416  1.00  0.00     0.047 A 
ATOM      5  C   UNL     1       2.606  18.865   5.748  1.00  0.00     0.001 A 
ATOM      6  C   UNL     1       2.493  18.467   7.079  1.00  0.00     0.004 A 
ENDROOT
BRANCH   1   7
ATOM      7  C   UNL     1       3.190  15.568   3.980  1.00  0.00     0.075 C 
ATOM      8  O   UNL     1       2.564  14.475   3.940  1.00  0.00    -0.545 OA
ATOM      9  O   UNL     1       4.118  15.842   2.981  1.00  0.00    -0.545 OA
ENDBRANCH   1   7
BRANCH   2  10
ATOM     10  O   UNL     1       2.944  14.811   6.786  1.00  0.00    -0.507 OA
ATOM     11  H   UNL     1       2.213  14.337   7.304  1.00  0.00     0.293 HD
ENDBRANCH   2  10
TORSDOF 2
ENDMDL
MODEL 9
REMARK VINA RESULT:    -3.866      2.138      3.519
REMARK INTER + INTRA:          -4.454
REMARK INTER:                  -4.207
REMARK INTRA:                  -0.247
REMARK UNBOUND:                -0.250
REMARK SMILES O=C([O-])c1ccccc1O
REMARK SMILES IDX 4 1 9 2 5 3 8 4 6 5 7 6 2 7 1 8 3 9 10 10
REMARK H PARENT 10 11
REMARK Flexibility Score: inf
ROOT
ATOM      1  C   UNL     1      15.645  16.724  18.490  1.00  0.00     0.039 A 
ATOM      2  C   UNL     1      16.035  15.384  18.253  1.00  0.00     0.124 A 
ATOM      3  C   UNL     1      15.256  17.097  19.791  1.00  0.00     0.014 A 
ATOM      4  C   UNL     1      16.028  14.456  19.306  1.00  0.00     0.047 A 
ATOM      5  C   UNL     1      15.253  16.163  20.830  1.00  0.00     0.001 A 
ATOM      6  C   UNL     1      15.638  14.845  20.588  1.00  0.00     0.004 A 
ENDROOT
BRANCH   1   7
ATOM      7  C   UNL     1      15.636  17.743  17.410  1.00  0.00     0.075 C 
ATOM      8  O   UNL     1      16.661  17.957  16.710  1.00  0.00    -0.545 OA
ATOM      9  O   UNL     1      14.487  18.483  17.155  1.00  0.00    -0.545 OA
ENDBRANCH   1   7
BRANCH   2  10
ATOM     10  O   UNL     1      16.429  14.970  16.981  1.00  0.00    -0.507 OA
ATOM     11  H   UNL     1      17.403  14.806  16.751  1.00  0.00     0.293 HD
ENDBRANCH   2  10
TORSDOF 2
ENDMDL
