MODEL 1
REMARK VINA RESULT:    -3.145      0.000      0.000
REMARK INTER + INTRA:          -4.833
REMARK INTER:                  -4.525
REMARK INTRA:                  -0.308
REMARK UNBOUND:                -0.308
REMARK SMILES CCCCCCCCCO
REMARK SMILES IDX 6 1 5 2 4 3 3 4 2 5 1 6 7 7 8 8 9 9 10 10
REMARK H PARENT 10 11
REMARK Flexibility Score: inf
ROOT
ATOM      1  C   UNL     1      -1.311   6.849   0.103  1.00  0.00     0.000 C 
ENDROOT
BRANCH   1   2
ATOM      2  C   UNL     1      -1.074   8.339  -0.172  1.00  0.00     0.000 C 
BRANCH   2   3
ATOM      3  C   UNL     1      -0.044   8.922   0.806  1.00  0.00    -0.000 C 
BRANCH   3   4
ATOM      4  C   UNL     1      -0.100   8.265   2.197  1.00  0.00    -0.000 C 
BRANCH   4   5
ATOM      5  C   UNL     1      -0.697   9.149   3.306  1.00  0.00    -0.003 C 
ATOM      6  C   UNL     1      -2.084   8.693   3.753  1.00  0.00     0.004 C 
ENDBRANCH   4   5
ENDBRANCH   3   4
ENDBRANCH   2   3
ENDBRANCH   1   2
BRANCH   1   7
ATOM      7  C   UNL     1      -1.843   6.136  -1.149  1.00  0.00     0.002 C 
BRANCH   7   8
ATOM      8  C   UNL     1      -1.564   4.624  -1.134  1.00  0.00     0.028 C 
BRANCH   8   9
ATOM      9  C   UNL     1      -1.498   4.019  -2.538  1.00  0.00     0.156 C 
BRANCH   9  10
ATOM     10  O   UNL     1      -1.799   2.652  -2.469  1.00  0.00    -0.396 OA
ATOM     11  H   UNL     1      -0.928   2.179  -2.453  1.00  0.00     0.210 HD
ENDBRANCH   9  10
ENDBRANCH   8   9
ENDBRANCH   7   8
ENDBRANCH   1   7
TORSDOF 8
ENDMDL
MODEL 2
REMARK VINA RESULT:    -3.144      1.079      1.789
REMARK INTER + INTRA:          -4.830
REMARK INTER:                  -4.556
REMARK INTRA:                  -0.274
REMARK UNBOUND:                -0.308
REMARK SMILES CCCCCCCCCO
REMARK SMILES IDX 6 1 5 2 4 3 3 4 2 5 1 6 7 7 8 8 9 9 10 10
REMARK H PARENT 10 11
REMARK Flexibility Score: inf
ROOT
ATOM      1  C   UNL     1      -2.392   6.121  -1.392  1.00  0.00     0.000 C 
ENDROOT
BRANCH   1   2
ATOM      2  C   UNL     1      -2.065   7.369  -0.562  1.00  0.00     0.000 C 
BRANCH   2   3
ATOM      3  C   UNL     1      -1.121   7.025   0.600  1.00  0.00    -0.000 C 
BRANCH   3   4
ATOM      4  C   UNL     1      -1.401   7.855   1.865  1.00  0.00    -0.000 C 
BRANCH   4   5
ATOM      5  C   UNL     1      -0.157   8.488   2.512  1.00  0.00    -0.003 C 
ATOM      6  C   UNL     1       0.636   9.369   1.548  1.00  0.00     0.004 C 
ENDBRANCH   4   5
ENDBRANCH   3   4
ENDBRANCH   2   3
ENDBRANCH   1   2
BRANCH   1   7
ATOM      7  C   UNL     1      -1.554   4.918  -0.933  1.00  0.00     0.002 C 
BRANCH   7   8
ATOM      8  C   UNL     1      -1.139   4.006  -2.098  1.00  0.00     0.028 C 
BRANCH   8   9
ATOM      9  C   UNL     1      -2.317   3.614  -2.993  1.00  0.00     0.156 C 
BRANCH   9  10
ATOM     10  O   UNL     1      -2.280   2.234  -3.231  1.00  0.00    -0.396 OA
ATOM     11  H   UNL     1      -2.298   1.800  -2.339  1.00  0.00     0.210 HD
ENDBRANCH   9  10
ENDBRANCH   8   9
ENDBRANCH   7   8
ENDBRANCH   1   7
TORSDOF 8
ENDMDL
MODEL 3
REMARK VINA RESULT:    -2.970      8.100      9.042
REMARK INTER + INTRA:          -4.580
REMARK INTER:                  -4.152
REMARK INTRA:                  -0.428
REMARK UNBOUND:                -0.308
REMARK SMILES CCCCCCCCCO
REMARK SMILES IDX 6 1 5 2 4 3 3 4 2 5 1 6 7 7 8 8 9 9 10 10
REMARK H PARENT 10 11
REMARK Flexibility Score: inf
ROOT
ATOM      1  C   UNL     1       6.734   3.665  -2.395  1.00  0.00     0.000 C 
ENDROOT
BRANCH   1   2
ATOM      2  C   UNL     1       5.437   3.468  -1.598  1.00  0.00     0.000 C 
BRANCH   2   3
ATOM      3  C   UNL     1       5.718   3.432  -0.090  1.00  0.00    -0.000 C 
BRANCH   3   4
ATOM      4  C   UNL     1       7.150   2.971   0.242  1.00  0.00    -0.000 C 
BRANCH   4   5
ATOM      5  C   UNL     1       7.237   1.666   1.053  1.00  0.00    -0.003 C 
ATOM      6  C   UNL     1       6.724   0.449   0.286  1.00  0.00     0.004 C 
ENDBRANCH   4   5
ENDBRANCH   3   4
ENDBRANCH   2   3
ENDBRANCH   1   2
BRANCH   1   7
ATOM      7  C   UNL     1       6.571   4.770  -3.449  1.00  0.00     0.002 C 
BRANCH   7   8
ATOM      8  C   UNL     1       5.370   5.687  -3.165  1.00  0.00     0.028 C 
BRANCH   8   9
ATOM      9  C   UNL     1       4.517   5.949  -4.408  1.00  0.00     0.156 C 
BRANCH   9  10
ATOM     10  O   UNL     1       4.309   7.328  -4.546  1.00  0.00    -0.396 OA
ATOM     11  H   UNL     1       3.533   7.430  -5.155  1.00  0.00     0.210 HD
ENDBRANCH   9  10
ENDBRANCH   8   9
ENDBRANCH   7   8
ENDBRANCH   1   7
TORSDOF 8
ENDMDL
MODEL 4
REMARK VINA RESULT:    -2.949      8.822      9.749
REMARK INTER + INTRA:          -4.550
REMARK INTER:                  -4.012
REMARK INTRA:                  -0.538
REMARK UNBOUND:                -0.308
REMARK SMILES CCCCCCCCCO
REMARK SMILES IDX 6 1 5 2 4 3 3 4 2 5 1 6 7 7 8 8 9 9 10 10
REMARK H PARENT 10 11
REMARK Flexibility Score: inf
ROOT
ATOM      1  C   UNL     1       5.147   3.101  -0.577  1.00  0.00     0.000 C 
ENDROOT
BRANCH   1   2
ATOM      2  C   UNL     1       6.338   3.329   0.363  1.00  0.00     0.000 C 
BRANCH   2   3
ATOM      3  C   UNL     1       7.073   2.012   0.648  1.00  0.00    -0.000 C 
BRANCH   3   4
ATOM      4  C   UNL     1       8.596   2.120   0.447  1.00  0.00    -0.000 C 
BRANCH   4   5
ATOM      5  C   UNL     1       9.052   2.161  -1.023  1.00  0.00    -0.003 C 
ATOM      6  C   UNL     1       9.537   3.541  -1.461  1.00  0.00     0.004 C 
ENDBRANCH   4   5
ENDBRANCH   3   4
ENDBRANCH   2   3
ENDBRANCH   1   2
BRANCH   1   7
ATOM      7  C   UNL     1       5.624   2.762  -1.997  1.00  0.00     0.002 C 
BRANCH   7   8
ATOM      8  C   UNL     1       5.179   3.803  -3.037  1.00  0.00     0.028 C 
BRANCH   8   9
ATOM      9  C   UNL     1       6.244   4.869  -3.302  1.00  0.00     0.156 C 
BRANCH   9  10
ATOM     10  O   UNL     1       5.704   6.137  -3.053  1.00  0.00    -0.396 OA
ATOM     11  H   UNL     1       4.907   5.990  -2.481  1.00  0.00     0.210 HD
ENDBRANCH   9  10
ENDBRANCH   8   9
ENDBRANCH   7   8
ENDBRANCH   1   7
TORSDOF 8
ENDMDL
MODEL 5
REMARK VINA RESULT:    -2.930      8.004      9.574
REMARK INTER + INTRA:          -4.523
REMARK INTER:                  -3.809
REMARK INTRA:                  -0.714
REMARK UNBOUND:                -0.308
REMARK SMILES CCCCCCCCCO
REMARK SMILES IDX 6 1 5 2 4 3 3 4 2 5 1 6 7 7 8 8 9 9 10 10
REMARK H PARENT 10 11
REMARK Flexibility Score: inf
ROOT
ATOM      1  C   UNL     1       5.583   3.578  -0.312  1.00  0.00     0.000 C 
ENDROOT
BRANCH   1   2
ATOM      2  C   UNL     1       6.561   2.812   0.589  1.00  0.00     0.000 C 
BRANCH   2   3
ATOM      3  C   UNL     1       6.883   1.431   0.002  1.00  0.00    -0.000 C 
BRANCH   3   4
ATOM      4  C   UNL     1       5.628   0.568  -0.222  1.00  0.00    -0.000 C 
BRANCH   4   5
ATOM      5  C   UNL     1       5.437   0.066  -1.664  1.00  0.00    -0.003 C 
ATOM      6  C   UNL     1       6.688   0.229  -2.525  1.00  0.00     0.004 C 
ENDBRANCH   4   5
ENDBRANCH   3   4
ENDBRANCH   2   3
ENDBRANCH   1   2
BRANCH   1   7
ATOM      7  C   UNL     1       6.207   3.861  -1.686  1.00  0.00     0.002 C 
BRANCH   7   8
ATOM      8  C   UNL     1       5.185   3.771  -2.831  1.00  0.00     0.028 C 
BRANCH   8   9
ATOM      9  C   UNL     1       4.945   5.117  -3.519  1.00  0.00     0.156 C 
BRANCH   9  10
ATOM     10  O   UNL     1       5.834   6.068  -3.002  1.00  0.00    -0.396 OA
ATOM     11  H   UNL     1       5.314   6.606  -2.352  1.00  0.00     0.210 HD
ENDBRANCH   9  10
ENDBRANCH   8   9
ENDBRANCH   7   8
ENDBRANCH   1   7
TORSDOF 8
ENDMDL
MODEL 6
REMARK VINA RESULT:    -2.911      2.700      5.473
REMARK INTER + INTRA:          -4.495
REMARK INTER:                  -3.986
REMARK INTRA:                  -0.509
REMARK UNBOUND:                -0.308
REMARK SMILES CCCCCCCCCO
REMARK SMILES IDX 6 1 5 2 4 3 3 4 2 5 1 6 7 7 8 8 9 9 10 10
REMARK H PARENT 10 11
REMARK Flexibility Score: inf
ROOT
ATOM      1  C   UNL     1      -1.165   8.061   0.210  1.00  0.00     0.000 C 
ENDROOT
BRANCH   1   2
ATOM      2  C   UNL     1      -2.691   8.047   0.058  1.00  0.00     0.000 C 
BRANCH   2   3
ATOM      3  C   UNL     1      -3.120   7.137  -1.102  1.00  0.00    -0.000 C 
BRANCH   3   4
ATOM      4  C   UNL     1      -1.927   6.579  -1.898  1.00  0.00    -0.000 C 
BRANCH   4   5
ATOM      5  C   UNL     1      -2.000   5.071  -2.200  1.00  0.00    -0.003 C 
ATOM      6  C   UNL     1      -1.364   4.211  -1.110  1.00  0.00     0.004 C 
ENDBRANCH   4   5
ENDBRANCH   3   4
ENDBRANCH   2   3
ENDBRANCH   1   2
BRANCH   1   7
ATOM      7  C   UNL     1      -0.739   7.433   1.545  1.00  0.00     0.002 C 
BRANCH   7   8
ATOM      8  C   UNL     1      -0.369   8.484   2.604  1.00  0.00     0.028 C 
BRANCH   8   9
ATOM      9  C   UNL     1      -1.486   8.715   3.625  1.00  0.00     0.156 C 
BRANCH   9  10
ATOM     10  O   UNL     1      -2.270   7.559   3.724  1.00  0.00    -0.396 OA
ATOM     11  H   UNL     1      -2.461   7.275   2.794  1.00  0.00     0.210 HD
ENDBRANCH   9  10
ENDBRANCH   8   9
ENDBRANCH   7   8
ENDBRANCH   1   7
TORSDOF 8
ENDMDL
MODEL 7
REMARK VINA RESULT:    -2.906      2.936      5.716
REMARK INTER + INTRA:          -4.489
REMARK INTER:                  -4.046
REMARK INTRA:                  -0.443
REMARK UNBOUND:                -0.308
REMARK SMILES CCCCCCCCCO
REMARK SMILES IDX 6 1 5 2 4 3 3 4 2 5 1 6 7 7 8 8 9 9 10 10
REMARK H PARENT 10 11
REMARK Flexibility Score: inf
ROOT
ATOM      1  C   UNL     1      -1.754   6.705  -1.333  1.00  0.00     0.000 C 
ENDROOT
BRANCH   1   2
ATOM      2  C   UNL     1      -1.336   5.378  -0.687  1.00  0.00     0.000 C 
BRANCH   2   3
ATOM      3  C   UNL     1      -1.814   4.184  -1.525  1.00  0.00    -0.000 C 
BRANCH   3   4
ATOM      4  C   UNL     1      -2.762   4.594  -2.667  1.00  0.00    -0.000 C 
BRANCH   4   5
ATOM      5  C   UNL     1      -4.212   4.105  -2.510  1.00  0.00    -0.003 C 
ATOM      6  C   UNL     1      -5.038   4.974  -1.564  1.00  0.00     0.004 C 
ENDBRANCH   4   5
ENDBRANCH   3   4
ENDBRANCH   2   3
ENDBRANCH   1   2
BRANCH   1   7
ATOM      7  C   UNL     1      -1.524   7.882  -0.373  1.00  0.00     0.002 C 
BRANCH   7   8
ATOM      8  C   UNL     1      -1.223   7.424   1.063  1.00  0.00     0.028 C 
BRANCH   8   9
ATOM      9  C   UNL     1      -0.302   8.390   1.813  1.00  0.00     0.156 C 
BRANCH   9  10
ATOM     10  O   UNL     1      -0.077   7.905   3.108  1.00  0.00    -0.396 OA
ATOM     11  H   UNL     1       0.720   8.387   3.448  1.00  0.00     0.210 HD
ENDBRANCH   9  10
ENDBRANCH   8   9
ENDBRANCH   7   8
ENDBRANCH   1   7
TORSDOF 8
ENDMDL
MODEL 8
REMARK VINA RESULT:    -2.902      9.131     10.172
REMARK INTER + INTRA:          -4.483
REMARK INTER:                  -3.864
REMARK INTRA:                  -0.619
REMARK UNBOUND:                -0.308
REMARK SMILES CCCCCCCCCO
REMARK SMILES IDX 6 1 5 2 4 3 3 4 2 5 1 6 7 7 8 8 9 9 10 10
REMARK H PARENT 10 11
REMARK Flexibility Score: inf
ROOT
ATOM      1  C   UNL     1       5.626   3.384  -0.020  1.00  0.00     0.000 C 
ENDROOT
BRANCH   1   2
ATOM      2  C   UNL     1       5.658   2.903  -1.477  1.00  0.00     0.000 C 
BRANCH   2   3
ATOM      3  C   UNL     1       5.680   4.092  -2.447  1.00  0.00    -0.000 C 
BRANCH   3   4
ATOM      4  C   UNL     1       7.077   4.359  -3.037  1.00  0.00    -0.000 C 
BRANCH   4   5
ATOM      5  C   UNL     1       8.147   3.318  -2.662  1.00  0.00    -0.003 C 
ATOM      6  C   UNL     1       9.271   3.897  -1.805  1.00  0.00     0.004 C 
ENDBRANCH   4   5
ENDBRANCH   3   4
ENDBRANCH   2   3
ENDBRANCH   1   2
BRANCH   1   7
ATOM      7  C   UNL     1       6.746   2.728   0.801  1.00  0.00     0.002 C 
BRANCH   7   8
ATOM      8  C   UNL     1       6.906   1.230   0.494  1.00  0.00     0.028 C 
BRANCH   8   9
ATOM      9  C   UNL     1       7.823   0.515   1.490  1.00  0.00     0.156 C 
BRANCH   9  10
ATOM     10  O   UNL     1       7.613  -0.867   1.404  1.00  0.00    -0.396 OA
ATOM     11  H   UNL     1       6.668  -1.019   1.664  1.00  0.00     0.210 HD
ENDBRANCH   9  10
ENDBRANCH   8   9
ENDBRANCH   7   8
ENDBRANCH   1   7
TORSDOF 8
ENDMDL
MODEL 9
REMARK VINA RESULT:    -2.876      9.103     10.014
REMARK INTER + INTRA:          -4.445
REMARK INTER:                  -3.703
REMARK INTRA:                  -0.741
REMARK UNBOUND:                -0.308
REMARK SMILES CCCCCCCCCO
REMARK SMILES IDX 6 1 5 2 4 3 3 4 2 5 1 6 7 7 8 8 9 9 10 10
REMARK H PARENT 10 11
REMARK Flexibility Score: inf
ROOT
ATOM      1  C   UNL     1       5.554   2.713  -1.771  1.00  0.00     0.000 C 
ENDROOT
BRANCH   1   2
ATOM      2  C   UNL     1       5.220   2.807  -0.276  1.00  0.00     0.000 C 
BRANCH   2   3
ATOM      3  C   UNL     1       6.418   3.340   0.523  1.00  0.00    -0.000 C 
BRANCH   3   4
ATOM      4  C   UNL     1       7.294   2.218   1.109  1.00  0.00    -0.000 C 
BRANCH   4   5
ATOM      5  C   UNL     1       8.624   1.983   0.371  1.00  0.00    -0.003 C 
ATOM      6  C   UNL     1       8.559   0.831  -0.630  1.00  0.00     0.004 C 
ENDBRANCH   4   5
ENDBRANCH   3   4
ENDBRANCH   2   3
ENDBRANCH   1   2
BRANCH   1   7
ATOM      7  C   UNL     1       5.979   4.080  -2.327  1.00  0.00     0.002 C 
BRANCH   7   8
ATOM      8  C   UNL     1       6.981   3.963  -3.486  1.00  0.00     0.028 C 
BRANCH   8   9
ATOM      9  C   UNL     1       8.424   3.789  -3.007  1.00  0.00     0.156 C 
BRANCH   9  10
ATOM     10  O   UNL     1       8.660   4.646  -1.924  1.00  0.00    -0.396 OA
ATOM     11  H   UNL     1       9.645   4.733  -1.850  1.00  0.00     0.210 HD
ENDBRANCH   9  10
ENDBRANCH   8   9
ENDBRANCH   7   8
ENDBRANCH   1   7
TORSDOF 8
ENDMDL
