MODEL 1
REMARK VINA RESULT:    24.691      0.000      0.000
REMARK INTER + INTRA:          28.757
REMARK INTER:                  29.021
REMARK INTRA:                  -0.264
REMARK UNBOUND:                -0.264
REMARK SMILES O=c1cc(-c2ccc(O)c(O)c2)oc2cc(O)cc(O)c12
REMARK SMILES IDX 4 1 3 2 2 3 1 4 21 5 19 6 18 7 16 8 15 9 14 10 13 11 5 12
REMARK SMILES IDX 6 13 7 14 8 15 12 16 10 17 9 18 11 20 20 22 17 24
REMARK H PARENT 9 19 11 21 20 23 17 25
REMARK Flexibility Score: inf
ROOT
ATOM      1  C   UNL     1      29.124  33.367  48.603  1.00  0.00     0.138 A 
ATOM      2  C   UNL     1      28.240  33.139  47.536  1.00  0.00     0.100 A 
ATOM      3  C   UNL     1      27.938  31.828  47.163  1.00  0.00     0.197 A 
ATOM      4  O   UNL     1      27.145  31.633  46.203  1.00  0.00    -0.289 OA
ATOM      5  C   UNL     1      28.527  30.753  47.859  1.00  0.00     0.107 A 
ATOM      6  C   UNL     1      28.275  29.397  47.546  1.00  0.00     0.134 A 
ATOM      7  C   UNL     1      28.907  28.384  48.284  1.00  0.00     0.093 A 
ATOM      8  C   UNL     1      29.784  28.704  49.327  1.00  0.00     0.123 A 
ATOM      9  C   UNL     1      30.036  30.042  49.638  1.00  0.00     0.094 A 
ATOM     10  C   UNL     1      29.416  31.065  48.916  1.00  0.00     0.146 A 
ATOM     11  O   UNL     1      29.671  32.330  49.233  1.00  0.00    -0.456 OA
ENDROOT
BRANCH   1  12
ATOM     12  C   UNL     1      29.482  34.739  49.043  1.00  0.00     0.021 A 
ATOM     13  C   UNL     1      30.803  35.221  48.965  1.00  0.00     0.016 A 
ATOM     14  C   UNL     1      31.108  36.520  49.378  1.00  0.00     0.051 A 
ATOM     15  C   UNL     1      30.103  37.362  49.869  1.00  0.00     0.157 A 
ATOM     16  C   UNL     1      28.475  35.595  49.525  1.00  0.00     0.062 A 
ATOM     17  C   UNL     1      28.780  36.897  49.940  1.00  0.00     0.158 A 
BRANCH  15  18
ATOM     18  O   UNL     1      30.412  38.658  50.282  1.00  0.00    -0.504 OA
ATOM     19  H   UNL     1      30.136  39.002  51.195  1.00  0.00     0.293 HD
ENDBRANCH  15  18
BRANCH  17  20
ATOM     20  O   UNL     1      27.755  37.712  50.421  1.00  0.00    -0.504 OA
ATOM     21  H   UNL     1      27.134  38.217  49.802  1.00  0.00     0.293 HD
ENDBRANCH  17  20
ENDBRANCH   1  12
BRANCH   6  22
ATOM     22  O   UNL     1      27.406  29.049  46.511  1.00  0.00    -0.507 OA
ATOM     23  H   UNL     1      26.401  29.141  46.606  1.00  0.00     0.293 HD
ENDBRANCH   6  22
BRANCH   8  24
ATOM     24  O   UNL     1      30.411  27.699  50.059  1.00  0.00    -0.508 OA
ATOM     25  H   UNL     1      30.622  26.796  49.648  1.00  0.00     0.293 HD
ENDBRANCH   8  24
TORSDOF 5
ENDMDL
MODEL 2
REMARK VINA RESULT:    24.802      1.136      2.631
REMARK INTER + INTRA:          28.888
REMARK INTER:                  29.157
REMARK INTRA:                  -0.269
REMARK UNBOUND:                -0.264
REMARK SMILES O=c1cc(-c2ccc(O)c(O)c2)oc2cc(O)cc(O)c12
REMARK SMILES IDX 4 1 3 2 2 3 1 4 21 5 19 6 18 7 16 8 15 9 14 10 13 11 5 12
REMARK SMILES IDX 6 13 7 14 8 15 12 16 10 17 9 18 11 20 20 22 17 24
REMARK H PARENT 9 19 11 21 20 23 17 25
REMARK Flexibility Score: inf
ROOT
ATOM      1  C   UNL     1      29.398  33.412  49.188  1.00  0.00     0.138 A 
ATOM      2  C   UNL     1      29.774  32.446  50.135  1.00  0.00     0.100 A 
ATOM      3  C   UNL     1      29.489  31.101  49.894  1.00  0.00     0.197 A 
ATOM      4  O   UNL     1      29.829  30.241  50.751  1.00  0.00    -0.289 OA
ATOM      5  C   UNL     1      28.827  30.732  48.705  1.00  0.00     0.107 A 
ATOM      6  C   UNL     1      28.503  29.393  48.383  1.00  0.00     0.134 A 
ATOM      7  C   UNL     1      27.837  29.109  47.181  1.00  0.00     0.093 A 
ATOM      8  C   UNL     1      27.490  30.139  46.298  1.00  0.00     0.123 A 
ATOM      9  C   UNL     1      27.808  31.461  46.613  1.00  0.00     0.094 A 
ATOM     10  C   UNL     1      28.473  31.765  47.805  1.00  0.00     0.146 A 
ATOM     11  O   UNL     1      28.766  33.031  48.080  1.00  0.00    -0.456 OA
ENDROOT
BRANCH   1  12
ATOM     12  C   UNL     1      29.674  34.857  49.391  1.00  0.00     0.021 A 
ATOM     13  C   UNL     1      30.962  35.397  49.211  1.00  0.00     0.016 A 
ATOM     14  C   UNL     1      31.191  36.762  49.400  1.00  0.00     0.051 A 
ATOM     15  C   UNL     1      30.139  37.612  49.764  1.00  0.00     0.157 A 
ATOM     16  C   UNL     1      28.620  35.719  49.743  1.00  0.00     0.062 A 
ATOM     17  C   UNL     1      28.847  37.087  49.934  1.00  0.00     0.158 A 
BRANCH  15  18
ATOM     18  O   UNL     1      30.371  38.974  49.953  1.00  0.00    -0.504 OA
ATOM     19  H   UNL     1      31.168  39.307  50.484  1.00  0.00     0.293 HD
ENDBRANCH  15  18
BRANCH  17  20
ATOM     20  O   UNL     1      27.778  37.908  50.292  1.00  0.00    -0.504 OA
ATOM     21  H   UNL     1      27.214  38.388  49.603  1.00  0.00     0.293 HD
ENDBRANCH  17  20
ENDBRANCH   1  12
BRANCH   6  22
ATOM     22  O   UNL     1      28.835  28.347  49.245  1.00  0.00    -0.507 OA
ATOM     23  H   UNL     1      28.274  28.129  50.061  1.00  0.00     0.293 HD
ENDBRANCH   6  22
BRANCH   8  24
ATOM     24  O   UNL     1      26.828  29.857  45.106  1.00  0.00    -0.508 OA
ATOM     25  H   UNL     1      26.144  30.494  44.715  1.00  0.00     0.293 HD
ENDBRANCH   8  24
TORSDOF 5
ENDMDL
MODEL 3
REMARK VINA RESULT:    25.207     10.199     11.292
REMARK INTER + INTRA:          29.363
REMARK INTER:                  29.656
REMARK INTRA:                  -0.293
REMARK UNBOUND:                -0.264
REMARK SMILES O=c1cc(-c2ccc(O)c(O)c2)oc2cc(O)cc(O)c12
REMARK SMILES IDX 4 1 3 2 2 3 1 4 21 5 19 6 18 7 16 8 15 9 14 10 13 11 5 12
REMARK SMILES IDX 6 13 7 14 8 15 12 16 10 17 9 18 11 20 20 22 17 24
REMARK H PARENT 9 19 11 21 20 23 17 25
REMARK Flexibility Score: inf
ROOT
ATOM      1  C   UNL     1      28.281  23.422  45.738  1.00  0.00     0.138 A 
ATOM      2  C   UNL     1      27.961  22.714  46.908  1.00  0.00     0.100 A 
ATOM      3  C   UNL     1      26.621  22.510  47.243  1.00  0.00     0.197 A 
ATOM      4  O   UNL     1      26.344  21.875  48.295  1.00  0.00    -0.289 OA
ATOM      5  C   UNL     1      25.609  23.021  46.404  1.00  0.00     0.107 A 
ATOM      6  C   UNL     1      24.229  22.858  46.670  1.00  0.00     0.134 A 
ATOM      7  C   UNL     1      23.283  23.402  45.787  1.00  0.00     0.093 A 
ATOM      8  C   UNL     1      23.692  24.104  44.647  1.00  0.00     0.123 A 
ATOM      9  C   UNL     1      25.054  24.267  44.382  1.00  0.00     0.094 A 
ATOM     10  C   UNL     1      26.012  23.732  45.248  1.00  0.00     0.146 A 
ATOM     11  O   UNL     1      27.301  23.899  44.973  1.00  0.00    -0.456 OA
ENDROOT
BRANCH   1  12
ATOM     12  C   UNL     1      29.687  23.669  45.332  1.00  0.00     0.021 A 
ATOM     13  C   UNL     1      30.017  24.613  44.341  1.00  0.00     0.016 A 
ATOM     14  C   UNL     1      31.350  24.832  43.986  1.00  0.00     0.051 A 
ATOM     15  C   UNL     1      32.377  24.119  44.618  1.00  0.00     0.157 A 
ATOM     16  C   UNL     1      30.725  22.968  45.972  1.00  0.00     0.062 A 
ATOM     17  C   UNL     1      32.062  23.185  45.617  1.00  0.00     0.158 A 
BRANCH  15  18
ATOM     18  O   UNL     1      33.707  24.339  44.260  1.00  0.00    -0.504 OA
ATOM     19  H   UNL     1      34.037  24.167  43.317  1.00  0.00     0.293 HD
ENDBRANCH  15  18
BRANCH  17  20
ATOM     20  O   UNL     1      33.061  22.462  46.268  1.00  0.00    -0.504 OA
ATOM     21  H   UNL     1      33.425  22.740  47.171  1.00  0.00     0.293 HD
ENDBRANCH  17  20
ENDBRANCH   1  12
BRANCH   6  22
ATOM     22  O   UNL     1      23.792  22.164  47.798  1.00  0.00    -0.507 OA
ATOM     23  H   UNL     1      22.879  22.331  48.207  1.00  0.00     0.293 HD
ENDBRANCH   6  22
BRANCH   8  24
ATOM     24  O   UNL     1      22.753  24.644  43.772  1.00  0.00    -0.508 OA
ATOM     25  H   UNL     1      22.010  25.250  44.099  1.00  0.00     0.293 HD
ENDBRANCH   8  24
TORSDOF 5
ENDMDL
MODEL 4
REMARK VINA RESULT:    25.543      1.461      7.328
REMARK INTER + INTRA:          29.758
REMARK INTER:                  30.025
REMARK INTRA:                  -0.266
REMARK UNBOUND:                -0.264
REMARK SMILES O=c1cc(-c2ccc(O)c(O)c2)oc2cc(O)cc(O)c12
REMARK SMILES IDX 4 1 3 2 2 3 1 4 21 5 19 6 18 7 16 8 15 9 14 10 13 11 5 12
REMARK SMILES IDX 6 13 7 14 8 15 12 16 10 17 9 18 11 20 20 22 17 24
REMARK H PARENT 9 19 11 21 20 23 17 25
REMARK Flexibility Score: inf
ROOT
ATOM      1  C   UNL     1      29.284  33.774  49.205  1.00  0.00     0.138 A 
ATOM      2  C   UNL     1      30.522  34.421  49.058  1.00  0.00     0.100 A 
ATOM      3  C   UNL     1      30.611  35.794  49.290  1.00  0.00     0.197 A 
ATOM      4  O   UNL     1      31.726  36.366  49.153  1.00  0.00    -0.289 OA
ATOM      5  C   UNL     1      29.458  36.513  49.665  1.00  0.00     0.107 A 
ATOM      6  C   UNL     1      29.462  37.905  49.919  1.00  0.00     0.134 A 
ATOM      7  C   UNL     1      28.269  38.548  50.283  1.00  0.00     0.093 A 
ATOM      8  C   UNL     1      27.075  37.825  50.396  1.00  0.00     0.123 A 
ATOM      9  C   UNL     1      27.068  36.451  50.145  1.00  0.00     0.094 A 
ATOM     10  C   UNL     1      28.246  35.792  49.783  1.00  0.00     0.146 A 
ATOM     11  O   UNL     1      28.212  34.484  49.551  1.00  0.00    -0.456 OA
ENDROOT
BRANCH   1  12
ATOM     12  C   UNL     1      29.129  32.316  48.972  1.00  0.00     0.021 A 
ATOM     13  C   UNL     1      29.456  31.369  49.961  1.00  0.00     0.016 A 
ATOM     14  C   UNL     1      29.291  30.004  49.717  1.00  0.00     0.051 A 
ATOM     15  C   UNL     1      28.791  29.559  48.486  1.00  0.00     0.157 A 
ATOM     16  C   UNL     1      28.615  31.863  47.743  1.00  0.00     0.062 A 
ATOM     17  C   UNL     1      28.449  30.496  47.496  1.00  0.00     0.158 A 
BRANCH  15  18
ATOM     18  O   UNL     1      28.629  28.196  48.245  1.00  0.00    -0.504 OA
ATOM     19  H   UNL     1      28.035  27.858  47.497  1.00  0.00     0.293 HD
ENDBRANCH  15  18
BRANCH  17  20
ATOM     20  O   UNL     1      27.946  30.086  46.261  1.00  0.00    -0.504 OA
ATOM     21  H   UNL     1      28.120  29.161  45.889  1.00  0.00     0.293 HD
ENDBRANCH  17  20
ENDBRANCH   1  12
BRANCH   6  22
ATOM     22  O   UNL     1      30.637  38.650  49.813  1.00  0.00    -0.507 OA
ATOM     23  H   UNL     1      31.306  38.702  50.573  1.00  0.00     0.293 HD
ENDBRANCH   6  22
BRANCH   8  24
ATOM     24  O   UNL     1      25.892  38.464  50.756  1.00  0.00    -0.508 OA
ATOM     25  H   UNL     1      25.618  38.567  51.727  1.00  0.00     0.293 HD
ENDBRANCH   8  24
TORSDOF 5
ENDMDL
MODEL 5
REMARK VINA RESULT:    25.962     10.165     10.901
REMARK INTER + INTRA:          30.251
REMARK INTER:                  30.537
REMARK INTRA:                  -0.286
REMARK UNBOUND:                -0.264
REMARK SMILES O=c1cc(-c2ccc(O)c(O)c2)oc2cc(O)cc(O)c12
REMARK SMILES IDX 4 1 3 2 2 3 1 4 21 5 19 6 18 7 16 8 15 9 14 10 13 11 5 12
REMARK SMILES IDX 6 13 7 14 8 15 12 16 10 17 9 18 11 20 20 22 17 24
REMARK H PARENT 9 19 11 21 20 23 17 25
REMARK Flexibility Score: inf
ROOT
ATOM      1  C   UNL     1      29.967  23.594  45.395  1.00  0.00     0.138 A 
ATOM      2  C   UNL     1      29.250  24.221  44.363  1.00  0.00     0.100 A 
ATOM      3  C   UNL     1      27.857  24.272  44.426  1.00  0.00     0.197 A 
ATOM      4  O   UNL     1      27.223  24.835  43.495  1.00  0.00    -0.289 OA
ATOM      5  C   UNL     1      27.189  23.690  45.523  1.00  0.00     0.107 A 
ATOM      6  C   UNL     1      25.781  23.698  45.665  1.00  0.00     0.134 A 
ATOM      7  C   UNL     1      25.193  23.091  46.785  1.00  0.00     0.093 A 
ATOM      8  C   UNL     1      25.986  22.478  47.763  1.00  0.00     0.123 A 
ATOM      9  C   UNL     1      27.375  22.468  47.625  1.00  0.00     0.094 A 
ATOM     10  C   UNL     1      27.981  23.068  46.518  1.00  0.00     0.146 A 
ATOM     11  O   UNL     1      29.305  23.046  46.411  1.00  0.00    -0.456 OA
ENDROOT
BRANCH   1  12
ATOM     12  C   UNL     1      31.449  23.510  45.380  1.00  0.00     0.021 A 
ATOM     13  C   UNL     1      32.135  22.428  45.964  1.00  0.00     0.016 A 
ATOM     14  C   UNL     1      33.530  22.370  45.926  1.00  0.00     0.051 A 
ATOM     15  C   UNL     1      34.265  23.385  45.301  1.00  0.00     0.157 A 
ATOM     16  C   UNL     1      32.193  24.519  44.741  1.00  0.00     0.062 A 
ATOM     17  C   UNL     1      33.591  24.464  44.704  1.00  0.00     0.158 A 
BRANCH  15  18
ATOM     18  O   UNL     1      35.657  23.326  45.266  1.00  0.00    -0.504 OA
ATOM     19  H   UNL     1      36.225  24.162  45.346  1.00  0.00     0.293 HD
ENDBRANCH  15  18
BRANCH  17  20
ATOM     20  O   UNL     1      34.293  25.489  44.070  1.00  0.00    -0.504 OA
ATOM     21  H   UNL     1      34.353  25.557  43.062  1.00  0.00     0.293 HD
ENDBRANCH  17  20
ENDBRANCH   1  12
BRANCH   6  22
ATOM     22  O   UNL     1      24.967  24.301  44.706  1.00  0.00    -0.507 OA
ATOM     23  H   UNL     1      25.073  24.106  43.717  1.00  0.00     0.293 HD
ENDBRANCH   6  22
BRANCH   8  24
ATOM     24  O   UNL     1      25.401  21.875  48.874  1.00  0.00    -0.508 OA
ATOM     25  H   UNL     1      24.683  22.343  49.415  1.00  0.00     0.293 HD
ENDBRANCH   8  24
TORSDOF 5
ENDMDL
MODEL 6
REMARK VINA RESULT:    27.291      1.929      3.515
REMARK INTER + INTRA:          31.813
REMARK INTER:                  32.097
REMARK INTRA:                  -0.284
REMARK UNBOUND:                -0.264
REMARK SMILES O=c1cc(-c2ccc(O)c(O)c2)oc2cc(O)cc(O)c12
REMARK SMILES IDX 4 1 3 2 2 3 1 4 21 5 19 6 18 7 16 8 15 9 14 10 13 11 5 12
REMARK SMILES IDX 6 13 7 14 8 15 12 16 10 17 9 18 11 20 20 22 17 24
REMARK H PARENT 9 19 11 21 20 23 17 25
REMARK Flexibility Score: inf
ROOT
ATOM      1  C   UNL     1      28.098  34.754  49.025  1.00  0.00     0.138 A 
ATOM      2  C   UNL     1      29.010  34.304  49.993  1.00  0.00     0.100 A 
ATOM      3  C   UNL     1      29.516  33.006  49.909  1.00  0.00     0.197 A 
ATOM      4  O   UNL     1      30.333  32.611  50.783  1.00  0.00    -0.289 OA
ATOM      5  C   UNL     1      29.102  32.165  48.856  1.00  0.00     0.107 A 
ATOM      6  C   UNL     1      29.567  30.838  48.697  1.00  0.00     0.134 A 
ATOM      7  C   UNL     1      29.102  30.063  47.623  1.00  0.00     0.093 A 
ATOM      8  C   UNL     1      28.182  30.591  46.710  1.00  0.00     0.123 A 
ATOM      9  C   UNL     1      27.720  31.900  46.864  1.00  0.00     0.094 A 
ATOM     10  C   UNL     1      28.173  32.689  47.925  1.00  0.00     0.146 A 
ATOM     11  O   UNL     1      27.720  33.932  48.049  1.00  0.00    -0.456 OA
ENDROOT
BRANCH   1  12
ATOM     12  C   UNL     1      27.526  36.124  49.064  1.00  0.00     0.021 A 
ATOM     13  C   UNL     1      27.187  36.819  47.888  1.00  0.00     0.016 A 
ATOM     14  C   UNL     1      26.641  38.103  47.956  1.00  0.00     0.051 A 
ATOM     15  C   UNL     1      26.419  38.714  49.196  1.00  0.00     0.157 A 
ATOM     16  C   UNL     1      27.287  36.739  50.307  1.00  0.00     0.062 A 
ATOM     17  C   UNL     1      26.742  38.026  50.377  1.00  0.00     0.158 A 
BRANCH  15  18
ATOM     18  O   UNL     1      25.876  39.996  49.260  1.00  0.00    -0.504 OA
ATOM     19  H   UNL     1      26.215  40.682  49.926  1.00  0.00     0.293 HD
ENDBRANCH  15  18
BRANCH  17  20
ATOM     20  O   UNL     1      26.530  38.604  51.629  1.00  0.00    -0.504 OA
ATOM     21  H   UNL     1      27.270  39.071  52.138  1.00  0.00     0.293 HD
ENDBRANCH  17  20
ENDBRANCH   1  12
BRANCH   6  22
ATOM     22  O   UNL     1      30.483  30.286  49.593  1.00  0.00    -0.507 OA
ATOM     23  H   UNL     1      30.326  30.303  50.594  1.00  0.00     0.293 HD
ENDBRANCH   6  22
BRANCH   8  24
ATOM     24  O   UNL     1      27.719  29.821  45.645  1.00  0.00    -0.508 OA
ATOM     25  H   UNL     1      26.871  30.061  45.145  1.00  0.00     0.293 HD
ENDBRANCH   8  24
TORSDOF 5
ENDMDL
MODEL 7
REMARK VINA RESULT:    27.386      5.521      9.020
REMARK INTER + INTRA:          31.925
REMARK INTER:                  32.213
REMARK INTRA:                  -0.288
REMARK UNBOUND:                -0.264
REMARK SMILES O=c1cc(-c2ccc(O)c(O)c2)oc2cc(O)cc(O)c12
REMARK SMILES IDX 4 1 3 2 2 3 1 4 21 5 19 6 18 7 16 8 15 9 14 10 13 11 5 12
REMARK SMILES IDX 6 13 7 14 8 15 12 16 10 17 9 18 11 20 20 22 17 24
REMARK H PARENT 9 19 11 21 20 23 17 25
REMARK Flexibility Score: inf
ROOT
ATOM      1  C   UNL     1      24.778  34.164  52.054  1.00  0.00     0.138 A 
ATOM      2  C   UNL     1      26.173  34.231  52.197  1.00  0.00     0.100 A 
ATOM      3  C   UNL     1      26.853  35.374  51.773  1.00  0.00     0.197 A 
ATOM      4  O   UNL     1      28.106  35.424  51.904  1.00  0.00    -0.289 OA
ATOM      5  C   UNL     1      26.131  36.442  51.204  1.00  0.00     0.107 A 
ATOM      6  C   UNL     1      26.742  37.635  50.750  1.00  0.00     0.134 A 
ATOM      7  C   UNL     1      25.952  38.651  50.190  1.00  0.00     0.093 A 
ATOM      8  C   UNL     1      24.565  38.494  50.076  1.00  0.00     0.123 A 
ATOM      9  C   UNL     1      23.959  37.318  50.523  1.00  0.00     0.094 A 
ATOM     10  C   UNL     1      24.728  36.295  51.085  1.00  0.00     0.146 A 
ATOM     11  O   UNL     1      24.127  35.187  51.504  1.00  0.00    -0.456 OA
ENDROOT
BRANCH   1  12
ATOM     12  C   UNL     1      24.002  32.974  52.486  1.00  0.00     0.021 A 
ATOM     13  C   UNL     1      22.781  32.626  51.878  1.00  0.00     0.016 A 
ATOM     14  C   UNL     1      22.077  31.495  52.300  1.00  0.00     0.051 A 
ATOM     15  C   UNL     1      22.581  30.689  53.328  1.00  0.00     0.157 A 
ATOM     16  C   UNL     1      24.509  32.153  53.509  1.00  0.00     0.062 A 
ATOM     17  C   UNL     1      23.805  31.020  53.933  1.00  0.00     0.158 A 
BRANCH  15  18
ATOM     18  O   UNL     1      21.876  29.562  53.747  1.00  0.00    -0.504 OA
ATOM     19  H   UNL     1      22.213  28.625  53.556  1.00  0.00     0.293 HD
ENDBRANCH  15  18
BRANCH  17  20
ATOM     20  O   UNL     1      24.337  30.236  54.958  1.00  0.00    -0.504 OA
ATOM     21  H   UNL     1      23.790  29.962  55.764  1.00  0.00     0.293 HD
ENDBRANCH  17  20
ENDBRANCH   1  12
BRANCH   6  22
ATOM     22  O   UNL     1      28.121  37.818  50.850  1.00  0.00    -0.507 OA
ATOM     23  H   UNL     1      28.682  38.093  50.052  1.00  0.00     0.293 HD
ENDBRANCH   6  22
BRANCH   8  24
ATOM     24  O   UNL     1      23.782  39.502  49.520  1.00  0.00    -0.508 OA
ATOM     25  H   UNL     1      24.091  40.467  49.505  1.00  0.00     0.293 HD
ENDBRANCH   8  24
TORSDOF 5
ENDMDL
