MODEL 1
REMARK VINA RESULT:    -3.261      0.000      0.000
REMARK INTER + INTRA:          -3.905
REMARK INTER:                  -3.833
REMARK INTRA:                  -0.072
REMARK UNBOUND:                -0.072
REMARK SMILES CCCCC(=O)[O-]
REMARK SMILES IDX 4 1 5 2 6 3 7 4 3 5 2 6 1 7
REMARK H PARENT
REMARK Flexibility Score: inf
ROOT
ATOM      1  C   UNL     1      25.819  -4.537  17.343  1.00  0.00     0.053 C 
ENDROOT
BRANCH   1   2
ATOM      2  C   UNL     1      25.292  -5.663  18.178  1.00  0.00     0.041 C 
ATOM      3  O   UNL     1      25.825  -6.801  18.116  1.00  0.00    -0.550 OA
ATOM      4  O   UNL     1      24.190  -5.462  19.000  1.00  0.00    -0.550 OA
ENDBRANCH   1   2
BRANCH   1   5
ATOM      5  C   UNL     1      24.806  -3.388  17.221  1.00  0.00     0.006 C 
BRANCH   5   6
ATOM      6  C   UNL     1      25.120  -2.174  18.115  1.00  0.00    -0.003 C 
ATOM      7  C   UNL     1      23.870  -1.560  18.741  1.00  0.00     0.004 C 
ENDBRANCH   5   6
ENDBRANCH   1   5
TORSDOF 3
ENDMDL
MODEL 2
REMARK VINA RESULT:    -3.249      0.137      1.230
REMARK INTER + INTRA:          -3.891
REMARK INTER:                  -3.831
REMARK INTRA:                  -0.060
REMARK UNBOUND:                -0.072
REMARK SMILES CCCCC(=O)[O-]
REMARK SMILES IDX 4 1 5 2 6 3 7 4 3 5 2 6 1 7
REMARK H PARENT
REMARK Flexibility Score: inf
ROOT
ATOM      1  C   UNL     1      25.811  -4.493  17.421  1.00  0.00     0.053 C 
ENDROOT
BRANCH   1   2
ATOM      2  C   UNL     1      25.228  -5.677  18.130  1.00  0.00     0.041 C 
ATOM      3  O   UNL     1      24.266  -5.528  18.928  1.00  0.00    -0.550 OA
ATOM      4  O   UNL     1      25.771  -6.940  17.934  1.00  0.00    -0.550 OA
ENDBRANCH   1   2
BRANCH   1   5
ATOM      5  C   UNL     1      24.790  -3.356  17.266  1.00  0.00     0.006 C 
BRANCH   5   6
ATOM      6  C   UNL     1      25.053  -2.145  18.180  1.00  0.00    -0.003 C 
ATOM      7  C   UNL     1      23.769  -1.452  18.631  1.00  0.00     0.004 C 
ENDBRANCH   5   6
ENDBRANCH   1   5
TORSDOF 3
ENDMDL
MODEL 3
REMARK VINA RESULT:    -2.952      1.525      1.945
REMARK INTER + INTRA:          -3.542
REMARK INTER:                  -3.468
REMARK INTRA:                  -0.074
REMARK UNBOUND:                -0.072
REMARK SMILES CCCCC(=O)[O-]
REMARK SMILES IDX 4 1 5 2 6 3 7 4 3 5 2 6 1 7
REMARK H PARENT
REMARK Flexibility Score: inf
ROOT
ATOM      1  C   UNL     1      25.525  -5.959  17.927  1.00  0.00     0.053 C 
ENDROOT
BRANCH   1   2
ATOM      2  C   UNL     1      24.751  -6.637  16.839  1.00  0.00     0.041 C 
ATOM      3  O   UNL     1      25.216  -6.693  15.671  1.00  0.00    -0.550 OA
ATOM      4  O   UNL     1      23.500  -7.178  17.109  1.00  0.00    -0.550 OA
ENDBRANCH   1   2
BRANCH   1   5
ATOM      5  C   UNL     1      25.973  -4.547  17.521  1.00  0.00     0.006 C 
BRANCH   5   6
ATOM      6  C   UNL     1      24.814  -3.555  17.313  1.00  0.00    -0.003 C 
ATOM      7  C   UNL     1      25.002  -2.252  18.086  1.00  0.00     0.004 C 
ENDBRANCH   5   6
ENDBRANCH   1   5
TORSDOF 3
ENDMDL
MODEL 4
REMARK VINA RESULT:    -2.919      1.280      1.790
REMARK INTER + INTRA:          -3.504
REMARK INTER:                  -3.399
REMARK INTRA:                  -0.104
REMARK UNBOUND:                -0.072
REMARK SMILES CCCCC(=O)[O-]
REMARK SMILES IDX 4 1 5 2 6 3 7 4 3 5 2 6 1 7
REMARK H PARENT
REMARK Flexibility Score: inf
ROOT
ATOM      1  C   UNL     1      25.294  -4.952  18.475  1.00  0.00     0.053 C 
ENDROOT
BRANCH   1   2
ATOM      2  C   UNL     1      23.893  -5.476  18.548  1.00  0.00     0.041 C 
ATOM      3  O   UNL     1      23.083  -5.005  19.388  1.00  0.00    -0.550 OA
ATOM      4  O   UNL     1      23.493  -6.509  17.709  1.00  0.00    -0.550 OA
ENDBRANCH   1   2
BRANCH   1   5
ATOM      5  C   UNL     1      25.438  -3.839  17.426  1.00  0.00     0.006 C 
BRANCH   5   6
ATOM      6  C   UNL     1      25.093  -2.432  17.950  1.00  0.00    -0.003 C 
ATOM      7  C   UNL     1      23.857  -1.837  17.280  1.00  0.00     0.004 C 
ENDBRANCH   5   6
ENDBRANCH   1   5
TORSDOF 3
ENDMDL
MODEL 5
REMARK VINA RESULT:    -2.876     12.181     12.652
REMARK INTER + INTRA:          -3.453
REMARK INTER:                  -3.350
REMARK INTRA:                  -0.103
REMARK UNBOUND:                -0.072
REMARK SMILES CCCCC(=O)[O-]
REMARK SMILES IDX 4 1 5 2 6 3 7 4 3 5 2 6 1 7
REMARK H PARENT
REMARK Flexibility Score: inf
ROOT
ATOM      1  C   UNL     1      27.363  -0.270   5.950  1.00  0.00     0.053 C 
ENDROOT
BRANCH   1   2
ATOM      2  C   UNL     1      28.014  -0.804   7.188  1.00  0.00     0.041 C 
ATOM      3  O   UNL     1      27.985  -2.038   7.438  1.00  0.00    -0.550 OA
ATOM      4  O   UNL     1      28.623   0.065   8.084  1.00  0.00    -0.550 OA
ENDBRANCH   1   2
BRANCH   1   5
ATOM      5  C   UNL     1      27.923   1.105   5.554  1.00  0.00     0.006 C 
BRANCH   5   6
ATOM      6  C   UNL     1      26.883   2.240   5.586  1.00  0.00    -0.003 C 
ATOM      7  C   UNL     1      26.471   2.627   7.005  1.00  0.00     0.004 C 
ENDBRANCH   5   6
ENDBRANCH   1   5
TORSDOF 3
ENDMDL
MODEL 6
REMARK VINA RESULT:    -2.868      2.423      3.810
REMARK INTER + INTRA:          -3.443
REMARK INTER:                  -3.337
REMARK INTRA:                  -0.106
REMARK UNBOUND:                -0.072
REMARK SMILES CCCCC(=O)[O-]
REMARK SMILES IDX 4 1 5 2 6 3 7 4 3 5 2 6 1 7
REMARK H PARENT
REMARK Flexibility Score: inf
ROOT
ATOM      1  C   UNL     1      25.035  -2.193  18.330  1.00  0.00     0.053 C 
ENDROOT
BRANCH   1   2
ATOM      2  C   UNL     1      23.646  -1.753  18.674  1.00  0.00     0.041 C 
ATOM      3  O   UNL     1      22.659  -2.472  18.367  1.00  0.00    -0.550 OA
ATOM      4  O   UNL     1      23.439  -0.534  19.306  1.00  0.00    -0.550 OA
ENDBRANCH   1   2
BRANCH   1   5
ATOM      5  C   UNL     1      25.047  -3.223  17.190  1.00  0.00     0.006 C 
BRANCH   5   6
ATOM      6  C   UNL     1      25.738  -4.551  17.549  1.00  0.00    -0.003 C 
ATOM      7  C   UNL     1      24.896  -5.427  18.475  1.00  0.00     0.004 C 
ENDBRANCH   5   6
ENDBRANCH   1   5
TORSDOF 3
ENDMDL
MODEL 7
REMARK VINA RESULT:    -2.730     11.544     12.135
REMARK INTER + INTRA:          -3.281
REMARK INTER:                  -3.144
REMARK INTRA:                  -0.137
REMARK UNBOUND:                -0.072
REMARK SMILES CCCCC(=O)[O-]
REMARK SMILES IDX 4 1 5 2 6 3 7 4 3 5 2 6 1 7
REMARK H PARENT
REMARK Flexibility Score: inf
ROOT
ATOM      1  C   UNL     1      26.276   2.281   8.539  1.00  0.00     0.053 C 
ENDROOT
BRANCH   1   2
ATOM      2  C   UNL     1      26.429   0.822   8.842  1.00  0.00     0.041 C 
ATOM      3  O   UNL     1      25.680  -0.023   8.285  1.00  0.00    -0.550 OA
ATOM      4  O   UNL     1      27.376   0.399   9.765  1.00  0.00    -0.550 OA
ENDBRANCH   1   2
BRANCH   1   5
ATOM      5  C   UNL     1      26.534   2.591   7.057  1.00  0.00     0.006 C 
BRANCH   5   6
ATOM      6  C   UNL     1      27.916   2.139   6.551  1.00  0.00    -0.003 C 
ATOM      7  C   UNL     1      27.829   1.155   5.386  1.00  0.00     0.004 C 
ENDBRANCH   5   6
ENDBRANCH   1   5
TORSDOF 3
ENDMDL
MODEL 8
REMARK VINA RESULT:    -2.730     12.718     13.271
REMARK INTER + INTRA:          -3.281
REMARK INTER:                  -3.220
REMARK INTRA:                  -0.061
REMARK UNBOUND:                -0.072
REMARK SMILES CCCCC(=O)[O-]
REMARK SMILES IDX 4 1 5 2 6 3 7 4 3 5 2 6 1 7
REMARK H PARENT
REMARK Flexibility Score: inf
ROOT
ATOM      1  C   UNL     1      27.663   2.275   6.886  1.00  0.00     0.053 C 
ENDROOT
BRANCH   1   2
ATOM      2  C   UNL     1      27.475   1.723   5.507  1.00  0.00     0.041 C 
ATOM      3  O   UNL     1      26.793   2.355   4.658  1.00  0.00    -0.550 OA
ATOM      4  O   UNL     1      28.026   0.493   5.169  1.00  0.00    -0.550 OA
ENDBRANCH   1   2
BRANCH   1   5
ATOM      5  C   UNL     1      26.336   2.737   7.506  1.00  0.00     0.006 C 
BRANCH   5   6
ATOM      6  C   UNL     1      25.996   2.055   8.844  1.00  0.00    -0.003 C 
ATOM      7  C   UNL     1      26.741   0.738   9.045  1.00  0.00     0.004 C 
ENDBRANCH   5   6
ENDBRANCH   1   5
TORSDOF 3
ENDMDL
MODEL 9
REMARK VINA RESULT:    -2.659     12.539     13.049
REMARK INTER + INTRA:          -3.198
REMARK INTER:                  -3.137
REMARK INTRA:                  -0.061
REMARK UNBOUND:                -0.072
REMARK SMILES CCCCC(=O)[O-]
REMARK SMILES IDX 4 1 5 2 6 3 7 4 3 5 2 6 1 7
REMARK H PARENT
REMARK Flexibility Score: inf
ROOT
ATOM      1  C   UNL     1      27.594  -0.019   5.913  1.00  0.00     0.053 C 
ENDROOT
BRANCH   1   2
ATOM      2  C   UNL     1      27.532   1.402   5.444  1.00  0.00     0.041 C 
ATOM      3  O   UNL     1      28.460   2.204   5.727  1.00  0.00    -0.550 OA
ATOM      4  O   UNL     1      26.431   1.848   4.724  1.00  0.00    -0.550 OA
ENDBRANCH   1   2
BRANCH   1   5
ATOM      5  C   UNL     1      28.019  -0.121   7.386  1.00  0.00     0.006 C 
BRANCH   5   6
ATOM      6  C   UNL     1      26.985   0.439   8.380  1.00  0.00    -0.003 C 
ATOM      7  C   UNL     1      27.321   0.111   9.833  1.00  0.00     0.004 C 
ENDBRANCH   5   6
ENDBRANCH   1   5
TORSDOF 3
ENDMDL
