MODEL 1
REMARK VINA RESULT:    -5.106      0.000      0.000
REMARK INTER + INTRA:          -6.647
REMARK INTER:                  -6.300
REMARK INTRA:                  -0.347
REMARK UNBOUND:                -0.347
REMARK SMILES C=CC[C@H](C)C(=O)CC
REMARK SMILES IDX 4 1 5 2 6 3 7 4 8 5 9 6 3 7 2 8 1 9
REMARK H PARENT
REMARK Flexibility Score: inf
ROOT
ATOM      1  C   UNL     1       6.920  31.644  28.448  1.00  0.00     0.057 C 
ATOM      2  C   UNL     1       6.056  31.556  27.184  1.00  0.00     0.016 C 
ENDROOT
BRANCH   1   3
ATOM      3  C   UNL     1       8.124  32.536  28.215  1.00  0.00     0.135 C 
ATOM      4  O   UNL     1       7.944  33.709  27.922  1.00  0.00    -0.299 OA
BRANCH   3   5
ATOM      5  C   UNL     1       9.538  32.029  28.359  1.00  0.00     0.072 C 
ATOM      6  C   UNL     1      10.107  31.610  27.008  1.00  0.00     0.012 C 
ENDBRANCH   3   5
ENDBRANCH   1   3
BRANCH   1   7
ATOM      7  C   UNL     1       7.328  30.236  28.932  1.00  0.00     0.038 C 
BRANCH   7   8
ATOM      8  C   UNL     1       6.806  29.149  28.027  1.00  0.00    -0.034 C 
ATOM      9  C   UNL     1       7.186  27.876  28.165  1.00  0.00     0.004 C 
ENDBRANCH   7   8
ENDBRANCH   1   7
TORSDOF 4
ENDMDL
MODEL 2
REMARK VINA RESULT:    -4.616     16.482     17.527
REMARK INTER + INTRA:          -6.043
REMARK INTER:                  -5.654
REMARK INTRA:                  -0.389
REMARK UNBOUND:                -0.347
REMARK SMILES C=CC[C@H](C)C(=O)CC
REMARK SMILES IDX 4 1 5 2 6 3 7 4 8 5 9 6 3 7 2 8 1 9
REMARK H PARENT
REMARK Flexibility Score: inf
ROOT
ATOM      1  C   UNL     1      -7.656  33.210  21.304  1.00  0.00     0.057 C 
ATOM      2  C   UNL     1      -7.347  33.311  19.805  1.00  0.00     0.016 C 
ENDROOT
BRANCH   1   3
ATOM      3  C   UNL     1      -8.813  32.260  21.551  1.00  0.00     0.135 C 
ATOM      4  O   UNL     1      -9.956  32.681  21.451  1.00  0.00    -0.299 OA
BRANCH   3   5
ATOM      5  C   UNL     1      -8.598  30.805  21.890  1.00  0.00     0.072 C 
ATOM      6  C   UNL     1      -7.312  30.616  22.688  1.00  0.00     0.012 C 
ENDBRANCH   3   5
ENDBRANCH   1   3
BRANCH   1   7
ATOM      7  C   UNL     1      -7.916  34.608  21.905  1.00  0.00     0.038 C 
BRANCH   7   8
ATOM      8  C   UNL     1      -7.583  34.667  23.373  1.00  0.00    -0.034 C 
ATOM      9  C   UNL     1      -8.499  34.985  24.291  1.00  0.00     0.004 C 
ENDBRANCH   7   8
ENDBRANCH   1   7
TORSDOF 4
ENDMDL
MODEL 3
REMARK VINA RESULT:    -4.607      1.288      3.337
REMARK INTER + INTRA:          -6.031
REMARK INTER:                  -5.635
REMARK INTRA:                  -0.396
REMARK UNBOUND:                -0.347
REMARK SMILES C=CC[C@H](C)C(=O)CC
REMARK SMILES IDX 4 1 5 2 6 3 7 4 8 5 9 6 3 7 2 8 1 9
REMARK H PARENT
REMARK Flexibility Score: inf
ROOT
ATOM      1  C   UNL     1       7.753  32.407  28.107  1.00  0.00     0.057 C 
ATOM      2  C   UNL     1       7.258  33.711  28.744  1.00  0.00     0.016 C 
ENDROOT
BRANCH   1   3
ATOM      3  C   UNL     1       6.619  31.407  27.980  1.00  0.00     0.135 C 
ATOM      4  O   UNL     1       5.708  31.640  27.199  1.00  0.00    -0.299 OA
BRANCH   3   5
ATOM      5  C   UNL     1       6.593  30.120  28.768  1.00  0.00     0.072 C 
ATOM      6  C   UNL     1       6.870  28.923  27.865  1.00  0.00     0.012 C 
ENDBRANCH   3   5
ENDBRANCH   1   3
BRANCH   1   7
ATOM      7  C   UNL     1       8.947  31.830  28.896  1.00  0.00     0.038 C 
BRANCH   7   8
ATOM      8  C   UNL     1      10.125  31.526  28.007  1.00  0.00    -0.034 C 
ATOM      9  C   UNL     1      10.037  31.595  26.676  1.00  0.00     0.004 C 
ENDBRANCH   7   8
ENDBRANCH   1   7
TORSDOF 4
ENDMDL
MODEL 4
REMARK VINA RESULT:    -4.541     16.281     17.075
REMARK INTER + INTRA:          -5.949
REMARK INTER:                  -5.665
REMARK INTRA:                  -0.285
REMARK UNBOUND:                -0.347
REMARK SMILES C=CC[C@H](C)C(=O)CC
REMARK SMILES IDX 4 1 5 2 6 3 7 4 8 5 9 6 3 7 2 8 1 9
REMARK H PARENT
REMARK Flexibility Score: inf
ROOT
ATOM      1  C   UNL     1      -7.666  31.592  22.729  1.00  0.00     0.057 C 
ATOM      2  C   UNL     1      -8.689  31.665  23.868  1.00  0.00     0.016 C 
ENDROOT
BRANCH   1   3
ATOM      3  C   UNL     1      -8.278  32.070  21.425  1.00  0.00     0.135 C 
ATOM      4  O   UNL     1      -9.237  31.469  20.966  1.00  0.00    -0.299 OA
BRANCH   3   5
ATOM      5  C   UNL     1      -7.757  33.282  20.692  1.00  0.00     0.072 C 
ATOM      6  C   UNL     1      -7.788  34.516  21.586  1.00  0.00     0.012 C 
ENDBRANCH   3   5
ENDBRANCH   1   3
BRANCH   1   7
ATOM      7  C   UNL     1      -7.083  30.167  22.606  1.00  0.00     0.038 C 
BRANCH   7   8
ATOM      8  C   UNL     1      -7.991  29.127  23.208  1.00  0.00    -0.034 C 
ATOM      9  C   UNL     1      -8.505  28.133  22.478  1.00  0.00     0.004 C 
ENDBRANCH   7   8
ENDBRANCH   1   7
TORSDOF 4
ENDMDL
MODEL 5
REMARK VINA RESULT:    -4.530     16.456     17.113
REMARK INTER + INTRA:          -5.936
REMARK INTER:                  -5.662
REMARK INTRA:                  -0.274
REMARK UNBOUND:                -0.347
REMARK SMILES C=CC[C@H](C)C(=O)CC
REMARK SMILES IDX 4 1 5 2 6 3 7 4 8 5 9 6 3 7 2 8 1 9
REMARK H PARENT
REMARK Flexibility Score: inf
ROOT
ATOM      1  C   UNL     1      -7.690  31.734  23.104  1.00  0.00     0.057 C 
ATOM      2  C   UNL     1      -8.341  31.533  24.477  1.00  0.00     0.016 C 
ENDROOT
BRANCH   1   3
ATOM      3  C   UNL     1      -8.615  32.502  22.178  1.00  0.00     0.135 C 
ATOM      4  O   UNL     1      -9.800  32.205  22.145  1.00  0.00    -0.299 OA
BRANCH   3   5
ATOM      5  C   UNL     1      -8.125  33.641  21.317  1.00  0.00     0.072 C 
ATOM      6  C   UNL     1      -7.497  33.118  20.030  1.00  0.00     0.012 C 
ENDBRANCH   3   5
ENDBRANCH   1   3
BRANCH   1   7
ATOM      7  C   UNL     1      -7.259  30.381  22.498  1.00  0.00     0.038 C 
BRANCH   7   8
ATOM      8  C   UNL     1      -8.040  29.226  23.070  1.00  0.00    -0.034 C 
ATOM      9  C   UNL     1      -8.715  28.377  22.291  1.00  0.00     0.004 C 
ENDBRANCH   7   8
ENDBRANCH   1   7
TORSDOF 4
ENDMDL
MODEL 6
REMARK VINA RESULT:    -4.509     16.255     17.070
REMARK INTER + INTRA:          -5.911
REMARK INTER:                  -5.486
REMARK INTRA:                  -0.425
REMARK UNBOUND:                -0.347
REMARK SMILES C=CC[C@H](C)C(=O)CC
REMARK SMILES IDX 4 1 5 2 6 3 7 4 8 5 9 6 3 7 2 8 1 9
REMARK H PARENT
REMARK Flexibility Score: inf
ROOT
ATOM      1  C   UNL     1      -8.486  32.126  21.677  1.00  0.00     0.057 C 
ATOM      2  C   UNL     1      -9.669  31.654  20.824  1.00  0.00     0.016 C 
ENDROOT
BRANCH   1   3
ATOM      3  C   UNL     1      -7.824  33.340  21.053  1.00  0.00     0.135 C 
ATOM      4  O   UNL     1      -7.282  33.223  19.964  1.00  0.00    -0.299 OA
BRANCH   3   5
ATOM      5  C   UNL     1      -7.836  34.693  21.720  1.00  0.00     0.072 C 
ATOM      6  C   UNL     1      -7.519  34.570  23.207  1.00  0.00     0.012 C 
ENDBRANCH   3   5
ENDBRANCH   1   3
BRANCH   1   7
ATOM      7  C   UNL     1      -7.484  30.975  21.910  1.00  0.00     0.038 C 
BRANCH   7   8
ATOM      8  C   UNL     1      -7.525  30.461  23.325  1.00  0.00    -0.034 C 
ATOM      9  C   UNL     1      -8.269  31.049  24.266  1.00  0.00     0.004 C 
ENDBRANCH   7   8
ENDBRANCH   1   7
TORSDOF 4
ENDMDL
MODEL 7
REMARK VINA RESULT:    -4.495     15.747     17.115
REMARK INTER + INTRA:          -5.894
REMARK INTER:                  -5.478
REMARK INTRA:                  -0.416
REMARK UNBOUND:                -0.347
REMARK SMILES C=CC[C@H](C)C(=O)CC
REMARK SMILES IDX 4 1 5 2 6 3 7 4 8 5 9 6 3 7 2 8 1 9
REMARK H PARENT
REMARK Flexibility Score: inf
ROOT
ATOM      1  C   UNL     1      -8.826  33.121  23.125  1.00  0.00     0.057 C 
ATOM      2  C   UNL     1      -7.815  34.203  23.522  1.00  0.00     0.016 C 
ENDROOT
BRANCH   1   3
ATOM      3  C   UNL     1      -8.435  31.779  23.716  1.00  0.00     0.135 C 
ATOM      4  O   UNL     1      -8.267  31.690  24.923  1.00  0.00    -0.299 OA
BRANCH   3   5
ATOM      5  C   UNL     1      -8.275  30.544  22.864  1.00  0.00     0.072 C 
ATOM      6  C   UNL     1      -6.863  29.981  22.980  1.00  0.00     0.012 C 
ENDBRANCH   3   5
ENDBRANCH   1   3
BRANCH   1   7
ATOM      7  C   UNL     1      -8.982  33.054  21.590  1.00  0.00     0.038 C 
BRANCH   7   8
ATOM      8  C   UNL     1      -7.825  33.697  20.871  1.00  0.00    -0.034 C 
ATOM      9  C   UNL     1      -7.211  33.096  19.848  1.00  0.00     0.004 C 
ENDBRANCH   7   8
ENDBRANCH   1   7
TORSDOF 4
ENDMDL
MODEL 8
REMARK VINA RESULT:    -4.485     15.881     17.034
REMARK INTER + INTRA:          -5.881
REMARK INTER:                  -5.401
REMARK INTRA:                  -0.480
REMARK UNBOUND:                -0.347
REMARK SMILES C=CC[C@H](C)C(=O)CC
REMARK SMILES IDX 4 1 5 2 6 3 7 4 8 5 9 6 3 7 2 8 1 9
REMARK H PARENT
REMARK Flexibility Score: inf
ROOT
ATOM      1  C   UNL     1      -7.708  31.604  22.707  1.00  0.00     0.057 C 
ATOM      2  C   UNL     1      -7.062  30.254  23.042  1.00  0.00     0.016 C 
ENDROOT
BRANCH   1   3
ATOM      3  C   UNL     1      -8.220  32.281  23.964  1.00  0.00     0.135 C 
ATOM      4  O   UNL     1      -8.254  31.646  25.007  1.00  0.00    -0.299 OA
BRANCH   3   5
ATOM      5  C   UNL     1      -8.664  33.724  23.974  1.00  0.00     0.072 C 
ATOM      6  C   UNL     1      -7.560  34.637  23.451  1.00  0.00     0.012 C 
ENDBRANCH   3   5
ENDBRANCH   1   3
BRANCH   1   7
ATOM      7  C   UNL     1      -8.818  31.433  21.648  1.00  0.00     0.038 C 
BRANCH   7   8
ATOM      8  C   UNL     1      -8.658  32.389  20.495  1.00  0.00    -0.034 C 
ATOM      9  C   UNL     1      -7.471  32.908  20.171  1.00  0.00     0.004 C 
ENDBRANCH   7   8
ENDBRANCH   1   7
TORSDOF 4
ENDMDL
