MODEL 1
REMARK VINA RESULT:    -1.694      0.000      0.000
REMARK INTER + INTRA:          -1.874
REMARK INTER:                  -1.842
REMARK INTRA:                  -0.031
REMARK UNBOUND:                -0.031
REMARK SMILES C=C(C)[C@@H]1CC[C@@H](C)C[C@H]1O
REMARK SMILES IDX 8 1 7 2 6 3 5 4 4 5 10 6 9 7 11 8 2 10 1 11 3 12
REMARK H PARENT 11 9
REMARK Flexibility Score: inf
ROOT
ATOM      1  C   UNL     1     -42.065  25.452   3.568  1.00  0.00     0.008 C 
ATOM      2  C   UNL     1     -41.510  24.604   4.718  1.00  0.00    -0.012 C 
ATOM      3  C   UNL     1     -42.123  23.191   4.691  1.00  0.00     0.004 C 
ATOM      4  C   UNL     1     -41.587  22.339   5.848  1.00  0.00     0.011 C 
ATOM      5  C   UNL     1     -41.855  23.020   7.205  1.00  0.00     0.043 C 
ATOM      6  C   UNL     1     -41.246  24.440   7.241  1.00  0.00     0.121 C 
ATOM      7  C   UNL     1     -41.784  25.287   6.072  1.00  0.00     0.035 C 
ENDROOT
BRANCH   6   8
ATOM      8  O   UNL     1     -41.576  25.059   8.458  1.00  0.00    -0.392 OA
ATOM      9  H   UNL     1     -41.793  26.004   8.252  1.00  0.00     0.210 HD
ENDBRANCH   6   8
BRANCH   5  10
ATOM     10  C   UNL     1     -41.339  22.160   8.353  1.00  0.00    -0.075 C 
ATOM     11  C   UNL     1     -42.125  21.214   8.891  1.00  0.00     0.008 C 
ATOM     12  C   UNL     1     -39.949  22.343   8.909  1.00  0.00     0.039 C 
ENDBRANCH   5  10
TORSDOF 2
ENDMDL
MODEL 2
REMARK VINA RESULT:    -1.372      1.614      2.473
REMARK INTER + INTRA:          -1.523
REMARK INTER:                  -1.343
REMARK INTRA:                  -0.180
REMARK UNBOUND:                -0.031
REMARK SMILES C=C(C)[C@@H]1CC[C@@H](C)C[C@H]1O
REMARK SMILES IDX 8 1 7 2 6 3 5 4 4 5 10 6 9 7 11 8 2 10 1 11 3 12
REMARK H PARENT 11 9
REMARK Flexibility Score: inf
ROOT
ATOM      1  C   UNL     1     -42.061  26.619   3.624  1.00  0.00     0.008 C 
ATOM      2  C   UNL     1     -42.123  25.584   4.753  1.00  0.00    -0.012 C 
ATOM      3  C   UNL     1     -41.706  26.221   6.092  1.00  0.00     0.004 C 
ATOM      4  C   UNL     1     -41.749  25.189   7.226  1.00  0.00     0.011 C 
ATOM      5  C   UNL     1     -40.855  23.975   6.901  1.00  0.00     0.043 C 
ATOM      6  C   UNL     1     -41.265  23.331   5.557  1.00  0.00     0.121 C 
ATOM      7  C   UNL     1     -41.226  24.374   4.426  1.00  0.00     0.035 C 
ENDROOT
BRANCH   6   8
ATOM      8  O   UNL     1     -40.383  22.280   5.256  1.00  0.00    -0.392 OA
ATOM      9  H   UNL     1     -40.844  21.696   4.600  1.00  0.00     0.210 HD
ENDBRANCH   6   8
BRANCH   5  10
ATOM     10  C   UNL     1     -40.885  22.962   8.040  1.00  0.00    -0.075 C 
ATOM     11  C   UNL     1     -39.820  22.825   8.847  1.00  0.00     0.008 C 
ATOM     12  C   UNL     1     -42.094  22.097   8.292  1.00  0.00     0.039 C 
ENDBRANCH   5  10
TORSDOF 2
ENDMDL
MODEL 3
REMARK VINA RESULT:    -0.348     17.816     18.748
REMARK INTER + INTRA:          -0.410
REMARK INTER:                  -0.905
REMARK INTRA:                   0.496
REMARK UNBOUND:                -0.031
REMARK SMILES C=C(C)[C@@H]1CC[C@@H](C)C[C@H]1O
REMARK SMILES IDX 8 1 7 2 6 3 5 4 4 5 10 6 9 7 11 8 2 10 1 11 3 12
REMARK H PARENT 11 9
REMARK Flexibility Score: inf
ROOT
ATOM      1  C   UNL     1     -25.613  28.174   5.188  1.00  0.00     0.008 C 
ATOM      2  C   UNL     1     -24.924  29.382   5.833  1.00  0.00    -0.012 C 
ATOM      3  C   UNL     1     -24.166  28.955   7.105  1.00  0.00     0.004 C 
ATOM      4  C   UNL     1     -23.487  30.159   7.768  1.00  0.00     0.011 C 
ATOM      5  C   UNL     1     -24.514  31.262   8.094  1.00  0.00     0.043 C 
ATOM      6  C   UNL     1     -25.282  31.695   6.824  1.00  0.00     0.121 C 
ATOM      7  C   UNL     1     -25.955  30.480   6.161  1.00  0.00     0.035 C 
ENDROOT
BRANCH   6   8
ATOM      8  O   UNL     1     -26.260  32.642   7.171  1.00  0.00    -0.392 OA
ATOM      9  H   UNL     1     -27.101  32.141   7.331  1.00  0.00     0.210 HD
ENDBRANCH   6   8
BRANCH   5  10
ATOM     10  C   UNL     1     -23.838  32.448   8.772  1.00  0.00    -0.075 C 
ATOM     11  C   UNL     1     -24.560  33.523   9.125  1.00  0.00     0.008 C 
ATOM     12  C   UNL     1     -22.358  32.448   9.064  1.00  0.00     0.039 C 
ENDBRANCH   5  10
TORSDOF 2
ENDMDL
MODEL 4
REMARK VINA RESULT:    -0.267     19.058     20.022
REMARK INTER + INTRA:          -0.322
REMARK INTER:                  -0.852
REMARK INTRA:                   0.530
REMARK UNBOUND:                -0.031
REMARK SMILES C=C(C)[C@@H]1CC[C@@H](C)C[C@H]1O
REMARK SMILES IDX 8 1 7 2 6 3 5 4 4 5 10 6 9 7 11 8 2 10 1 11 3 12
REMARK H PARENT 11 9
REMARK Flexibility Score: inf
ROOT
ATOM      1  C   UNL     1     -22.639  34.938   9.113  1.00  0.00     0.008 C 
ATOM      2  C   UNL     1     -22.889  33.638   8.340  1.00  0.00    -0.012 C 
ATOM      3  C   UNL     1     -24.401  33.382   8.190  1.00  0.00     0.004 C 
ATOM      4  C   UNL     1     -24.663  32.075   7.433  1.00  0.00     0.011 C 
ATOM      5  C   UNL     1     -23.979  30.884   8.134  1.00  0.00     0.043 C 
ATOM      6  C   UNL     1     -22.461  31.133   8.291  1.00  0.00     0.121 C 
ATOM      7  C   UNL     1     -22.207  32.450   9.046  1.00  0.00     0.035 C 
ENDROOT
BRANCH   6   8
ATOM      8  O   UNL     1     -21.885  30.066   9.001  1.00  0.00    -0.392 OA
ATOM      9  H   UNL     1     -20.902  30.148   8.897  1.00  0.00     0.210 HD
ENDBRANCH   6   8
BRANCH   5  10
ATOM     10  C   UNL     1     -24.259  29.584   7.388  1.00  0.00    -0.075 C 
ATOM     11  C   UNL     1     -23.690  28.438   7.796  1.00  0.00     0.008 C 
ATOM     12  C   UNL     1     -25.173  29.547   6.189  1.00  0.00     0.039 C 
ENDBRANCH   5  10
TORSDOF 2
ENDMDL
MODEL 5
REMARK VINA RESULT:     0.757     18.677     19.854
REMARK INTER + INTRA:           0.793
REMARK INTER:                   0.197
REMARK INTRA:                   0.596
REMARK UNBOUND:                -0.031
REMARK SMILES C=C(C)[C@@H]1CC[C@@H](C)C[C@H]1O
REMARK SMILES IDX 8 1 7 2 6 3 5 4 4 5 10 6 9 7 11 8 2 10 1 11 3 12
REMARK H PARENT 11 9
REMARK Flexibility Score: inf
ROOT
ATOM      1  C   UNL     1     -22.071  27.434   8.117  1.00  0.00     0.008 C 
ATOM      2  C   UNL     1     -22.887  28.675   8.496  1.00  0.00    -0.012 C 
ATOM      3  C   UNL     1     -23.961  28.961   7.429  1.00  0.00     0.004 C 
ATOM      4  C   UNL     1     -24.772  30.211   7.790  1.00  0.00     0.011 C 
ATOM      5  C   UNL     1     -23.850  31.434   7.973  1.00  0.00     0.043 C 
ATOM      6  C   UNL     1     -22.768  31.155   9.040  1.00  0.00     0.121 C 
ATOM      7  C   UNL     1     -21.962  29.895   8.674  1.00  0.00     0.035 C 
ENDROOT
BRANCH   6   8
ATOM      8  O   UNL     1     -21.901  32.258   9.124  1.00  0.00    -0.392 OA
ATOM      9  H   UNL     1     -21.178  32.106   8.462  1.00  0.00     0.210 HD
ENDBRANCH   6   8
BRANCH   5  10
ATOM     10  C   UNL     1     -24.663  32.678   8.311  1.00  0.00    -0.075 C 
ATOM     11  C   UNL     1     -25.944  32.773   7.918  1.00  0.00     0.008 C 
ATOM     12  C   UNL     1     -24.062  33.823   9.088  1.00  0.00     0.039 C 
ENDBRANCH   5  10
TORSDOF 2
ENDMDL
