MODEL 1
REMARK VINA RESULT:    -6.825      0.000      0.000
REMARK INTER + INTRA:          -8.564
REMARK INTER:                  -8.221
REMARK INTRA:                  -0.343
REMARK UNBOUND:                -0.343
REMARK SMILES O=c1c(O)c(-c2ccc(O)cc2O)oc2cc(O)cc(O)c12
REMARK SMILES IDX 5 1 3 2 2 3 1 4 22 5 20 6 19 7 17 8 16 9 15 10 14 11 6 12
REMARK SMILES IDX 8 13 7 14 9 15 11 16 12 17 10 18 13 20 4 22 21 24 18 26
REMARK H PARENT 10 19 13 21 4 23 21 25 18 27
REMARK Flexibility Score: inf
ROOT
ATOM      1  C   UNL     1     170.780 144.268 152.965  1.00  0.00     0.184 A 
ATOM      2  C   UNL     1     171.623 144.943 153.863  1.00  0.00     0.208 A 
ATOM      3  C   UNL     1     171.308 144.935 155.231  1.00  0.00     0.238 A 
ATOM      4  O   UNL     1     172.098 145.492 156.037  1.00  0.00    -0.285 OA
ATOM      5  C   UNL     1     170.143 144.269 155.680  1.00  0.00     0.111 A 
ATOM      6  C   UNL     1     169.704 144.229 157.038  1.00  0.00     0.134 A 
ATOM      7  C   UNL     1     168.605 143.433 157.386  1.00  0.00     0.093 A 
ATOM      8  C   UNL     1     167.890 142.728 156.415  1.00  0.00     0.123 A 
ATOM      9  C   UNL     1     168.275 142.807 155.080  1.00  0.00     0.094 A 
ATOM     10  C   UNL     1     169.389 143.564 154.706  1.00  0.00     0.146 A 
ATOM     11  O   UNL     1     169.727 143.602 153.423  1.00  0.00    -0.451 OA
ENDROOT
BRANCH   1  12
ATOM     12  C   UNL     1     171.040 144.258 151.507  1.00  0.00     0.063 A 
ATOM     13  C   UNL     1     171.938 143.154 149.531  1.00  0.00     0.047 A 
ATOM     14  C   UNL     1     171.667 143.153 150.902  1.00  0.00     0.020 A 
ATOM     15  C   UNL     1     171.597 144.261 148.747  1.00  0.00     0.119 A 
ATOM     16  C   UNL     1     170.986 145.369 149.340  1.00  0.00     0.093 A 
ATOM     17  C   UNL     1     170.709 145.377 150.715  1.00  0.00     0.130 A 
BRANCH  15  18
ATOM     18  O   UNL     1     171.863 144.272 147.380  1.00  0.00    -0.508 OA
ATOM     19  H   UNL     1     171.882 145.136 146.851  1.00  0.00     0.293 HD
ENDBRANCH  15  18
BRANCH  17  20
ATOM     20  O   UNL     1     170.093 146.487 151.293  1.00  0.00    -0.507 OA
ATOM     21  H   UNL     1     169.204 146.839 150.955  1.00  0.00     0.293 HD
ENDBRANCH  17  20
ENDBRANCH   1  12
BRANCH   2  22
ATOM     22  O   UNL     1     172.776 145.582 153.397  1.00  0.00    -0.502 OA
ATOM     23  H   UNL     1     172.748 146.483 152.932  1.00  0.00     0.293 HD
ENDBRANCH   2  22
BRANCH   6  24
ATOM     24  O   UNL     1     170.290 144.968 158.070  1.00  0.00    -0.507 OA
ATOM     25  H   UNL     1     169.893 145.800 158.478  1.00  0.00     0.293 HD
ENDBRANCH   6  24
BRANCH   8  26
ATOM     26  O   UNL     1     166.788 141.951 156.768  1.00  0.00    -0.508 OA
ATOM     27  H   UNL     1     166.416 141.957 157.710  1.00  0.00     0.293 HD
ENDBRANCH   8  26
TORSDOF 6
ENDMDL
MODEL 2
REMARK VINA RESULT:    -6.666      1.917      6.705
REMARK INTER + INTRA:          -8.372
REMARK INTER:                  -7.888
REMARK INTRA:                  -0.485
REMARK UNBOUND:                -0.343
REMARK SMILES O=c1c(O)c(-c2ccc(O)cc2O)oc2cc(O)cc(O)c12
REMARK SMILES IDX 5 1 3 2 2 3 1 4 22 5 20 6 19 7 17 8 16 9 15 10 14 11 6 12
REMARK SMILES IDX 8 13 7 14 9 15 11 16 12 17 10 18 13 20 4 22 21 24 18 26
REMARK H PARENT 10 19 13 21 4 23 21 25 18 27
REMARK Flexibility Score: inf
ROOT
ATOM      1  C   UNL     1     170.147 143.653 152.571  1.00  0.00     0.184 A 
ATOM      2  C   UNL     1     171.403 143.027 152.527  1.00  0.00     0.208 A 
ATOM      3  C   UNL     1     172.057 142.898 151.292  1.00  0.00     0.238 A 
ATOM      4  O   UNL     1     173.208 142.388 151.267  1.00  0.00    -0.285 OA
ATOM      5  C   UNL     1     171.437 143.377 150.113  1.00  0.00     0.111 A 
ATOM      6  C   UNL     1     171.989 143.263 148.802  1.00  0.00     0.134 A 
ATOM      7  C   UNL     1     171.347 143.888 147.725  1.00  0.00     0.093 A 
ATOM      8  C   UNL     1     170.138 144.565 147.902  1.00  0.00     0.123 A 
ATOM      9  C   UNL     1     169.561 144.631 149.167  1.00  0.00     0.094 A 
ATOM     10  C   UNL     1     170.196 144.050 150.267  1.00  0.00     0.146 A 
ATOM     11  O   UNL     1     169.617 144.147 151.458  1.00  0.00    -0.451 OA
ENDROOT
BRANCH   1  12
ATOM     12  C   UNL     1     169.391 143.801 153.837  1.00  0.00     0.063 A 
ATOM     13  C   UNL     1     167.955 142.854 155.560  1.00  0.00     0.047 A 
ATOM     14  C   UNL     1     168.691 142.709 154.381  1.00  0.00     0.020 A 
ATOM     15  C   UNL     1     167.900 144.094 156.206  1.00  0.00     0.119 A 
ATOM     16  C   UNL     1     168.581 145.188 155.667  1.00  0.00     0.093 A 
ATOM     17  C   UNL     1     169.323 145.051 154.484  1.00  0.00     0.130 A 
BRANCH  15  18
ATOM     18  O   UNL     1     167.170 144.249 157.382  1.00  0.00    -0.508 OA
ATOM     19  H   UNL     1     166.528 145.023 157.509  1.00  0.00     0.293 HD
ENDBRANCH  15  18
BRANCH  17  20
ATOM     20  O   UNL     1     170.003 146.151 153.960  1.00  0.00    -0.507 OA
ATOM     21  H   UNL     1     170.903 146.444 154.324  1.00  0.00     0.293 HD
ENDBRANCH  17  20
ENDBRANCH   1  12
BRANCH   2  22
ATOM     22  O   UNL     1     172.002 142.574 153.706  1.00  0.00    -0.502 OA
ATOM     23  H   UNL     1     172.050 141.591 153.948  1.00  0.00     0.293 HD
ENDBRANCH   2  22
BRANCH   6  24
ATOM     24  O   UNL     1     173.142 142.532 148.502  1.00  0.00    -0.507 OA
ATOM     25  H   UNL     1     173.752 142.113 149.186  1.00  0.00     0.293 HD
ENDBRANCH   6  24
BRANCH   8  26
ATOM     26  O   UNL     1     169.497 145.169 146.822  1.00  0.00    -0.508 OA
ATOM     27  H   UNL     1     168.731 145.818 146.956  1.00  0.00     0.293 HD
ENDBRANCH   8  26
TORSDOF 6
ENDMDL
MODEL 3
REMARK VINA RESULT:    -6.632      8.050      9.393
REMARK INTER + INTRA:          -8.332
REMARK INTER:                  -8.553
REMARK INTRA:                   0.221
REMARK UNBOUND:                -0.343
REMARK SMILES O=c1c(O)c(-c2ccc(O)cc2O)oc2cc(O)cc(O)c12
REMARK SMILES IDX 5 1 3 2 2 3 1 4 22 5 20 6 19 7 17 8 16 9 15 10 14 11 6 12
REMARK SMILES IDX 8 13 7 14 9 15 11 16 12 17 10 18 13 20 4 22 21 24 18 26
REMARK H PARENT 10 19 13 21 4 23 21 25 18 27
REMARK Flexibility Score: inf
ROOT
ATOM      1  C   UNL     1     167.083 146.872 146.314  1.00  0.00     0.184 A 
ATOM      2  C   UNL     1     168.423 146.452 146.333  1.00  0.00     0.208 A 
ATOM      3  C   UNL     1     168.707 145.078 146.302  1.00  0.00     0.238 A 
ATOM      4  O   UNL     1     169.909 144.709 146.261  1.00  0.00    -0.285 OA
ATOM      5  C   UNL     1     167.646 144.141 146.273  1.00  0.00     0.111 A 
ATOM      6  C   UNL     1     167.816 142.723 146.280  1.00  0.00     0.134 A 
ATOM      7  C   UNL     1     166.699 141.893 146.119  1.00  0.00     0.093 A 
ATOM      8  C   UNL     1     165.412 142.428 146.019  1.00  0.00     0.123 A 
ATOM      9  C   UNL     1     165.230 143.807 146.070  1.00  0.00     0.094 A 
ATOM     10  C   UNL     1     166.328 144.663 146.193  1.00  0.00     0.146 A 
ATOM     11  O   UNL     1     166.111 145.972 146.226  1.00  0.00    -0.451 OA
ENDROOT
BRANCH   1  12
ATOM     12  C   UNL     1     166.713 148.305 146.370  1.00  0.00     0.063 A 
ATOM     13  C   UNL     1     167.254 150.643 145.953  1.00  0.00     0.047 A 
ATOM     14  C   UNL     1     167.590 149.288 145.877  1.00  0.00     0.020 A 
ATOM     15  C   UNL     1     166.043 151.035 146.533  1.00  0.00     0.119 A 
ATOM     16  C   UNL     1     165.169 150.068 147.038  1.00  0.00     0.093 A 
ATOM     17  C   UNL     1     165.498 148.706 146.964  1.00  0.00     0.130 A 
BRANCH  15  18
ATOM     18  O   UNL     1     165.698 152.382 146.615  1.00  0.00    -0.508 OA
ATOM     19  H   UNL     1     166.246 153.037 147.160  1.00  0.00     0.293 HD
ENDBRANCH  15  18
BRANCH  17  20
ATOM     20  O   UNL     1     164.614 147.750 147.466  1.00  0.00    -0.507 OA
ATOM     21  H   UNL     1     164.294 146.972 146.902  1.00  0.00     0.293 HD
ENDBRANCH  17  20
ENDBRANCH   1  12
BRANCH   2  22
ATOM     22  O   UNL     1     169.453 147.397 146.349  1.00  0.00    -0.502 OA
ATOM     23  H   UNL     1     169.281 148.391 146.249  1.00  0.00     0.293 HD
ENDBRANCH   2  22
BRANCH   6  24
ATOM     24  O   UNL     1     169.045 142.085 146.467  1.00  0.00    -0.507 OA
ATOM     25  H   UNL     1     169.705 141.883 145.732  1.00  0.00     0.293 HD
ENDBRANCH   6  24
BRANCH   8  26
ATOM     26  O   UNL     1     164.305 141.594 145.876  1.00  0.00    -0.508 OA
ATOM     27  H   UNL     1     164.374 140.592 146.014  1.00  0.00     0.293 HD
ENDBRANCH   8  26
TORSDOF 6
ENDMDL
MODEL 4
REMARK VINA RESULT:    -6.614      3.105      7.003
REMARK INTER + INTRA:          -8.310
REMARK INTER:                  -7.934
REMARK INTRA:                  -0.376
REMARK UNBOUND:                -0.343
REMARK SMILES O=c1c(O)c(-c2ccc(O)cc2O)oc2cc(O)cc(O)c12
REMARK SMILES IDX 5 1 3 2 2 3 1 4 22 5 20 6 19 7 17 8 16 9 15 10 14 11 6 12
REMARK SMILES IDX 8 13 7 14 9 15 11 16 12 17 10 18 13 20 4 22 21 24 18 26
REMARK H PARENT 10 19 13 21 4 23 21 25 18 27
REMARK Flexibility Score: inf
ROOT
ATOM      1  C   UNL     1     171.223 144.843 157.360  1.00  0.00     0.184 A 
ATOM      2  C   UNL     1     170.059 144.142 157.715  1.00  0.00     0.208 A 
ATOM      3  C   UNL     1     169.000 144.068 156.797  1.00  0.00     0.238 A 
ATOM      4  O   UNL     1     167.984 143.391 157.099  1.00  0.00    -0.285 OA
ATOM      5  C   UNL     1     169.111 144.714 155.542  1.00  0.00     0.111 A 
ATOM      6  C   UNL     1     168.086 144.739 154.550  1.00  0.00     0.134 A 
ATOM      7  C   UNL     1     168.353 145.300 153.294  1.00  0.00     0.093 A 
ATOM      8  C   UNL     1     169.586 145.895 153.019  1.00  0.00     0.123 A 
ATOM      9  C   UNL     1     170.573 145.927 154.000  1.00  0.00     0.094 A 
ATOM     10  C   UNL     1     170.349 145.344 155.250  1.00  0.00     0.146 A 
ATOM     11  O   UNL     1     171.322 145.388 156.153  1.00  0.00    -0.451 OA
ENDROOT
BRANCH   1  12
ATOM     12  C   UNL     1     172.367 144.981 158.290  1.00  0.00     0.063 A 
ATOM     13  C   UNL     1     174.153 143.973 159.604  1.00  0.00     0.047 A 
ATOM     14  C   UNL     1     173.090 143.848 158.705  1.00  0.00     0.020 A 
ATOM     15  C   UNL     1     174.501 145.230 160.110  1.00  0.00     0.119 A 
ATOM     16  C   UNL     1     173.782 146.361 159.715  1.00  0.00     0.093 A 
ATOM     17  C   UNL     1     172.714 146.244 158.812  1.00  0.00     0.130 A 
BRANCH  15  18
ATOM     18  O   UNL     1     175.558 145.366 161.007  1.00  0.00    -0.508 OA
ATOM     19  H   UNL     1     176.207 146.142 160.947  1.00  0.00     0.293 HD
ENDBRANCH  15  18
BRANCH  17  20
ATOM     20  O   UNL     1     172.008 147.383 158.422  1.00  0.00    -0.507 OA
ATOM     21  H   UNL     1     171.272 147.340 157.726  1.00  0.00     0.293 HD
ENDBRANCH  17  20
ENDBRANCH   1  12
BRANCH   2  22
ATOM     22  O   UNL     1     169.979 143.501 158.955  1.00  0.00    -0.502 OA
ATOM     23  H   UNL     1     170.236 142.529 159.082  1.00  0.00     0.293 HD
ENDBRANCH   2  22
BRANCH   6  24
ATOM     24  O   UNL     1     166.790 144.256 154.754  1.00  0.00    -0.507 OA
ATOM     25  H   UNL     1     165.953 144.682 154.387  1.00  0.00     0.293 HD
ENDBRANCH   6  24
BRANCH   8  26
ATOM     26  O   UNL     1     169.838 146.464 151.772  1.00  0.00    -0.508 OA
ATOM     27  H   UNL     1     169.939 145.895 150.940  1.00  0.00     0.293 HD
ENDBRANCH   8  26
TORSDOF 6
ENDMDL
MODEL 5
REMARK VINA RESULT:    -6.568      2.180      6.906
REMARK INTER + INTRA:          -8.254
REMARK INTER:                  -7.831
REMARK INTRA:                  -0.424
REMARK UNBOUND:                -0.343
REMARK SMILES O=c1c(O)c(-c2ccc(O)cc2O)oc2cc(O)cc(O)c12
REMARK SMILES IDX 5 1 3 2 2 3 1 4 22 5 20 6 19 7 17 8 16 9 15 10 14 11 6 12
REMARK SMILES IDX 8 13 7 14 9 15 11 16 12 17 10 18 13 20 4 22 21 24 18 26
REMARK H PARENT 10 19 13 21 4 23 21 25 18 27
REMARK Flexibility Score: inf
ROOT
ATOM      1  C   UNL     1     170.690 144.862 155.542  1.00  0.00     0.184 A 
ATOM      2  C   UNL     1     169.676 145.573 154.879  1.00  0.00     0.208 A 
ATOM      3  C   UNL     1     169.603 145.509 153.479  1.00  0.00     0.238 A 
ATOM      4  O   UNL     1     168.659 146.102 152.895  1.00  0.00    -0.285 OA
ATOM      5  C   UNL     1     170.557 144.752 152.758  1.00  0.00     0.111 A 
ATOM      6  C   UNL     1     170.603 144.648 151.335  1.00  0.00     0.134 A 
ATOM      7  C   UNL     1     171.513 143.767 150.736  1.00  0.00     0.093 A 
ATOM      8  C   UNL     1     172.421 143.036 151.505  1.00  0.00     0.123 A 
ATOM      9  C   UNL     1     172.423 143.175 152.890  1.00  0.00     0.094 A 
ATOM     10  C   UNL     1     171.504 144.018 153.520  1.00  0.00     0.146 A 
ATOM     11  O   UNL     1     171.533 144.111 154.844  1.00  0.00    -0.451 OA
ENDROOT
BRANCH   1  12
ATOM     12  C   UNL     1     170.839 144.905 157.015  1.00  0.00     0.063 A 
ATOM     13  C   UNL     1     170.100 144.222 159.233  1.00  0.00     0.047 A 
ATOM     14  C   UNL     1     169.978 144.160 157.842  1.00  0.00     0.020 A 
ATOM     15  C   UNL     1     171.076 145.035 159.817  1.00  0.00     0.119 A 
ATOM     16  C   UNL     1     171.929 145.789 159.006  1.00  0.00     0.093 A 
ATOM     17  C   UNL     1     171.814 145.732 157.609  1.00  0.00     0.130 A 
BRANCH  15  18
ATOM     18  O   UNL     1     171.207 145.104 161.202  1.00  0.00    -0.508 OA
ATOM     19  H   UNL     1     170.888 144.352 161.802  1.00  0.00     0.293 HD
ENDBRANCH  15  18
BRANCH  17  20
ATOM     20  O   UNL     1     172.676 146.486 156.811  1.00  0.00    -0.507 OA
ATOM     21  H   UNL     1     172.662 147.500 156.823  1.00  0.00     0.293 HD
ENDBRANCH  17  20
ENDBRANCH   1  12
BRANCH   2  22
ATOM     22  O   UNL     1     168.738 146.304 155.614  1.00  0.00    -0.502 OA
ATOM     23  H   UNL     1     167.961 145.864 156.093  1.00  0.00     0.293 HD
ENDBRANCH   2  22
BRANCH   6  24
ATOM     24  O   UNL     1     169.804 145.402 150.472  1.00  0.00    -0.507 OA
ATOM     25  H   UNL     1     169.575 145.141 149.525  1.00  0.00     0.293 HD
ENDBRANCH   6  24
BRANCH   8  26
ATOM     26  O   UNL     1     173.334 142.174 150.899  1.00  0.00    -0.508 OA
ATOM     27  H   UNL     1     173.297 141.977 149.906  1.00  0.00     0.293 HD
ENDBRANCH   8  26
TORSDOF 6
ENDMDL
MODEL 6
REMARK VINA RESULT:    -6.556      3.279      6.809
REMARK INTER + INTRA:          -8.240
REMARK INTER:                  -7.823
REMARK INTRA:                  -0.417
REMARK UNBOUND:                -0.343
REMARK SMILES O=c1c(O)c(-c2ccc(O)cc2O)oc2cc(O)cc(O)c12
REMARK SMILES IDX 5 1 3 2 2 3 1 4 22 5 20 6 19 7 17 8 16 9 15 10 14 11 6 12
REMARK SMILES IDX 8 13 7 14 9 15 11 16 12 17 10 18 13 20 4 22 21 24 18 26
REMARK H PARENT 10 19 13 21 4 23 21 25 18 27
REMARK Flexibility Score: inf
ROOT
ATOM      1  C   UNL     1     171.533 145.423 157.820  1.00  0.00     0.184 A 
ATOM      2  C   UNL     1     170.811 144.539 158.637  1.00  0.00     0.208 A 
ATOM      3  C   UNL     1     169.670 143.908 158.117  1.00  0.00     0.238 A 
ATOM      4  O   UNL     1     169.060 143.073 158.836  1.00  0.00    -0.285 OA
ATOM      5  C   UNL     1     169.254 144.185 156.793  1.00  0.00     0.111 A 
ATOM      6  C   UNL     1     168.091 143.634 156.176  1.00  0.00     0.134 A 
ATOM      7  C   UNL     1     167.847 143.879 154.818  1.00  0.00     0.093 A 
ATOM      8  C   UNL     1     168.689 144.709 154.074  1.00  0.00     0.123 A 
ATOM      9  C   UNL     1     169.794 145.298 154.682  1.00  0.00     0.094 A 
ATOM     10  C   UNL     1     170.084 145.044 156.025  1.00  0.00     0.146 A 
ATOM     11  O   UNL     1     171.154 145.617 156.562  1.00  0.00    -0.451 OA
ENDROOT
BRANCH   1  12
ATOM     12  C   UNL     1     172.732 146.141 158.313  1.00  0.00     0.063 A 
ATOM     13  C   UNL     1     175.104 146.157 158.864  1.00  0.00     0.047 A 
ATOM     14  C   UNL     1     173.978 145.490 158.373  1.00  0.00     0.020 A 
ATOM     15  C   UNL     1     174.998 147.479 159.311  1.00  0.00     0.119 A 
ATOM     16  C   UNL     1     173.763 148.130 159.267  1.00  0.00     0.093 A 
ATOM     17  C   UNL     1     172.628 147.468 158.775  1.00  0.00     0.130 A 
BRANCH  15  18
ATOM     18  O   UNL     1     176.114 148.153 159.801  1.00  0.00    -0.508 OA
ATOM     19  H   UNL     1     176.088 148.647 160.686  1.00  0.00     0.293 HD
ENDBRANCH  15  18
BRANCH  17  20
ATOM     20  O   UNL     1     171.402 148.133 158.732  1.00  0.00    -0.507 OA
ATOM     21  H   UNL     1     170.562 147.727 159.130  1.00  0.00     0.293 HD
ENDBRANCH  17  20
ENDBRANCH   1  12
BRANCH   2  22
ATOM     22  O   UNL     1     171.249 144.270 159.938  1.00  0.00    -0.502 OA
ATOM     23  H   UNL     1     170.684 143.759 160.607  1.00  0.00     0.293 HD
ENDBRANCH   2  22
BRANCH   6  24
ATOM     24  O   UNL     1     167.137 142.869 156.853  1.00  0.00    -0.507 OA
ATOM     25  H   UNL     1     166.141 143.027 156.814  1.00  0.00     0.293 HD
ENDBRANCH   6  24
BRANCH   8  26
ATOM     26  O   UNL     1     168.430 144.960 152.727  1.00  0.00    -0.508 OA
ATOM     27  H   UNL     1     168.384 145.905 152.364  1.00  0.00     0.293 HD
ENDBRANCH   8  26
TORSDOF 6
ENDMDL
MODEL 7
REMARK VINA RESULT:    -6.386      2.697      4.829
REMARK INTER + INTRA:          -8.036
REMARK INTER:                  -7.658
REMARK INTRA:                  -0.378
REMARK UNBOUND:                -0.343
REMARK SMILES O=c1c(O)c(-c2ccc(O)cc2O)oc2cc(O)cc(O)c12
REMARK SMILES IDX 5 1 3 2 2 3 1 4 22 5 20 6 19 7 17 8 16 9 15 10 14 11 6 12
REMARK SMILES IDX 8 13 7 14 9 15 11 16 12 17 10 18 13 20 4 22 21 24 18 26
REMARK H PARENT 10 19 13 21 4 23 21 25 18 27
REMARK Flexibility Score: inf
ROOT
ATOM      1  C   UNL     1     171.123 145.188 155.746  1.00  0.00     0.184 A 
ATOM      2  C   UNL     1     170.205 144.667 156.672  1.00  0.00     0.208 A 
ATOM      3  C   UNL     1     170.563 144.607 158.028  1.00  0.00     0.238 A 
ATOM      4  O   UNL     1     169.715 144.192 158.860  1.00  0.00    -0.285 OA
ATOM      5  C   UNL     1     171.844 145.049 158.437  1.00  0.00     0.111 A 
ATOM      6  C   UNL     1     172.329 144.997 159.779  1.00  0.00     0.134 A 
ATOM      7  C   UNL     1     173.564 145.581 160.090  1.00  0.00     0.093 A 
ATOM      8  C   UNL     1     174.360 146.155 159.096  1.00  0.00     0.123 A 
ATOM      9  C   UNL     1     173.921 146.159 157.774  1.00  0.00     0.094 A 
ATOM     10  C   UNL     1     172.678 145.617 157.439  1.00  0.00     0.146 A 
ATOM     11  O   UNL     1     172.294 145.651 156.168  1.00  0.00    -0.451 OA
ENDROOT
BRANCH   1  12
ATOM     12  C   UNL     1     170.819 145.258 154.298  1.00  0.00     0.063 A 
ATOM     13  C   UNL     1     169.465 146.117 152.465  1.00  0.00     0.047 A 
ATOM     14  C   UNL     1     169.771 146.071 153.828  1.00  0.00     0.020 A 
ATOM     15  C   UNL     1     170.193 145.344 151.555  1.00  0.00     0.119 A 
ATOM     16  C   UNL     1     171.228 144.524 152.012  1.00  0.00     0.093 A 
ATOM     17  C   UNL     1     171.543 144.473 153.379  1.00  0.00     0.130 A 
BRANCH  15  18
ATOM     18  O   UNL     1     169.897 145.383 150.195  1.00  0.00    -0.508 OA
ATOM     19  H   UNL     1     170.627 145.386 149.493  1.00  0.00     0.293 HD
ENDBRANCH  15  18
BRANCH  17  20
ATOM     20  O   UNL     1     172.582 143.653 153.821  1.00  0.00    -0.507 OA
ATOM     21  H   UNL     1     173.209 143.192 153.172  1.00  0.00     0.293 HD
ENDBRANCH  17  20
ENDBRANCH   1  12
BRANCH   2  22
ATOM     22  O   UNL     1     168.940 144.249 156.245  1.00  0.00    -0.502 OA
ATOM     23  H   UNL     1     168.110 144.359 156.816  1.00  0.00     0.293 HD
ENDBRANCH   2  22
BRANCH   6  24
ATOM     24  O   UNL     1     171.656 144.365 160.828  1.00  0.00    -0.507 OA
ATOM     25  H   UNL     1     172.091 144.043 161.679  1.00  0.00     0.293 HD
ENDBRANCH   6  24
BRANCH   8  26
ATOM     26  O   UNL     1     175.595 146.720 159.412  1.00  0.00    -0.508 OA
ATOM     27  H   UNL     1     175.668 147.661 159.779  1.00  0.00     0.293 HD
ENDBRANCH   8  26
TORSDOF 6
ENDMDL
MODEL 8
REMARK VINA RESULT:    -6.367      1.984      6.715
REMARK INTER + INTRA:          -8.013
REMARK INTER:                  -7.609
REMARK INTRA:                  -0.404
REMARK UNBOUND:                -0.343
REMARK SMILES O=c1c(O)c(-c2ccc(O)cc2O)oc2cc(O)cc(O)c12
REMARK SMILES IDX 5 1 3 2 2 3 1 4 22 5 20 6 19 7 17 8 16 9 15 10 14 11 6 12
REMARK SMILES IDX 8 13 7 14 9 15 11 16 12 17 10 18 13 20 4 22 21 24 18 26
REMARK H PARENT 10 19 13 21 4 23 21 25 18 27
REMARK Flexibility Score: inf
ROOT
ATOM      1  C   UNL     1     169.426 143.303 154.119  1.00  0.00     0.184 A 
ATOM      2  C   UNL     1     169.336 144.678 153.848  1.00  0.00     0.208 A 
ATOM      3  C   UNL     1     169.618 145.137 152.552  1.00  0.00     0.238 A 
ATOM      4  O   UNL     1     169.480 146.363 152.301  1.00  0.00    -0.285 OA
ATOM      5  C   UNL     1     170.006 144.217 151.549  1.00  0.00     0.111 A 
ATOM      6  C   UNL     1     170.354 144.575 150.212  1.00  0.00     0.134 A 
ATOM      7  C   UNL     1     170.598 143.568 149.268  1.00  0.00     0.093 A 
ATOM      8  C   UNL     1     170.572 142.220 149.632  1.00  0.00     0.123 A 
ATOM      9  C   UNL     1     170.291 141.863 150.948  1.00  0.00     0.094 A 
ATOM     10  C   UNL     1     170.007 142.842 151.903  1.00  0.00     0.146 A 
ATOM     11  O   UNL     1     169.733 142.457 153.143  1.00  0.00    -0.451 OA
ENDROOT
BRANCH   1  12
ATOM     12  C   UNL     1     169.166 142.754 155.471  1.00  0.00     0.063 A 
ATOM     13  C   UNL     1     167.616 141.867 157.126  1.00  0.00     0.047 A 
ATOM     14  C   UNL     1     167.868 142.359 155.842  1.00  0.00     0.020 A 
ATOM     15  C   UNL     1     168.654 141.773 158.059  1.00  0.00     0.119 A 
ATOM     16  C   UNL     1     169.945 142.175 157.705  1.00  0.00     0.093 A 
ATOM     17  C   UNL     1     170.206 142.669 156.418  1.00  0.00     0.130 A 
BRANCH  15  18
ATOM     18  O   UNL     1     168.414 141.284 159.341  1.00  0.00    -0.508 OA
ATOM     19  H   UNL     1     167.643 141.625 159.903  1.00  0.00     0.293 HD
ENDBRANCH  15  18
BRANCH  17  20
ATOM     20  O   UNL     1     171.501 143.061 156.076  1.00  0.00    -0.507 OA
ATOM     21  H   UNL     1     172.315 142.547 156.393  1.00  0.00     0.293 HD
ENDBRANCH  17  20
ENDBRANCH   1  12
BRANCH   2  22
ATOM     22  O   UNL     1     168.938 145.566 154.853  1.00  0.00    -0.502 OA
ATOM     23  H   UNL     1     169.098 146.565 154.790  1.00  0.00     0.293 HD
ENDBRANCH   2  22
BRANCH   6  24
ATOM     24  O   UNL     1     170.499 145.893 149.769  1.00  0.00    -0.507 OA
ATOM     25  H   UNL     1     170.848 146.653 150.331  1.00  0.00     0.293 HD
ENDBRANCH   6  24
BRANCH   8  26
ATOM     26  O   UNL     1     170.833 141.225 148.690  1.00  0.00    -0.508 OA
ATOM     27  H   UNL     1     171.753 140.813 148.597  1.00  0.00     0.293 HD
ENDBRANCH   8  26
TORSDOF 6
ENDMDL
MODEL 9
REMARK VINA RESULT:    -6.343      1.796      3.476
REMARK INTER + INTRA:          -7.983
REMARK INTER:                  -7.512
REMARK INTRA:                  -0.471
REMARK UNBOUND:                -0.343
REMARK SMILES O=c1c(O)c(-c2ccc(O)cc2O)oc2cc(O)cc(O)c12
REMARK SMILES IDX 5 1 3 2 2 3 1 4 22 5 20 6 19 7 17 8 16 9 15 10 14 11 6 12
REMARK SMILES IDX 8 13 7 14 9 15 11 16 12 17 10 18 13 20 4 22 21 24 18 26
REMARK H PARENT 10 19 13 21 4 23 21 25 18 27
REMARK Flexibility Score: inf
ROOT
ATOM      1  C   UNL     1     170.191 144.233 154.212  1.00  0.00     0.184 A 
ATOM      2  C   UNL     1     169.131 143.814 155.033  1.00  0.00     0.208 A 
ATOM      3  C   UNL     1     169.230 143.999 156.421  1.00  0.00     0.238 A 
ATOM      4  O   UNL     1     168.253 143.675 157.145  1.00  0.00    -0.285 OA
ATOM      5  C   UNL     1     170.396 144.582 156.972  1.00  0.00     0.111 A 
ATOM      6  C   UNL     1     170.622 144.782 158.367  1.00  0.00     0.134 A 
ATOM      7  C   UNL     1     171.757 145.485 158.790  1.00  0.00     0.093 A 
ATOM      8  C   UNL     1     172.707 145.938 157.871  1.00  0.00     0.123 A 
ATOM      9  C   UNL     1     172.525 145.697 156.512  1.00  0.00     0.094 A 
ATOM     10  C   UNL     1     171.385 145.030 156.057  1.00  0.00     0.146 A 
ATOM     11  O   UNL     1     171.246 144.831 154.751  1.00  0.00    -0.451 OA
ENDROOT
BRANCH   1  12
ATOM     12  C   UNL     1     170.162 144.045 152.743  1.00  0.00     0.063 A 
ATOM     13  C   UNL     1     170.304 142.586 150.798  1.00  0.00     0.047 A 
ATOM     14  C   UNL     1     170.303 142.762 152.185  1.00  0.00     0.020 A 
ATOM     15  C   UNL     1     170.175 143.691 149.950  1.00  0.00     0.119 A 
ATOM     16  C   UNL     1     170.047 144.973 150.493  1.00  0.00     0.093 A 
ATOM     17  C   UNL     1     170.044 145.157 151.884  1.00  0.00     0.130 A 
BRANCH  15  18
ATOM     18  O   UNL     1     170.174 143.528 148.567  1.00  0.00    -0.508 OA
ATOM     19  H   UNL     1     170.204 144.323 147.939  1.00  0.00     0.293 HD
ENDBRANCH  15  18
BRANCH  17  20
ATOM     20  O   UNL     1     169.909 146.441 152.413  1.00  0.00    -0.507 OA
ATOM     21  H   UNL     1     170.282 146.683 153.324  1.00  0.00     0.293 HD
ENDBRANCH  17  20
ENDBRANCH   1  12
BRANCH   2  22
ATOM     22  O   UNL     1     167.983 143.253 154.464  1.00  0.00    -0.502 OA
ATOM     23  H   UNL     1     167.757 143.357 153.482  1.00  0.00     0.293 HD
ENDBRANCH   2  22
BRANCH   6  24
ATOM     24  O   UNL     1     169.783 144.290 159.371  1.00  0.00    -0.507 OA
ATOM     25  H   UNL     1     169.919 144.442 160.359  1.00  0.00     0.293 HD
ENDBRANCH   6  24
BRANCH   8  26
ATOM     26  O   UNL     1     173.842 146.622 158.302  1.00  0.00    -0.508 OA
ATOM     27  H   UNL     1     174.211 146.501 159.238  1.00  0.00     0.293 HD
ENDBRANCH   8  26
TORSDOF 6
ENDMDL
