MODEL 1
REMARK VINA RESULT:    -5.033      0.000      0.000
REMARK INTER + INTRA:          -5.181
REMARK INTER:                  -5.181
REMARK INTRA:                   0.000
REMARK UNBOUND:                 0.000
REMARK SMILES C=C1[C@H](O)C[C@@]23C[C@@H]1C(C)(C)[C@@H]2CC[C@@H]3C
REMARK SMILES IDX 16 1 15 2 14 3 13 4 12 5 6 6 7 7 8 8 9 9 10 10 11 11 2 12
REMARK SMILES IDX 1 13 3 14 5 15 4 16
REMARK H PARENT 4 17
REMARK Flexibility Score: inf
ROOT
ATOM      1  C   UNL     1     145.266 134.896 151.202  1.00  0.00     0.008 C 
ATOM      2  C   UNL     1     146.183 134.552 150.019  1.00  0.00    -0.008 C 
ATOM      3  C   UNL     1     145.407 134.136 148.776  1.00  0.00     0.004 C 
ATOM      4  C   UNL     1     146.393 134.299 147.626  1.00  0.00     0.005 C 
ATOM      5  C   UNL     1     147.378 135.415 148.042  1.00  0.00     0.002 C 
ATOM      6  C   UNL     1     147.112 135.691 149.543  1.00  0.00    -0.020 C 
ATOM      7  C   UNL     1     146.479 137.087 149.579  1.00  0.00     0.016 C 
ATOM      8  C   UNL     1     147.294 137.809 148.523  1.00  0.00     0.023 C 
ATOM      9  C   UNL     1     147.279 136.810 147.328  1.00  0.00    -0.025 C 
ATOM     10  C   UNL     1     145.973 137.022 146.511  1.00  0.00     0.012 C 
ATOM     11  C   UNL     1     148.461 137.029 146.353  1.00  0.00     0.012 C 
ATOM     12  C   UNL     1     148.695 138.020 149.101  1.00  0.00    -0.045 C 
ATOM     13  C   UNL     1     149.354 139.161 148.846  1.00  0.00     0.011 C 
ATOM     14  C   UNL     1     149.383 136.918 149.908  1.00  0.00     0.140 C 
ATOM     15  C   UNL     1     148.436 135.760 150.352  1.00  0.00     0.044 C 
ENDROOT
BRANCH  14  16
ATOM     16  O   UNL     1     150.450 136.402 149.154  1.00  0.00    -0.389 OA
ATOM     17  H   UNL     1     150.081 136.143 148.270  1.00  0.00     0.211 HD
ENDBRANCH  14  16
TORSDOF 1
ENDMDL
MODEL 2
REMARK VINA RESULT:    -4.874      1.344      3.644
REMARK INTER + INTRA:          -5.016
REMARK INTER:                  -5.016
REMARK INTRA:                   0.000
REMARK UNBOUND:                 0.000
REMARK SMILES C=C1[C@H](O)C[C@@]23C[C@@H]1C(C)(C)[C@@H]2CC[C@@H]3C
REMARK SMILES IDX 16 1 15 2 14 3 13 4 12 5 6 6 7 7 8 8 9 9 10 10 11 11 2 12
REMARK SMILES IDX 1 13 3 14 5 15 4 16
REMARK H PARENT 4 17
REMARK Flexibility Score: inf
ROOT
ATOM      1  C   UNL     1     147.156 137.563 146.019  1.00  0.00     0.008 C 
ATOM      2  C   UNL     1     146.882 137.716 147.523  1.00  0.00    -0.008 C 
ATOM      3  C   UNL     1     145.464 137.312 147.905  1.00  0.00     0.004 C 
ATOM      4  C   UNL     1     145.517 137.071 149.408  1.00  0.00     0.005 C 
ATOM      5  C   UNL     1     146.962 136.628 149.735  1.00  0.00     0.002 C 
ATOM      6  C   UNL     1     147.794 136.886 148.453  1.00  0.00    -0.020 C 
ATOM      7  C   UNL     1     148.143 135.489 147.926  1.00  0.00     0.016 C 
ATOM      8  C   UNL     1     148.435 134.749 149.216  1.00  0.00     0.023 C 
ATOM      9  C   UNL     1     147.221 135.127 150.117  1.00  0.00    -0.025 C 
ATOM     10  C   UNL     1     146.039 134.170 149.796  1.00  0.00     0.012 C 
ATOM     11  C   UNL     1     147.527 134.976 151.626  1.00  0.00     0.012 C 
ATOM     12  C   UNL     1     149.762 135.286 149.755  1.00  0.00    -0.045 C 
ATOM     13  C   UNL     1     150.630 134.447 150.341  1.00  0.00     0.011 C 
ATOM     14  C   UNL     1     150.082 136.781 149.700  1.00  0.00     0.140 C 
ATOM     15  C   UNL     1     149.130 137.608 148.780  1.00  0.00     0.044 C 
ENDROOT
BRANCH  14  16
ATOM     16  O   UNL     1     150.057 137.300 151.004  1.00  0.00    -0.389 OA
ATOM     17  H   UNL     1     149.417 136.748 151.524  1.00  0.00     0.211 HD
ENDBRANCH  14  16
TORSDOF 1
ENDMDL
MODEL 3
REMARK VINA RESULT:    -4.853      8.387     10.239
REMARK INTER + INTRA:          -4.995
REMARK INTER:                  -4.995
REMARK INTRA:                   0.000
REMARK UNBOUND:                 0.000
REMARK SMILES C=C1[C@H](O)C[C@@]23C[C@@H]1C(C)(C)[C@@H]2CC[C@@H]3C
REMARK SMILES IDX 16 1 15 2 14 3 13 4 12 5 6 6 7 7 8 8 9 9 10 10 11 11 2 12
REMARK SMILES IDX 1 13 3 14 5 15 4 16
REMARK H PARENT 4 17
REMARK Flexibility Score: inf
ROOT
ATOM      1  C   UNL     1     140.757 143.455 148.568  1.00  0.00     0.008 C 
ATOM      2  C   UNL     1     139.610 142.558 148.078  1.00  0.00    -0.008 C 
ATOM      3  C   UNL     1     138.357 143.348 147.723  1.00  0.00     0.004 C 
ATOM      4  C   UNL     1     137.540 142.411 146.843  1.00  0.00     0.005 C 
ATOM      5  C   UNL     1     138.548 141.480 146.130  1.00  0.00     0.002 C 
ATOM      6  C   UNL     1     139.915 141.714 146.821  1.00  0.00    -0.020 C 
ATOM      7  C   UNL     1     140.770 142.426 145.766  1.00  0.00     0.016 C 
ATOM      8  C   UNL     1     140.360 141.690 144.506  1.00  0.00     0.023 C 
ATOM      9  C   UNL     1     138.805 141.685 144.595  1.00  0.00    -0.025 C 
ATOM     10  C   UNL     1     138.264 143.026 144.026  1.00  0.00     0.012 C 
ATOM     11  C   UNL     1     138.163 140.549 143.761  1.00  0.00     0.012 C 
ATOM     12  C   UNL     1     140.963 140.286 144.587  1.00  0.00    -0.045 C 
ATOM     13  C   UNL     1     141.443 139.703 143.478  1.00  0.00     0.011 C 
ATOM     14  C   UNL     1     140.960 139.507 145.904  1.00  0.00     0.140 C 
ATOM     15  C   UNL     1     140.617 140.370 147.159  1.00  0.00     0.044 C 
ENDROOT
BRANCH  14  16
ATOM     16  O   UNL     1     140.056 138.437 145.797  1.00  0.00    -0.389 OA
ATOM     17  H   UNL     1     140.142 137.902 146.628  1.00  0.00     0.211 HD
ENDBRANCH  14  16
TORSDOF 1
ENDMDL
MODEL 4
REMARK VINA RESULT:    -4.825      1.806      4.041
REMARK INTER + INTRA:          -4.966
REMARK INTER:                  -4.966
REMARK INTRA:                   0.000
REMARK UNBOUND:                 0.000
REMARK SMILES C=C1[C@H](O)C[C@@]23C[C@@H]1C(C)(C)[C@@H]2CC[C@@H]3C
REMARK SMILES IDX 16 1 15 2 14 3 13 4 12 5 6 6 7 7 8 8 9 9 10 10 11 11 2 12
REMARK SMILES IDX 1 13 3 14 5 15 4 16
REMARK H PARENT 4 17
REMARK Flexibility Score: inf
ROOT
ATOM      1  C   UNL     1     150.378 135.165 150.263  1.00  0.00     0.008 C 
ATOM      2  C   UNL     1     149.227 136.182 150.258  1.00  0.00    -0.008 C 
ATOM      3  C   UNL     1     149.577 137.460 149.507  1.00  0.00     0.004 C 
ATOM      4  C   UNL     1     148.235 138.112 149.198  1.00  0.00     0.005 C 
ATOM      5  C   UNL     1     147.201 136.969 149.093  1.00  0.00     0.002 C 
ATOM      6  C   UNL     1     147.910 135.694 149.616  1.00  0.00    -0.020 C 
ATOM      7  C   UNL     1     148.093 134.811 148.375  1.00  0.00     0.016 C 
ATOM      8  C   UNL     1     146.781 135.042 147.651  1.00  0.00     0.023 C 
ATOM      9  C   UNL     1     146.637 136.593 147.676  1.00  0.00    -0.025 C 
ATOM     10  C   UNL     1     147.436 137.192 146.486  1.00  0.00     0.012 C 
ATOM     11  C   UNL     1     145.169 137.058 147.514  1.00  0.00     0.012 C 
ATOM     12  C   UNL     1     145.690 134.332 148.455  1.00  0.00    -0.045 C 
ATOM     13  C   UNL     1     144.692 133.705 147.814  1.00  0.00     0.011 C 
ATOM     14  C   UNL     1     145.683 134.387 149.984  1.00  0.00     0.140 C 
ATOM     15  C   UNL     1     147.012 134.914 150.613  1.00  0.00     0.044 C 
ENDROOT
BRANCH  14  16
ATOM     16  O   UNL     1     144.606 135.183 150.405  1.00  0.00    -0.389 OA
ATOM     17  H   UNL     1     144.674 135.266 151.391  1.00  0.00     0.211 HD
ENDBRANCH  14  16
TORSDOF 1
ENDMDL
MODEL 5
REMARK VINA RESULT:    -4.746      8.764     10.843
REMARK INTER + INTRA:          -4.884
REMARK INTER:                  -4.884
REMARK INTRA:                   0.000
REMARK UNBOUND:                 0.000
REMARK SMILES C=C1[C@H](O)C[C@@]23C[C@@H]1C(C)(C)[C@@H]2CC[C@@H]3C
REMARK SMILES IDX 16 1 15 2 14 3 13 4 12 5 6 6 7 7 8 8 9 9 10 10 11 11 2 12
REMARK SMILES IDX 1 13 3 14 5 15 4 16
REMARK H PARENT 4 17
REMARK Flexibility Score: inf
ROOT
ATOM      1  C   UNL     1     139.315 140.639 141.464  1.00  0.00     0.008 C 
ATOM      2  C   UNL     1     138.661 140.114 142.751  1.00  0.00    -0.008 C 
ATOM      3  C   UNL     1     139.129 138.711 143.117  1.00  0.00     0.004 C 
ATOM      4  C   UNL     1     138.779 138.553 144.591  1.00  0.00     0.005 C 
ATOM      5  C   UNL     1     138.813 139.970 145.208  1.00  0.00     0.002 C 
ATOM      6  C   UNL     1     138.913 140.959 144.019  1.00  0.00    -0.020 C 
ATOM      7  C   UNL     1     140.324 141.551 144.121  1.00  0.00     0.016 C 
ATOM      8  C   UNL     1     140.467 141.720 145.621  1.00  0.00     0.023 C 
ATOM      9  C   UNL     1     139.994 140.342 146.174  1.00  0.00    -0.025 C 
ATOM     10  C   UNL     1     141.189 139.349 146.139  1.00  0.00     0.012 C 
ATOM     11  C   UNL     1     139.516 140.421 147.644  1.00  0.00     0.012 C 
ATOM     12  C   UNL     1     139.548 142.871 146.036  1.00  0.00    -0.045 C 
ATOM     13  C   UNL     1     139.945 143.729 146.988  1.00  0.00     0.011 C 
ATOM     14  C   UNL     1     138.151 143.016 145.429  1.00  0.00     0.140 C 
ATOM     15  C   UNL     1     137.905 142.130 144.168  1.00  0.00     0.044 C 
ENDROOT
BRANCH  14  16
ATOM     16  O   UNL     1     137.195 142.722 146.415  1.00  0.00    -0.389 OA
ATOM     17  H   UNL     1     137.236 143.453 147.085  1.00  0.00     0.211 HD
ENDBRANCH  14  16
TORSDOF 1
ENDMDL
MODEL 6
REMARK VINA RESULT:    -4.711      2.540      4.565
REMARK INTER + INTRA:          -4.849
REMARK INTER:                  -4.849
REMARK INTRA:                   0.000
REMARK UNBOUND:                 0.000
REMARK SMILES C=C1[C@H](O)C[C@@]23C[C@@H]1C(C)(C)[C@@H]2CC[C@@H]3C
REMARK SMILES IDX 16 1 15 2 14 3 13 4 12 5 6 6 7 7 8 8 9 9 10 10 11 11 2 12
REMARK SMILES IDX 1 13 3 14 5 15 4 16
REMARK H PARENT 4 17
REMARK Flexibility Score: inf
ROOT
ATOM      1  C   UNL     1     147.372 135.394 148.713  1.00  0.00     0.008 C 
ATOM      2  C   UNL     1     147.465 136.927 148.658  1.00  0.00    -0.008 C 
ATOM      3  C   UNL     1     148.696 137.466 149.375  1.00  0.00     0.004 C 
ATOM      4  C   UNL     1     148.879 138.877 148.830  1.00  0.00     0.005 C 
ATOM      5  C   UNL     1     148.293 138.879 147.400  1.00  0.00     0.002 C 
ATOM      6  C   UNL     1     147.532 137.539 147.241  1.00  0.00    -0.020 C 
ATOM      7  C   UNL     1     148.363 136.733 146.236  1.00  0.00     0.016 C 
ATOM      8  C   UNL     1     148.769 137.814 145.253  1.00  0.00     0.023 C 
ATOM      9  C   UNL     1     149.282 138.954 146.182  1.00  0.00    -0.025 C 
ATOM     10  C   UNL     1     150.769 138.679 146.544  1.00  0.00     0.012 C 
ATOM     11  C   UNL     1     149.234 140.345 145.503  1.00  0.00     0.012 C 
ATOM     12  C   UNL     1     147.515 138.207 144.470  1.00  0.00    -0.045 C 
ATOM     13  C   UNL     1     147.610 138.490 143.162  1.00  0.00     0.011 C 
ATOM     14  C   UNL     1     146.165 138.351 145.174  1.00  0.00     0.140 C 
ATOM     15  C   UNL     1     146.127 137.755 146.617  1.00  0.00     0.044 C 
ENDROOT
BRANCH  14  16
ATOM     16  O   UNL     1     145.813 139.711 145.208  1.00  0.00    -0.389 OA
ATOM     17  H   UNL     1     144.973 139.779 145.731  1.00  0.00     0.211 HD
ENDBRANCH  14  16
TORSDOF 1
ENDMDL
MODEL 7
REMARK VINA RESULT:    -4.682      2.446      4.318
REMARK INTER + INTRA:          -4.818
REMARK INTER:                  -4.818
REMARK INTRA:                   0.000
REMARK UNBOUND:                 0.000
REMARK SMILES C=C1[C@H](O)C[C@@]23C[C@@H]1C(C)(C)[C@@H]2CC[C@@H]3C
REMARK SMILES IDX 16 1 15 2 14 3 13 4 12 5 6 6 7 7 8 8 9 9 10 10 11 11 2 12
REMARK SMILES IDX 1 13 3 14 5 15 4 16
REMARK H PARENT 4 17
REMARK Flexibility Score: inf
ROOT
ATOM      1  C   UNL     1     148.758 135.704 150.508  1.00  0.00     0.008 C 
ATOM      2  C   UNL     1     147.554 134.765 150.346  1.00  0.00    -0.008 C 
ATOM      3  C   UNL     1     146.951 134.348 151.682  1.00  0.00     0.004 C 
ATOM      4  C   UNL     1     145.553 133.848 151.341  1.00  0.00     0.005 C 
ATOM      5  C   UNL     1     145.108 134.607 150.071  1.00  0.00     0.002 C 
ATOM      6  C   UNL     1     146.368 135.335 149.538  1.00  0.00    -0.020 C 
ATOM      7  C   UNL     1     146.090 136.824 149.777  1.00  0.00     0.016 C 
ATOM      8  C   UNL     1     144.618 136.911 149.424  1.00  0.00     0.023 C 
ATOM      9  C   UNL     1     144.001 135.712 150.203  1.00  0.00    -0.025 C 
ATOM     10  C   UNL     1     143.710 136.158 151.664  1.00  0.00     0.012 C 
ATOM     11  C   UNL     1     142.656 135.237 149.601  1.00  0.00     0.012 C 
ATOM     12  C   UNL     1     144.507 136.751 147.906  1.00  0.00    -0.045 C 
ATOM     13  C   UNL     1     143.606 137.475 147.225  1.00  0.00     0.011 C 
ATOM     14  C   UNL     1     145.362 135.722 147.163  1.00  0.00     0.140 C 
ATOM     15  C   UNL     1     146.536 135.133 148.007  1.00  0.00     0.044 C 
ENDROOT
BRANCH  14  16
ATOM     16  O   UNL     1     144.532 134.685 146.708  1.00  0.00    -0.389 OA
ATOM     17  H   UNL     1     143.631 134.846 147.092  1.00  0.00     0.211 HD
ENDBRANCH  14  16
TORSDOF 1
ENDMDL
MODEL 8
REMARK VINA RESULT:    -4.642      3.647      5.043
REMARK INTER + INTRA:          -4.778
REMARK INTER:                  -4.778
REMARK INTRA:                   0.000
REMARK UNBOUND:                 0.000
REMARK SMILES C=C1[C@H](O)C[C@@]23C[C@@H]1C(C)(C)[C@@H]2CC[C@@H]3C
REMARK SMILES IDX 16 1 15 2 14 3 13 4 12 5 6 6 7 7 8 8 9 9 10 10 11 11 2 12
REMARK SMILES IDX 1 13 3 14 5 15 4 16
REMARK H PARENT 4 17
REMARK Flexibility Score: inf
ROOT
ATOM      1  C   UNL     1     144.101 138.500 145.960  1.00  0.00     0.008 C 
ATOM      2  C   UNL     1     145.120 137.944 144.954  1.00  0.00    -0.008 C 
ATOM      3  C   UNL     1     144.754 138.266 143.510  1.00  0.00     0.004 C 
ATOM      4  C   UNL     1     146.048 138.079 142.728  1.00  0.00     0.005 C 
ATOM      5  C   UNL     1     147.205 138.372 143.709  1.00  0.00     0.002 C 
ATOM      6  C   UNL     1     146.567 138.456 145.119  1.00  0.00    -0.020 C 
ATOM      7  C   UNL     1     146.681 139.934 145.512  1.00  0.00     0.016 C 
ATOM      8  C   UNL     1     148.057 140.279 144.977  1.00  0.00     0.023 C 
ATOM      9  C   UNL     1     148.024 139.701 143.531  1.00  0.00    -0.025 C 
ATOM     10  C   UNL     1     147.361 140.742 142.587  1.00  0.00     0.012 C 
ATOM     11  C   UNL     1     149.438 139.419 142.969  1.00  0.00     0.012 C 
ATOM     12  C   UNL     1     149.078 139.576 145.873  1.00  0.00    -0.045 C 
ATOM     13  C   UNL     1     150.228 140.194 146.183  1.00  0.00     0.011 C 
ATOM     14  C   UNL     1     148.838 138.146 146.363  1.00  0.00     0.140 C 
ATOM     15  C   UNL     1     147.377 137.635 146.158  1.00  0.00     0.044 C 
ENDROOT
BRANCH  14  16
ATOM     16  O   UNL     1     149.742 137.287 145.717  1.00  0.00    -0.389 OA
ATOM     17  H   UNL     1     149.654 136.397 146.149  1.00  0.00     0.211 HD
ENDBRANCH  14  16
TORSDOF 1
ENDMDL
MODEL 9
REMARK VINA RESULT:    -4.633      3.551      5.430
REMARK INTER + INTRA:          -4.769
REMARK INTER:                  -4.769
REMARK INTRA:                   0.000
REMARK UNBOUND:                 0.000
REMARK SMILES C=C1[C@H](O)C[C@@]23C[C@@H]1C(C)(C)[C@@H]2CC[C@@H]3C
REMARK SMILES IDX 16 1 15 2 14 3 13 4 12 5 6 6 7 7 8 8 9 9 10 10 11 11 2 12
REMARK SMILES IDX 1 13 3 14 5 15 4 16
REMARK H PARENT 4 17
REMARK Flexibility Score: inf
ROOT
ATOM      1  C   UNL     1     148.981 139.255 148.058  1.00  0.00     0.008 C 
ATOM      2  C   UNL     1     148.339 138.275 147.065  1.00  0.00    -0.008 C 
ATOM      3  C   UNL     1     147.037 137.679 147.587  1.00  0.00     0.004 C 
ATOM      4  C   UNL     1     146.328 137.144 146.349  1.00  0.00     0.005 C 
ATOM      5  C   UNL     1     146.795 138.015 145.160  1.00  0.00     0.002 C 
ATOM      6  C   UNL     1     147.978 138.865 145.685  1.00  0.00    -0.020 C 
ATOM      7  C   UNL     1     147.441 140.301 145.725  1.00  0.00     0.016 C 
ATOM      8  C   UNL     1     146.619 140.346 144.452  1.00  0.00     0.023 C 
ATOM      9  C   UNL     1     145.780 139.036 144.532  1.00  0.00    -0.025 C 
ATOM     10  C   UNL     1     144.516 139.299 145.397  1.00  0.00     0.012 C 
ATOM     11  C   UNL     1     145.287 138.557 143.145  1.00  0.00     0.012 C 
ATOM     12  C   UNL     1     147.602 140.350 143.280  1.00  0.00    -0.045 C 
ATOM     13  C   UNL     1     147.340 141.095 142.195  1.00  0.00     0.011 C 
ATOM     14  C   UNL     1     148.845 139.459 143.298  1.00  0.00     0.140 C 
ATOM     15  C   UNL     1     149.175 138.845 144.695  1.00  0.00     0.044 C 
ENDROOT
BRANCH  14  16
ATOM     16  O   UNL     1     148.684 138.435 142.350  1.00  0.00    -0.389 OA
ATOM     17  H   UNL     1     149.414 138.539 141.685  1.00  0.00     0.211 HD
ENDBRANCH  14  16
TORSDOF 1
ENDMDL
