MODEL 1
REMARK VINA RESULT:    -1.338      0.000      0.000
REMARK INTER + INTRA:          -4.828
REMARK INTER:                  -2.432
REMARK INTRA:                  -2.396
REMARK UNBOUND:                -2.396
REMARK SMILES CCCCCCCCCCCCCCCC(=O)[O-]
REMARK SMILES IDX 9 1 10 2 11 3 12 4 13 5 14 6 15 7 16 8 17 9 18 10 8 11 7 12
REMARK SMILES IDX 6 13 5 14 4 15 3 16 2 17 1 18
REMARK H PARENT
REMARK Flexibility Score: inf
ROOT
ATOM      1  C   UNL     1     172.735 177.294 198.307  1.00  0.00     0.000 C 
ENDROOT
BRANCH   1   2
ATOM      2  C   UNL     1     173.620 177.142 197.057  1.00  0.00     0.000 C 
BRANCH   2   3
ATOM      3  C   UNL     1     172.967 177.737 195.798  1.00  0.00     0.000 C 
BRANCH   3   4
ATOM      4  C   UNL     1     173.512 177.111 194.505  1.00  0.00     0.000 C 
BRANCH   4   5
ATOM      5  C   UNL     1     174.371 178.121 193.729  1.00  0.00     0.000 C 
BRANCH   5   6
ATOM      6  C   UNL     1     173.784 179.541 193.753  1.00  0.00     0.006 C 
BRANCH   6   7
ATOM      7  C   UNL     1     173.301 180.006 192.372  1.00  0.00     0.053 C 
BRANCH   7   8
ATOM      8  C   UNL     1     171.818 179.848 192.259  1.00  0.00     0.041 C 
ATOM      9  O   UNL     1     171.060 180.839 192.439  1.00  0.00    -0.550 OA
ATOM     10  O   UNL     1     171.273 178.619 191.910  1.00  0.00    -0.550 OA
ENDBRANCH   7   8
ENDBRANCH   6   7
ENDBRANCH   5   6
ENDBRANCH   4   5
ENDBRANCH   3   4
ENDBRANCH   2   3
ENDBRANCH   1   2
BRANCH   1  11
ATOM     11  C   UNL     1     173.543 177.747 199.542  1.00  0.00     0.000 C 
BRANCH  11  12
ATOM     12  C   UNL     1     173.252 179.198 199.972  1.00  0.00    -0.000 C 
BRANCH  12  13
ATOM     13  C   UNL     1     172.143 179.900 199.167  1.00  0.00    -0.000 C 
BRANCH  13  14
ATOM     14  C   UNL     1     172.564 181.231 198.515  1.00  0.00    -0.000 C 
BRANCH  14  15
ATOM     15  C   UNL     1     173.293 181.054 197.166  1.00  0.00    -0.000 C 
BRANCH  15  16
ATOM     16  C   UNL     1     174.794 181.379 197.268  1.00  0.00    -0.000 C 
BRANCH  16  17
ATOM     17  C   UNL     1     175.685 180.205 196.833  1.00  0.00    -0.003 C 
ATOM     18  C   UNL     1     176.433 179.563 198.001  1.00  0.00     0.004 C 
ENDBRANCH  16  17
ENDBRANCH  15  16
ENDBRANCH  14  15
ENDBRANCH  13  14
ENDBRANCH  12  13
ENDBRANCH  11  12
ENDBRANCH   1  11
TORSDOF 14
ENDMDL
MODEL 2
REMARK VINA RESULT:    -1.337      1.912      4.956
REMARK INTER + INTRA:          -4.827
REMARK INTER:                  -2.497
REMARK INTRA:                  -2.330
REMARK UNBOUND:                -2.396
REMARK SMILES CCCCCCCCCCCCCCCC(=O)[O-]
REMARK SMILES IDX 9 1 10 2 11 3 12 4 13 5 14 6 15 7 16 8 17 9 18 10 8 11 7 12
REMARK SMILES IDX 6 13 5 14 4 15 3 16 2 17 1 18
REMARK H PARENT
REMARK Flexibility Score: inf
ROOT
ATOM      1  C   UNL     1     174.428 177.850 196.896  1.00  0.00     0.000 C 
ENDROOT
BRANCH   1   2
ATOM      2  C   UNL     1     173.347 177.968 197.986  1.00  0.00     0.000 C 
BRANCH   2   3
ATOM      3  C   UNL     1     172.846 179.411 198.162  1.00  0.00     0.000 C 
BRANCH   3   4
ATOM      4  C   UNL     1     173.801 180.441 197.538  1.00  0.00     0.000 C 
BRANCH   4   5
ATOM      5  C   UNL     1     173.056 181.349 196.548  1.00  0.00     0.000 C 
BRANCH   5   6
ATOM      6  C   UNL     1     172.958 180.737 195.141  1.00  0.00     0.006 C 
BRANCH   6   7
ATOM      7  C   UNL     1     174.313 180.688 194.422  1.00  0.00     0.053 C 
BRANCH   7   8
ATOM      8  C   UNL     1     174.234 181.408 193.113  1.00  0.00     0.041 C 
ATOM      9  O   UNL     1     173.418 182.355 192.959  1.00  0.00    -0.550 OA
ATOM     10  O   UNL     1     175.094 181.064 192.077  1.00  0.00    -0.550 OA
ENDBRANCH   7   8
ENDBRANCH   6   7
ENDBRANCH   5   6
ENDBRANCH   4   5
ENDBRANCH   3   4
ENDBRANCH   2   3
ENDBRANCH   1   2
BRANCH   1  11
ATOM     11  C   UNL     1     174.010 176.889 195.762  1.00  0.00     0.000 C 
BRANCH  11  12
ATOM     12  C   UNL     1     172.539 177.048 195.330  1.00  0.00    -0.000 C 
BRANCH  12  13
ATOM     13  C   UNL     1     172.290 176.885 193.819  1.00  0.00    -0.000 C 
BRANCH  13  14
ATOM     14  C   UNL     1     173.287 177.637 192.916  1.00  0.00    -0.000 C 
BRANCH  14  15
ATOM     15  C   UNL     1     172.626 178.323 191.702  1.00  0.00    -0.000 C 
BRANCH  15  16
ATOM     16  C   UNL     1     171.446 179.221 192.112  1.00  0.00    -0.000 C 
BRANCH  16  17
ATOM     17  C   UNL     1     171.183 180.351 191.104  1.00  0.00    -0.003 C 
ATOM     18  C   UNL     1     172.284 180.474 190.051  1.00  0.00     0.004 C 
ENDBRANCH  16  17
ENDBRANCH  15  16
ENDBRANCH  14  15
ENDBRANCH  13  14
ENDBRANCH  12  13
ENDBRANCH  11  12
ENDBRANCH   1  11
TORSDOF 14
ENDMDL
MODEL 3
REMARK VINA RESULT:    -1.334      1.988      4.108
REMARK INTER + INTRA:          -4.822
REMARK INTER:                  -2.436
REMARK INTRA:                  -2.386
REMARK UNBOUND:                -2.396
REMARK SMILES CCCCCCCCCCCCCCCC(=O)[O-]
REMARK SMILES IDX 9 1 10 2 11 3 12 4 13 5 14 6 15 7 16 8 17 9 18 10 8 11 7 12
REMARK SMILES IDX 6 13 5 14 4 15 3 16 2 17 1 18
REMARK H PARENT
REMARK Flexibility Score: inf
ROOT
ATOM      1  C   UNL     1     172.016 180.628 199.354  1.00  0.00     0.000 C 
ENDROOT
BRANCH   1   2
ATOM      2  C   UNL     1     172.975 181.289 200.361  1.00  0.00     0.000 C 
BRANCH   2   3
ATOM      3  C   UNL     1     174.451 181.115 199.967  1.00  0.00     0.000 C 
BRANCH   3   4
ATOM      4  C   UNL     1     174.626 180.821 198.468  1.00  0.00     0.000 C 
BRANCH   4   5
ATOM      5  C   UNL     1     174.844 182.119 197.677  1.00  0.00     0.000 C 
BRANCH   5   6
ATOM      6  C   UNL     1     174.407 182.000 196.209  1.00  0.00     0.006 C 
BRANCH   6   7
ATOM      7  C   UNL     1     172.928 181.616 196.061  1.00  0.00     0.053 C 
BRANCH   7   8
ATOM      8  C   UNL     1     172.465 181.855 194.659  1.00  0.00     0.041 C 
ATOM      9  O   UNL     1     172.336 180.889 193.861  1.00  0.00    -0.550 OA
ATOM     10  O   UNL     1     172.130 183.139 194.247  1.00  0.00    -0.550 OA
ENDBRANCH   7   8
ENDBRANCH   6   7
ENDBRANCH   5   6
ENDBRANCH   4   5
ENDBRANCH   3   4
ENDBRANCH   2   3
ENDBRANCH   1   2
BRANCH   1  11
ATOM     11  C   UNL     1     170.971 179.729 200.048  1.00  0.00     0.000 C 
BRANCH  11  12
ATOM     12  C   UNL     1     171.589 178.678 200.991  1.00  0.00    -0.000 C 
BRANCH  12  13
ATOM     13  C   UNL     1     172.063 177.387 200.297  1.00  0.00    -0.000 C 
BRANCH  13  14
ATOM     14  C   UNL     1     173.592 177.257 200.153  1.00  0.00    -0.000 C 
BRANCH  14  15
ATOM     15  C   UNL     1     174.083 177.327 198.691  1.00  0.00    -0.000 C 
BRANCH  15  16
ATOM     16  C   UNL     1     172.923 177.253 197.683  1.00  0.00    -0.000 C 
BRANCH  16  17
ATOM     17  C   UNL     1     173.201 178.054 196.402  1.00  0.00    -0.003 C 
ATOM     18  C   UNL     1     174.682 178.078 196.026  1.00  0.00     0.004 C 
ENDBRANCH  16  17
ENDBRANCH  15  16
ENDBRANCH  14  15
ENDBRANCH  13  14
ENDBRANCH  12  13
ENDBRANCH  11  12
ENDBRANCH   1  11
TORSDOF 14
ENDMDL
MODEL 4
REMARK VINA RESULT:    -1.331      1.801      2.951
REMARK INTER + INTRA:          -4.817
REMARK INTER:                  -2.622
REMARK INTRA:                  -2.194
REMARK UNBOUND:                -2.396
REMARK SMILES CCCCCCCCCCCCCCCC(=O)[O-]
REMARK SMILES IDX 9 1 10 2 11 3 12 4 13 5 14 6 15 7 16 8 17 9 18 10 8 11 7 12
REMARK SMILES IDX 6 13 5 14 4 15 3 16 2 17 1 18
REMARK H PARENT
REMARK Flexibility Score: inf
ROOT
ATOM      1  C   UNL     1     176.226 178.050 197.562  1.00  0.00     0.000 C 
ENDROOT
BRANCH   1   2
ATOM      2  C   UNL     1     175.376 178.008 196.279  1.00  0.00     0.000 C 
BRANCH   2   3
ATOM      3  C   UNL     1     174.664 179.343 196.003  1.00  0.00     0.000 C 
BRANCH   3   4
ATOM      4  C   UNL     1     173.215 179.146 195.530  1.00  0.00     0.000 C 
BRANCH   4   5
ATOM      5  C   UNL     1     172.846 177.655 195.503  1.00  0.00     0.000 C 
BRANCH   5   6
ATOM      6  C   UNL     1     172.513 177.152 194.089  1.00  0.00     0.006 C 
BRANCH   6   7
ATOM      7  C   UNL     1     172.444 178.286 193.058  1.00  0.00     0.053 C 
BRANCH   7   8
ATOM      8  C   UNL     1     173.438 178.056 191.963  1.00  0.00     0.041 C 
ATOM      9  O   UNL     1     174.331 178.913 191.728  1.00  0.00    -0.550 OA
ATOM     10  O   UNL     1     173.408 176.875 191.234  1.00  0.00    -0.550 OA
ENDBRANCH   7   8
ENDBRANCH   6   7
ENDBRANCH   5   6
ENDBRANCH   4   5
ENDBRANCH   3   4
ENDBRANCH   2   3
ENDBRANCH   1   2
BRANCH   1  11
ATOM     11  C   UNL     1     175.358 178.173 198.833  1.00  0.00     0.000 C 
BRANCH  11  12
ATOM     12  C   UNL     1     174.353 177.017 199.009  1.00  0.00    -0.000 C 
BRANCH  12  13
ATOM     13  C   UNL     1     172.878 177.451 199.084  1.00  0.00    -0.000 C 
BRANCH  13  14
ATOM     14  C   UNL     1     172.453 178.061 200.434  1.00  0.00    -0.000 C 
BRANCH  14  15
ATOM     15  C   UNL     1     171.933 179.510 200.320  1.00  0.00    -0.000 C 
BRANCH  15  16
ATOM     16  C   UNL     1     172.191 180.114 198.929  1.00  0.00    -0.000 C 
BRANCH  16  17
ATOM     17  C   UNL     1     172.696 181.564 198.997  1.00  0.00    -0.003 C 
ATOM     18  C   UNL     1     174.215 181.670 198.867  1.00  0.00     0.004 C 
ENDBRANCH  16  17
ENDBRANCH  15  16
ENDBRANCH  14  15
ENDBRANCH  13  14
ENDBRANCH  12  13
ENDBRANCH  11  12
ENDBRANCH   1  11
TORSDOF 14
ENDMDL
MODEL 5
REMARK VINA RESULT:    -1.315      2.986      6.158
REMARK INTER + INTRA:          -4.787
REMARK INTER:                  -2.742
REMARK INTRA:                  -2.045
REMARK UNBOUND:                -2.396
REMARK SMILES CCCCCCCCCCCCCCCC(=O)[O-]
REMARK SMILES IDX 9 1 10 2 11 3 12 4 13 5 14 6 15 7 16 8 17 9 18 10 8 11 7 12
REMARK SMILES IDX 6 13 5 14 4 15 3 16 2 17 1 18
REMARK H PARENT
REMARK Flexibility Score: inf
ROOT
ATOM      1  C   UNL     1     174.989 180.777 193.458  1.00  0.00     0.000 C 
ENDROOT
BRANCH   1   2
ATOM      2  C   UNL     1     175.050 179.285 193.087  1.00  0.00     0.000 C 
BRANCH   2   3
ATOM      3  C   UNL     1     175.026 178.370 194.323  1.00  0.00     0.000 C 
BRANCH   3   4
ATOM      4  C   UNL     1     174.012 177.224 194.182  1.00  0.00     0.000 C 
BRANCH   4   5
ATOM      5  C   UNL     1     172.858 177.388 195.184  1.00  0.00     0.000 C 
BRANCH   5   6
ATOM      6  C   UNL     1     173.311 178.011 196.513  1.00  0.00     0.006 C 
BRANCH   6   7
ATOM      7  C   UNL     1     172.946 177.146 197.727  1.00  0.00     0.053 C 
BRANCH   7   8
ATOM      8  C   UNL     1     172.764 178.001 198.941  1.00  0.00     0.041 C 
ATOM      9  O   UNL     1     173.020 177.540 200.085  1.00  0.00    -0.550 OA
ATOM     10  O   UNL     1     172.357 179.322 198.806  1.00  0.00    -0.550 OA
ENDBRANCH   7   8
ENDBRANCH   6   7
ENDBRANCH   5   6
ENDBRANCH   4   5
ENDBRANCH   3   4
ENDBRANCH   2   3
ENDBRANCH   1   2
BRANCH   1  11
ATOM     11  C   UNL     1     173.938 181.063 194.552  1.00  0.00     0.000 C 
BRANCH  11  12
ATOM     12  C   UNL     1     172.484 180.974 194.049  1.00  0.00    -0.000 C 
BRANCH  12  13
ATOM     13  C   UNL     1     172.197 181.765 192.759  1.00  0.00    -0.000 C 
BRANCH  13  14
ATOM     14  C   UNL     1     171.995 180.897 191.502  1.00  0.00    -0.000 C 
BRANCH  14  15
ATOM     15  C   UNL     1     170.963 179.764 191.693  1.00  0.00    -0.000 C 
BRANCH  15  16
ATOM     16  C   UNL     1     171.629 178.381 191.795  1.00  0.00    -0.000 C 
BRANCH  16  17
ATOM     17  C   UNL     1     171.980 177.790 190.421  1.00  0.00    -0.003 C 
ATOM     18  C   UNL     1     173.486 177.655 190.200  1.00  0.00     0.004 C 
ENDBRANCH  16  17
ENDBRANCH  15  16
ENDBRANCH  14  15
ENDBRANCH  13  14
ENDBRANCH  12  13
ENDBRANCH  11  12
ENDBRANCH   1  11
TORSDOF 14
ENDMDL
MODEL 6
REMARK VINA RESULT:    -1.296      1.657      3.746
REMARK INTER + INTRA:          -4.753
REMARK INTER:                  -2.479
REMARK INTRA:                  -2.274
REMARK UNBOUND:                -2.396
REMARK SMILES CCCCCCCCCCCCCCCC(=O)[O-]
REMARK SMILES IDX 9 1 10 2 11 3 12 4 13 5 14 6 15 7 16 8 17 9 18 10 8 11 7 12
REMARK SMILES IDX 6 13 5 14 4 15 3 16 2 17 1 18
REMARK H PARENT
REMARK Flexibility Score: inf
ROOT
ATOM      1  C   UNL     1     174.356 180.431 194.802  1.00  0.00     0.000 C 
ENDROOT
BRANCH   1   2
ATOM      2  C   UNL     1     173.034 180.984 195.362  1.00  0.00     0.000 C 
BRANCH   2   3
ATOM      3  C   UNL     1     172.200 181.709 194.293  1.00  0.00     0.000 C 
BRANCH   3   4
ATOM      4  C   UNL     1     172.961 181.870 192.968  1.00  0.00     0.000 C 
BRANCH   4   5
ATOM      5  C   UNL     1     172.210 181.181 191.818  1.00  0.00     0.000 C 
BRANCH   5   6
ATOM      6  C   UNL     1     171.496 179.894 192.263  1.00  0.00     0.006 C 
BRANCH   6   7
ATOM      7  C   UNL     1     171.634 178.758 191.241  1.00  0.00     0.053 C 
BRANCH   7   8
ATOM      8  C   UNL     1     172.038 177.489 191.923  1.00  0.00     0.041 C 
ATOM      9  O   UNL     1     173.177 176.993 191.715  1.00  0.00    -0.550 OA
ATOM     10  O   UNL     1     171.175 176.880 192.825  1.00  0.00    -0.550 OA
ENDBRANCH   7   8
ENDBRANCH   6   7
ENDBRANCH   5   6
ENDBRANCH   4   5
ENDBRANCH   3   4
ENDBRANCH   2   3
ENDBRANCH   1   2
BRANCH   1  11
ATOM     11  C   UNL     1     174.384 178.888 194.791  1.00  0.00     0.000 C 
BRANCH  11  12
ATOM     12  C   UNL     1     173.093 178.242 195.330  1.00  0.00    -0.000 C 
BRANCH  12  13
ATOM     13  C   UNL     1     173.315 177.058 196.289  1.00  0.00    -0.000 C 
BRANCH  13  14
ATOM     14  C   UNL     1     172.893 177.323 197.748  1.00  0.00    -0.000 C 
BRANCH  14  15
ATOM     15  C   UNL     1     174.042 177.841 198.639  1.00  0.00    -0.000 C 
BRANCH  15  16
ATOM     16  C   UNL     1     173.841 179.309 199.054  1.00  0.00    -0.000 C 
BRANCH  16  17
ATOM     17  C   UNL     1     174.931 180.237 198.496  1.00  0.00    -0.003 C 
ATOM     18  C   UNL     1     176.163 179.477 198.007  1.00  0.00     0.004 C 
ENDBRANCH  16  17
ENDBRANCH  15  16
ENDBRANCH  14  15
ENDBRANCH  13  14
ENDBRANCH  12  13
ENDBRANCH  11  12
ENDBRANCH   1  11
TORSDOF 14
ENDMDL
MODEL 7
REMARK VINA RESULT:    -1.282      3.144      5.498
REMARK INTER + INTRA:          -4.727
REMARK INTER:                  -2.691
REMARK INTRA:                  -2.037
REMARK UNBOUND:                -2.396
REMARK SMILES CCCCCCCCCCCCCCCC(=O)[O-]
REMARK SMILES IDX 9 1 10 2 11 3 12 4 13 5 14 6 15 7 16 8 17 9 18 10 8 11 7 12
REMARK SMILES IDX 6 13 5 14 4 15 3 16 2 17 1 18
REMARK H PARENT
REMARK Flexibility Score: inf
ROOT
ATOM      1  C   UNL     1     174.038 178.960 192.441  1.00  0.00     0.000 C 
ENDROOT
BRANCH   1   2
ATOM      2  C   UNL     1     173.975 177.764 193.408  1.00  0.00     0.000 C 
BRANCH   2   3
ATOM      3  C   UNL     1     172.531 177.351 193.739  1.00  0.00     0.000 C 
BRANCH   3   4
ATOM      4  C   UNL     1     172.378 176.875 195.192  1.00  0.00     0.000 C 
BRANCH   4   5
ATOM      5  C   UNL     1     173.113 177.817 196.157  1.00  0.00     0.000 C 
BRANCH   5   6
ATOM      6  C   UNL     1     173.136 177.288 197.600  1.00  0.00     0.006 C 
BRANCH   6   7
ATOM      7  C   UNL     1     173.248 178.411 198.640  1.00  0.00     0.053 C 
BRANCH   7   8
ATOM      8  C   UNL     1     172.364 178.125 199.813  1.00  0.00     0.041 C 
ATOM      9  O   UNL     1     171.487 177.222 199.740  1.00  0.00    -0.550 OA
ATOM     10  O   UNL     1     172.538 178.821 201.002  1.00  0.00    -0.550 OA
ENDBRANCH   7   8
ENDBRANCH   6   7
ENDBRANCH   5   6
ENDBRANCH   4   5
ENDBRANCH   3   4
ENDBRANCH   2   3
ENDBRANCH   1   2
BRANCH   1  11
ATOM     11  C   UNL     1     172.648 179.586 192.198  1.00  0.00     0.000 C 
BRANCH  11  12
ATOM     12  C   UNL     1     172.700 181.085 191.844  1.00  0.00    -0.000 C 
BRANCH  12  13
ATOM     13  C   UNL     1     172.824 182.030 193.054  1.00  0.00    -0.000 C 
BRANCH  13  14
ATOM     14  C   UNL     1     172.066 181.567 194.314  1.00  0.00    -0.000 C 
BRANCH  14  15
ATOM     15  C   UNL     1     172.978 181.370 195.544  1.00  0.00    -0.000 C 
BRANCH  15  16
ATOM     16  C   UNL     1     174.444 181.731 195.247  1.00  0.00    -0.000 C 
BRANCH  16  17
ATOM     17  C   UNL     1     175.402 180.553 195.479  1.00  0.00    -0.003 C 
ATOM     18  C   UNL     1     176.789 180.998 195.943  1.00  0.00     0.004 C 
ENDBRANCH  16  17
ENDBRANCH  15  16
ENDBRANCH  14  15
ENDBRANCH  13  14
ENDBRANCH  12  13
ENDBRANCH  11  12
ENDBRANCH   1  11
TORSDOF 14
ENDMDL
MODEL 8
REMARK VINA RESULT:    -1.262      3.029      6.094
REMARK INTER + INTRA:          -4.691
REMARK INTER:                  -2.324
REMARK INTRA:                  -2.367
REMARK UNBOUND:                -2.396
REMARK SMILES CCCCCCCCCCCCCCCC(=O)[O-]
REMARK SMILES IDX 9 1 10 2 11 3 12 4 13 5 14 6 15 7 16 8 17 9 18 10 8 11 7 12
REMARK SMILES IDX 6 13 5 14 4 15 3 16 2 17 1 18
REMARK H PARENT
REMARK Flexibility Score: inf
ROOT
ATOM      1  C   UNL     1     172.897 179.331 194.113  1.00  0.00     0.000 C 
ENDROOT
BRANCH   1   2
ATOM      2  C   UNL     1     172.784 177.875 194.598  1.00  0.00     0.000 C 
BRANCH   2   3
ATOM      3  C   UNL     1     174.138 177.294 195.035  1.00  0.00     0.000 C 
BRANCH   3   4
ATOM      4  C   UNL     1     174.358 177.398 196.552  1.00  0.00     0.000 C 
BRANCH   4   5
ATOM      5  C   UNL     1     175.249 178.601 196.895  1.00  0.00     0.000 C 
BRANCH   5   6
ATOM      6  C   UNL     1     174.660 179.476 198.013  1.00  0.00     0.006 C 
BRANCH   6   7
ATOM      7  C   UNL     1     173.186 179.828 197.774  1.00  0.00     0.053 C 
BRANCH   7   8
ATOM      8  C   UNL     1     172.363 179.463 198.969  1.00  0.00     0.041 C 
ATOM      9  O   UNL     1     172.468 178.318 199.484  1.00  0.00    -0.550 OA
ATOM     10  O   UNL     1     171.515 180.401 199.543  1.00  0.00    -0.550 OA
ENDBRANCH   7   8
ENDBRANCH   6   7
ENDBRANCH   5   6
ENDBRANCH   4   5
ENDBRANCH   3   4
ENDBRANCH   2   3
ENDBRANCH   1   2
BRANCH   1  11
ATOM     11  C   UNL     1     172.380 179.506 192.669  1.00  0.00     0.000 C 
BRANCH  11  12
ATOM     12  C   UNL     1     171.658 178.262 192.116  1.00  0.00    -0.000 C 
BRANCH  12  13
ATOM     13  C   UNL     1     172.346 177.601 190.907  1.00  0.00    -0.000 C 
BRANCH  13  14
ATOM     14  C   UNL     1     173.844 177.932 190.757  1.00  0.00    -0.000 C 
BRANCH  14  15
ATOM     15  C   UNL     1     174.776 176.875 191.387  1.00  0.00    -0.000 C 
BRANCH  15  16
ATOM     16  C   UNL     1     176.083 177.493 191.915  1.00  0.00    -0.000 C 
BRANCH  16  17
ATOM     17  C   UNL     1     176.023 179.026 191.998  1.00  0.00    -0.003 C 
ATOM     18  C   UNL     1     176.526 179.568 193.335  1.00  0.00     0.004 C 
ENDBRANCH  16  17
ENDBRANCH  15  16
ENDBRANCH  14  15
ENDBRANCH  13  14
ENDBRANCH  12  13
ENDBRANCH  11  12
ENDBRANCH   1  11
TORSDOF 14
ENDMDL
MODEL 9
REMARK VINA RESULT:    -0.769      2.759      5.719
REMARK INTER + INTRA:          -3.794
REMARK INTER:                  -1.213
REMARK INTRA:                  -2.581
REMARK UNBOUND:                -2.396
REMARK SMILES CCCCCCCCCCCCCCCC(=O)[O-]
REMARK SMILES IDX 9 1 10 2 11 3 12 4 13 5 14 6 15 7 16 8 17 9 18 10 8 11 7 12
REMARK SMILES IDX 6 13 5 14 4 15 3 16 2 17 1 18
REMARK H PARENT
REMARK Flexibility Score: inf
ROOT
ATOM      1  C   UNL     1     171.430 179.364 191.555  1.00  0.00     0.000 C 
ENDROOT
BRANCH   1   2
ATOM      2  C   UNL     1     172.509 180.367 191.107  1.00  0.00     0.000 C 
BRANCH   2   3
ATOM      3  C   UNL     1     173.182 181.074 192.295  1.00  0.00     0.000 C 
BRANCH   3   4
ATOM      4  C   UNL     1     172.401 180.890 193.605  1.00  0.00     0.000 C 
BRANCH   4   5
ATOM      5  C   UNL     1     173.282 181.221 194.819  1.00  0.00     0.000 C 
BRANCH   5   6
ATOM      6  C   UNL     1     173.112 180.215 195.968  1.00  0.00     0.006 C 
BRANCH   6   7
ATOM      7  C   UNL     1     174.453 179.722 196.527  1.00  0.00     0.053 C 
BRANCH   7   8
ATOM      8  C   UNL     1     174.292 178.372 197.152  1.00  0.00     0.041 C 
ATOM      9  O   UNL     1     173.153 177.837 197.221  1.00  0.00    -0.550 OA
ATOM     10  O   UNL     1     175.405 177.683 197.616  1.00  0.00    -0.550 OA
ENDBRANCH   7   8
ENDBRANCH   6   7
ENDBRANCH   5   6
ENDBRANCH   4   5
ENDBRANCH   3   4
ENDBRANCH   2   3
ENDBRANCH   1   2
BRANCH   1  11
ATOM     11  C   UNL     1     171.923 177.903 191.474  1.00  0.00     0.000 C 
BRANCH  11  12
ATOM     12  C   UNL     1     171.626 177.079 192.742  1.00  0.00    -0.000 C 
BRANCH  12  13
ATOM     13  C   UNL     1     172.649 177.253 193.879  1.00  0.00    -0.000 C 
BRANCH  13  14
ATOM     14  C   UNL     1     174.096 176.875 193.508  1.00  0.00    -0.000 C 
BRANCH  14  15
ATOM     15  C   UNL     1     175.027 178.094 193.334  1.00  0.00    -0.000 C 
BRANCH  15  16
ATOM     16  C   UNL     1     176.410 177.865 193.969  1.00  0.00    -0.000 C 
BRANCH  16  17
ATOM     17  C   UNL     1     177.233 179.158 194.076  1.00  0.00    -0.003 C 
ATOM     18  C   UNL     1     176.621 180.318 193.291  1.00  0.00     0.004 C 
ENDBRANCH  16  17
ENDBRANCH  15  16
ENDBRANCH  14  15
ENDBRANCH  13  14
ENDBRANCH  12  13
ENDBRANCH  11  12
ENDBRANCH   1  11
TORSDOF 14
ENDMDL
