MODEL 1
REMARK VINA RESULT:    -6.469      0.000      0.000
REMARK INTER + INTRA:         -11.161
REMARK INTER:                  -9.873
REMARK INTRA:                  -1.288
REMARK UNBOUND:                -1.288
REMARK SMILES CC(=O)CCC=C(C)CCC=C(C)CCC=C(C)C
REMARK SMILES IDX 10 1 11 2 12 3 13 4 14 5 15 6 16 7 18 8 17 9 19 10 9 11 7 12
REMARK SMILES IDX 6 13 8 14 5 15 4 16 2 17 3 18 1 19
REMARK H PARENT
REMARK Flexibility Score: inf
ROOT
ATOM      1  C   UNL     1      48.789   1.469  16.894  1.00  0.00     0.032 C 
ENDROOT
BRANCH   1   2
ATOM      2  C   UNL     1      48.895   2.274  15.620  1.00  0.00    -0.028 C 
ATOM      3  C   UNL     1      49.772   3.289  15.459  1.00  0.00    -0.077 C 
ATOM      4  C   UNL     1      50.725   3.691  16.559  1.00  0.00     0.039 C 
BRANCH   3   5
ATOM      5  C   UNL     1      49.815   4.028  14.140  1.00  0.00     0.034 C 
BRANCH   5   6
ATOM      6  C   UNL     1      51.233   4.018  13.562  1.00  0.00     0.032 C 
BRANCH   6   7
ATOM      7  C   UNL     1      51.607   5.379  13.030  1.00  0.00    -0.028 C 
ATOM      8  C   UNL     1      52.432   7.025  11.401  1.00  0.00     0.039 C 
ATOM      9  C   UNL     1      52.078   5.611  11.785  1.00  0.00    -0.080 C 
ATOM     10  C   UNL     1      52.235   4.505  10.768  1.00  0.00     0.039 C 
ENDBRANCH   6   7
ENDBRANCH   5   6
ENDBRANCH   3   5
ENDBRANCH   1   2
BRANCH   1  11
ATOM     11  C   UNL     1      47.362   1.466  17.461  1.00  0.00     0.034 C 
BRANCH  11  12
ATOM     12  C   UNL     1      47.155   2.581  18.466  1.00  0.00    -0.077 C 
ATOM     13  C   UNL     1      48.207   3.030  19.188  1.00  0.00    -0.028 C 
ATOM     14  C   UNL     1      45.761   3.131  18.653  1.00  0.00     0.039 C 
BRANCH  13  15
ATOM     15  C   UNL     1      48.145   4.153  20.199  1.00  0.00     0.035 C 
BRANCH  15  16
ATOM     16  C   UNL     1      48.864   5.402  19.677  1.00  0.00     0.079 C 
BRANCH  16  17
ATOM     17  C   UNL     1      47.933   6.585  19.602  1.00  0.00     0.130 C 
ATOM     18  O   UNL     1      46.787   6.426  19.209  1.00  0.00    -0.300 OA
ATOM     19  C   UNL     1      48.386   7.958  20.003  1.00  0.00     0.087 C 
ENDBRANCH  16  17
ENDBRANCH  15  16
ENDBRANCH  13  15
ENDBRANCH  11  12
ENDBRANCH   1  11
TORSDOF 9
ENDMDL
MODEL 2
REMARK VINA RESULT:    -6.311      1.482      3.052
REMARK INTER + INTRA:         -10.919
REMARK INTER:                  -9.782
REMARK INTRA:                  -1.137
REMARK UNBOUND:                -1.288
REMARK SMILES CC(=O)CCC=C(C)CCC=C(C)CCC=C(C)C
REMARK SMILES IDX 10 1 11 2 12 3 13 4 14 5 15 6 16 7 18 8 17 9 19 10 9 11 7 12
REMARK SMILES IDX 6 13 8 14 5 15 4 16 2 17 3 18 1 19
REMARK H PARENT
REMARK Flexibility Score: inf
ROOT
ATOM      1  C   UNL     1      49.272   3.647  14.477  1.00  0.00     0.032 C 
ENDROOT
BRANCH   1   2
ATOM      2  C   UNL     1      50.558   3.768  13.694  1.00  0.00    -0.028 C 
ATOM      3  C   UNL     1      51.353   4.860  13.745  1.00  0.00    -0.077 C 
ATOM      4  C   UNL     1      51.005   6.051  14.606  1.00  0.00     0.039 C 
BRANCH   3   5
ATOM      5  C   UNL     1      52.630   4.884  12.936  1.00  0.00     0.034 C 
BRANCH   5   6
ATOM      6  C   UNL     1      52.435   4.160  11.600  1.00  0.00     0.032 C 
BRANCH   6   7
ATOM      7  C   UNL     1      52.330   5.148  10.464  1.00  0.00    -0.028 C 
ATOM      8  C   UNL     1      52.616   6.009   8.179  1.00  0.00     0.039 C 
ATOM      9  C   UNL     1      52.768   4.917   9.206  1.00  0.00    -0.080 C 
ATOM     10  C   UNL     1      53.376   3.595   8.800  1.00  0.00     0.039 C 
ENDBRANCH   6   7
ENDBRANCH   5   6
ENDBRANCH   3   5
ENDBRANCH   1   2
BRANCH   1  11
ATOM     11  C   UNL     1      49.084   2.242  15.069  1.00  0.00     0.034 C 
BRANCH  11  12
ATOM     12  C   UNL     1      49.107   2.264  16.584  1.00  0.00    -0.077 C 
ATOM     13  C   UNL     1      48.155   1.595  17.274  1.00  0.00    -0.028 C 
ATOM     14  C   UNL     1      50.180   3.070  17.275  1.00  0.00     0.039 C 
BRANCH  13  15
ATOM     15  C   UNL     1      48.079   1.510  18.782  1.00  0.00     0.035 C 
BRANCH  15  16
ATOM     16  C   UNL     1      46.868   2.281  19.315  1.00  0.00     0.079 C 
BRANCH  16  17
ATOM     17  C   UNL     1      47.101   3.770  19.281  1.00  0.00     0.130 C 
ATOM     18  O   UNL     1      46.326   4.487  18.665  1.00  0.00    -0.300 OA
ATOM     19  C   UNL     1      48.268   4.392  19.989  1.00  0.00     0.087 C 
ENDBRANCH  16  17
ENDBRANCH  15  16
ENDBRANCH  13  15
ENDBRANCH  11  12
ENDBRANCH   1  11
TORSDOF 9
ENDMDL
MODEL 3
REMARK VINA RESULT:    -6.173      1.454      3.122
REMARK INTER + INTRA:         -10.709
REMARK INTER:                  -9.272
REMARK INTRA:                  -1.437
REMARK UNBOUND:                -1.288
REMARK SMILES CC(=O)CCC=C(C)CCC=C(C)CCC=C(C)C
REMARK SMILES IDX 10 1 11 2 12 3 13 4 14 5 15 6 16 7 18 8 17 9 19 10 9 11 7 12
REMARK SMILES IDX 6 13 8 14 5 15 4 16 2 17 3 18 1 19
REMARK H PARENT
REMARK Flexibility Score: inf
ROOT
ATOM      1  C   UNL     1      49.947   3.896  14.538  1.00  0.00     0.032 C 
ENDROOT
BRANCH   1   2
ATOM      2  C   UNL     1      50.963   3.511  13.489  1.00  0.00    -0.028 C 
ATOM      3  C   UNL     1      52.294   3.679  13.654  1.00  0.00    -0.077 C 
ATOM      4  C   UNL     1      52.864   4.271  14.922  1.00  0.00     0.039 C 
BRANCH   3   5
ATOM      5  C   UNL     1      53.237   3.251  12.552  1.00  0.00     0.034 C 
BRANCH   5   6
ATOM      6  C   UNL     1      52.827   3.881  11.217  1.00  0.00     0.032 C 
BRANCH   6   7
ATOM      7  C   UNL     1      53.816   4.941  10.799  1.00  0.00    -0.028 C 
ATOM      8  C   UNL     1      54.641   7.210  10.334  1.00  0.00     0.039 C 
ATOM      9  C   UNL     1      53.561   6.269  10.802  1.00  0.00    -0.080 C 
ATOM     10  C   UNL     1      52.243   6.830  11.282  1.00  0.00     0.039 C 
ENDBRANCH   6   7
ENDBRANCH   5   6
ENDBRANCH   3   5
ENDBRANCH   1   2
BRANCH   1  11
ATOM     11  C   UNL     1      49.083   2.703  14.973  1.00  0.00     0.034 C 
BRANCH  11  12
ATOM     12  C   UNL     1      49.124   2.499  16.474  1.00  0.00    -0.077 C 
ATOM     13  C   UNL     1      48.122   1.822  17.082  1.00  0.00    -0.028 C 
ATOM     14  C   UNL     1      50.275   3.093  17.249  1.00  0.00     0.039 C 
BRANCH  13  15
ATOM     15  C   UNL     1      48.056   1.523  18.563  1.00  0.00     0.035 C 
BRANCH  15  16
ATOM     16  C   UNL     1      46.889   2.264  19.221  1.00  0.00     0.079 C 
BRANCH  16  17
ATOM     17  C   UNL     1      47.118   3.754  19.237  1.00  0.00     0.130 C 
ATOM     18  O   UNL     1      46.328   4.491  18.668  1.00  0.00    -0.300 OA
ATOM     19  C   UNL     1      48.300   4.352  19.942  1.00  0.00     0.087 C 
ENDBRANCH  16  17
ENDBRANCH  15  16
ENDBRANCH  13  15
ENDBRANCH  11  12
ENDBRANCH   1  11
TORSDOF 9
ENDMDL
MODEL 4
REMARK VINA RESULT:    -6.034      2.685      6.495
REMARK INTER + INTRA:         -10.497
REMARK INTER:                  -8.770
REMARK INTRA:                  -1.727
REMARK UNBOUND:                -1.288
REMARK SMILES CC(=O)CCC=C(C)CCC=C(C)CCC=C(C)C
REMARK SMILES IDX 10 1 11 2 12 3 13 4 14 5 15 6 16 7 18 8 17 9 19 10 9 11 7 12
REMARK SMILES IDX 6 13 8 14 5 15 4 16 2 17 3 18 1 19
REMARK H PARENT
REMARK Flexibility Score: inf
ROOT
ATOM      1  C   UNL     1      48.747   2.017  15.590  1.00  0.00     0.032 C 
ENDROOT
BRANCH   1   2
ATOM      2  C   UNL     1      47.656   2.418  16.555  1.00  0.00    -0.028 C 
ATOM      3  C   UNL     1      47.630   2.022  17.847  1.00  0.00    -0.077 C 
ATOM      4  C   UNL     1      48.711   1.140  18.424  1.00  0.00     0.039 C 
BRANCH   3   5
ATOM      5  C   UNL     1      46.502   2.487  18.741  1.00  0.00     0.034 C 
BRANCH   5   6
ATOM      6  C   UNL     1      46.603   3.994  18.997  1.00  0.00     0.032 C 
BRANCH   6   7
ATOM      7  C   UNL     1      47.936   4.346  19.610  1.00  0.00    -0.028 C 
ATOM      8  C   UNL     1      49.732   5.807  20.437  1.00  0.00     0.039 C 
ATOM      9  C   UNL     1      48.363   5.608  19.837  1.00  0.00    -0.080 C 
ATOM     10  C   UNL     1      47.503   6.813  19.533  1.00  0.00     0.039 C 
ENDBRANCH   6   7
ENDBRANCH   5   6
ENDBRANCH   3   5
ENDBRANCH   1   2
BRANCH   1  11
ATOM     11  C   UNL     1      49.328   3.223  14.838  1.00  0.00     0.034 C 
BRANCH  11  12
ATOM     12  C   UNL     1      50.672   3.641  15.402  1.00  0.00    -0.077 C 
ATOM     13  C   UNL     1      50.801   3.844  16.733  1.00  0.00    -0.028 C 
ATOM     14  C   UNL     1      51.819   3.853  14.443  1.00  0.00     0.039 C 
BRANCH  13  15
ATOM     15  C   UNL     1      52.088   4.233  17.426  1.00  0.00     0.035 C 
BRANCH  15  16
ATOM     16  C   UNL     1      52.533   3.144  18.407  1.00  0.00     0.079 C 
BRANCH  16  17
ATOM     17  C   UNL     1      53.511   2.190  17.769  1.00  0.00     0.130 C 
ATOM     18  O   UNL     1      53.555   1.030  18.149  1.00  0.00    -0.300 OA
ATOM     19  C   UNL     1      54.433   2.638  16.674  1.00  0.00     0.087 C 
ENDBRANCH  16  17
ENDBRANCH  15  16
ENDBRANCH  13  15
ENDBRANCH  11  12
ENDBRANCH   1  11
TORSDOF 9
ENDMDL
MODEL 5
REMARK VINA RESULT:    -5.947      2.662      5.508
REMARK INTER + INTRA:         -10.364
REMARK INTER:                  -9.289
REMARK INTRA:                  -1.075
REMARK UNBOUND:                -1.288
REMARK SMILES CC(=O)CCC=C(C)CCC=C(C)CCC=C(C)C
REMARK SMILES IDX 10 1 11 2 12 3 13 4 14 5 15 6 16 7 18 8 17 9 19 10 9 11 7 12
REMARK SMILES IDX 6 13 8 14 5 15 4 16 2 17 3 18 1 19
REMARK H PARENT
REMARK Flexibility Score: inf
ROOT
ATOM      1  C   UNL     1      47.385   5.305  19.672  1.00  0.00     0.032 C 
ENDROOT
BRANCH   1   2
ATOM      2  C   UNL     1      47.986   3.922  19.584  1.00  0.00    -0.028 C 
ATOM      3  C   UNL     1      47.348   2.875  19.017  1.00  0.00    -0.077 C 
ATOM      4  C   UNL     1      45.968   3.020  18.421  1.00  0.00     0.039 C 
BRANCH   3   5
ATOM      5  C   UNL     1      48.037   1.530  18.963  1.00  0.00     0.034 C 
BRANCH   5   6
ATOM      6  C   UNL     1      48.472   1.205  17.530  1.00  0.00     0.032 C 
BRANCH   6   7
ATOM      7  C   UNL     1      49.544   2.158  17.066  1.00  0.00    -0.028 C 
ATOM      8  C   UNL     1      50.648   3.770  15.573  1.00  0.00     0.039 C 
ATOM      9  C   UNL     1      49.489   2.872  15.919  1.00  0.00    -0.080 C 
ATOM     10  C   UNL     1      48.294   2.814  14.996  1.00  0.00     0.039 C 
ENDBRANCH   6   7
ENDBRANCH   5   6
ENDBRANCH   3   5
ENDBRANCH   1   2
BRANCH   1  11
ATOM     11  C   UNL     1      48.458   6.396  19.808  1.00  0.00     0.034 C 
BRANCH  11  12
ATOM     12  C   UNL     1      47.905   7.770  19.484  1.00  0.00    -0.077 C 
ATOM     13  C   UNL     1      46.566   7.964  19.477  1.00  0.00    -0.028 C 
ATOM     14  C   UNL     1      48.877   8.874  19.143  1.00  0.00     0.039 C 
BRANCH  13  15
ATOM     15  C   UNL     1      45.887   9.286  19.201  1.00  0.00     0.035 C 
BRANCH  15  16
ATOM     16  C   UNL     1      44.803   9.574  20.245  1.00  0.00     0.079 C 
BRANCH  16  17
ATOM     17  C   UNL     1      43.467   9.837  19.597  1.00  0.00     0.130 C 
ATOM     18  O   UNL     1      43.409  10.018  18.390  1.00  0.00    -0.300 OA
ATOM     19  C   UNL     1      42.204   9.879  20.406  1.00  0.00     0.087 C 
ENDBRANCH  16  17
ENDBRANCH  15  16
ENDBRANCH  13  15
ENDBRANCH  11  12
ENDBRANCH   1  11
TORSDOF 9
ENDMDL
MODEL 6
REMARK VINA RESULT:    -5.942      2.783      7.778
REMARK INTER + INTRA:         -10.357
REMARK INTER:                  -9.147
REMARK INTRA:                  -1.210
REMARK UNBOUND:                -1.288
REMARK SMILES CC(=O)CCC=C(C)CCC=C(C)CCC=C(C)C
REMARK SMILES IDX 10 1 11 2 12 3 13 4 14 5 15 6 16 7 18 8 17 9 19 10 9 11 7 12
REMARK SMILES IDX 6 13 8 14 5 15 4 16 2 17 3 18 1 19
REMARK H PARENT
REMARK Flexibility Score: inf
ROOT
ATOM      1  C   UNL     1      49.262   2.639  14.941  1.00  0.00     0.032 C 
ENDROOT
BRANCH   1   2
ATOM      2  C   UNL     1      47.971   2.921  15.673  1.00  0.00    -0.028 C 
ATOM      3  C   UNL     1      47.551   2.198  16.735  1.00  0.00    -0.077 C 
ATOM      4  C   UNL     1      48.360   1.042  17.272  1.00  0.00     0.039 C 
BRANCH   3   5
ATOM      5  C   UNL     1      46.250   2.566  17.412  1.00  0.00     0.034 C 
BRANCH   5   6
ATOM      6  C   UNL     1      46.469   2.797  18.911  1.00  0.00     0.032 C 
BRANCH   6   7
ATOM      7  C   UNL     1      46.820   4.237  19.186  1.00  0.00    -0.028 C 
ATOM      8  C   UNL     1      48.252   6.143  19.788  1.00  0.00     0.039 C 
ATOM      9  C   UNL     1      48.056   4.673  19.518  1.00  0.00    -0.080 C 
ATOM     10  C   UNL     1      49.240   3.739  19.599  1.00  0.00     0.039 C 
ENDBRANCH   6   7
ENDBRANCH   5   6
ENDBRANCH   3   5
ENDBRANCH   1   2
BRANCH   1  11
ATOM     11  C   UNL     1      50.419   3.514  15.445  1.00  0.00     0.034 C 
BRANCH  11  12
ATOM     12  C   UNL     1      50.891   4.486  14.382  1.00  0.00    -0.077 C 
ATOM     13  C   UNL     1      51.575   4.021  13.312  1.00  0.00    -0.028 C 
ATOM     14  C   UNL     1      50.611   5.957  14.577  1.00  0.00     0.039 C 
BRANCH  13  15
ATOM     15  C   UNL     1      52.076   4.875  12.169  1.00  0.00     0.035 C 
BRANCH  15  16
ATOM     16  C   UNL     1      52.440   4.012  10.957  1.00  0.00     0.079 C 
BRANCH  16  17
ATOM     17  C   UNL     1      52.442   4.819   9.683  1.00  0.00     0.130 C 
ATOM     18  O   UNL     1      52.443   6.039   9.744  1.00  0.00    -0.300 OA
ATOM     19  C   UNL     1      52.443   4.152   8.340  1.00  0.00     0.087 C 
ENDBRANCH  16  17
ENDBRANCH  15  16
ENDBRANCH  13  15
ENDBRANCH  11  12
ENDBRANCH   1  11
TORSDOF 9
ENDMDL
MODEL 7
REMARK VINA RESULT:    -5.909      1.930      3.602
REMARK INTER + INTRA:         -10.306
REMARK INTER:                  -8.933
REMARK INTRA:                  -1.374
REMARK UNBOUND:                -1.288
REMARK SMILES CC(=O)CCC=C(C)CCC=C(C)CCC=C(C)C
REMARK SMILES IDX 10 1 11 2 12 3 13 4 14 5 15 6 16 7 18 8 17 9 19 10 9 11 7 12
REMARK SMILES IDX 6 13 8 14 5 15 4 16 2 17 3 18 1 19
REMARK H PARENT
REMARK Flexibility Score: inf
ROOT
ATOM      1  C   UNL     1      51.256   4.989  16.576  1.00  0.00     0.032 C 
ENDROOT
BRANCH   1   2
ATOM      2  C   UNL     1      51.870   4.444  15.308  1.00  0.00    -0.028 C 
ATOM      3  C   UNL     1      51.171   3.736  14.394  1.00  0.00    -0.077 C 
ATOM      4  C   UNL     1      49.702   3.439  14.580  1.00  0.00     0.039 C 
BRANCH   3   5
ATOM      5  C   UNL     1      51.870   3.242  13.147  1.00  0.00     0.034 C 
BRANCH   5   6
ATOM      6  C   UNL     1      52.535   4.407  12.406  1.00  0.00     0.032 C 
BRANCH   6   7
ATOM      7  C   UNL     1      52.168   4.391  10.943  1.00  0.00    -0.028 C 
ATOM      8  C   UNL     1      52.533   4.194   8.520  1.00  0.00     0.039 C 
ATOM      9  C   UNL     1      53.041   4.154   9.938  1.00  0.00    -0.080 C 
ATOM     10  C   UNL     1      54.493   3.829  10.198  1.00  0.00     0.039 C 
ENDBRANCH   6   7
ENDBRANCH   5   6
ENDBRANCH   3   5
ENDBRANCH   1   2
BRANCH   1  11
ATOM     11  C   UNL     1      51.570   4.112  17.797  1.00  0.00     0.034 C 
BRANCH  11  12
ATOM     12  C   UNL     1      50.316   3.494  18.382  1.00  0.00    -0.077 C 
ATOM     13  C   UNL     1      49.929   2.263  17.977  1.00  0.00    -0.028 C 
ATOM     14  C   UNL     1      49.516   4.299  19.378  1.00  0.00     0.039 C 
BRANCH  13  15
ATOM     15  C   UNL     1      48.719   1.522  18.501  1.00  0.00     0.035 C 
BRANCH  15  16
ATOM     16  C   UNL     1      47.638   1.402  17.422  1.00  0.00     0.079 C 
BRANCH  16  17
ATOM     17  C   UNL     1      46.615   2.503  17.540  1.00  0.00     0.130 C 
ATOM     18  O   UNL     1      46.201   3.051  16.530  1.00  0.00    -0.300 OA
ATOM     19  C   UNL     1      46.091   2.939  18.877  1.00  0.00     0.087 C 
ENDBRANCH  16  17
ENDBRANCH  15  16
ENDBRANCH  13  15
ENDBRANCH  11  12
ENDBRANCH   1  11
TORSDOF 9
ENDMDL
MODEL 8
REMARK VINA RESULT:    -5.864      2.034      4.318
REMARK INTER + INTRA:         -10.238
REMARK INTER:                  -9.372
REMARK INTRA:                  -0.866
REMARK UNBOUND:                -1.288
REMARK SMILES CC(=O)CCC=C(C)CCC=C(C)CCC=C(C)C
REMARK SMILES IDX 10 1 11 2 12 3 13 4 14 5 15 6 16 7 18 8 17 9 19 10 9 11 7 12
REMARK SMILES IDX 6 13 8 14 5 15 4 16 2 17 3 18 1 19
REMARK H PARENT
REMARK Flexibility Score: inf
ROOT
ATOM      1  C   UNL     1      50.499   4.545  14.254  1.00  0.00     0.032 C 
ENDROOT
BRANCH   1   2
ATOM      2  C   UNL     1      51.372   3.922  13.190  1.00  0.00    -0.028 C 
ATOM      3  C   UNL     1      52.010   4.645  12.243  1.00  0.00    -0.077 C 
ATOM      4  C   UNL     1      51.895   6.150  12.186  1.00  0.00     0.039 C 
BRANCH   3   5
ATOM      5  C   UNL     1      52.874   3.933  11.226  1.00  0.00     0.034 C 
BRANCH   5   6
ATOM      6  C   UNL     1      53.052   4.795   9.972  1.00  0.00     0.032 C 
BRANCH   6   7
ATOM      7  C   UNL     1      52.388   4.152   8.780  1.00  0.00    -0.028 C 
ATOM      8  C   UNL     1      51.696   3.907   6.434  1.00  0.00     0.039 C 
ATOM      9  C   UNL     1      52.428   4.648   7.523  1.00  0.00    -0.080 C 
ATOM     10  C   UNL     1      53.201   5.899   7.179  1.00  0.00     0.039 C 
ENDBRANCH   6   7
ENDBRANCH   5   6
ENDBRANCH   3   5
ENDBRANCH   1   2
BRANCH   1  11
ATOM     11  C   UNL     1      50.661   3.852  15.615  1.00  0.00     0.034 C 
BRANCH  11  12
ATOM     12  C   UNL     1      49.510   2.909  15.905  1.00  0.00    -0.077 C 
ATOM     13  C   UNL     1      49.535   2.153  17.026  1.00  0.00    -0.028 C 
ATOM     14  C   UNL     1      48.384   2.819  14.903  1.00  0.00     0.039 C 
BRANCH  13  15
ATOM     15  C   UNL     1      48.442   1.197  17.449  1.00  0.00     0.035 C 
BRANCH  15  16
ATOM     16  C   UNL     1      48.066   1.408  18.919  1.00  0.00     0.079 C 
BRANCH  16  17
ATOM     17  C   UNL     1      47.357   2.723  19.125  1.00  0.00     0.130 C 
ATOM     18  O   UNL     1      47.882   3.588  19.809  1.00  0.00    -0.300 OA
ATOM     19  C   UNL     1      46.017   2.990  18.506  1.00  0.00     0.087 C 
ENDBRANCH  16  17
ENDBRANCH  15  16
ENDBRANCH  13  15
ENDBRANCH  11  12
ENDBRANCH   1  11
TORSDOF 9
ENDMDL
MODEL 9
REMARK VINA RESULT:    -5.812      2.368      4.027
REMARK INTER + INTRA:         -10.158
REMARK INTER:                  -8.873
REMARK INTRA:                  -1.285
REMARK UNBOUND:                -1.288
REMARK SMILES CC(=O)CCC=C(C)CCC=C(C)CCC=C(C)C
REMARK SMILES IDX 10 1 11 2 12 3 13 4 14 5 15 6 16 7 18 8 17 9 19 10 9 11 7 12
REMARK SMILES IDX 6 13 8 14 5 15 4 16 2 17 3 18 1 19
REMARK H PARENT
REMARK Flexibility Score: inf
ROOT
ATOM      1  C   UNL     1      49.945   3.904  14.471  1.00  0.00     0.032 C 
ENDROOT
BRANCH   1   2
ATOM      2  C   UNL     1      51.077   3.453  13.577  1.00  0.00    -0.028 C 
ATOM      3  C   UNL     1      51.849   4.310  12.874  1.00  0.00    -0.077 C 
ATOM      4  C   UNL     1      51.632   5.803  12.938  1.00  0.00     0.039 C 
BRANCH   3   5
ATOM      5  C   UNL     1      52.968   3.765  12.016  1.00  0.00     0.034 C 
BRANCH   5   6
ATOM      6  C   UNL     1      54.332   4.129  12.612  1.00  0.00     0.032 C 
BRANCH   6   7
ATOM      7  C   UNL     1      55.141   2.889  12.899  1.00  0.00    -0.028 C 
ATOM      8  C   UNL     1      56.081   1.061  14.249  1.00  0.00     0.039 C 
ATOM      9  C   UNL     1      55.211   2.284  14.106  1.00  0.00    -0.080 C 
ATOM     10  C   UNL     1      54.427   2.780  15.298  1.00  0.00     0.039 C 
ENDBRANCH   6   7
ENDBRANCH   5   6
ENDBRANCH   3   5
ENDBRANCH   1   2
BRANCH   1  11
ATOM     11  C   UNL     1      49.074   2.731  14.941  1.00  0.00     0.034 C 
BRANCH  11  12
ATOM     12  C   UNL     1      49.163   2.531  16.441  1.00  0.00    -0.077 C 
ATOM     13  C   UNL     1      48.218   1.797  17.072  1.00  0.00    -0.028 C 
ATOM     14  C   UNL     1      50.295   3.195  17.188  1.00  0.00     0.039 C 
BRANCH  13  15
ATOM     15  C   UNL     1      48.205   1.496  18.554  1.00  0.00     0.035 C 
BRANCH  15  16
ATOM     16  C   UNL     1      47.008   2.163  19.239  1.00  0.00     0.079 C 
BRANCH  16  17
ATOM     17  C   UNL     1      47.131   3.665  19.230  1.00  0.00     0.130 C 
ATOM     18  O   UNL     1      46.287   4.335  18.654  1.00  0.00    -0.300 OA
ATOM     19  C   UNL     1      48.271   4.357  19.918  1.00  0.00     0.087 C 
ENDBRANCH  16  17
ENDBRANCH  15  16
ENDBRANCH  13  15
ENDBRANCH  11  12
ENDBRANCH   1  11
TORSDOF 9
ENDMDL
