MODEL 1
REMARK VINA RESULT:    -5.677      0.000      0.000
REMARK INTER + INTRA:         -16.383
REMARK INTER:                 -12.979
REMARK INTRA:                  -3.404
REMARK UNBOUND:                -3.404
REMARK SMILES CCCCCCCCCCCCCCCCCCCCCCCC(=O)[O-]
REMARK SMILES IDX 13 1 14 2 15 3 16 4 17 5 18 6 19 7 20 8 21 9 22 10 23 11
REMARK SMILES IDX 24 12 25 13 26 14 12 15 11 16 10 17 9 18 8 19 7 20 6 21 5 22
REMARK SMILES IDX 4 23 3 24 2 25 1 26
REMARK H PARENT
REMARK Flexibility Score: inf
ROOT
ATOM      1  C   UNL     1      55.066  32.622  43.192  1.00  0.00     0.000 C 
ENDROOT
BRANCH   1   2
ATOM      2  C   UNL     1      55.697  33.580  42.161  1.00  0.00     0.000 C 
BRANCH   2   3
ATOM      3  C   UNL     1      55.225  35.043  42.253  1.00  0.00     0.000 C 
BRANCH   3   4
ATOM      4  C   UNL     1      56.257  35.964  42.925  1.00  0.00     0.000 C 
BRANCH   4   5
ATOM      5  C   UNL     1      55.636  36.840  44.024  1.00  0.00     0.000 C 
BRANCH   5   6
ATOM      6  C   UNL     1      54.337  36.242  44.595  1.00  0.00     0.000 C 
BRANCH   6   7
ATOM      7  C   UNL     1      53.499  37.281  45.358  1.00  0.00     0.000 C 
BRANCH   7   8
ATOM      8  C   UNL     1      54.140  38.680  45.343  1.00  0.00     0.000 C 
BRANCH   8   9
ATOM      9  C   UNL     1      53.192  39.758  44.793  1.00  0.00     0.000 C 
BRANCH   9  10
ATOM     10  C   UNL     1      52.365  39.257  43.597  1.00  0.00     0.006 C 
BRANCH  10  11
ATOM     11  C   UNL     1      53.075  39.503  42.258  1.00  0.00     0.053 C 
BRANCH  11  12
ATOM     12  C   UNL     1      53.306  38.229  41.505  1.00  0.00     0.041 C 
ATOM     13  O   UNL     1      52.523  37.254  41.654  1.00  0.00    -0.550 OA
ATOM     14  O   UNL     1      54.400  38.110  40.657  1.00  0.00    -0.550 OA
ENDBRANCH  11  12
ENDBRANCH  10  11
ENDBRANCH   9  10
ENDBRANCH   8   9
ENDBRANCH   7   8
ENDBRANCH   6   7
ENDBRANCH   5   6
ENDBRANCH   4   5
ENDBRANCH   3   4
ENDBRANCH   2   3
ENDBRANCH   1   2
BRANCH   1  15
ATOM     15  C   UNL     1      55.511  31.150  43.080  1.00  0.00     0.000 C 
BRANCH  15  16
ATOM     16  C   UNL     1      54.431  30.113  43.441  1.00  0.00     0.000 C 
BRANCH  16  17
ATOM     17  C   UNL     1      53.371  29.952  42.338  1.00  0.00     0.000 C 
BRANCH  17  18
ATOM     18  C   UNL     1      51.935  29.912  42.890  1.00  0.00    -0.000 C 
BRANCH  18  19
ATOM     19  C   UNL     1      50.895  30.707  42.073  1.00  0.00    -0.000 C 
BRANCH  19  20
ATOM     20  C   UNL     1      50.516  32.083  42.654  1.00  0.00    -0.000 C 
BRANCH  20  21
ATOM     21  C   UNL     1      51.534  33.206  42.382  1.00  0.00    -0.000 C 
BRANCH  21  22
ATOM     22  C   UNL     1      51.741  34.128  43.591  1.00  0.00    -0.000 C 
BRANCH  22  23
ATOM     23  C   UNL     1      50.536  34.070  44.541  1.00  0.00    -0.000 C 
BRANCH  23  24
ATOM     24  C   UNL     1      50.394  35.332  45.409  1.00  0.00    -0.000 C 
BRANCH  24  25
ATOM     25  C   UNL     1      50.304  35.071  46.923  1.00  0.00    -0.003 C 
ATOM     26  C   UNL     1      51.004  36.143  47.758  1.00  0.00     0.004 C 
ENDBRANCH  24  25
ENDBRANCH  23  24
ENDBRANCH  22  23
ENDBRANCH  21  22
ENDBRANCH  20  21
ENDBRANCH  19  20
ENDBRANCH  18  19
ENDBRANCH  17  18
ENDBRANCH  16  17
ENDBRANCH  15  16
ENDBRANCH   1  15
TORSDOF 22
ENDMDL
MODEL 2
REMARK VINA RESULT:    -5.639      3.241      4.223
REMARK INTER + INTRA:         -16.295
REMARK INTER:                 -13.609
REMARK INTRA:                  -2.686
REMARK UNBOUND:                -3.404
REMARK SMILES CCCCCCCCCCCCCCCCCCCCCCCC(=O)[O-]
REMARK SMILES IDX 13 1 14 2 15 3 16 4 17 5 18 6 19 7 20 8 21 9 22 10 23 11
REMARK SMILES IDX 24 12 25 13 26 14 12 15 11 16 10 17 9 18 8 19 7 20 6 21 5 22
REMARK SMILES IDX 4 23 3 24 2 25 1 26
REMARK H PARENT
REMARK Flexibility Score: inf
ROOT
ATOM      1  C   UNL     1      54.959  32.419  43.415  1.00  0.00     0.000 C 
ENDROOT
BRANCH   1   2
ATOM      2  C   UNL     1      55.862  33.116  42.377  1.00  0.00     0.000 C 
BRANCH   2   3
ATOM      3  C   UNL     1      55.509  34.587  42.087  1.00  0.00     0.000 C 
BRANCH   3   4
ATOM      4  C   UNL     1      55.882  35.530  43.243  1.00  0.00     0.000 C 
BRANCH   4   5
ATOM      5  C   UNL     1      55.563  37.000  42.929  1.00  0.00     0.000 C 
BRANCH   5   6
ATOM      6  C   UNL     1      54.531  37.153  41.796  1.00  0.00     0.000 C 
BRANCH   6   7
ATOM      7  C   UNL     1      54.998  38.130  40.705  1.00  0.00     0.000 C 
BRANCH   7   8
ATOM      8  C   UNL     1      55.933  37.464  39.681  1.00  0.00     0.000 C 
BRANCH   8   9
ATOM      9  C   UNL     1      57.220  38.271  39.444  1.00  0.00     0.000 C 
BRANCH   9  10
ATOM     10  C   UNL     1      57.791  38.066  38.030  1.00  0.00     0.006 C 
BRANCH  10  11
ATOM     11  C   UNL     1      58.709  39.220  37.603  1.00  0.00     0.053 C 
BRANCH  11  12
ATOM     12  C   UNL     1      60.148  38.929  37.902  1.00  0.00     0.041 C 
ATOM     13  O   UNL     1      61.045  39.731  37.532  1.00  0.00    -0.550 OA
ATOM     14  O   UNL     1      60.499  37.762  38.568  1.00  0.00    -0.550 OA
ENDBRANCH  11  12
ENDBRANCH  10  11
ENDBRANCH   9  10
ENDBRANCH   8   9
ENDBRANCH   7   8
ENDBRANCH   6   7
ENDBRANCH   5   6
ENDBRANCH   4   5
ENDBRANCH   3   4
ENDBRANCH   2   3
ENDBRANCH   1   2
BRANCH   1  15
ATOM     15  C   UNL     1      55.235  30.916  43.623  1.00  0.00     0.000 C 
BRANCH  15  16
ATOM     16  C   UNL     1      54.531  29.980  42.624  1.00  0.00     0.000 C 
BRANCH  16  17
ATOM     17  C   UNL     1      53.125  29.565  43.089  1.00  0.00     0.000 C 
BRANCH  17  18
ATOM     18  C   UNL     1      52.037  29.863  42.042  1.00  0.00    -0.000 C 
BRANCH  18  19
ATOM     19  C   UNL     1      50.709  30.406  42.611  1.00  0.00    -0.000 C 
BRANCH  19  20
ATOM     20  C   UNL     1      50.377  31.862  42.231  1.00  0.00    -0.000 C 
BRANCH  20  21
ATOM     21  C   UNL     1      51.488  32.882  42.539  1.00  0.00    -0.000 C 
BRANCH  21  22
ATOM     22  C   UNL     1      51.130  33.821  43.700  1.00  0.00    -0.000 C 
BRANCH  22  23
ATOM     23  C   UNL     1      52.280  34.795  43.995  1.00  0.00    -0.000 C 
BRANCH  23  24
ATOM     24  C   UNL     1      51.806  36.249  44.162  1.00  0.00    -0.000 C 
BRANCH  24  25
ATOM     25  C   UNL     1      52.303  36.951  45.438  1.00  0.00    -0.003 C 
ATOM     26  C   UNL     1      53.527  36.275  46.055  1.00  0.00     0.004 C 
ENDBRANCH  24  25
ENDBRANCH  23  24
ENDBRANCH  22  23
ENDBRANCH  21  22
ENDBRANCH  20  21
ENDBRANCH  19  20
ENDBRANCH  18  19
ENDBRANCH  17  18
ENDBRANCH  16  17
ENDBRANCH  15  16
ENDBRANCH   1  15
TORSDOF 22
ENDMDL
MODEL 3
REMARK VINA RESULT:    -5.624      1.924      4.766
REMARK INTER + INTRA:         -16.263
REMARK INTER:                 -13.182
REMARK INTRA:                  -3.080
REMARK UNBOUND:                -3.404
REMARK SMILES CCCCCCCCCCCCCCCCCCCCCCCC(=O)[O-]
REMARK SMILES IDX 13 1 14 2 15 3 16 4 17 5 18 6 19 7 20 8 21 9 22 10 23 11
REMARK SMILES IDX 24 12 25 13 26 14 12 15 11 16 10 17 9 18 8 19 7 20 6 21 5 22
REMARK SMILES IDX 4 23 3 24 2 25 1 26
REMARK H PARENT
REMARK Flexibility Score: inf
ROOT
ATOM      1  C   UNL     1      54.479  36.719  41.701  1.00  0.00     0.000 C 
ENDROOT
BRANCH   1   2
ATOM      2  C   UNL     1      54.570  38.204  41.293  1.00  0.00     0.000 C 
BRANCH   2   3
ATOM      3  C   UNL     1      53.252  38.993  41.403  1.00  0.00     0.000 C 
BRANCH   3   4
ATOM      4  C   UNL     1      53.412  40.323  42.158  1.00  0.00     0.000 C 
BRANCH   4   5
ATOM      5  C   UNL     1      52.469  40.430  43.366  1.00  0.00     0.000 C 
BRANCH   5   6
ATOM      6  C   UNL     1      52.237  39.075  44.059  1.00  0.00     0.000 C 
BRANCH   6   7
ATOM      7  C   UNL     1      53.064  38.925  45.346  1.00  0.00     0.000 C 
BRANCH   7   8
ATOM      8  C   UNL     1      54.383  38.167  45.113  1.00  0.00     0.000 C 
BRANCH   8   9
ATOM      9  C   UNL     1      54.227  36.647  45.278  1.00  0.00     0.000 C 
BRANCH   9  10
ATOM     10  C   UNL     1      53.011  36.272  46.143  1.00  0.00     0.006 C 
BRANCH  10  11
ATOM     11  C   UNL     1      51.968  35.465  45.357  1.00  0.00     0.053 C 
BRANCH  11  12
ATOM     12  C   UNL     1      50.590  35.636  45.919  1.00  0.00     0.041 C 
ATOM     13  O   UNL     1      50.390  35.505  47.155  1.00  0.00    -0.550 OA
ATOM     14  O   UNL     1      49.523  35.915  45.074  1.00  0.00    -0.550 OA
ENDBRANCH  11  12
ENDBRANCH  10  11
ENDBRANCH   9  10
ENDBRANCH   8   9
ENDBRANCH   7   8
ENDBRANCH   6   7
ENDBRANCH   5   6
ENDBRANCH   4   5
ENDBRANCH   3   4
ENDBRANCH   2   3
ENDBRANCH   1   2
BRANCH   1  15
ATOM     15  C   UNL     1      55.814  36.070  42.120  1.00  0.00     0.000 C 
BRANCH  15  16
ATOM     16  C   UNL     1      55.772  34.539  42.282  1.00  0.00     0.000 C 
BRANCH  16  17
ATOM     17  C   UNL     1      54.404  34.030  42.762  1.00  0.00     0.000 C 
BRANCH  17  18
ATOM     18  C   UNL     1      54.516  32.859  43.755  1.00  0.00    -0.000 C 
BRANCH  18  19
ATOM     19  C   UNL     1      55.492  31.738  43.343  1.00  0.00    -0.000 C 
BRANCH  19  20
ATOM     20  C   UNL     1      54.890  30.319  43.318  1.00  0.00    -0.000 C 
BRANCH  20  21
ATOM     21  C   UNL     1      53.526  30.205  42.614  1.00  0.00    -0.000 C 
BRANCH  21  22
ATOM     22  C   UNL     1      52.630  29.118  43.225  1.00  0.00    -0.000 C 
BRANCH  22  23
ATOM     23  C   UNL     1      51.144  29.454  43.026  1.00  0.00    -0.000 C 
BRANCH  23  24
ATOM     24  C   UNL     1      50.921  30.673  42.114  1.00  0.00    -0.000 C 
BRANCH  24  25
ATOM     25  C   UNL     1      50.324  31.907  42.815  1.00  0.00    -0.003 C 
ATOM     26  C   UNL     1      51.105  33.190  42.535  1.00  0.00     0.004 C 
ENDBRANCH  24  25
ENDBRANCH  23  24
ENDBRANCH  22  23
ENDBRANCH  21  22
ENDBRANCH  20  21
ENDBRANCH  19  20
ENDBRANCH  18  19
ENDBRANCH  17  18
ENDBRANCH  16  17
ENDBRANCH  15  16
ENDBRANCH   1  15
TORSDOF 22
ENDMDL
MODEL 4
REMARK VINA RESULT:    -5.525      5.488      9.099
REMARK INTER + INTRA:         -16.035
REMARK INTER:                 -13.130
REMARK INTRA:                  -2.905
REMARK UNBOUND:                -3.404
REMARK SMILES CCCCCCCCCCCCCCCCCCCCCCCC(=O)[O-]
REMARK SMILES IDX 13 1 14 2 15 3 16 4 17 5 18 6 19 7 20 8 21 9 22 10 23 11
REMARK SMILES IDX 24 12 25 13 26 14 12 15 11 16 10 17 9 18 8 19 7 20 6 21 5 22
REMARK SMILES IDX 4 23 3 24 2 25 1 26
REMARK H PARENT
REMARK Flexibility Score: inf
ROOT
ATOM      1  C   UNL     1      56.229  37.958  40.121  1.00  0.00     0.000 C 
ENDROOT
BRANCH   1   2
ATOM      2  C   UNL     1      54.881  38.182  40.837  1.00  0.00     0.000 C 
BRANCH   2   3
ATOM      3  C   UNL     1      54.506  37.107  41.874  1.00  0.00     0.000 C 
BRANCH   3   4
ATOM      4  C   UNL     1      55.517  37.011  43.029  1.00  0.00     0.000 C 
BRANCH   4   5
ATOM      5  C   UNL     1      55.992  35.570  43.275  1.00  0.00     0.000 C 
BRANCH   5   6
ATOM      6  C   UNL     1      55.405  34.571  42.261  1.00  0.00     0.000 C 
BRANCH   6   7
ATOM      7  C   UNL     1      54.366  33.633  42.896  1.00  0.00     0.000 C 
BRANCH   7   8
ATOM      8  C   UNL     1      53.776  34.205  44.198  1.00  0.00     0.000 C 
BRANCH   8   9
ATOM      9  C   UNL     1      52.378  34.813  43.994  1.00  0.00     0.000 C 
BRANCH   9  10
ATOM     10  C   UNL     1      52.069  35.927  45.010  1.00  0.00     0.006 C 
BRANCH  10  11
ATOM     11  C   UNL     1      51.527  37.194  44.334  1.00  0.00     0.053 C 
BRANCH  11  12
ATOM     12  C   UNL     1      52.364  38.396  44.646  1.00  0.00     0.041 C 
ATOM     13  O   UNL     1      52.938  38.496  45.762  1.00  0.00    -0.550 OA
ATOM     14  O   UNL     1      52.489  39.418  43.713  1.00  0.00    -0.550 OA
ENDBRANCH  11  12
ENDBRANCH  10  11
ENDBRANCH   9  10
ENDBRANCH   8   9
ENDBRANCH   7   8
ENDBRANCH   6   7
ENDBRANCH   5   6
ENDBRANCH   4   5
ENDBRANCH   3   4
ENDBRANCH   2   3
ENDBRANCH   1   2
BRANCH   1  15
ATOM     15  C   UNL     1      56.129  37.344  38.710  1.00  0.00     0.000 C 
BRANCH  15  16
ATOM     16  C   UNL     1      57.256  37.747  37.742  1.00  0.00     0.000 C 
BRANCH  16  17
ATOM     17  C   UNL     1      58.296  38.673  38.394  1.00  0.00     0.000 C 
BRANCH  17  18
ATOM     18  C   UNL     1      59.620  38.730  37.611  1.00  0.00    -0.000 C 
BRANCH  18  19
ATOM     19  C   UNL     1      60.494  37.462  37.705  1.00  0.00    -0.000 C 
BRANCH  19  20
ATOM     20  C   UNL     1      60.605  36.643  36.404  1.00  0.00    -0.000 C 
BRANCH  20  21
ATOM     21  C   UNL     1      60.769  37.480  35.122  1.00  0.00    -0.000 C 
BRANCH  21  22
ATOM     22  C   UNL     1      59.762  37.097  34.028  1.00  0.00    -0.000 C 
BRANCH  22  23
ATOM     23  C   UNL     1      58.321  37.348  34.494  1.00  0.00    -0.000 C 
BRANCH  23  24
ATOM     24  C   UNL     1      57.702  38.615  33.877  1.00  0.00    -0.000 C 
BRANCH  24  25
ATOM     25  C   UNL     1      57.771  39.870  34.766  1.00  0.00    -0.003 C 
ATOM     26  C   UNL     1      58.966  40.767  34.442  1.00  0.00     0.004 C 
ENDBRANCH  24  25
ENDBRANCH  23  24
ENDBRANCH  22  23
ENDBRANCH  21  22
ENDBRANCH  20  21
ENDBRANCH  19  20
ENDBRANCH  18  19
ENDBRANCH  17  18
ENDBRANCH  16  17
ENDBRANCH  15  16
ENDBRANCH   1  15
TORSDOF 22
ENDMDL
MODEL 5
REMARK VINA RESULT:    -5.518      6.049      9.909
REMARK INTER + INTRA:         -16.019
REMARK INTER:                 -13.656
REMARK INTRA:                  -2.363
REMARK UNBOUND:                -3.404
REMARK SMILES CCCCCCCCCCCCCCCCCCCCCCCC(=O)[O-]
REMARK SMILES IDX 13 1 14 2 15 3 16 4 17 5 18 6 19 7 20 8 21 9 22 10 23 11
REMARK SMILES IDX 24 12 25 13 26 14 12 15 11 16 10 17 9 18 8 19 7 20 6 21 5 22
REMARK SMILES IDX 4 23 3 24 2 25 1 26
REMARK H PARENT
REMARK Flexibility Score: inf
ROOT
ATOM      1  C   UNL     1      56.822  38.232  40.114  1.00  0.00     0.000 C 
ENDROOT
BRANCH   1   2
ATOM      2  C   UNL     1      55.991  37.005  40.543  1.00  0.00     0.000 C 
BRANCH   2   3
ATOM      3  C   UNL     1      55.620  36.956  42.037  1.00  0.00     0.000 C 
BRANCH   3   4
ATOM      4  C   UNL     1      56.179  35.715  42.752  1.00  0.00     0.000 C 
BRANCH   4   5
ATOM      5  C   UNL     1      55.614  34.404  42.182  1.00  0.00     0.000 C 
BRANCH   5   6
ATOM      6  C   UNL     1      54.821  33.598  43.227  1.00  0.00     0.000 C 
BRANCH   6   7
ATOM      7  C   UNL     1      53.875  34.481  44.056  1.00  0.00     0.000 C 
BRANCH   7   8
ATOM      8  C   UNL     1      52.532  34.732  43.346  1.00  0.00     0.000 C 
BRANCH   8   9
ATOM      9  C   UNL     1      52.100  33.547  42.467  1.00  0.00     0.000 C 
BRANCH   9  10
ATOM     10  C   UNL     1      50.862  32.823  43.025  1.00  0.00     0.006 C 
BRANCH  10  11
ATOM     11  C   UNL     1      50.314  31.775  42.046  1.00  0.00     0.053 C 
BRANCH  11  12
ATOM     12  C   UNL     1      50.872  30.412  42.317  1.00  0.00     0.041 C 
ATOM     13  O   UNL     1      51.673  29.882  41.502  1.00  0.00    -0.550 OA
ATOM     14  O   UNL     1      50.488  29.716  43.456  1.00  0.00    -0.550 OA
ENDBRANCH  11  12
ENDBRANCH  10  11
ENDBRANCH   9  10
ENDBRANCH   8   9
ENDBRANCH   7   8
ENDBRANCH   6   7
ENDBRANCH   5   6
ENDBRANCH   4   5
ENDBRANCH   3   4
ENDBRANCH   2   3
ENDBRANCH   1   2
BRANCH   1  15
ATOM     15  C   UNL     1      57.119  38.330  38.604  1.00  0.00     0.000 C 
BRANCH  15  16
ATOM     16  C   UNL     1      58.609  38.253  38.226  1.00  0.00     0.000 C 
BRANCH  16  17
ATOM     17  C   UNL     1      58.885  37.238  37.104  1.00  0.00     0.000 C 
BRANCH  17  18
ATOM     18  C   UNL     1      60.386  37.064  36.810  1.00  0.00    -0.000 C 
BRANCH  18  19
ATOM     19  C   UNL     1      60.770  37.095  35.316  1.00  0.00    -0.000 C 
BRANCH  19  20
ATOM     20  C   UNL     1      61.369  38.425  34.819  1.00  0.00    -0.000 C 
BRANCH  20  21
ATOM     21  C   UNL     1      61.463  39.533  35.884  1.00  0.00    -0.000 C 
BRANCH  21  22
ATOM     22  C   UNL     1      60.400  40.626  35.702  1.00  0.00    -0.000 C 
BRANCH  22  23
ATOM     23  C   UNL     1      59.534  40.350  34.464  1.00  0.00    -0.000 C 
BRANCH  23  24
ATOM     24  C   UNL     1      58.060  40.078  34.811  1.00  0.00    -0.000 C 
BRANCH  24  25
ATOM     25  C   UNL     1      57.407  38.932  34.017  1.00  0.00    -0.003 C 
ATOM     26  C   UNL     1      56.311  38.210  34.800  1.00  0.00     0.004 C 
ENDBRANCH  24  25
ENDBRANCH  23  24
ENDBRANCH  22  23
ENDBRANCH  21  22
ENDBRANCH  20  21
ENDBRANCH  19  20
ENDBRANCH  18  19
ENDBRANCH  17  18
ENDBRANCH  16  17
ENDBRANCH  15  16
ENDBRANCH   1  15
TORSDOF 22
ENDMDL
MODEL 6
REMARK VINA RESULT:    -5.492      5.922      9.642
REMARK INTER + INTRA:         -15.960
REMARK INTER:                 -13.115
REMARK INTRA:                  -2.845
REMARK UNBOUND:                -3.404
REMARK SMILES CCCCCCCCCCCCCCCCCCCCCCCC(=O)[O-]
REMARK SMILES IDX 13 1 14 2 15 3 16 4 17 5 18 6 19 7 20 8 21 9 22 10 23 11
REMARK SMILES IDX 24 12 25 13 26 14 12 15 11 16 10 17 9 18 8 19 7 20 6 21 5 22
REMARK SMILES IDX 4 23 3 24 2 25 1 26
REMARK H PARENT
REMARK Flexibility Score: inf
ROOT
ATOM      1  C   UNL     1      57.160  38.388  39.834  1.00  0.00     0.000 C 
ENDROOT
BRANCH   1   2
ATOM      2  C   UNL     1      55.722  37.830  39.807  1.00  0.00     0.000 C 
BRANCH   2   3
ATOM      3  C   UNL     1      54.845  38.224  41.010  1.00  0.00     0.000 C 
BRANCH   3   4
ATOM      4  C   UNL     1      54.525  37.035  41.932  1.00  0.00     0.000 C 
BRANCH   4   5
ATOM      5  C   UNL     1      55.720  36.632  42.809  1.00  0.00     0.000 C 
BRANCH   5   6
ATOM      6  C   UNL     1      55.954  35.111  42.829  1.00  0.00     0.000 C 
BRANCH   6   7
ATOM      7  C   UNL     1      54.656  34.315  42.619  1.00  0.00     0.000 C 
BRANCH   7   8
ATOM      8  C   UNL     1      53.975  33.940  43.948  1.00  0.00     0.000 C 
BRANCH   8   9
ATOM      9  C   UNL     1      52.513  34.410  44.014  1.00  0.00     0.000 C 
BRANCH   9  10
ATOM     10  C   UNL     1      52.376  35.813  44.631  1.00  0.00     0.006 C 
BRANCH  10  11
ATOM     11  C   UNL     1      53.407  36.061  45.741  1.00  0.00     0.053 C 
BRANCH  11  12
ATOM     12  C   UNL     1      53.417  37.492  46.185  1.00  0.00     0.041 C 
ATOM     13  O   UNL     1      52.783  37.839  47.216  1.00  0.00    -0.550 OA
ATOM     14  O   UNL     1      54.106  38.445  45.447  1.00  0.00    -0.550 OA
ENDBRANCH  11  12
ENDBRANCH  10  11
ENDBRANCH   9  10
ENDBRANCH   8   9
ENDBRANCH   7   8
ENDBRANCH   6   7
ENDBRANCH   5   6
ENDBRANCH   4   5
ENDBRANCH   3   4
ENDBRANCH   2   3
ENDBRANCH   1   2
BRANCH   1  15
ATOM     15  C   UNL     1      57.897  38.371  38.480  1.00  0.00     0.000 C 
BRANCH  15  16
ATOM     16  C   UNL     1      57.135  37.686  37.331  1.00  0.00     0.000 C 
BRANCH  16  17
ATOM     17  C   UNL     1      57.951  37.626  36.029  1.00  0.00     0.000 C 
BRANCH  17  18
ATOM     18  C   UNL     1      57.202  38.225  34.825  1.00  0.00    -0.000 C 
BRANCH  18  19
ATOM     19  C   UNL     1      57.856  39.473  34.198  1.00  0.00    -0.000 C 
BRANCH  19  20
ATOM     20  C   UNL     1      58.410  40.501  35.205  1.00  0.00    -0.000 C 
BRANCH  20  21
ATOM     21  C   UNL     1      59.942  40.659  35.194  1.00  0.00    -0.000 C 
BRANCH  21  22
ATOM     22  C   UNL     1      60.579  40.379  36.563  1.00  0.00    -0.000 C 
BRANCH  22  23
ATOM     23  C   UNL     1      61.403  39.083  36.532  1.00  0.00    -0.000 C 
BRANCH  23  24
ATOM     24  C   UNL     1      61.598  38.530  35.109  1.00  0.00    -0.000 C 
BRANCH  24  25
ATOM     25  C   UNL     1      61.383  37.013  34.968  1.00  0.00    -0.003 C 
ATOM     26  C   UNL     1      61.007  36.337  36.286  1.00  0.00     0.004 C 
ENDBRANCH  24  25
ENDBRANCH  23  24
ENDBRANCH  22  23
ENDBRANCH  21  22
ENDBRANCH  20  21
ENDBRANCH  19  20
ENDBRANCH  18  19
ENDBRANCH  17  18
ENDBRANCH  16  17
ENDBRANCH  15  16
ENDBRANCH   1  15
TORSDOF 22
ENDMDL
MODEL 7
REMARK VINA RESULT:    -5.473      5.965      9.340
REMARK INTER + INTRA:         -15.917
REMARK INTER:                 -13.094
REMARK INTRA:                  -2.823
REMARK UNBOUND:                -3.404
REMARK SMILES CCCCCCCCCCCCCCCCCCCCCCCC(=O)[O-]
REMARK SMILES IDX 13 1 14 2 15 3 16 4 17 5 18 6 19 7 20 8 21 9 22 10 23 11
REMARK SMILES IDX 24 12 25 13 26 14 12 15 11 16 10 17 9 18 8 19 7 20 6 21 5 22
REMARK SMILES IDX 4 23 3 24 2 25 1 26
REMARK H PARENT
REMARK Flexibility Score: inf
ROOT
ATOM      1  C   UNL     1      57.116  38.484  39.611  1.00  0.00     0.000 C 
ENDROOT
BRANCH   1   2
ATOM      2  C   UNL     1      56.147  37.322  39.909  1.00  0.00     0.000 C 
BRANCH   2   3
ATOM      3  C   UNL     1      55.777  37.143  41.394  1.00  0.00     0.000 C 
BRANCH   3   4
ATOM      4  C   UNL     1      55.622  35.668  41.799  1.00  0.00     0.000 C 
BRANCH   4   5
ATOM      5  C   UNL     1      55.102  35.504  43.236  1.00  0.00     0.000 C 
BRANCH   5   6
ATOM      6  C   UNL     1      53.638  35.033  43.286  1.00  0.00     0.000 C 
BRANCH   6   7
ATOM      7  C   UNL     1      52.950  35.395  44.613  1.00  0.00     0.000 C 
BRANCH   7   8
ATOM      8  C   UNL     1      53.801  36.343  45.477  1.00  0.00     0.000 C 
BRANCH   8   9
ATOM      9  C   UNL     1      53.014  37.576  45.949  1.00  0.00     0.000 C 
BRANCH   9  10
ATOM     10  C   UNL     1      52.471  38.410  44.776  1.00  0.00     0.006 C 
BRANCH  10  11
ATOM     11  C   UNL     1      53.595  38.969  43.893  1.00  0.00     0.053 C 
BRANCH  11  12
ATOM     12  C   UNL     1      53.074  39.924  42.862  1.00  0.00     0.041 C 
ATOM     13  O   UNL     1      53.370  39.768  41.648  1.00  0.00    -0.550 OA
ATOM     14  O   UNL     1      52.282  40.998  43.246  1.00  0.00    -0.550 OA
ENDBRANCH  11  12
ENDBRANCH  10  11
ENDBRANCH   9  10
ENDBRANCH   8   9
ENDBRANCH   7   8
ENDBRANCH   6   7
ENDBRANCH   5   6
ENDBRANCH   4   5
ENDBRANCH   3   4
ENDBRANCH   2   3
ENDBRANCH   1   2
BRANCH   1  15
ATOM     15  C   UNL     1      57.634  38.552  38.161  1.00  0.00     0.000 C 
BRANCH  15  16
ATOM     16  C   UNL     1      59.102  38.127  37.972  1.00  0.00     0.000 C 
BRANCH  16  17
ATOM     17  C   UNL     1      59.277  37.074  36.865  1.00  0.00     0.000 C 
BRANCH  17  18
ATOM     18  C   UNL     1      60.741  36.914  36.417  1.00  0.00    -0.000 C 
BRANCH  18  19
ATOM     19  C   UNL     1      60.982  37.050  34.899  1.00  0.00    -0.000 C 
BRANCH  19  20
ATOM     20  C   UNL     1      61.454  38.441  34.431  1.00  0.00    -0.000 C 
BRANCH  20  21
ATOM     21  C   UNL     1      61.588  39.491  35.549  1.00  0.00    -0.000 C 
BRANCH  21  22
ATOM     22  C   UNL     1      60.491  40.564  35.494  1.00  0.00    -0.000 C 
BRANCH  22  23
ATOM     23  C   UNL     1      59.553  40.330  34.300  1.00  0.00    -0.000 C 
BRANCH  23  24
ATOM     24  C   UNL     1      58.127  39.939  34.726  1.00  0.00    -0.000 C 
BRANCH  24  25
ATOM     25  C   UNL     1      57.558  38.694  34.021  1.00  0.00    -0.003 C 
ATOM     26  C   UNL     1      56.291  38.157  34.686  1.00  0.00     0.004 C 
ENDBRANCH  24  25
ENDBRANCH  23  24
ENDBRANCH  22  23
ENDBRANCH  21  22
ENDBRANCH  20  21
ENDBRANCH  19  20
ENDBRANCH  18  19
ENDBRANCH  17  18
ENDBRANCH  16  17
ENDBRANCH  15  16
ENDBRANCH   1  15
TORSDOF 22
ENDMDL
MODEL 8
REMARK VINA RESULT:    -5.429      5.910      9.390
REMARK INTER + INTRA:         -15.816
REMARK INTER:                 -12.874
REMARK INTRA:                  -2.943
REMARK UNBOUND:                -3.404
REMARK SMILES CCCCCCCCCCCCCCCCCCCCCCCC(=O)[O-]
REMARK SMILES IDX 13 1 14 2 15 3 16 4 17 5 18 6 19 7 20 8 21 9 22 10 23 11
REMARK SMILES IDX 24 12 25 13 26 14 12 15 11 16 10 17 9 18 8 19 7 20 6 21 5 22
REMARK SMILES IDX 4 23 3 24 2 25 1 26
REMARK H PARENT
REMARK Flexibility Score: inf
ROOT
ATOM      1  C   UNL     1      56.775  38.154  40.005  1.00  0.00     0.000 C 
ENDROOT
BRANCH   1   2
ATOM      2  C   UNL     1      55.669  37.187  40.475  1.00  0.00     0.000 C 
BRANCH   2   3
ATOM      3  C   UNL     1      55.422  37.167  41.995  1.00  0.00     0.000 C 
BRANCH   3   4
ATOM      4  C   UNL     1      56.016  35.926  42.682  1.00  0.00     0.000 C 
BRANCH   4   5
ATOM      5  C   UNL     1      55.625  34.619  41.975  1.00  0.00     0.000 C 
BRANCH   5   6
ATOM      6  C   UNL     1      54.937  33.617  42.920  1.00  0.00     0.000 C 
BRANCH   6   7
ATOM      7  C   UNL     1      53.959  34.301  43.889  1.00  0.00     0.000 C 
BRANCH   7   8
ATOM      8  C   UNL     1      52.694  34.818  43.181  1.00  0.00     0.000 C 
BRANCH   8   9
ATOM      9  C   UNL     1      52.226  36.177  43.727  1.00  0.00     0.000 C 
BRANCH   9  10
ATOM     10  C   UNL     1      53.098  36.672  44.894  1.00  0.00     0.006 C 
BRANCH  10  11
ATOM     11  C   UNL     1      53.061  38.200  45.038  1.00  0.00     0.053 C 
BRANCH  11  12
ATOM     12  C   UNL     1      53.379  38.638  46.434  1.00  0.00     0.041 C 
ATOM     13  O   UNL     1      54.136  39.625  46.632  1.00  0.00    -0.550 OA
ATOM     14  O   UNL     1      52.859  37.942  47.518  1.00  0.00    -0.550 OA
ENDBRANCH  11  12
ENDBRANCH  10  11
ENDBRANCH   9  10
ENDBRANCH   8   9
ENDBRANCH   7   8
ENDBRANCH   6   7
ENDBRANCH   5   6
ENDBRANCH   4   5
ENDBRANCH   3   4
ENDBRANCH   2   3
ENDBRANCH   1   2
BRANCH   1  15
ATOM     15  C   UNL     1      57.168  38.030  38.519  1.00  0.00     0.000 C 
BRANCH  15  16
ATOM     16  C   UNL     1      58.398  38.856  38.099  1.00  0.00     0.000 C 
BRANCH  16  17
ATOM     17  C   UNL     1      59.724  38.136  38.390  1.00  0.00     0.000 C 
BRANCH  17  18
ATOM     18  C   UNL     1      60.413  37.611  37.118  1.00  0.00    -0.000 C 
BRANCH  18  19
ATOM     19  C   UNL     1      59.576  36.623  36.277  1.00  0.00    -0.000 C 
BRANCH  19  20
ATOM     20  C   UNL     1      59.243  37.094  34.848  1.00  0.00    -0.000 C 
BRANCH  20  21
ATOM     21  C   UNL     1      57.747  37.340  34.578  1.00  0.00    -0.000 C 
BRANCH  21  22
ATOM     22  C   UNL     1      57.403  38.830  34.447  1.00  0.00    -0.000 C 
BRANCH  22  23
ATOM     23  C   UNL     1      58.596  39.625  33.898  1.00  0.00    -0.000 C 
BRANCH  23  24
ATOM     24  C   UNL     1      59.025  40.779  34.821  1.00  0.00    -0.000 C 
BRANCH  24  25
ATOM     25  C   UNL     1      60.467  40.682  35.353  1.00  0.00    -0.003 C 
ATOM     26  C   UNL     1      61.420  39.993  34.377  1.00  0.00     0.004 C 
ENDBRANCH  24  25
ENDBRANCH  23  24
ENDBRANCH  22  23
ENDBRANCH  21  22
ENDBRANCH  20  21
ENDBRANCH  19  20
ENDBRANCH  18  19
ENDBRANCH  17  18
ENDBRANCH  16  17
ENDBRANCH  15  16
ENDBRANCH   1  15
TORSDOF 22
ENDMDL
MODEL 9
REMARK VINA RESULT:    -5.425      6.149      9.680
REMARK INTER + INTRA:         -15.807
REMARK INTER:                 -13.098
REMARK INTRA:                  -2.709
REMARK UNBOUND:                -3.404
REMARK SMILES CCCCCCCCCCCCCCCCCCCCCCCC(=O)[O-]
REMARK SMILES IDX 13 1 14 2 15 3 16 4 17 5 18 6 19 7 20 8 21 9 22 10 23 11
REMARK SMILES IDX 24 12 25 13 26 14 12 15 11 16 10 17 9 18 8 19 7 20 6 21 5 22
REMARK SMILES IDX 4 23 3 24 2 25 1 26
REMARK H PARENT
REMARK Flexibility Score: inf
ROOT
ATOM      1  C   UNL     1      57.001  38.125  39.358  1.00  0.00     0.000 C 
ENDROOT
BRANCH   1   2
ATOM      2  C   UNL     1      55.694  37.352  39.632  1.00  0.00     0.000 C 
BRANCH   2   3
ATOM      3  C   UNL     1      55.145  37.485  41.065  1.00  0.00     0.000 C 
BRANCH   3   4
ATOM      4  C   UNL     1      54.169  38.662  41.225  1.00  0.00     0.000 C 
BRANCH   4   5
ATOM      5  C   UNL     1      52.986  38.324  42.146  1.00  0.00     0.000 C 
BRANCH   5   6
ATOM      6  C   UNL     1      53.033  39.095  43.478  1.00  0.00     0.000 C 
BRANCH   6   7
ATOM      7  C   UNL     1      52.632  38.220  44.677  1.00  0.00     0.000 C 
BRANCH   7   8
ATOM      8  C   UNL     1      51.857  36.960  44.253  1.00  0.00     0.000 C 
BRANCH   8   9
ATOM      9  C   UNL     1      52.497  35.667  44.782  1.00  0.00     0.000 C 
BRANCH   9  10
ATOM     10  C   UNL     1      53.850  35.366  44.114  1.00  0.00     0.006 C 
BRANCH  10  11
ATOM     11  C   UNL     1      53.752  34.216  43.102  1.00  0.00     0.053 C 
BRANCH  11  12
ATOM     12  C   UNL     1      55.067  33.522  42.916  1.00  0.00     0.041 C 
ATOM     13  O   UNL     1      55.999  34.090  42.287  1.00  0.00    -0.550 OA
ATOM     14  O   UNL     1      55.254  32.239  43.414  1.00  0.00    -0.550 OA
ENDBRANCH  11  12
ENDBRANCH  10  11
ENDBRANCH   9  10
ENDBRANCH   8   9
ENDBRANCH   7   8
ENDBRANCH   6   7
ENDBRANCH   5   6
ENDBRANCH   4   5
ENDBRANCH   3   4
ENDBRANCH   2   3
ENDBRANCH   1   2
BRANCH   1  15
ATOM     15  C   UNL     1      57.472  38.120  37.889  1.00  0.00     0.000 C 
BRANCH  15  16
ATOM     16  C   UNL     1      58.992  37.981  37.693  1.00  0.00     0.000 C 
BRANCH  16  17
ATOM     17  C   UNL     1      59.360  36.945  36.618  1.00  0.00     0.000 C 
BRANCH  17  18
ATOM     18  C   UNL     1      60.873  36.881  36.340  1.00  0.00    -0.000 C 
BRANCH  18  19
ATOM     19  C   UNL     1      61.275  37.021  34.857  1.00  0.00    -0.000 C 
BRANCH  19  20
ATOM     20  C   UNL     1      61.456  38.469  34.359  1.00  0.00    -0.000 C 
BRANCH  20  21
ATOM     21  C   UNL     1      61.618  39.522  35.470  1.00  0.00    -0.000 C 
BRANCH  21  22
ATOM     22  C   UNL     1      60.484  40.556  35.480  1.00  0.00    -0.000 C 
BRANCH  22  23
ATOM     23  C   UNL     1      59.555  40.367  34.271  1.00  0.00    -0.000 C 
BRANCH  23  24
ATOM     24  C   UNL     1      58.117  39.997  34.672  1.00  0.00    -0.000 C 
BRANCH  24  25
ATOM     25  C   UNL     1      57.562  38.728  33.998  1.00  0.00    -0.003 C 
ATOM     26  C   UNL     1      56.097  38.460  34.343  1.00  0.00     0.004 C 
ENDBRANCH  24  25
ENDBRANCH  23  24
ENDBRANCH  22  23
ENDBRANCH  21  22
ENDBRANCH  20  21
ENDBRANCH  19  20
ENDBRANCH  18  19
ENDBRANCH  17  18
ENDBRANCH  16  17
ENDBRANCH  15  16
ENDBRANCH   1  15
TORSDOF 22
ENDMDL
