MODEL 1
REMARK VINA RESULT:    -5.541      0.000      0.000
REMARK INTER + INTRA:          -6.431
REMARK INTER:                  -6.351
REMARK INTRA:                  -0.080
REMARK UNBOUND:                -0.080
REMARK SMILES COc1cc(C(=O)[O-])ccc1O
REMARK SMILES IDX 5 1 9 2 4 3 10 4 3 5 11 6 6 7 7 8 8 9 2 10 1 11 12 12
REMARK H PARENT 12 13
REMARK Flexibility Score: inf
ROOT
ATOM      1  C   UNL     1      21.163  26.873  34.094  1.00  0.00     0.001 A 
ATOM      2  C   UNL     1      21.702  25.671  34.582  1.00  0.00     0.014 A 
ATOM      3  C   UNL     1      22.028  27.948  33.817  1.00  0.00     0.060 A 
ATOM      4  C   UNL     1      23.076  25.546  34.789  1.00  0.00     0.051 A 
ATOM      5  C   UNL     1      23.417  27.825  34.025  1.00  0.00     0.161 A 
ATOM      6  C   UNL     1      23.934  26.617  34.513  1.00  0.00     0.157 A 
ENDROOT
BRANCH   1   7
ATOM      7  C   UNL     1      19.705  27.001  33.875  1.00  0.00     0.072 C 
ATOM      8  O   UNL     1      19.160  26.485  32.863  1.00  0.00    -0.545 OA
ATOM      9  O   UNL     1      18.914  27.694  34.785  1.00  0.00    -0.545 OA
ENDBRANCH   1   7
BRANCH   5  10
ATOM     10  O   UNL     1      24.310  28.875  33.761  1.00  0.00    -0.493 OA
ATOM     11  C   UNL     1      24.030  30.251  34.000  1.00  0.00     0.278 C 
ENDBRANCH   5  10
BRANCH   6  12
ATOM     12  O   UNL     1      25.306  26.490  34.721  1.00  0.00    -0.504 OA
ATOM     13  H   UNL     1      25.678  25.921  35.474  1.00  0.00     0.293 HD
ENDBRANCH   6  12
TORSDOF 3
ENDMDL
MODEL 2
REMARK VINA RESULT:    -5.480      1.555      4.496
REMARK INTER + INTRA:          -6.361
REMARK INTER:                  -6.261
REMARK INTRA:                  -0.101
REMARK UNBOUND:                -0.080
REMARK SMILES COc1cc(C(=O)[O-])ccc1O
REMARK SMILES IDX 5 1 9 2 4 3 10 4 3 5 11 6 6 7 7 8 8 9 2 10 1 11 12 12
REMARK H PARENT 12 13
REMARK Flexibility Score: inf
ROOT
ATOM      1  C   UNL     1      23.235  26.845  34.336  1.00  0.00     0.001 A 
ATOM      2  C   UNL     1      23.780  28.116  34.090  1.00  0.00     0.014 A 
ATOM      3  C   UNL     1      21.847  26.658  34.199  1.00  0.00     0.060 A 
ATOM      4  C   UNL     1      22.956  29.179  33.716  1.00  0.00     0.051 A 
ATOM      5  C   UNL     1      21.012  27.729  33.821  1.00  0.00     0.161 A 
ATOM      6  C   UNL     1      21.576  28.989  33.581  1.00  0.00     0.157 A 
ENDROOT
BRANCH   1   7
ATOM      7  C   UNL     1      24.113  25.721  34.732  1.00  0.00     0.072 C 
ATOM      8  O   UNL     1      25.357  25.889  34.846  1.00  0.00    -0.545 OA
ATOM      9  O   UNL     1      23.578  24.464  34.984  1.00  0.00    -0.545 OA
ENDBRANCH   1   7
BRANCH   5  10
ATOM     10  O   UNL     1      19.623  27.581  33.676  1.00  0.00    -0.493 OA
ATOM     11  C   UNL     1      18.729  27.271  34.740  1.00  0.00     0.278 C 
ENDBRANCH   5  10
BRANCH   6  12
ATOM     12  O   UNL     1      20.755  30.052  33.208  1.00  0.00    -0.504 OA
ATOM     13  H   UNL     1      20.571  30.263  32.233  1.00  0.00     0.293 HD
ENDBRANCH   6  12
TORSDOF 3
ENDMDL
MODEL 3
REMARK VINA RESULT:    -5.406      1.073      2.577
REMARK INTER + INTRA:          -6.277
REMARK INTER:                  -6.186
REMARK INTRA:                  -0.090
REMARK UNBOUND:                -0.080
REMARK SMILES COc1cc(C(=O)[O-])ccc1O
REMARK SMILES IDX 5 1 9 2 4 3 10 4 3 5 11 6 6 7 7 8 8 9 2 10 1 11 12 12
REMARK H PARENT 12 13
REMARK Flexibility Score: inf
ROOT
ATOM      1  C   UNL     1      20.585  27.384  33.971  1.00  0.00     0.001 A 
ATOM      2  C   UNL     1      20.968  28.675  33.569  1.00  0.00     0.014 A 
ATOM      3  C   UNL     1      21.578  26.459  34.341  1.00  0.00     0.060 A 
ATOM      4  C   UNL     1      22.317  29.034  33.538  1.00  0.00     0.051 A 
ATOM      5  C   UNL     1      22.941  26.818  34.310  1.00  0.00     0.161 A 
ATOM      6  C   UNL     1      23.303  28.111  33.905  1.00  0.00     0.157 A 
ENDROOT
BRANCH   1   7
ATOM      7  C   UNL     1      19.153  27.009  34.003  1.00  0.00     0.072 C 
ATOM      8  O   UNL     1      18.604  26.486  32.997  1.00  0.00    -0.545 OA
ATOM      9  O   UNL     1      18.392  27.230  35.145  1.00  0.00    -0.545 OA
ENDBRANCH   1   7
BRANCH   5  10
ATOM     10  O   UNL     1      23.960  25.922  34.670  1.00  0.00    -0.493 OA
ATOM     11  C   UNL     1      24.200  24.673  34.029  1.00  0.00     0.278 C 
ENDBRANCH   5  10
BRANCH   6  12
ATOM     12  O   UNL     1      24.649  28.471  33.873  1.00  0.00    -0.504 OA
ATOM     13  H   UNL     1      24.970  29.277  33.348  1.00  0.00     0.293 HD
ENDBRANCH   6  12
TORSDOF 3
ENDMDL
MODEL 4
REMARK VINA RESULT:    -5.130      1.817      3.589
REMARK INTER + INTRA:          -5.959
REMARK INTER:                  -5.877
REMARK INTRA:                  -0.082
REMARK UNBOUND:                -0.080
REMARK SMILES COc1cc(C(=O)[O-])ccc1O
REMARK SMILES IDX 5 1 9 2 4 3 10 4 3 5 11 6 6 7 7 8 8 9 2 10 1 11 12 12
REMARK H PARENT 12 13
REMARK Flexibility Score: inf
ROOT
ATOM      1  C   UNL     1      22.609  26.632  34.152  1.00  0.00     0.001 A 
ATOM      2  C   UNL     1      21.257  26.585  33.773  1.00  0.00     0.014 A 
ATOM      3  C   UNL     1      23.265  27.876  34.194  1.00  0.00     0.060 A 
ATOM      4  C   UNL     1      20.574  27.758  33.444  1.00  0.00     0.051 A 
ATOM      5  C   UNL     1      22.579  29.062  33.862  1.00  0.00     0.161 A 
ATOM      6  C   UNL     1      21.231  28.994  33.487  1.00  0.00     0.157 A 
ENDROOT
BRANCH   1   7
ATOM      7  C   UNL     1      23.328  25.386  34.500  1.00  0.00     0.072 C 
ATOM      8  O   UNL     1      24.491  25.430  34.983  1.00  0.00    -0.545 OA
ATOM      9  O   UNL     1      22.729  24.147  34.299  1.00  0.00    -0.545 OA
ENDBRANCH   1   7
BRANCH   5  10
ATOM     10  O   UNL     1      23.201  30.320  33.892  1.00  0.00    -0.493 OA
ATOM     11  C   UNL     1      24.607  30.523  33.995  1.00  0.00     0.278 C 
ENDBRANCH   5  10
BRANCH   6  12
ATOM     12  O   UNL     1      20.548  30.163  33.157  1.00  0.00    -0.504 OA
ATOM     13  H   UNL     1      19.572  30.148  32.884  1.00  0.00     0.293 HD
ENDBRANCH   6  12
TORSDOF 3
ENDMDL
MODEL 5
REMARK VINA RESULT:    -5.096      2.204      3.495
REMARK INTER + INTRA:          -5.921
REMARK INTER:                  -5.854
REMARK INTRA:                  -0.067
REMARK UNBOUND:                -0.080
REMARK SMILES COc1cc(C(=O)[O-])ccc1O
REMARK SMILES IDX 5 1 9 2 4 3 10 4 3 5 11 6 6 7 7 8 8 9 2 10 1 11 12 12
REMARK H PARENT 12 13
REMARK Flexibility Score: inf
ROOT
ATOM      1  C   UNL     1      21.479  29.743  33.883  1.00  0.00     0.001 A 
ATOM      2  C   UNL     1      22.794  30.227  33.994  1.00  0.00     0.014 A 
ATOM      3  C   UNL     1      21.262  28.353  33.847  1.00  0.00     0.060 A 
ATOM      4  C   UNL     1      23.869  29.340  34.069  1.00  0.00     0.051 A 
ATOM      5  C   UNL     1      22.346  27.455  33.922  1.00  0.00     0.161 A 
ATOM      6  C   UNL     1      23.650  27.958  34.033  1.00  0.00     0.157 A 
ENDROOT
BRANCH   1   7
ATOM      7  C   UNL     1      20.342  30.688  33.804  1.00  0.00     0.072 C 
ATOM      8  O   UNL     1      20.524  31.881  33.444  1.00  0.00    -0.545 OA
ATOM      9  O   UNL     1      19.056  30.271  34.128  1.00  0.00    -0.545 OA
ENDBRANCH   1   7
BRANCH   5  10
ATOM     10  O   UNL     1      22.168  26.062  33.889  1.00  0.00    -0.493 OA
ATOM     11  C   UNL     1      22.009  25.242  35.042  1.00  0.00     0.278 C 
ENDBRANCH   5  10
BRANCH   6  12
ATOM     12  O   UNL     1      24.725  27.074  34.107  1.00  0.00    -0.504 OA
ATOM     13  H   UNL     1      25.011  26.659  34.987  1.00  0.00     0.293 HD
ENDBRANCH   6  12
TORSDOF 3
ENDMDL
MODEL 6
REMARK VINA RESULT:    -5.010      2.013      3.650
REMARK INTER + INTRA:          -5.822
REMARK INTER:                  -5.741
REMARK INTRA:                  -0.082
REMARK UNBOUND:                -0.080
REMARK SMILES COc1cc(C(=O)[O-])ccc1O
REMARK SMILES IDX 5 1 9 2 4 3 10 4 3 5 11 6 6 7 7 8 8 9 2 10 1 11 12 12
REMARK H PARENT 12 13
REMARK Flexibility Score: inf
ROOT
ATOM      1  C   UNL     1      22.795  28.078  34.001  1.00  0.00     0.001 A 
ATOM      2  C   UNL     1      21.570  27.468  33.685  1.00  0.00     0.014 A 
ATOM      3  C   UNL     1      23.871  27.275  34.424  1.00  0.00     0.060 A 
ATOM      4  C   UNL     1      21.423  26.084  33.788  1.00  0.00     0.051 A 
ATOM      5  C   UNL     1      23.725  25.877  34.529  1.00  0.00     0.161 A 
ATOM      6  C   UNL     1      22.495  25.288  34.209  1.00  0.00     0.157 A 
ENDROOT
BRANCH   1   7
ATOM      7  C   UNL     1      22.946  29.547  33.890  1.00  0.00     0.072 C 
ATOM      8  O   UNL     1      21.933  30.293  33.825  1.00  0.00    -0.545 OA
ATOM      9  O   UNL     1      24.210  30.124  33.854  1.00  0.00    -0.545 OA
ENDBRANCH   1   7
BRANCH   5  10
ATOM     10  O   UNL     1      24.776  25.044  34.948  1.00  0.00    -0.493 OA
ATOM     11  C   UNL     1      26.134  25.455  35.062  1.00  0.00     0.278 C 
ENDBRANCH   5  10
BRANCH   6  12
ATOM     12  O   UNL     1      22.345  23.906  34.312  1.00  0.00    -0.504 OA
ATOM     13  H   UNL     1      22.906  23.359  34.956  1.00  0.00     0.293 HD
ENDBRANCH   6  12
TORSDOF 3
ENDMDL
MODEL 7
REMARK VINA RESULT:    -5.002      2.242      3.614
REMARK INTER + INTRA:          -5.813
REMARK INTER:                  -5.733
REMARK INTRA:                  -0.079
REMARK UNBOUND:                -0.080
REMARK SMILES COc1cc(C(=O)[O-])ccc1O
REMARK SMILES IDX 5 1 9 2 4 3 10 4 3 5 11 6 6 7 7 8 8 9 2 10 1 11 12 12
REMARK H PARENT 12 13
REMARK Flexibility Score: inf
ROOT
ATOM      1  C   UNL     1      20.766  26.669  33.291  1.00  0.00     0.001 A 
ATOM      2  C   UNL     1      19.435  26.802  33.722  1.00  0.00     0.014 A 
ATOM      3  C   UNL     1      21.603  27.800  33.296  1.00  0.00     0.060 A 
ATOM      4  C   UNL     1      18.951  28.040  34.149  1.00  0.00     0.051 A 
ATOM      5  C   UNL     1      21.117  29.052  33.727  1.00  0.00     0.161 A 
ATOM      6  C   UNL     1      19.787  29.163  34.153  1.00  0.00     0.157 A 
ENDROOT
BRANCH   1   7
ATOM      7  C   UNL     1      21.274  25.355  32.839  1.00  0.00     0.072 C 
ATOM      8  O   UNL     1      20.849  24.834  31.773  1.00  0.00    -0.545 OA
ATOM      9  O   UNL     1      22.229  24.674  33.585  1.00  0.00    -0.545 OA
ENDBRANCH   1   7
BRANCH   5  10
ATOM     10  O   UNL     1      21.923  30.202  33.745  1.00  0.00    -0.493 OA
ATOM     11  C   UNL     1      23.319  30.204  34.027  1.00  0.00     0.278 C 
ENDBRANCH   5  10
BRANCH   6  12
ATOM     12  O   UNL     1      19.301  30.398  34.579  1.00  0.00    -0.504 OA
ATOM     13  H   UNL     1      18.329  30.526  34.836  1.00  0.00     0.293 HD
ENDBRANCH   6  12
TORSDOF 3
ENDMDL
MODEL 8
REMARK VINA RESULT:    -4.832      2.657      4.017
REMARK INTER + INTRA:          -5.618
REMARK INTER:                  -5.540
REMARK INTRA:                  -0.079
REMARK UNBOUND:                -0.080
REMARK SMILES COc1cc(C(=O)[O-])ccc1O
REMARK SMILES IDX 5 1 9 2 4 3 10 4 3 5 11 6 6 7 7 8 8 9 2 10 1 11 12 12
REMARK H PARENT 12 13
REMARK Flexibility Score: inf
ROOT
ATOM      1  C   UNL     1      23.128  24.144  35.219  1.00  0.00     0.001 A 
ATOM      2  C   UNL     1      24.492  24.481  35.214  1.00  0.00     0.014 A 
ATOM      3  C   UNL     1      22.183  25.109  34.823  1.00  0.00     0.060 A 
ATOM      4  C   UNL     1      24.903  25.756  34.821  1.00  0.00     0.051 A 
ATOM      5  C   UNL     1      22.595  26.397  34.426  1.00  0.00     0.161 A 
ATOM      6  C   UNL     1      23.961  26.713  34.428  1.00  0.00     0.157 A 
ENDROOT
BRANCH   1   7
ATOM      7  C   UNL     1      22.697  22.791  35.636  1.00  0.00     0.072 C 
ATOM      8  O   UNL     1      21.650  22.634  36.320  1.00  0.00    -0.545 OA
ATOM      9  O   UNL     1      23.442  21.673  35.279  1.00  0.00    -0.545 OA
ENDBRANCH   1   7
BRANCH   5  10
ATOM     10  O   UNL     1      21.682  27.386  34.026  1.00  0.00    -0.493 OA
ATOM     11  C   UNL     1      20.278  27.182  33.896  1.00  0.00     0.278 C 
ENDBRANCH   5  10
BRANCH   6  12
ATOM     12  O   UNL     1      24.374  27.986  34.037  1.00  0.00    -0.504 OA
ATOM     13  H   UNL     1      24.414  28.253  33.060  1.00  0.00     0.293 HD
ENDBRANCH   6  12
TORSDOF 3
ENDMDL
