MODEL 1
REMARK VINA RESULT:    -5.344      0.000      0.000
REMARK INTER + INTRA:          -5.657
REMARK INTER:                  -5.657
REMARK INTRA:                   0.000
REMARK UNBOUND:                 0.000
REMARK SMILES O=c1ccc2cc(O)c(O)cc2o1
REMARK SMILES IDX 4 1 3 2 2 3 1 4 13 5 12 6 11 7 9 8 7 9 6 10 5 11 8 12 10 14
REMARK H PARENT 8 13 10 15
REMARK Flexibility Score: inf
ROOT
ATOM      1  C   UNL     1      28.383  41.128  81.745  1.00  0.00     0.019 A 
ATOM      2  C   UNL     1      27.141  41.640  82.121  1.00  0.00     0.094 A 
ATOM      3  C   UNL     1      26.341  42.255  81.151  1.00  0.00     0.336 A 
ATOM      4  O   UNL     1      25.216  42.723  81.469  1.00  0.00    -0.246 OA
ATOM      5  O   UNL     1      26.760  42.347  79.892  1.00  0.00    -0.423 OA
ATOM      6  C   UNL     1      27.938  41.872  79.492  1.00  0.00     0.142 A 
ATOM      7  C   UNL     1      28.324  41.999  78.155  1.00  0.00     0.098 A 
ATOM      8  C   UNL     1      29.565  41.500  77.729  1.00  0.00     0.161 A 
ATOM      9  C   UNL     1      30.421  40.871  78.646  1.00  0.00     0.158 A 
ATOM     10  C   UNL     1      30.037  40.742  79.988  1.00  0.00     0.062 A 
ATOM     11  C   UNL     1      28.798  41.239  80.416  1.00  0.00     0.022 A 
ENDROOT
BRANCH   9  12
ATOM     12  O   UNL     1      31.650  40.378  78.214  1.00  0.00    -0.504 OA
ATOM     13  H   UNL     1      31.766  39.411  77.934  1.00  0.00     0.293 HD
ENDBRANCH   9  12
BRANCH   8  14
ATOM     14  O   UNL     1      29.954  41.624  76.396  1.00  0.00    -0.504 OA
ATOM     15  H   UNL     1      30.927  41.559  76.120  1.00  0.00     0.293 HD
ENDBRANCH   8  14
TORSDOF 2
ENDMDL
MODEL 2
REMARK VINA RESULT:    -5.224      2.481      4.787
REMARK INTER + INTRA:          -5.529
REMARK INTER:                  -5.529
REMARK INTRA:                   0.000
REMARK UNBOUND:                 0.000
REMARK SMILES O=c1ccc2cc(O)c(O)cc2o1
REMARK SMILES IDX 4 1 3 2 2 3 1 4 13 5 12 6 11 7 9 8 7 9 6 10 5 11 8 12 10 14
REMARK H PARENT 8 13 10 15
REMARK Flexibility Score: inf
ROOT
ATOM      1  C   UNL     1      27.250  44.651  78.527  1.00  0.00     0.019 A 
ATOM      2  C   UNL     1      28.174  45.227  77.655  1.00  0.00     0.094 A 
ATOM      3  C   UNL     1      29.510  44.813  77.713  1.00  0.00     0.336 A 
ATOM      4  O   UNL     1      30.359  45.320  76.934  1.00  0.00    -0.246 OA
ATOM      5  O   UNL     1      29.889  43.884  78.586  1.00  0.00    -0.423 OA
ATOM      6  C   UNL     1      29.040  43.310  79.436  1.00  0.00     0.142 A 
ATOM      7  C   UNL     1      29.498  42.339  80.332  1.00  0.00     0.098 A 
ATOM      8  C   UNL     1      28.607  41.732  81.230  1.00  0.00     0.161 A 
ATOM      9  C   UNL     1      27.253  42.097  81.230  1.00  0.00     0.158 A 
ATOM     10  C   UNL     1      26.789  43.070  80.332  1.00  0.00     0.062 A 
ATOM     11  C   UNL     1      27.677  43.678  79.435  1.00  0.00     0.022 A 
ENDROOT
BRANCH   9  12
ATOM     12  O   UNL     1      26.375  41.488  82.124  1.00  0.00    -0.504 OA
ATOM     13  H   UNL     1      26.569  41.452  83.117  1.00  0.00     0.293 HD
ENDBRANCH   9  12
BRANCH   8  14
ATOM     14  O   UNL     1      29.059  40.763  82.124  1.00  0.00    -0.504 OA
ATOM     15  H   UNL     1      29.425  39.874  81.802  1.00  0.00     0.293 HD
ENDBRANCH   8  14
TORSDOF 2
ENDMDL
MODEL 3
REMARK VINA RESULT:    -5.224     11.646     13.824
REMARK INTER + INTRA:          -5.529
REMARK INTER:                  -5.529
REMARK INTRA:                   0.000
REMARK UNBOUND:                 0.000
REMARK SMILES O=c1ccc2cc(O)c(O)cc2o1
REMARK SMILES IDX 4 1 3 2 2 3 1 4 13 5 12 6 11 7 9 8 7 9 6 10 5 11 8 12 10 14
REMARK H PARENT 8 13 10 15
REMARK Flexibility Score: inf
ROOT
ATOM      1  C   UNL     1      16.539  37.568  79.143  1.00  0.00     0.019 A 
ATOM      2  C   UNL     1      17.502  37.357  80.130  1.00  0.00     0.094 A 
ATOM      3  C   UNL     1      17.570  38.244  81.210  1.00  0.00     0.336 A 
ATOM      4  O   UNL     1      18.432  38.072  82.111  1.00  0.00    -0.246 OA
ATOM      5  O   UNL     1      16.727  39.270  81.293  1.00  0.00    -0.423 OA
ATOM      6  C   UNL     1      15.793  39.506  80.373  1.00  0.00     0.142 A 
ATOM      7  C   UNL     1      14.936  40.601  80.514  1.00  0.00     0.098 A 
ATOM      8  C   UNL     1      13.951  40.855  79.547  1.00  0.00     0.161 A 
ATOM      9  C   UNL     1      13.824  40.008  78.436  1.00  0.00     0.158 A 
ATOM     10  C   UNL     1      14.682  38.908  78.290  1.00  0.00     0.062 A 
ATOM     11  C   UNL     1      15.667  38.654  79.255  1.00  0.00     0.022 A 
ENDROOT
BRANCH   9  12
ATOM     12  O   UNL     1      12.842  40.267  77.481  1.00  0.00    -0.504 OA
ATOM     13  H   UNL     1      12.484  39.537  76.878  1.00  0.00     0.293 HD
ENDBRANCH   9  12
BRANCH   8  14
ATOM     14  O   UNL     1      13.093  41.945  79.684  1.00  0.00    -0.504 OA
ATOM     15  H   UNL     1      12.702  42.202  80.584  1.00  0.00     0.293 HD
ENDBRANCH   8  14
TORSDOF 2
ENDMDL
MODEL 4
REMARK VINA RESULT:    -5.103      1.970      4.641
REMARK INTER + INTRA:          -5.401
REMARK INTER:                  -5.401
REMARK INTRA:                   0.000
REMARK UNBOUND:                 0.000
REMARK SMILES O=c1ccc2cc(O)c(O)cc2o1
REMARK SMILES IDX 4 1 3 2 2 3 1 4 13 5 12 6 11 7 9 8 7 9 6 10 5 11 8 12 10 14
REMARK H PARENT 8 13 10 15
REMARK Flexibility Score: inf
ROOT
ATOM      1  C   UNL     1      29.135  40.626  77.558  1.00  0.00     0.019 A 
ATOM      2  C   UNL     1      29.505  41.172  76.328  1.00  0.00     0.094 A 
ATOM      3  C   UNL     1      29.484  42.562  76.171  1.00  0.00     0.336 A 
ATOM      4  O   UNL     1      29.814  43.074  75.070  1.00  0.00    -0.246 OA
ATOM      5  O   UNL     1      29.118  43.349  77.180  1.00  0.00    -0.423 OA
ATOM      6  C   UNL     1      28.759  42.868  78.368  1.00  0.00     0.142 A 
ATOM      7  C   UNL     1      28.383  43.745  79.391  1.00  0.00     0.098 A 
ATOM      8  C   UNL     1      28.003  43.244  80.645  1.00  0.00     0.161 A 
ATOM      9  C   UNL     1      27.999  41.860  80.877  1.00  0.00     0.158 A 
ATOM     10  C   UNL     1      28.375  40.977  79.854  1.00  0.00     0.062 A 
ATOM     11  C   UNL     1      28.755  41.476  78.600  1.00  0.00     0.022 A 
ENDROOT
BRANCH   9  12
ATOM     12  O   UNL     1      27.621  41.371  82.125  1.00  0.00    -0.504 OA
ATOM     13  H   UNL     1      28.052  41.704  82.979  1.00  0.00     0.293 HD
ENDBRANCH   9  12
BRANCH   8  14
ATOM     14  O   UNL     1      27.629  44.114  81.668  1.00  0.00    -0.504 OA
ATOM     15  H   UNL     1      27.143  43.783  82.493  1.00  0.00     0.293 HD
ENDBRANCH   8  14
TORSDOF 2
ENDMDL
MODEL 5
REMARK VINA RESULT:    -5.090      1.192      2.267
REMARK INTER + INTRA:          -5.388
REMARK INTER:                  -5.388
REMARK INTRA:                   0.000
REMARK UNBOUND:                 0.000
REMARK SMILES O=c1ccc2cc(O)c(O)cc2o1
REMARK SMILES IDX 4 1 3 2 2 3 1 4 13 5 12 6 11 7 9 8 7 9 6 10 5 11 8 12 10 14
REMARK H PARENT 8 13 10 15
REMARK Flexibility Score: inf
ROOT
ATOM      1  C   UNL     1      27.934  43.489  78.947  1.00  0.00     0.019 A 
ATOM      2  C   UNL     1      26.846  43.631  79.809  1.00  0.00     0.094 A 
ATOM      3  C   UNL     1      26.606  42.639  80.766  1.00  0.00     0.336 A 
ATOM      4  O   UNL     1      25.630  42.748  81.552  1.00  0.00    -0.246 OA
ATOM      5  O   UNL     1      27.405  41.578  80.851  1.00  0.00    -0.423 OA
ATOM      6  C   UNL     1      28.453  41.405  80.049  1.00  0.00     0.142 A 
ATOM      7  C   UNL     1      29.257  40.269  80.186  1.00  0.00     0.098 A 
ATOM      8  C   UNL     1      30.362  40.081  79.342  1.00  0.00     0.161 A 
ATOM      9  C   UNL     1      30.665  41.034  78.359  1.00  0.00     0.158 A 
ATOM     10  C   UNL     1      29.861  42.175  78.217  1.00  0.00     0.062 A 
ATOM     11  C   UNL     1      28.756  42.364  79.059  1.00  0.00     0.022 A 
ENDROOT
BRANCH   9  12
ATOM     12  O   UNL     1      31.765  40.840  77.526  1.00  0.00    -0.504 OA
ATOM     13  H   UNL     1      32.673  40.588  77.896  1.00  0.00     0.293 HD
ENDBRANCH   9  12
BRANCH   8  14
ATOM     14  O   UNL     1      31.167  38.950  79.476  1.00  0.00    -0.504 OA
ATOM     15  H   UNL     1      31.875  38.720  78.789  1.00  0.00     0.293 HD
ENDBRANCH   8  14
TORSDOF 2
ENDMDL
MODEL 6
REMARK VINA RESULT:    -5.056      1.649      2.598
REMARK INTER + INTRA:          -5.352
REMARK INTER:                  -5.352
REMARK INTRA:                   0.000
REMARK UNBOUND:                 0.000
REMARK SMILES O=c1ccc2cc(O)c(O)cc2o1
REMARK SMILES IDX 4 1 3 2 2 3 1 4 13 5 12 6 11 7 9 8 7 9 6 10 5 11 8 12 10 14
REMARK H PARENT 8 13 10 15
REMARK Flexibility Score: inf
ROOT
ATOM      1  C   UNL     1      27.775  43.849  79.388  1.00  0.00     0.019 A 
ATOM      2  C   UNL     1      27.296  43.297  80.576  1.00  0.00     0.094 A 
ATOM      3  C   UNL     1      27.466  41.927  80.803  1.00  0.00     0.336 A 
ATOM      4  O   UNL     1      27.042  41.409  81.869  1.00  0.00    -0.246 OA
ATOM      5  O   UNL     1      28.078  41.165  79.899  1.00  0.00    -0.423 OA
ATOM      6  C   UNL     1      28.550  41.652  78.753  1.00  0.00     0.142 A 
ATOM      7  C   UNL     1      29.183  40.802  77.842  1.00  0.00     0.098 A 
ATOM      8  C   UNL     1      29.681  41.311  76.632  1.00  0.00     0.161 A 
ATOM      9  C   UNL     1      29.546  42.675  76.336  1.00  0.00     0.158 A 
ATOM     10  C   UNL     1      28.912  43.532  77.247  1.00  0.00     0.062 A 
ATOM     11  C   UNL     1      28.413  43.026  78.456  1.00  0.00     0.022 A 
ENDROOT
BRANCH   9  12
ATOM     12  O   UNL     1      30.044  43.172  75.133  1.00  0.00    -0.504 OA
ATOM     13  H   UNL     1      30.070  44.166  74.939  1.00  0.00     0.293 HD
ENDBRANCH   9  12
BRANCH   8  14
ATOM     14  O   UNL     1      30.313  40.467  75.721  1.00  0.00    -0.504 OA
ATOM     15  H   UNL     1      31.179  39.993  75.950  1.00  0.00     0.293 HD
ENDBRANCH   8  14
TORSDOF 2
ENDMDL
MODEL 7
REMARK VINA RESULT:    -4.997      2.137      2.397
REMARK INTER + INTRA:          -5.289
REMARK INTER:                  -5.289
REMARK INTRA:                   0.000
REMARK UNBOUND:                 0.000
REMARK SMILES O=c1ccc2cc(O)c(O)cc2o1
REMARK SMILES IDX 4 1 3 2 2 3 1 4 13 5 12 6 11 7 9 8 7 9 6 10 5 11 8 12 10 14
REMARK H PARENT 8 13 10 15
REMARK Flexibility Score: inf
ROOT
ATOM      1  C   UNL     1      28.520  41.727  81.134  1.00  0.00     0.019 A 
ATOM      2  C   UNL     1      27.308  41.470  81.775  1.00  0.00     0.094 A 
ATOM      3  C   UNL     1      26.171  42.187  81.387  1.00  0.00     0.336 A 
ATOM      4  O   UNL     1      25.068  41.969  81.952  1.00  0.00    -0.246 OA
ATOM      5  O   UNL     1      26.247  43.098  80.420  1.00  0.00    -0.423 OA
ATOM      6  C   UNL     1      27.383  43.374  79.783  1.00  0.00     0.142 A 
ATOM      7  C   UNL     1      27.401  44.343  78.776  1.00  0.00     0.098 A 
ATOM      8  C   UNL     1      28.596  44.637  78.102  1.00  0.00     0.161 A 
ATOM      9  C   UNL     1      29.777  43.959  78.438  1.00  0.00     0.158 A 
ATOM     10  C   UNL     1      29.764  42.986  79.448  1.00  0.00     0.062 A 
ATOM     11  C   UNL     1      28.571  42.690  80.123  1.00  0.00     0.022 A 
ENDROOT
BRANCH   9  12
ATOM     12  O   UNL     1      30.959  44.257  77.764  1.00  0.00    -0.504 OA
ATOM     13  H   UNL     1      31.533  45.051  78.022  1.00  0.00     0.293 HD
ENDBRANCH   9  12
BRANCH   8  14
ATOM     14  O   UNL     1      28.619  45.602  77.096  1.00  0.00    -0.504 OA
ATOM     15  H   UNL     1      29.328  45.596  76.372  1.00  0.00     0.293 HD
ENDBRANCH   8  14
TORSDOF 2
ENDMDL
MODEL 8
REMARK VINA RESULT:    -4.967      1.510      5.031
REMARK INTER + INTRA:          -5.258
REMARK INTER:                  -5.258
REMARK INTRA:                   0.000
REMARK UNBOUND:                 0.000
REMARK SMILES O=c1ccc2cc(O)c(O)cc2o1
REMARK SMILES IDX 4 1 3 2 2 3 1 4 13 5 12 6 11 7 9 8 7 9 6 10 5 11 8 12 10 14
REMARK H PARENT 8 13 10 15
REMARK Flexibility Score: inf
ROOT
ATOM      1  C   UNL     1      28.963  43.486  77.382  1.00  0.00     0.019 A 
ATOM      2  C   UNL     1      29.966  42.897  76.612  1.00  0.00     0.094 A 
ATOM      3  C   UNL     1      30.542  41.700  77.052  1.00  0.00     0.336 A 
ATOM      4  O   UNL     1      31.448  41.152  76.372  1.00  0.00    -0.246 OA
ATOM      5  O   UNL     1      30.135  41.133  78.185  1.00  0.00    -0.423 OA
ATOM      6  C   UNL     1      29.181  41.662  78.948  1.00  0.00     0.142 A 
ATOM      7  C   UNL     1      28.795  41.021  80.129  1.00  0.00     0.098 A 
ATOM      8  C   UNL     1      27.791  41.575  80.937  1.00  0.00     0.161 A 
ATOM      9  C   UNL     1      27.168  42.774  80.560  1.00  0.00     0.158 A 
ATOM     10  C   UNL     1      27.552  43.421  79.376  1.00  0.00     0.062 A 
ATOM     11  C   UNL     1      28.556  42.870  78.568  1.00  0.00     0.022 A 
ENDROOT
BRANCH   9  12
ATOM     12  O   UNL     1      26.171  43.317  81.367  1.00  0.00    -0.504 OA
ATOM     13  H   UNL     1      26.392  43.818  82.219  1.00  0.00     0.293 HD
ENDBRANCH   9  12
BRANCH   8  14
ATOM     14  O   UNL     1      27.403  40.938  82.115  1.00  0.00    -0.504 OA
ATOM     15  H   UNL     1      27.600  39.958  82.277  1.00  0.00     0.293 HD
ENDBRANCH   8  14
TORSDOF 2
ENDMDL
MODEL 9
REMARK VINA RESULT:    -4.914     11.890     14.008
REMARK INTER + INTRA:          -5.201
REMARK INTER:                  -5.201
REMARK INTRA:                   0.000
REMARK UNBOUND:                 0.000
REMARK SMILES O=c1ccc2cc(O)c(O)cc2o1
REMARK SMILES IDX 4 1 3 2 2 3 1 4 13 5 12 6 11 7 9 8 7 9 6 10 5 11 8 12 10 14
REMARK H PARENT 8 13 10 15
REMARK Flexibility Score: inf
ROOT
ATOM      1  C   UNL     1      16.752  35.913  78.369  1.00  0.00     0.019 A 
ATOM      2  C   UNL     1      15.779  35.310  77.572  1.00  0.00     0.094 A 
ATOM      3  C   UNL     1      14.463  35.781  77.637  1.00  0.00     0.336 A 
ATOM      4  O   UNL     1      13.570  35.251  76.926  1.00  0.00    -0.246 OA
ATOM      5  O   UNL     1      14.147  36.789  78.447  1.00  0.00    -0.423 OA
ATOM      6  C   UNL     1      15.046  37.391  79.223  1.00  0.00     0.142 A 
ATOM      7  C   UNL     1      14.655  38.445  80.054  1.00  0.00     0.098 A 
ATOM      8  C   UNL     1      15.597  39.083  80.875  1.00  0.00     0.161 A 
ATOM      9  C   UNL     1      16.936  38.664  80.863  1.00  0.00     0.158 A 
ATOM     10  C   UNL     1      17.333  37.607  80.031  1.00  0.00     0.062 A 
ATOM     11  C   UNL     1      16.393  36.969  79.211  1.00  0.00     0.022 A 
ENDROOT
BRANCH   9  12
ATOM     12  O   UNL     1      17.865  39.304  81.681  1.00  0.00    -0.504 OA
ATOM     13  H   UNL     1      18.146  38.913  82.572  1.00  0.00     0.293 HD
ENDBRANCH   9  12
BRANCH   8  14
ATOM     14  O   UNL     1      15.211  40.135  81.705  1.00  0.00    -0.504 OA
ATOM     15  H   UNL     1      14.613  40.882  81.370  1.00  0.00     0.293 HD
ENDBRANCH   8  14
TORSDOF 2
ENDMDL
