MODEL 1
REMARK VINA RESULT:    -3.896      0.000      0.000
REMARK INTER + INTRA:          -9.554
REMARK INTER:                  -7.084
REMARK INTRA:                  -2.470
REMARK UNBOUND:                -2.470
REMARK SMILES CCCCCCCCCCCCCCCC(=O)[O-]
REMARK SMILES IDX 9 1 10 2 11 3 12 4 13 5 14 6 15 7 16 8 17 9 18 10 8 11 7 12
REMARK SMILES IDX 6 13 5 14 4 15 3 16 2 17 1 18
REMARK H PARENT
REMARK Flexibility Score: inf
ROOT
ATOM      1  C   UNL     1      -7.175 -12.969  15.321  1.00  0.00     0.000 C 
ENDROOT
BRANCH   1   2
ATOM      2  C   UNL     1      -6.454 -12.017  16.293  1.00  0.00     0.000 C 
BRANCH   2   3
ATOM      3  C   UNL     1      -7.104 -10.626  16.365  1.00  0.00     0.000 C 
BRANCH   3   4
ATOM      4  C   UNL     1      -8.335 -10.496  15.451  1.00  0.00     0.000 C 
BRANCH   4   5
ATOM      5  C   UNL     1      -9.503  -9.716  16.093  1.00  0.00     0.000 C 
BRANCH   5   6
ATOM      6  C   UNL     1      -9.059  -8.931  17.340  1.00  0.00     0.006 C 
BRANCH   6   7
ATOM      7  C   UNL     1      -9.856  -9.326  18.590  1.00  0.00     0.053 C 
BRANCH   7   8
ATOM      8  C   UNL     1      -8.997  -9.330  19.818  1.00  0.00     0.041 C 
ATOM      9  O   UNL     1      -9.367  -8.716  20.853  1.00  0.00    -0.550 OA
ATOM     10  O   UNL     1      -7.771  -9.983  19.807  1.00  0.00    -0.550 OA
ENDBRANCH   7   8
ENDBRANCH   6   7
ENDBRANCH   5   6
ENDBRANCH   4   5
ENDBRANCH   3   4
ENDBRANCH   2   3
ENDBRANCH   1   2
BRANCH   1  11
ATOM     11  C   UNL     1      -7.851 -14.188  15.977  1.00  0.00     0.000 C 
BRANCH  11  12
ATOM     12  C   UNL     1      -8.061 -14.019  17.489  1.00  0.00    -0.000 C 
BRANCH  12  13
ATOM     13  C   UNL     1      -9.541 -14.198  17.860  1.00  0.00    -0.000 C 
BRANCH  13  14
ATOM     14  C   UNL     1     -10.359 -12.911  17.674  1.00  0.00    -0.000 C 
BRANCH  14  15
ATOM     15  C   UNL     1     -11.626 -13.130  16.828  1.00  0.00    -0.000 C 
BRANCH  15  16
ATOM     16  C   UNL     1     -11.415 -12.735  15.351  1.00  0.00    -0.000 C 
BRANCH  16  17
ATOM     17  C   UNL     1     -11.194 -13.937  14.418  1.00  0.00    -0.003 C 
ATOM     18  C   UNL     1     -10.296 -13.613  13.226  1.00  0.00     0.004 C 
ENDBRANCH  16  17
ENDBRANCH  15  16
ENDBRANCH  14  15
ENDBRANCH  13  14
ENDBRANCH  12  13
ENDBRANCH  11  12
ENDBRANCH   1  11
TORSDOF 14
ENDMDL
MODEL 2
REMARK VINA RESULT:    -3.841      0.992      1.389
REMARK INTER + INTRA:          -9.455
REMARK INTER:                  -7.224
REMARK INTRA:                  -2.231
REMARK UNBOUND:                -2.470
REMARK SMILES CCCCCCCCCCCCCCCC(=O)[O-]
REMARK SMILES IDX 9 1 10 2 11 3 12 4 13 5 14 6 15 7 16 8 17 9 18 10 8 11 7 12
REMARK SMILES IDX 6 13 5 14 4 15 3 16 2 17 1 18
REMARK H PARENT
REMARK Flexibility Score: inf
ROOT
ATOM      1  C   UNL     1      -6.789 -11.731  17.319  1.00  0.00     0.000 C 
ENDROOT
BRANCH   1   2
ATOM      2  C   UNL     1      -7.073 -10.610  16.303  1.00  0.00     0.000 C 
BRANCH   2   3
ATOM      3  C   UNL     1      -8.352 -10.850  15.485  1.00  0.00     0.000 C 
BRANCH   3   4
ATOM      4  C   UNL     1      -9.554 -10.045  16.009  1.00  0.00     0.000 C 
BRANCH   4   5
ATOM      5  C   UNL     1      -9.184  -9.018  17.101  1.00  0.00     0.000 C 
BRANCH   5   6
ATOM      6  C   UNL     1      -9.833  -9.353  18.455  1.00  0.00     0.006 C 
BRANCH   6   7
ATOM      7  C   UNL     1      -8.793  -9.564  19.563  1.00  0.00     0.053 C 
BRANCH   7   8
ATOM      8  C   UNL     1      -8.567  -8.314  20.356  1.00  0.00     0.041 C 
ATOM      9  O   UNL     1      -9.053  -8.198  21.512  1.00  0.00    -0.550 OA
ATOM     10  O   UNL     1      -7.846  -7.262  19.805  1.00  0.00    -0.550 OA
ENDBRANCH   7   8
ENDBRANCH   6   7
ENDBRANCH   5   6
ENDBRANCH   4   5
ENDBRANCH   3   4
ENDBRANCH   2   3
ENDBRANCH   1   2
BRANCH   1  11
ATOM     11  C   UNL     1      -7.023 -13.162  16.799  1.00  0.00     0.000 C 
BRANCH  11  12
ATOM     12  C   UNL     1      -7.772 -14.053  17.802  1.00  0.00    -0.000 C 
BRANCH  12  13
ATOM     13  C   UNL     1      -9.246 -14.212  17.401  1.00  0.00    -0.000 C 
BRANCH  13  14
ATOM     14  C   UNL     1     -10.117 -13.035  17.869  1.00  0.00    -0.000 C 
BRANCH  14  15
ATOM     15  C   UNL     1     -11.516 -13.041  17.229  1.00  0.00    -0.000 C 
BRANCH  15  16
ATOM     16  C   UNL     1     -11.635 -14.089  16.101  1.00  0.00    -0.000 C 
BRANCH  16  17
ATOM     17  C   UNL     1     -11.792 -13.470  14.702  1.00  0.00    -0.003 C 
ATOM     18  C   UNL     1     -10.482 -13.426  13.918  1.00  0.00     0.004 C 
ENDBRANCH  16  17
ENDBRANCH  15  16
ENDBRANCH  14  15
ENDBRANCH  13  14
ENDBRANCH  12  13
ENDBRANCH  11  12
ENDBRANCH   1  11
TORSDOF 14
ENDMDL
MODEL 3
REMARK VINA RESULT:    -3.837      2.765      5.669
REMARK INTER + INTRA:          -9.447
REMARK INTER:                  -7.263
REMARK INTRA:                  -2.183
REMARK UNBOUND:                -2.470
REMARK SMILES CCCCCCCCCCCCCCCC(=O)[O-]
REMARK SMILES IDX 9 1 10 2 11 3 12 4 13 5 14 6 15 7 16 8 17 9 18 10 8 11 7 12
REMARK SMILES IDX 6 13 5 14 4 15 3 16 2 17 1 18
REMARK H PARENT
REMARK Flexibility Score: inf
ROOT
ATOM      1  C   UNL     1      -9.454 -10.160  16.512  1.00  0.00     0.000 C 
ENDROOT
BRANCH   1   2
ATOM      2  C   UNL     1      -9.106 -11.245  15.475  1.00  0.00     0.000 C 
BRANCH   2   3
ATOM      3  C   UNL     1      -7.750 -11.918  15.741  1.00  0.00     0.000 C 
BRANCH   3   4
ATOM      4  C   UNL     1      -7.855 -13.449  15.844  1.00  0.00     0.000 C 
BRANCH   4   5
ATOM      5  C   UNL     1      -7.926 -13.969  17.296  1.00  0.00     0.000 C 
BRANCH   5   6
ATOM      6  C   UNL     1      -9.325 -14.502  17.653  1.00  0.00     0.006 C 
BRANCH   6   7
ATOM      7  C   UNL     1     -10.177 -14.777  16.407  1.00  0.00     0.053 C 
BRANCH   7   8
ATOM      8  C   UNL     1     -11.476 -14.032  16.447  1.00  0.00     0.041 C 
ATOM      9  O   UNL     1     -11.714 -13.221  17.381  1.00  0.00    -0.550 OA
ATOM     10  O   UNL     1     -12.439 -14.259  15.472  1.00  0.00    -0.550 OA
ENDBRANCH   7   8
ENDBRANCH   6   7
ENDBRANCH   5   6
ENDBRANCH   4   5
ENDBRANCH   3   4
ENDBRANCH   2   3
ENDBRANCH   1   2
BRANCH   1  11
ATOM     11  C   UNL     1      -9.435 -10.626  17.980  1.00  0.00     0.000 C 
BRANCH  11  12
ATOM     12  C   UNL     1      -8.856  -9.575  18.938  1.00  0.00    -0.000 C 
BRANCH  12  13
ATOM     13  C   UNL     1      -9.417  -8.180  18.626  1.00  0.00    -0.000 C 
BRANCH  13  14
ATOM     14  C   UNL     1      -8.317  -7.113  18.501  1.00  0.00    -0.000 C 
BRANCH  14  15
ATOM     15  C   UNL     1      -7.809  -6.950  17.058  1.00  0.00    -0.000 C 
BRANCH  15  16
ATOM     16  C   UNL     1      -6.461  -7.668  16.832  1.00  0.00    -0.000 C 
BRANCH  16  17
ATOM     17  C   UNL     1      -6.399  -8.458  15.514  1.00  0.00    -0.003 C 
ATOM     18  C   UNL     1      -7.279  -7.861  14.417  1.00  0.00     0.004 C 
ENDBRANCH  16  17
ENDBRANCH  15  16
ENDBRANCH  14  15
ENDBRANCH  13  14
ENDBRANCH  12  13
ENDBRANCH  11  12
ENDBRANCH   1  11
TORSDOF 14
ENDMDL
MODEL 4
REMARK VINA RESULT:    -3.829      2.841      5.495
REMARK INTER + INTRA:          -9.433
REMARK INTER:                  -7.091
REMARK INTRA:                  -2.342
REMARK UNBOUND:                -2.470
REMARK SMILES CCCCCCCCCCCCCCCC(=O)[O-]
REMARK SMILES IDX 9 1 10 2 11 3 12 4 13 5 14 6 15 7 16 8 17 9 18 10 8 11 7 12
REMARK SMILES IDX 6 13 5 14 4 15 3 16 2 17 1 18
REMARK H PARENT
REMARK Flexibility Score: inf
ROOT
ATOM      1  C   UNL     1      -7.294 -10.974  15.830  1.00  0.00     0.000 C 
ENDROOT
BRANCH   1   2
ATOM      2  C   UNL     1      -6.478 -12.271  15.980  1.00  0.00     0.000 C 
BRANCH   2   3
ATOM      3  C   UNL     1      -7.359 -13.524  16.107  1.00  0.00     0.000 C 
BRANCH   3   4
ATOM      4  C   UNL     1      -7.607 -13.932  17.570  1.00  0.00     0.000 C 
BRANCH   4   5
ATOM      5  C   UNL     1      -9.097 -14.163  17.904  1.00  0.00     0.000 C 
BRANCH   5   6
ATOM      6  C   UNL     1      -9.886 -14.692  16.694  1.00  0.00     0.006 C 
BRANCH   6   7
ATOM      7  C   UNL     1     -11.188 -13.913  16.463  1.00  0.00     0.053 C 
BRANCH   7   8
ATOM      8  C   UNL     1     -11.466 -13.716  15.005  1.00  0.00     0.041 C 
ATOM      9  O   UNL     1     -12.628 -13.428  14.613  1.00  0.00    -0.550 OA
ATOM     10  O   UNL     1     -10.449 -13.884  14.074  1.00  0.00    -0.550 OA
ENDBRANCH   7   8
ENDBRANCH   6   7
ENDBRANCH   5   6
ENDBRANCH   4   5
ENDBRANCH   3   4
ENDBRANCH   2   3
ENDBRANCH   1   2
BRANCH   1  11
ATOM     11  C   UNL     1      -8.776 -11.170  15.459  1.00  0.00     0.000 C 
BRANCH  11  12
ATOM     12  C   UNL     1      -9.736 -10.430  16.402  1.00  0.00    -0.000 C 
BRANCH  12  13
ATOM     13  C   UNL     1      -9.228 -10.478  17.851  1.00  0.00    -0.000 C 
BRANCH  13  14
ATOM     14  C   UNL     1      -9.917  -9.444  18.755  1.00  0.00    -0.000 C 
BRANCH  14  15
ATOM     15  C   UNL     1      -8.965  -8.326  19.212  1.00  0.00    -0.000 C 
BRANCH  15  16
ATOM     16  C   UNL     1      -7.785  -8.131  18.235  1.00  0.00    -0.000 C 
BRANCH  16  17
ATOM     17  C   UNL     1      -7.987  -6.966  17.252  1.00  0.00    -0.003 C 
ATOM     18  C   UNL     1      -7.615  -7.324  15.814  1.00  0.00     0.004 C 
ENDBRANCH  16  17
ENDBRANCH  15  16
ENDBRANCH  14  15
ENDBRANCH  13  14
ENDBRANCH  12  13
ENDBRANCH  11  12
ENDBRANCH   1  11
TORSDOF 14
ENDMDL
MODEL 5
REMARK VINA RESULT:    -3.796      2.582      5.311
REMARK INTER + INTRA:          -9.373
REMARK INTER:                  -6.922
REMARK INTRA:                  -2.451
REMARK UNBOUND:                -2.470
REMARK SMILES CCCCCCCCCCCCCCCC(=O)[O-]
REMARK SMILES IDX 9 1 10 2 11 3 12 4 13 5 14 6 15 7 16 8 17 9 18 10 8 11 7 12
REMARK SMILES IDX 6 13 5 14 4 15 3 16 2 17 1 18
REMARK H PARENT
REMARK Flexibility Score: inf
ROOT
ATOM      1  C   UNL     1      -6.910 -12.084  15.711  1.00  0.00     0.000 C 
ENDROOT
BRANCH   1   2
ATOM      2  C   UNL     1      -6.048 -12.792  16.772  1.00  0.00     0.000 C 
BRANCH   2   3
ATOM      3  C   UNL     1      -6.857 -13.748  17.663  1.00  0.00     0.000 C 
BRANCH   3   4
ATOM      4  C   UNL     1      -8.235 -14.092  17.071  1.00  0.00     0.000 C 
BRANCH   4   5
ATOM      5  C   UNL     1      -9.403 -13.878  18.057  1.00  0.00     0.000 C 
BRANCH   5   6
ATOM      6  C   UNL     1     -10.254 -12.650  17.689  1.00  0.00     0.006 C 
BRANCH   6   7
ATOM      7  C   UNL     1     -11.629 -13.041  17.132  1.00  0.00     0.053 C 
BRANCH   7   8
ATOM      8  C   UNL     1     -11.612 -13.152  15.638  1.00  0.00     0.041 C 
ATOM      9  O   UNL     1     -10.834 -12.434  14.957  1.00  0.00    -0.550 OA
ATOM     10  O   UNL     1     -12.480 -14.027  14.996  1.00  0.00    -0.550 OA
ENDBRANCH   7   8
ENDBRANCH   6   7
ENDBRANCH   5   6
ENDBRANCH   4   5
ENDBRANCH   3   4
ENDBRANCH   2   3
ENDBRANCH   1   2
BRANCH   1  11
ATOM     11  C   UNL     1      -6.992 -10.552  15.850  1.00  0.00     0.000 C 
BRANCH  11  12
ATOM     12  C   UNL     1      -8.432 -10.020  15.803  1.00  0.00    -0.000 C 
BRANCH  12  13
ATOM     13  C   UNL     1      -8.459  -8.492  15.959  1.00  0.00    -0.000 C 
BRANCH  13  14
ATOM     14  C   UNL     1      -8.621  -8.049  17.421  1.00  0.00    -0.000 C 
BRANCH  14  15
ATOM     15  C   UNL     1      -9.456  -9.038  18.252  1.00  0.00    -0.000 C 
BRANCH  15  16
ATOM     16  C   UNL     1      -8.777  -9.390  19.593  1.00  0.00    -0.000 C 
BRANCH  16  17
ATOM     17  C   UNL     1      -7.823 -10.593  19.502  1.00  0.00    -0.003 C 
ATOM     18  C   UNL     1      -6.349 -10.189  19.493  1.00  0.00     0.004 C 
ENDBRANCH  16  17
ENDBRANCH  15  16
ENDBRANCH  14  15
ENDBRANCH  13  14
ENDBRANCH  12  13
ENDBRANCH  11  12
ENDBRANCH   1  11
TORSDOF 14
ENDMDL
MODEL 6
REMARK VINA RESULT:    -3.780      3.105      6.142
REMARK INTER + INTRA:          -9.344
REMARK INTER:                  -7.080
REMARK INTRA:                  -2.265
REMARK UNBOUND:                -2.470
REMARK SMILES CCCCCCCCCCCCCCCC(=O)[O-]
REMARK SMILES IDX 9 1 10 2 11 3 12 4 13 5 14 6 15 7 16 8 17 9 18 10 8 11 7 12
REMARK SMILES IDX 6 13 5 14 4 15 3 16 2 17 1 18
REMARK H PARENT
REMARK Flexibility Score: inf
ROOT
ATOM      1  C   UNL     1      -8.085 -10.832  15.826  1.00  0.00     0.000 C 
ENDROOT
BRANCH   1   2
ATOM      2  C   UNL     1      -9.560 -10.424  16.002  1.00  0.00     0.000 C 
BRANCH   2   3
ATOM      3  C   UNL     1     -10.075 -10.637  17.434  1.00  0.00     0.000 C 
BRANCH   3   4
ATOM      4  C   UNL     1     -10.127 -12.122  17.834  1.00  0.00     0.000 C 
BRANCH   4   5
ATOM      5  C   UNL     1     -11.538 -12.740  17.741  1.00  0.00     0.000 C 
BRANCH   5   6
ATOM      6  C   UNL     1     -11.567 -13.979  16.829  1.00  0.00     0.006 C 
BRANCH   6   7
ATOM      7  C   UNL     1     -10.363 -14.032  15.879  1.00  0.00     0.053 C 
BRANCH   7   8
ATOM      8  C   UNL     1     -10.748 -13.680  14.475  1.00  0.00     0.041 C 
ATOM      9  O   UNL     1      -9.862 -13.405  13.624  1.00  0.00    -0.550 OA
ATOM     10  O   UNL     1     -12.089 -13.623  14.115  1.00  0.00    -0.550 OA
ENDBRANCH   7   8
ENDBRANCH   6   7
ENDBRANCH   5   6
ENDBRANCH   4   5
ENDBRANCH   3   4
ENDBRANCH   2   3
ENDBRANCH   1   2
BRANCH   1  11
ATOM     11  C   UNL     1      -7.077  -9.667  15.839  1.00  0.00     0.000 C 
BRANCH  11  12
ATOM     12  C   UNL     1      -7.525  -8.473  14.983  1.00  0.00    -0.000 C 
BRANCH  12  13
ATOM     13  C   UNL     1      -7.838  -7.254  15.862  1.00  0.00    -0.000 C 
BRANCH  13  14
ATOM     14  C   UNL     1      -7.414  -7.455  17.326  1.00  0.00    -0.000 C 
BRANCH  14  15
ATOM     15  C   UNL     1      -8.604  -7.412  18.300  1.00  0.00    -0.000 C 
BRANCH  15  16
ATOM     16  C   UNL     1      -8.322  -8.197  19.599  1.00  0.00    -0.000 C 
BRANCH  16  17
ATOM     17  C   UNL     1      -7.171  -9.208  19.467  1.00  0.00    -0.003 C 
ATOM     18  C   UNL     1      -7.495 -10.568  20.084  1.00  0.00     0.004 C 
ENDBRANCH  16  17
ENDBRANCH  15  16
ENDBRANCH  14  15
ENDBRANCH  13  14
ENDBRANCH  12  13
ENDBRANCH  11  12
ENDBRANCH   1  11
TORSDOF 14
ENDMDL
MODEL 7
REMARK VINA RESULT:    -3.710     11.758     14.343
REMARK INTER + INTRA:          -9.217
REMARK INTER:                  -6.994
REMARK INTRA:                  -2.223
REMARK UNBOUND:                -2.470
REMARK SMILES CCCCCCCCCCCCCCCC(=O)[O-]
REMARK SMILES IDX 9 1 10 2 11 3 12 4 13 5 14 6 15 7 16 8 17 9 18 10 8 11 7 12
REMARK SMILES IDX 6 13 5 14 4 15 3 16 2 17 1 18
REMARK H PARENT
REMARK Flexibility Score: inf
ROOT
ATOM      1  C   UNL     1     -22.809 -19.911  19.837  1.00  0.00     0.000 C 
ENDROOT
BRANCH   1   2
ATOM      2  C   UNL     1     -21.770 -19.156  20.686  1.00  0.00     0.000 C 
BRANCH   2   3
ATOM      3  C   UNL     1     -20.321 -19.531  20.337  1.00  0.00     0.000 C 
BRANCH   3   4
ATOM      4  C   UNL     1     -20.176 -20.079  18.906  1.00  0.00     0.000 C 
BRANCH   4   5
ATOM      5  C   UNL     1     -19.164 -19.295  18.043  1.00  0.00     0.000 C 
BRANCH   5   6
ATOM      6  C   UNL     1     -17.776 -19.218  18.704  1.00  0.00     0.006 C 
BRANCH   6   7
ATOM      7  C   UNL     1     -17.170 -17.811  18.622  1.00  0.00     0.053 C 
BRANCH   7   8
ATOM      8  C   UNL     1     -16.716 -17.483  17.233  1.00  0.00     0.041 C 
ATOM      9  O   UNL     1     -16.121 -18.348  16.538  1.00  0.00    -0.550 OA
ATOM     10  O   UNL     1     -16.920 -16.209  16.717  1.00  0.00    -0.550 OA
ENDBRANCH   7   8
ENDBRANCH   6   7
ENDBRANCH   5   6
ENDBRANCH   4   5
ENDBRANCH   3   4
ENDBRANCH   2   3
ENDBRANCH   1   2
BRANCH   1  11
ATOM     11  C   UNL     1     -23.866 -19.024  19.152  1.00  0.00     0.000 C 
BRANCH  11  12
ATOM     12  C   UNL     1     -23.394 -17.578  18.942  1.00  0.00    -0.000 C 
BRANCH  12  13
ATOM     13  C   UNL     1     -22.847 -17.381  17.521  1.00  0.00    -0.000 C 
BRANCH  13  14
ATOM     14  C   UNL     1     -23.902 -17.652  16.436  1.00  0.00    -0.000 C 
BRANCH  14  15
ATOM     15  C   UNL     1     -23.494 -18.786  15.481  1.00  0.00    -0.000 C 
BRANCH  15  16
ATOM     16  C   UNL     1     -22.015 -19.191  15.656  1.00  0.00    -0.000 C 
BRANCH  16  17
ATOM     17  C   UNL     1     -21.786 -20.711  15.631  1.00  0.00    -0.003 C 
ATOM     18  C   UNL     1     -22.802 -21.483  16.471  1.00  0.00     0.004 C 
ENDBRANCH  16  17
ENDBRANCH  15  16
ENDBRANCH  14  15
ENDBRANCH  13  14
ENDBRANCH  12  13
ENDBRANCH  11  12
ENDBRANCH   1  11
TORSDOF 14
ENDMDL
MODEL 8
REMARK VINA RESULT:    -3.681      2.686      5.361
REMARK INTER + INTRA:          -9.164
REMARK INTER:                  -6.541
REMARK INTRA:                  -2.624
REMARK UNBOUND:                -2.470
REMARK SMILES CCCCCCCCCCCCCCCC(=O)[O-]
REMARK SMILES IDX 9 1 10 2 11 3 12 4 13 5 14 6 15 7 16 8 17 9 18 10 8 11 7 12
REMARK SMILES IDX 6 13 5 14 4 15 3 16 2 17 1 18
REMARK H PARENT
REMARK Flexibility Score: inf
ROOT
ATOM      1  C   UNL     1      -5.455 -10.658  17.693  1.00  0.00     0.000 C 
ENDROOT
BRANCH   1   2
ATOM      2  C   UNL     1      -5.995 -11.885  18.450  1.00  0.00     0.000 C 
BRANCH   2   3
ATOM      3  C   UNL     1      -6.240 -13.096  17.534  1.00  0.00     0.000 C 
BRANCH   3   4
ATOM      4  C   UNL     1      -7.520 -13.868  17.897  1.00  0.00     0.000 C 
BRANCH   4   5
ATOM      5  C   UNL     1      -8.409 -14.200  16.680  1.00  0.00     0.000 C 
BRANCH   5   6
ATOM      6  C   UNL     1      -9.888 -14.367  17.072  1.00  0.00     0.006 C 
BRANCH   6   7
ATOM      7  C   UNL     1     -10.757 -14.813  15.889  1.00  0.00     0.053 C 
BRANCH   7   8
ATOM      8  C   UNL     1     -11.103 -13.665  14.991  1.00  0.00     0.041 C 
ATOM      9  O   UNL     1     -10.510 -13.519  13.890  1.00  0.00    -0.550 OA
ATOM     10  O   UNL     1     -12.057 -12.736  15.386  1.00  0.00    -0.550 OA
ENDBRANCH   7   8
ENDBRANCH   6   7
ENDBRANCH   5   6
ENDBRANCH   4   5
ENDBRANCH   3   4
ENDBRANCH   2   3
ENDBRANCH   1   2
BRANCH   1  11
ATOM     11  C   UNL     1      -5.889 -10.553  16.219  1.00  0.00     0.000 C 
BRANCH  11  12
ATOM     12  C   UNL     1      -6.465  -9.176  15.857  1.00  0.00    -0.000 C 
BRANCH  12  13
ATOM     13  C   UNL     1      -7.829  -9.317  15.164  1.00  0.00    -0.000 C 
BRANCH  13  14
ATOM     14  C   UNL     1      -8.576 -10.594  15.580  1.00  0.00    -0.000 C 
BRANCH  14  15
ATOM     15  C   UNL     1      -9.755 -10.309  16.527  1.00  0.00    -0.000 C 
BRANCH  15  16
ATOM     16  C   UNL     1      -9.485 -10.814  17.961  1.00  0.00    -0.000 C 
BRANCH  16  17
ATOM     17  C   UNL     1      -9.061  -9.702  18.934  1.00  0.00    -0.003 C 
ATOM     18  C   UNL     1      -9.339  -8.299  18.397  1.00  0.00     0.004 C 
ENDBRANCH  16  17
ENDBRANCH  15  16
ENDBRANCH  14  15
ENDBRANCH  13  14
ENDBRANCH  12  13
ENDBRANCH  11  12
ENDBRANCH   1  11
TORSDOF 14
ENDMDL
MODEL 9
REMARK VINA RESULT:    -3.637      2.616      3.698
REMARK INTER + INTRA:          -9.083
REMARK INTER:                  -6.720
REMARK INTRA:                  -2.363
REMARK UNBOUND:                -2.470
REMARK SMILES CCCCCCCCCCCCCCCC(=O)[O-]
REMARK SMILES IDX 9 1 10 2 11 3 12 4 13 5 14 6 15 7 16 8 17 9 18 10 8 11 7 12
REMARK SMILES IDX 6 13 5 14 4 15 3 16 2 17 1 18
REMARK H PARENT
REMARK Flexibility Score: inf
ROOT
ATOM      1  C   UNL     1      -8.005 -13.901  17.383  1.00  0.00     0.000 C 
ENDROOT
BRANCH   1   2
ATOM      2  C   UNL     1      -8.764 -12.916  18.290  1.00  0.00     0.000 C 
BRANCH   2   3
ATOM      3  C   UNL     1      -8.541 -11.446  17.899  1.00  0.00     0.000 C 
BRANCH   3   4
ATOM      4  C   UNL     1      -9.732 -10.848  17.129  1.00  0.00     0.000 C 
BRANCH   4   5
ATOM      5  C   UNL     1      -9.360  -9.619  16.272  1.00  0.00     0.000 C 
BRANCH   5   6
ATOM      6  C   UNL     1      -8.045  -9.828  15.500  1.00  0.00     0.006 C 
BRANCH   6   7
ATOM      7  C   UNL     1      -7.025  -8.716  15.777  1.00  0.00     0.053 C 
BRANCH   7   8
ATOM      8  C   UNL     1      -6.805  -7.852  14.573  1.00  0.00     0.041 C 
ATOM      9  O   UNL     1      -5.710  -7.894  13.953  1.00  0.00    -0.550 OA
ATOM     10  O   UNL     1      -7.799  -6.975  14.156  1.00  0.00    -0.550 OA
ENDBRANCH   7   8
ENDBRANCH   6   7
ENDBRANCH   5   6
ENDBRANCH   4   5
ENDBRANCH   3   4
ENDBRANCH   2   3
ENDBRANCH   1   2
BRANCH   1  11
ATOM     11  C   UNL     1      -6.748 -13.329  16.699  1.00  0.00     0.000 C 
BRANCH  11  12
ATOM     12  C   UNL     1      -6.847 -13.323  15.167  1.00  0.00    -0.000 C 
BRANCH  12  13
ATOM     13  C   UNL     1      -8.154 -13.979  14.698  1.00  0.00    -0.000 C 
BRANCH  13  14
ATOM     14  C   UNL     1      -9.141 -12.967  14.093  1.00  0.00    -0.000 C 
BRANCH  14  15
ATOM     15  C   UNL     1     -10.559 -13.543  13.935  1.00  0.00    -0.000 C 
BRANCH  15  16
ATOM     16  C   UNL     1     -11.510 -13.062  15.052  1.00  0.00    -0.000 C 
BRANCH  16  17
ATOM     17  C   UNL     1     -12.133 -14.209  15.865  1.00  0.00    -0.003 C 
ATOM     18  C   UNL     1     -11.137 -15.320  16.192  1.00  0.00     0.004 C 
ENDBRANCH  16  17
ENDBRANCH  15  16
ENDBRANCH  14  15
ENDBRANCH  13  14
ENDBRANCH  12  13
ENDBRANCH  11  12
ENDBRANCH   1  11
TORSDOF 14
ENDMDL
