MODEL 1
REMARK VINA RESULT:    -2.733      0.000      0.000
REMARK INTER + INTRA:          -3.104
REMARK INTER:                  -3.053
REMARK INTRA:                  -0.051
REMARK UNBOUND:                -0.051
REMARK SMILES CCCC(=O)[O-]
REMARK SMILES IDX 3 1 4 2 5 3 6 4 2 5 1 6
REMARK H PARENT
REMARK Flexibility Score: inf
ROOT
ATOM      1  C   UNL     1      13.015  19.664  35.991  1.00  0.00     0.052 C 
ENDROOT
BRANCH   1   2
ATOM      2  C   UNL     1      13.009  19.340  37.453  1.00  0.00     0.041 C 
ATOM      3  O   UNL     1      13.857  19.864  38.222  1.00  0.00    -0.550 OA
ATOM      4  O   UNL     1      12.087  18.433  37.961  1.00  0.00    -0.550 OA
ENDBRANCH   1   2
BRANCH   1   5
ATOM      5  C   UNL     1      11.600  19.936  35.463  1.00  0.00     0.003 C 
ATOM      6  C   UNL     1      11.148  21.371  35.725  1.00  0.00     0.004 C 
ENDBRANCH   1   5
TORSDOF 2
ENDMDL
MODEL 2
REMARK VINA RESULT:    -2.649      1.791      2.371
REMARK INTER + INTRA:          -3.010
REMARK INTER:                  -2.964
REMARK INTRA:                  -0.047
REMARK UNBOUND:                -0.051
REMARK SMILES CCCC(=O)[O-]
REMARK SMILES IDX 3 1 4 2 5 3 6 4 2 5 1 6
REMARK H PARENT
REMARK Flexibility Score: inf
ROOT
ATOM      1  C   UNL     1      11.268  20.977  36.221  1.00  0.00     0.052 C 
ENDROOT
BRANCH   1   2
ATOM      2  C   UNL     1      10.846  20.599  37.608  1.00  0.00     0.041 C 
ATOM      3  O   UNL     1      11.547  20.937  38.598  1.00  0.00    -0.550 OA
ATOM      4  O   UNL     1       9.695  19.846  37.804  1.00  0.00    -0.550 OA
ENDBRANCH   1   2
BRANCH   1   5
ATOM      5  C   UNL     1      11.876  19.786  35.468  1.00  0.00     0.003 C 
ATOM      6  C   UNL     1      13.333  19.537  35.853  1.00  0.00     0.004 C 
ENDBRANCH   1   5
TORSDOF 2
ENDMDL
MODEL 3
REMARK VINA RESULT:    -2.649     12.301     12.776
REMARK INTER + INTRA:          -3.010
REMARK INTER:                  -2.998
REMARK INTRA:                  -0.012
REMARK UNBOUND:                -0.051
REMARK SMILES CCCC(=O)[O-]
REMARK SMILES IDX 3 1 4 2 5 3 6 4 2 5 1 6
REMARK H PARENT
REMARK Flexibility Score: inf
ROOT
ATOM      1  C   UNL     1      18.362  26.573  26.930  1.00  0.00     0.052 C 
ENDROOT
BRANCH   1   2
ATOM      2  C   UNL     1      18.717  25.575  27.989  1.00  0.00     0.041 C 
ATOM      3  O   UNL     1      18.997  25.960  29.155  1.00  0.00    -0.550 OA
ATOM      4  O   UNL     1      18.771  24.222  27.679  1.00  0.00    -0.550 OA
ENDBRANCH   1   2
BRANCH   1   5
ATOM      5  C   UNL     1      17.460  27.687  27.479  1.00  0.00     0.003 C 
ATOM      6  C   UNL     1      18.224  28.986  27.723  1.00  0.00     0.004 C 
ENDBRANCH   1   5
TORSDOF 2
ENDMDL
MODEL 4
REMARK VINA RESULT:    -2.629     13.006     13.658
REMARK INTER + INTRA:          -2.988
REMARK INTER:                  -2.977
REMARK INTRA:                  -0.011
REMARK UNBOUND:                -0.051
REMARK SMILES CCCC(=O)[O-]
REMARK SMILES IDX 3 1 4 2 5 3 6 4 2 5 1 6
REMARK H PARENT
REMARK Flexibility Score: inf
ROOT
ATOM      1  C   UNL     1      18.315  28.977  28.483  1.00  0.00     0.052 C 
ENDROOT
BRANCH   1   2
ATOM      2  C   UNL     1      18.163  28.125  27.260  1.00  0.00     0.041 C 
ATOM      3  O   UNL     1      17.150  27.390  27.121  1.00  0.00    -0.550 OA
ATOM      4  O   UNL     1      19.156  28.119  26.289  1.00  0.00    -0.550 OA
ENDBRANCH   1   2
BRANCH   1   5
ATOM      5  C   UNL     1      18.260  28.140  29.768  1.00  0.00     0.003 C 
ATOM      6  C   UNL     1      17.877  28.975  30.989  1.00  0.00     0.004 C 
ENDBRANCH   1   5
TORSDOF 2
ENDMDL
MODEL 5
REMARK VINA RESULT:    -2.627     12.910     13.494
REMARK INTER + INTRA:          -2.986
REMARK INTER:                  -2.974
REMARK INTRA:                  -0.012
REMARK UNBOUND:                -0.051
REMARK SMILES CCCC(=O)[O-]
REMARK SMILES IDX 3 1 4 2 5 3 6 4 2 5 1 6
REMARK H PARENT
REMARK Flexibility Score: inf
ROOT
ATOM      1  C   UNL     1      18.370  28.556  29.023  1.00  0.00     0.052 C 
ENDROOT
BRANCH   1   2
ATOM      2  C   UNL     1      17.934  27.336  28.270  1.00  0.00     0.041 C 
ATOM      3  O   UNL     1      17.234  27.450  27.230  1.00  0.00    -0.550 OA
ATOM      4  O   UNL     1      18.273  26.073  28.736  1.00  0.00    -0.550 OA
ENDBRANCH   1   2
BRANCH   1   5
ATOM      5  C   UNL     1      18.408  29.797  28.121  1.00  0.00     0.003 C 
ATOM      6  C   UNL     1      18.487  31.095  28.922  1.00  0.00     0.004 C 
ENDBRANCH   1   5
TORSDOF 2
ENDMDL
MODEL 6
REMARK VINA RESULT:    -2.608     13.289     13.959
REMARK INTER + INTRA:          -2.964
REMARK INTER:                  -2.938
REMARK INTRA:                  -0.026
REMARK UNBOUND:                -0.051
REMARK SMILES CCCC(=O)[O-]
REMARK SMILES IDX 3 1 4 2 5 3 6 4 2 5 1 6
REMARK H PARENT
REMARK Flexibility Score: inf
ROOT
ATOM      1  C   UNL     1      18.595  29.036  27.617  1.00  0.00     0.052 C 
ENDROOT
BRANCH   1   2
ATOM      2  C   UNL     1      18.337  29.703  28.933  1.00  0.00     0.041 C 
ATOM      3  O   UNL     1      18.128  29.011  29.964  1.00  0.00    -0.550 OA
ATOM      4  O   UNL     1      18.294  31.089  29.014  1.00  0.00    -0.550 OA
ENDBRANCH   1   2
BRANCH   1   5
ATOM      5  C   UNL     1      17.569  27.932  27.328  1.00  0.00     0.003 C 
ATOM      6  C   UNL     1      18.224  26.647  26.826  1.00  0.00     0.004 C 
ENDBRANCH   1   5
TORSDOF 2
ENDMDL
MODEL 7
REMARK VINA RESULT:    -2.606     12.104     12.724
REMARK INTER + INTRA:          -2.961
REMARK INTER:                  -2.948
REMARK INTRA:                  -0.014
REMARK UNBOUND:                -0.051
REMARK SMILES CCCC(=O)[O-]
REMARK SMILES IDX 3 1 4 2 5 3 6 4 2 5 1 6
REMARK H PARENT
REMARK Flexibility Score: inf
ROOT
ATOM      1  C   UNL     1      18.501  25.965  27.383  1.00  0.00     0.052 C 
ENDROOT
BRANCH   1   2
ATOM      2  C   UNL     1      17.949  27.220  27.986  1.00  0.00     0.041 C 
ATOM      3  O   UNL     1      17.776  27.302  29.231  1.00  0.00    -0.550 OA
ATOM      4  O   UNL     1      17.595  28.287  27.170  1.00  0.00    -0.550 OA
ENDBRANCH   1   2
BRANCH   1   5
ATOM      5  C   UNL     1      18.978  24.979  28.458  1.00  0.00     0.003 C 
ATOM      6  C   UNL     1      19.014  23.539  27.951  1.00  0.00     0.004 C 
ENDBRANCH   1   5
TORSDOF 2
ENDMDL
MODEL 8
REMARK VINA RESULT:    -2.585     11.495     12.066
REMARK INTER + INTRA:          -2.938
REMARK INTER:                  -2.917
REMARK INTRA:                  -0.022
REMARK UNBOUND:                -0.051
REMARK SMILES CCCC(=O)[O-]
REMARK SMILES IDX 3 1 4 2 5 3 6 4 2 5 1 6
REMARK H PARENT
REMARK Flexibility Score: inf
ROOT
ATOM      1  C   UNL     1      17.298  29.542  34.768  1.00  0.00     0.052 C 
ENDROOT
BRANCH   1   2
ATOM      2  C   UNL     1      17.082  30.324  33.509  1.00  0.00     0.041 C 
ATOM      3  O   UNL     1      17.447  29.854  32.399  1.00  0.00    -0.550 OA
ATOM      4  O   UNL     1      16.505  31.587  33.565  1.00  0.00    -0.550 OA
ENDBRANCH   1   2
BRANCH   1   5
ATOM      5  C   UNL     1      18.417  28.504  34.606  1.00  0.00     0.003 C 
ATOM      6  C   UNL     1      19.543  28.702  35.619  1.00  0.00     0.004 C 
ENDBRANCH   1   5
TORSDOF 2
ENDMDL
MODEL 9
REMARK VINA RESULT:    -2.550     10.716     10.973
REMARK INTER + INTRA:          -2.899
REMARK INTER:                  -2.889
REMARK INTRA:                  -0.010
REMARK UNBOUND:                -0.051
REMARK SMILES CCCC(=O)[O-]
REMARK SMILES IDX 3 1 4 2 5 3 6 4 2 5 1 6
REMARK H PARENT
REMARK Flexibility Score: inf
ROOT
ATOM      1  C   UNL     1      18.688  28.592  33.521  1.00  0.00     0.052 C 
ENDROOT
BRANCH   1   2
ATOM      2  C   UNL     1      19.480  27.321  33.523  1.00  0.00     0.041 C 
ATOM      3  O   UNL     1      19.844  26.802  34.612  1.00  0.00    -0.550 OA
ATOM      4  O   UNL     1      19.846  26.726  32.322  1.00  0.00    -0.550 OA
ENDBRANCH   1   2
BRANCH   1   5
ATOM      5  C   UNL     1      17.981  28.823  34.863  1.00  0.00     0.003 C 
ATOM      6  C   UNL     1      16.862  29.858  34.760  1.00  0.00     0.004 C 
ENDBRANCH   1   5
TORSDOF 2
ENDMDL
