MODEL 1
REMARK VINA RESULT:    -4.229      0.000      0.000
REMARK INTER + INTRA:          -4.229
REMARK INTER:                  -4.229
REMARK INTRA:                   0.000
REMARK UNBOUND:                 0.000
REMARK SMILES CC1(C)C(=O)[C@]2(C)CC[C@H]1C2
REMARK SMILES IDX 1 1 2 2 10 3 9 4 8 5 6 6 11 7 4 8 5 9 7 10 3 11
REMARK H PARENT
REMARK Flexibility Score: inf
ROOT
ATOM      1  C   UNL     1       0.633   8.896   6.202  1.00  0.00     0.020 C 
ATOM      2  C   UNL     1      -0.279   7.675   5.948  1.00  0.00     0.027 C 
ATOM      3  C   UNL     1      -1.656   8.026   5.278  1.00  0.00     0.003 C 
ATOM      4  C   UNL     1      -1.462   8.955   4.052  1.00  0.00     0.005 C 
ATOM      5  C   UNL     1      -0.752   8.039   3.029  1.00  0.00     0.015 C 
ATOM      6  C   UNL     1      -0.721   6.681   3.758  1.00  0.00     0.027 C 
ATOM      7  C   UNL     1      -2.013   6.732   4.549  1.00  0.00     0.019 C 
ATOM      8  C   UNL     1       0.279   6.786   4.875  1.00  0.00     0.144 C 
ATOM      9  O   UNL     1       1.397   6.291   4.876  1.00  0.00    -0.298 OA
ATOM     10  C   UNL     1      -0.570   5.456   2.854  1.00  0.00     0.020 C 
ATOM     11  C   UNL     1      -0.470   6.903   7.271  1.00  0.00     0.020 C 
ENDROOT
TORSDOF 0
ENDMDL
MODEL 2
REMARK VINA RESULT:    -4.188      1.809      2.858
REMARK INTER + INTRA:          -4.188
REMARK INTER:                  -4.188
REMARK INTRA:                   0.000
REMARK UNBOUND:                 0.000
REMARK SMILES CC1(C)C(=O)[C@]2(C)CC[C@H]1C2
REMARK SMILES IDX 1 1 2 2 10 3 9 4 8 5 6 6 11 7 4 8 5 9 7 10 3 11
REMARK H PARENT
REMARK Flexibility Score: inf
ROOT
ATOM      1  C   UNL     1      -3.153   7.340   5.436  1.00  0.00     0.020 C 
ATOM      2  C   UNL     1      -1.642   7.580   5.656  1.00  0.00     0.027 C 
ATOM      3  C   UNL     1      -0.714   6.509   4.979  1.00  0.00     0.003 C 
ATOM      4  C   UNL     1      -1.122   6.265   3.503  1.00  0.00     0.005 C 
ATOM      5  C   UNL     1      -0.749   7.598   2.814  1.00  0.00     0.015 C 
ATOM      6  C   UNL     1      -0.084   8.392   3.955  1.00  0.00     0.027 C 
ATOM      7  C   UNL     1       0.581   7.286   4.749  1.00  0.00     0.019 C 
ATOM      8  C   UNL     1      -1.165   8.797   4.919  1.00  0.00     0.144 C 
ATOM      9  O   UNL     1      -1.634   9.921   5.029  1.00  0.00    -0.298 OA
ATOM     10  C   UNL     1       0.854   9.516   3.511  1.00  0.00     0.020 C 
ATOM     11  C   UNL     1      -1.365   7.698   7.170  1.00  0.00     0.020 C 
ENDROOT
TORSDOF 0
ENDMDL
MODEL 3
REMARK VINA RESULT:    -4.113     12.374     13.594
REMARK INTER + INTRA:          -4.113
REMARK INTER:                  -4.113
REMARK INTRA:                   0.000
REMARK UNBOUND:                 0.000
REMARK SMILES CC1(C)C(=O)[C@]2(C)CC[C@H]1C2
REMARK SMILES IDX 1 1 2 2 10 3 9 4 8 5 6 6 11 7 4 8 5 9 7 10 3 11
REMARK H PARENT
REMARK Flexibility Score: inf
ROOT
ATOM      1  C   UNL     1      -5.033  -2.944   5.595  1.00  0.00     0.020 C 
ATOM      2  C   UNL     1      -5.330  -4.041   6.641  1.00  0.00     0.027 C 
ATOM      3  C   UNL     1      -6.603  -4.906   6.327  1.00  0.00     0.003 C 
ATOM      4  C   UNL     1      -6.595  -5.399   4.857  1.00  0.00     0.005 C 
ATOM      5  C   UNL     1      -5.422  -6.406   4.833  1.00  0.00     0.015 C 
ATOM      6  C   UNL     1      -4.976  -6.438   6.308  1.00  0.00     0.027 C 
ATOM      7  C   UNL     1      -6.292  -6.227   7.029  1.00  0.00     0.019 C 
ATOM      8  C   UNL     1      -4.297  -5.129   6.606  1.00  0.00     0.144 C 
ATOM      9  O   UNL     1      -3.091  -4.966   6.724  1.00  0.00    -0.298 OA
ATOM     10  C   UNL     1      -4.205  -7.689   6.733  1.00  0.00     0.020 C 
ATOM     11  C   UNL     1      -5.413  -3.394   8.041  1.00  0.00     0.020 C 
ENDROOT
TORSDOF 0
ENDMDL
MODEL 4
REMARK VINA RESULT:    -4.048      1.583      2.553
REMARK INTER + INTRA:          -4.048
REMARK INTER:                  -4.048
REMARK INTRA:                   0.000
REMARK UNBOUND:                 0.000
REMARK SMILES CC1(C)C(=O)[C@]2(C)CC[C@H]1C2
REMARK SMILES IDX 1 1 2 2 10 3 9 4 8 5 6 6 11 7 4 8 5 9 7 10 3 11
REMARK H PARENT
REMARK Flexibility Score: inf
ROOT
ATOM      1  C   UNL     1      -1.553   8.164   6.836  1.00  0.00     0.020 C 
ATOM      2  C   UNL     1      -1.560   8.337   5.301  1.00  0.00     0.027 C 
ATOM      3  C   UNL     1      -0.161   8.697   4.685  1.00  0.00     0.003 C 
ATOM      4  C   UNL     1       0.948   7.757   5.225  1.00  0.00     0.005 C 
ATOM      5  C   UNL     1       0.584   6.392   4.597  1.00  0.00     0.015 C 
ATOM      6  C   UNL     1      -0.619   6.744   3.701  1.00  0.00     0.027 C 
ATOM      7  C   UNL     1      -0.270   8.152   3.262  1.00  0.00     0.019 C 
ATOM      8  C   UNL     1      -1.790   7.029   4.601  1.00  0.00     0.144 C 
ATOM      9  O   UNL     1      -2.738   6.281   4.792  1.00  0.00    -0.298 OA
ATOM     10  C   UNL     1      -0.894   5.764   2.558  1.00  0.00     0.020 C 
ATOM     11  C   UNL     1      -2.636   9.374   4.914  1.00  0.00     0.020 C 
ENDROOT
TORSDOF 0
ENDMDL
MODEL 5
REMARK VINA RESULT:    -4.028      1.578      2.481
REMARK INTER + INTRA:          -4.028
REMARK INTER:                  -4.028
REMARK INTRA:                   0.000
REMARK UNBOUND:                 0.000
REMARK SMILES CC1(C)C(=O)[C@]2(C)CC[C@H]1C2
REMARK SMILES IDX 1 1 2 2 10 3 9 4 8 5 6 6 11 7 4 8 5 9 7 10 3 11
REMARK H PARENT
REMARK Flexibility Score: inf
ROOT
ATOM      1  C   UNL     1       0.210   9.844   5.893  1.00  0.00     0.020 C 
ATOM      2  C   UNL     1       0.758   8.642   5.091  1.00  0.00     0.027 C 
ATOM      3  C   UNL     1       0.512   7.247   5.769  1.00  0.00     0.003 C 
ATOM      4  C   UNL     1      -0.961   7.100   6.229  1.00  0.00     0.005 C 
ATOM      5  C   UNL     1      -1.739   7.029   4.895  1.00  0.00     0.015 C 
ATOM      6  C   UNL     1      -0.609   7.041   3.847  1.00  0.00     0.027 C 
ATOM      7  C   UNL     1       0.490   6.294   4.575  1.00  0.00     0.019 C 
ATOM      8  C   UNL     1      -0.021   8.425   3.826  1.00  0.00     0.144 C 
ATOM      9  O   UNL     1      -0.210   9.264   2.957  1.00  0.00    -0.298 OA
ATOM     10  C   UNL     1      -0.978   6.464   2.478  1.00  0.00     0.020 C 
ATOM     11  C   UNL     1       2.255   8.874   4.793  1.00  0.00     0.020 C 
ENDROOT
TORSDOF 0
ENDMDL
MODEL 6
REMARK VINA RESULT:    -4.001     14.209     16.091
REMARK INTER + INTRA:          -4.001
REMARK INTER:                  -4.001
REMARK INTRA:                   0.000
REMARK UNBOUND:                 0.000
REMARK SMILES CC1(C)C(=O)[C@]2(C)CC[C@H]1C2
REMARK SMILES IDX 1 1 2 2 10 3 9 4 8 5 6 6 11 7 4 8 5 9 7 10 3 11
REMARK H PARENT
REMARK Flexibility Score: inf
ROOT
ATOM      1  C   UNL     1       7.535  -4.636   3.159  1.00  0.00     0.020 C 
ATOM      2  C   UNL     1       7.663  -4.576   1.621  1.00  0.00     0.027 C 
ATOM      3  C   UNL     1       9.106  -4.881   1.081  1.00  0.00     0.003 C 
ATOM      4  C   UNL     1       9.688  -6.164   1.730  1.00  0.00     0.005 C 
ATOM      5  C   UNL     1       8.804  -7.285   1.138  1.00  0.00     0.015 C 
ATOM      6  C   UNL     1       7.901  -6.518   0.153  1.00  0.00     0.027 C 
ATOM      7  C   UNL     1       8.833  -5.420  -0.321  1.00  0.00     0.019 C 
ATOM      8  C   UNL     1       6.927  -5.708   0.963  1.00  0.00     0.144 C 
ATOM      9  O   UNL     1       5.745  -5.972   1.124  1.00  0.00    -0.298 OA
ATOM     10  C   UNL     1       7.283  -7.362  -0.964  1.00  0.00     0.020 C 
ATOM     11  C   UNL     1       7.147  -3.209   1.123  1.00  0.00     0.020 C 
ENDROOT
TORSDOF 0
ENDMDL
MODEL 7
REMARK VINA RESULT:    -3.970     14.292     16.317
REMARK INTER + INTRA:          -3.970
REMARK INTER:                  -3.970
REMARK INTRA:                   0.000
REMARK UNBOUND:                 0.000
REMARK SMILES CC1(C)C(=O)[C@]2(C)CC[C@H]1C2
REMARK SMILES IDX 1 1 2 2 10 3 9 4 8 5 6 6 11 7 4 8 5 9 7 10 3 11
REMARK H PARENT
REMARK Flexibility Score: inf
ROOT
ATOM      1  C   UNL     1       7.412  -7.307  -1.076  1.00  0.00     0.020 C 
ATOM      2  C   UNL     1       7.888  -6.836   0.316  1.00  0.00     0.027 C 
ATOM      3  C   UNL     1       9.239  -6.034   0.299  1.00  0.00     0.003 C 
ATOM      4  C   UNL     1       9.219  -4.927  -0.786  1.00  0.00     0.005 C 
ATOM      5  C   UNL     1       8.176  -3.924  -0.244  1.00  0.00     0.015 C 
ATOM      6  C   UNL     1       7.808  -4.529   1.125  1.00  0.00     0.027 C 
ATOM      7  C   UNL     1       9.122  -5.156   1.544  1.00  0.00     0.019 C 
ATOM      8  C   UNL     1       6.992  -5.767   0.871  1.00  0.00     0.144 C 
ATOM      9  O   UNL     1       5.783  -5.864   1.020  1.00  0.00    -0.298 OA
ATOM     10  C   UNL     1       7.213  -3.548   2.137  1.00  0.00     0.020 C 
ATOM     11  C   UNL     1       7.961  -8.053   1.263  1.00  0.00     0.020 C 
ENDROOT
TORSDOF 0
ENDMDL
MODEL 8
REMARK VINA RESULT:    -3.899      1.586      3.239
REMARK INTER + INTRA:          -3.899
REMARK INTER:                  -3.899
REMARK INTRA:                   0.000
REMARK UNBOUND:                 0.000
REMARK SMILES CC1(C)C(=O)[C@]2(C)CC[C@H]1C2
REMARK SMILES IDX 1 1 2 2 10 3 9 4 8 5 6 6 11 7 4 8 5 9 7 10 3 11
REMARK H PARENT
REMARK Flexibility Score: inf
ROOT
ATOM      1  C   UNL     1       0.517   6.581   4.538  1.00  0.00     0.020 C 
ATOM      2  C   UNL     1      -0.782   7.112   3.894  1.00  0.00     0.027 C 
ATOM      3  C   UNL     1      -2.047   7.021   4.821  1.00  0.00     0.003 C 
ATOM      4  C   UNL     1      -1.748   7.586   6.233  1.00  0.00     0.005 C 
ATOM      5  C   UNL     1      -1.563   9.098   5.972  1.00  0.00     0.015 C 
ATOM      6  C   UNL     1      -1.879   9.221   4.468  1.00  0.00     0.027 C 
ATOM      7  C   UNL     1      -2.933   8.146   4.291  1.00  0.00     0.019 C 
ATOM      8  C   UNL     1      -0.737   8.601   3.711  1.00  0.00     0.144 C 
ATOM      9  O   UNL     1       0.131   9.215   3.108  1.00  0.00    -0.298 OA
ATOM     10  C   UNL     1      -2.298  10.615   3.998  1.00  0.00     0.020 C 
ATOM     11  C   UNL     1      -1.010   6.390   2.548  1.00  0.00     0.020 C 
ENDROOT
TORSDOF 0
ENDMDL
MODEL 9
REMARK VINA RESULT:    -3.893      1.367      2.687
REMARK INTER + INTRA:          -3.893
REMARK INTER:                  -3.893
REMARK INTRA:                   0.000
REMARK UNBOUND:                 0.000
REMARK SMILES CC1(C)C(=O)[C@]2(C)CC[C@H]1C2
REMARK SMILES IDX 1 1 2 2 10 3 9 4 8 5 6 6 11 7 4 8 5 9 7 10 3 11
REMARK H PARENT
REMARK Flexibility Score: inf
ROOT
ATOM      1  C   UNL     1       0.182   9.628   2.888  1.00  0.00     0.020 C 
ATOM      2  C   UNL     1      -0.666   9.116   4.073  1.00  0.00     0.027 C 
ATOM      3  C   UNL     1      -1.610   7.912   3.719  1.00  0.00     0.003 C 
ATOM      4  C   UNL     1      -0.842   6.807   2.949  1.00  0.00     0.005 C 
ATOM      5  C   UNL     1       0.126   6.245   4.015  1.00  0.00     0.015 C 
ATOM      6  C   UNL     1      -0.280   7.025   5.281  1.00  0.00     0.027 C 
ATOM      7  C   UNL     1      -1.769   7.205   5.064  1.00  0.00     0.019 C 
ATOM      8  C   UNL     1       0.186   8.445   5.110  1.00  0.00     0.144 C 
ATOM      9  O   UNL     1       1.151   8.948   5.668  1.00  0.00    -0.298 OA
ATOM     10  C   UNL     1       0.100   6.365   6.608  1.00  0.00     0.020 C 
ATOM     11  C   UNL     1      -1.455  10.298   4.677  1.00  0.00     0.020 C 
ENDROOT
TORSDOF 0
ENDMDL
