MODEL 1
REMARK VINA RESULT:    -0.406      0.000      0.000
REMARK INTER + INTRA:          -2.391
REMARK INTER:                  -1.023
REMARK INTRA:                  -1.368
REMARK UNBOUND:                -1.368
REMARK SMILES CCCCCCCCCCCCCCCCCCCCCCCCCCCC(=O)[O-]
REMARK SMILES IDX 15 1 16 2 17 3 18 4 19 5 20 6 21 7 22 8 23 9 24 10 25 11
REMARK SMILES IDX 26 12 27 13 28 14 29 15 30 16 14 17 13 18 12 19 11 20 10 21
REMARK SMILES IDX 9 22 8 23 7 24 6 25 5 26 4 27 3 28 2 29 1 30
REMARK H PARENT
REMARK Flexibility Score: inf
ROOT
ATOM      1  C   UNL     1      40.701  63.751  56.896  1.00  0.00     0.000 C 
ENDROOT
BRANCH   1   2
ATOM      2  C   UNL     1      40.336  63.822  58.389  1.00  0.00     0.000 C 
BRANCH   2   3
ATOM      3  C   UNL     1      38.947  64.435  58.627  1.00  0.00     0.000 C 
BRANCH   3   4
ATOM      4  C   UNL     1      37.849  63.765  57.782  1.00  0.00     0.000 C 
BRANCH   4   5
ATOM      5  C   UNL     1      36.405  64.108  58.200  1.00  0.00     0.000 C 
BRANCH   5   6
ATOM      6  C   UNL     1      36.279  65.121  59.353  1.00  0.00     0.000 C 
BRANCH   6   7
ATOM      7  C   UNL     1      34.921  65.045  60.066  1.00  0.00     0.000 C 
BRANCH   7   8
ATOM      8  C   UNL     1      34.877  63.863  61.046  1.00  0.00     0.000 C 
BRANCH   8   9
ATOM      9  C   UNL     1      36.219  63.115  61.123  1.00  0.00     0.000 C 
BRANCH   9  10
ATOM     10  C   UNL     1      36.082  61.625  60.758  1.00  0.00     0.000 C 
BRANCH  10  11
ATOM     11  C   UNL     1      37.443  60.930  60.590  1.00  0.00     0.000 C 
BRANCH  11  12
ATOM     12  C   UNL     1      37.906  60.876  59.127  1.00  0.00     0.006 C 
BRANCH  12  13
ATOM     13  C   UNL     1      39.346  60.361  59.029  1.00  0.00     0.053 C 
BRANCH  13  14
ATOM     14  C   UNL     1      39.986  60.327  60.381  1.00  0.00     0.041 C 
ATOM     15  O   UNL     1      40.428  59.242  60.845  1.00  0.00    -0.550 OA
ATOM     16  O   UNL     1      40.136  61.501  61.112  1.00  0.00    -0.550 OA
ENDBRANCH  13  14
ENDBRANCH  12  13
ENDBRANCH  11  12
ENDBRANCH  10  11
ENDBRANCH   9  10
ENDBRANCH   8   9
ENDBRANCH   7   8
ENDBRANCH   6   7
ENDBRANCH   5   6
ENDBRANCH   4   5
ENDBRANCH   3   4
ENDBRANCH   2   3
ENDBRANCH   1   2
BRANCH   1  17
ATOM     17  C   UNL     1      40.992  65.114  56.233  1.00  0.00     0.000 C 
BRANCH  17  18
ATOM     18  C   UNL     1      42.145  65.108  55.212  1.00  0.00     0.000 C 
BRANCH  18  19
ATOM     19  C   UNL     1      42.230  63.792  54.424  1.00  0.00     0.000 C 
BRANCH  19  20
ATOM     20  C   UNL     1      43.690  63.378  54.191  1.00  0.00     0.000 C 
BRANCH  20  21
ATOM     21  C   UNL     1      44.549  64.522  53.621  1.00  0.00     0.000 C 
BRANCH  21  22
ATOM     22  C   UNL     1      45.728  64.958  54.515  1.00  0.00    -0.000 C 
BRANCH  22  23
ATOM     23  C   UNL     1      46.024  64.018  55.701  1.00  0.00    -0.000 C 
BRANCH  23  24
ATOM     24  C   UNL     1      44.956  64.015  56.815  1.00  0.00    -0.000 C 
BRANCH  24  25
ATOM     25  C   UNL     1      45.107  65.124  57.871  1.00  0.00    -0.000 C 
BRANCH  25  26
ATOM     26  C   UNL     1      46.462  65.078  58.596  1.00  0.00    -0.000 C 
BRANCH  26  27
ATOM     27  C   UNL     1      46.768  63.700  59.212  1.00  0.00    -0.000 C 
BRANCH  27  28
ATOM     28  C   UNL     1      48.008  63.646  60.127  1.00  0.00    -0.000 C 
BRANCH  28  29
ATOM     29  C   UNL     1      49.221  64.450  59.627  1.00  0.00    -0.003 C 
ATOM     30  C   UNL     1      50.547  63.710  59.816  1.00  0.00     0.004 C 
ENDBRANCH  28  29
ENDBRANCH  27  28
ENDBRANCH  26  27
ENDBRANCH  25  26
ENDBRANCH  24  25
ENDBRANCH  23  24
ENDBRANCH  22  23
ENDBRANCH  21  22
ENDBRANCH  20  21
ENDBRANCH  19  20
ENDBRANCH  18  19
ENDBRANCH  17  18
ENDBRANCH   1  17
TORSDOF 26
ENDMDL
MODEL 2
REMARK VINA RESULT:     0.432      1.431      3.306
REMARK INTER + INTRA:          -0.279
REMARK INTER:                  -1.445
REMARK INTRA:                   1.166
REMARK UNBOUND:                -1.368
REMARK SMILES CCCCCCCCCCCCCCCCCCCCCCCCCCCC(=O)[O-]
REMARK SMILES IDX 15 1 16 2 17 3 18 4 19 5 20 6 21 7 22 8 23 9 24 10 25 11
REMARK SMILES IDX 26 12 27 13 28 14 29 15 30 16 14 17 13 18 12 19 11 20 10 21
REMARK SMILES IDX 9 22 8 23 7 24 6 25 5 26 4 27 3 28 2 29 1 30
REMARK H PARENT
REMARK Flexibility Score: inf
ROOT
ATOM      1  C   UNL     1      43.957  61.088  55.343  1.00  0.00     0.000 C 
ENDROOT
BRANCH   1   2
ATOM      2  C   UNL     1      42.815  61.601  56.239  1.00  0.00     0.000 C 
BRANCH   2   3
ATOM      3  C   UNL     1      42.575  63.110  56.082  1.00  0.00     0.000 C 
BRANCH   3   4
ATOM      4  C   UNL     1      42.464  63.838  57.434  1.00  0.00     0.000 C 
BRANCH   4   5
ATOM      5  C   UNL     1      41.323  64.872  57.525  1.00  0.00     0.000 C 
BRANCH   5   6
ATOM      6  C   UNL     1      40.184  64.508  58.495  1.00  0.00     0.000 C 
BRANCH   6   7
ATOM      7  C   UNL     1      38.837  65.125  58.091  1.00  0.00     0.000 C 
BRANCH   7   8
ATOM      8  C   UNL     1      37.937  64.084  57.409  1.00  0.00     0.000 C 
BRANCH   8   9
ATOM      9  C   UNL     1      37.092  63.288  58.418  1.00  0.00     0.000 C 
BRANCH   9  10
ATOM     10  C   UNL     1      37.009  63.982  59.790  1.00  0.00     0.000 C 
BRANCH  10  11
ATOM     11  C   UNL     1      37.199  63.002  60.960  1.00  0.00     0.000 C 
BRANCH  11  12
ATOM     12  C   UNL     1      36.642  61.603  60.659  1.00  0.00     0.006 C 
BRANCH  12  13
ATOM     13  C   UNL     1      37.619  60.516  61.122  1.00  0.00     0.053 C 
BRANCH  13  14
ATOM     14  C   UNL     1      38.740  60.363  60.143  1.00  0.00     0.041 C 
ATOM     15  O   UNL     1      38.559  60.640  58.927  1.00  0.00    -0.550 OA
ATOM     16  O   UNL     1      39.997  59.958  60.579  1.00  0.00    -0.550 OA
ENDBRANCH  13  14
ENDBRANCH  12  13
ENDBRANCH  11  12
ENDBRANCH  10  11
ENDBRANCH   9  10
ENDBRANCH   8   9
ENDBRANCH   7   8
ENDBRANCH   6   7
ENDBRANCH   5   6
ENDBRANCH   4   5
ENDBRANCH   3   4
ENDBRANCH   2   3
ENDBRANCH   1   2
BRANCH   1  17
ATOM     17  C   UNL     1      44.844  62.191  54.729  1.00  0.00     0.000 C 
BRANCH  17  18
ATOM     18  C   UNL     1      44.082  63.293  53.971  1.00  0.00     0.000 C 
BRANCH  18  19
ATOM     19  C   UNL     1      44.597  64.702  54.301  1.00  0.00     0.000 C 
BRANCH  19  20
ATOM     20  C   UNL     1      44.360  65.049  55.778  1.00  0.00     0.000 C 
BRANCH  20  21
ATOM     21  C   UNL     1      45.667  65.113  56.591  1.00  0.00     0.000 C 
BRANCH  21  22
ATOM     22  C   UNL     1      46.070  63.792  57.279  1.00  0.00    -0.000 C 
BRANCH  22  23
ATOM     23  C   UNL     1      45.795  63.741  58.795  1.00  0.00    -0.000 C 
BRANCH  23  24
ATOM     24  C   UNL     1      46.011  65.073  59.544  1.00  0.00    -0.000 C 
BRANCH  24  25
ATOM     25  C   UNL     1      46.728  64.953  60.901  1.00  0.00    -0.000 C 
BRANCH  25  26
ATOM     26  C   UNL     1      47.518  63.643  61.045  1.00  0.00    -0.000 C 
BRANCH  26  27
ATOM     27  C   UNL     1      48.787  63.607  60.174  1.00  0.00    -0.000 C 
BRANCH  27  28
ATOM     28  C   UNL     1      49.496  64.963  59.983  1.00  0.00    -0.000 C 
BRANCH  28  29
ATOM     29  C   UNL     1      51.031  64.913  60.063  1.00  0.00    -0.003 C 
ATOM     30  C   UNL     1      51.639  63.810  59.194  1.00  0.00     0.004 C 
ENDBRANCH  28  29
ENDBRANCH  27  28
ENDBRANCH  26  27
ENDBRANCH  25  26
ENDBRANCH  24  25
ENDBRANCH  23  24
ENDBRANCH  22  23
ENDBRANCH  21  22
ENDBRANCH  20  21
ENDBRANCH  19  20
ENDBRANCH  18  19
ENDBRANCH  17  18
ENDBRANCH   1  17
TORSDOF 26
ENDMDL
MODEL 3
REMARK VINA RESULT:     0.735     20.228     24.068
REMARK INTER + INTRA:           0.485
REMARK INTER:                   1.505
REMARK INTRA:                  -1.020
REMARK UNBOUND:                -1.368
REMARK SMILES CCCCCCCCCCCCCCCCCCCCCCCCCCCC(=O)[O-]
REMARK SMILES IDX 15 1 16 2 17 3 18 4 19 5 20 6 21 7 22 8 23 9 24 10 25 11
REMARK SMILES IDX 26 12 27 13 28 14 29 15 30 16 14 17 13 18 12 19 11 20 10 21
REMARK SMILES IDX 9 22 8 23 7 24 6 25 5 26 4 27 3 28 2 29 1 30
REMARK H PARENT
REMARK Flexibility Score: inf
ROOT
ATOM      1  C   UNL     1      48.840  47.120  42.759  1.00  0.00     0.000 C 
ENDROOT
BRANCH   1   2
ATOM      2  C   UNL     1      49.963  46.420  41.974  1.00  0.00     0.000 C 
BRANCH   2   3
ATOM      3  C   UNL     1      50.932  47.415  41.318  1.00  0.00     0.000 C 
BRANCH   3   4
ATOM      4  C   UNL     1      52.307  46.793  41.015  1.00  0.00     0.000 C 
BRANCH   4   5
ATOM      5  C   UNL     1      53.428  47.181  42.001  1.00  0.00     0.000 C 
BRANCH   5   6
ATOM      6  C   UNL     1      54.269  46.005  42.533  1.00  0.00     0.000 C 
BRANCH   6   7
ATOM      7  C   UNL     1      53.711  45.416  43.837  1.00  0.00     0.000 C 
BRANCH   7   8
ATOM      8  C   UNL     1      52.221  45.751  44.000  1.00  0.00     0.000 C 
BRANCH   8   9
ATOM      9  C   UNL     1      51.663  45.303  45.361  1.00  0.00     0.000 C 
BRANCH   9  10
ATOM     10  C   UNL     1      51.118  46.482  46.188  1.00  0.00     0.000 C 
BRANCH  10  11
ATOM     11  C   UNL     1      49.602  46.385  46.427  1.00  0.00     0.000 C 
BRANCH  11  12
ATOM     12  C   UNL     1      49.058  47.549  47.269  1.00  0.00     0.006 C 
BRANCH  12  13
ATOM     13  C   UNL     1      48.105  47.037  48.355  1.00  0.00     0.053 C 
BRANCH  13  14
ATOM     14  C   UNL     1      47.378  48.177  48.996  1.00  0.00     0.041 C 
ATOM     15  O   UNL     1      47.141  49.226  48.341  1.00  0.00    -0.550 OA
ATOM     16  O   UNL     1      46.921  48.064  50.305  1.00  0.00    -0.550 OA
ENDBRANCH  13  14
ENDBRANCH  12  13
ENDBRANCH  11  12
ENDBRANCH  10  11
ENDBRANCH   9  10
ENDBRANCH   8   9
ENDBRANCH   7   8
ENDBRANCH   6   7
ENDBRANCH   5   6
ENDBRANCH   4   5
ENDBRANCH   3   4
ENDBRANCH   2   3
ENDBRANCH   1   2
BRANCH   1  17
ATOM     17  C   UNL     1      47.429  46.537  42.534  1.00  0.00     0.000 C 
BRANCH  17  18
ATOM     18  C   UNL     1      47.400  45.082  42.032  1.00  0.00     0.000 C 
BRANCH  18  19
ATOM     19  C   UNL     1      46.410  44.875  40.875  1.00  0.00     0.000 C 
BRANCH  19  20
ATOM     20  C   UNL     1      45.158  45.747  41.053  1.00  0.00     0.000 C 
BRANCH  20  21
ATOM     21  C   UNL     1      43.850  44.952  40.878  1.00  0.00     0.000 C 
BRANCH  21  22
ATOM     22  C   UNL     1      42.850  45.081  42.046  1.00  0.00    -0.000 C 
BRANCH  22  23
ATOM     23  C   UNL     1      42.280  46.498  42.257  1.00  0.00    -0.000 C 
BRANCH  23  24
ATOM     24  C   UNL     1      42.285  47.398  41.003  1.00  0.00    -0.000 C 
BRANCH  24  25
ATOM     25  C   UNL     1      43.147  48.668  41.110  1.00  0.00    -0.000 C 
BRANCH  25  26
ATOM     26  C   UNL     1      42.825  49.505  42.359  1.00  0.00    -0.000 C 
BRANCH  26  27
ATOM     27  C   UNL     1      44.084  49.946  43.128  1.00  0.00    -0.000 C 
BRANCH  27  28
ATOM     28  C   UNL     1      43.895  50.143  44.646  1.00  0.00    -0.000 C 
BRANCH  28  29
ATOM     29  C   UNL     1      45.118  50.712  45.386  1.00  0.00    -0.003 C 
ATOM     30  C   UNL     1      45.017  50.567  46.906  1.00  0.00     0.004 C 
ENDBRANCH  28  29
ENDBRANCH  27  28
ENDBRANCH  26  27
ENDBRANCH  25  26
ENDBRANCH  24  25
ENDBRANCH  23  24
ENDBRANCH  22  23
ENDBRANCH  21  22
ENDBRANCH  20  21
ENDBRANCH  19  20
ENDBRANCH  18  19
ENDBRANCH  17  18
ENDBRANCH   1  17
TORSDOF 26
ENDMDL
MODEL 4
REMARK VINA RESULT:     1.877     20.544     24.440
REMARK INTER + INTRA:           3.363
REMARK INTER:                   3.097
REMARK INTRA:                   0.265
REMARK UNBOUND:                -1.368
REMARK SMILES CCCCCCCCCCCCCCCCCCCCCCCCCCCC(=O)[O-]
REMARK SMILES IDX 15 1 16 2 17 3 18 4 19 5 20 6 21 7 22 8 23 9 24 10 25 11
REMARK SMILES IDX 26 12 27 13 28 14 29 15 30 16 14 17 13 18 12 19 11 20 10 21
REMARK SMILES IDX 9 22 8 23 7 24 6 25 5 26 4 27 3 28 2 29 1 30
REMARK H PARENT
REMARK Flexibility Score: inf
ROOT
ATOM      1  C   UNL     1      47.281  47.654  49.494  1.00  0.00     0.000 C 
ENDROOT
BRANCH   1   2
ATOM      2  C   UNL     1      47.825  47.015  48.204  1.00  0.00     0.000 C 
BRANCH   2   3
ATOM      3  C   UNL     1      48.983  47.818  47.592  1.00  0.00     0.000 C 
BRANCH   3   4
ATOM      4  C   UNL     1      49.926  46.947  46.742  1.00  0.00     0.000 C 
BRANCH   4   5
ATOM      5  C   UNL     1      51.363  47.489  46.602  1.00  0.00     0.000 C 
BRANCH   5   6
ATOM      6  C   UNL     1      52.180  46.890  45.442  1.00  0.00     0.000 C 
BRANCH   6   7
ATOM      7  C   UNL     1      51.450  45.740  44.732  1.00  0.00     0.000 C 
BRANCH   7   8
ATOM      8  C   UNL     1      52.409  44.954  43.826  1.00  0.00     0.000 C 
BRANCH   8   9
ATOM      9  C   UNL     1      53.702  45.730  43.526  1.00  0.00     0.000 C 
BRANCH   9  10
ATOM     10  C   UNL     1      54.739  44.875  42.775  1.00  0.00     0.000 C 
BRANCH  10  11
ATOM     11  C   UNL     1      54.761  45.164  41.265  1.00  0.00     0.000 C 
BRANCH  11  12
ATOM     12  C   UNL     1      53.949  46.412  40.887  1.00  0.00     0.006 C 
BRANCH  12  13
ATOM     13  C   UNL     1      52.456  46.193  41.156  1.00  0.00     0.053 C 
BRANCH  13  14
ATOM     14  C   UNL     1      51.731  47.501  41.198  1.00  0.00     0.041 C 
ATOM     15  O   UNL     1      50.501  47.552  40.930  1.00  0.00    -0.550 OA
ATOM     16  O   UNL     1      52.403  48.658  41.577  1.00  0.00    -0.550 OA
ENDBRANCH  13  14
ENDBRANCH  12  13
ENDBRANCH  11  12
ENDBRANCH  10  11
ENDBRANCH   9  10
ENDBRANCH   8   9
ENDBRANCH   7   8
ENDBRANCH   6   7
ENDBRANCH   5   6
ENDBRANCH   4   5
ENDBRANCH   3   4
ENDBRANCH   2   3
ENDBRANCH   1   2
BRANCH   1  17
ATOM     17  C   UNL     1      46.636  49.043  49.307  1.00  0.00     0.000 C 
BRANCH  17  18
ATOM     18  C   UNL     1      46.712  49.609  47.877  1.00  0.00     0.000 C 
BRANCH  18  19
ATOM     19  C   UNL     1      45.337  50.022  47.331  1.00  0.00     0.000 C 
BRANCH  19  20
ATOM     20  C   UNL     1      45.317  49.992  45.796  1.00  0.00     0.000 C 
BRANCH  20  21
ATOM     21  C   UNL     1      43.917  50.265  45.214  1.00  0.00     0.000 C 
BRANCH  21  22
ATOM     22  C   UNL     1      43.822  50.169  43.677  1.00  0.00    -0.000 C 
BRANCH  22  23
ATOM     23  C   UNL     1      42.947  49.012  43.153  1.00  0.00    -0.000 C 
BRANCH  23  24
ATOM     24  C   UNL     1      42.897  48.874  41.617  1.00  0.00    -0.000 C 
BRANCH  24  25
ATOM     25  C   UNL     1      43.780  47.759  41.029  1.00  0.00    -0.000 C 
BRANCH  25  26
ATOM     26  C   UNL     1      43.571  46.404  41.724  1.00  0.00    -0.000 C 
BRANCH  26  27
ATOM     27  C   UNL     1      44.665  45.376  41.377  1.00  0.00    -0.000 C 
BRANCH  27  28
ATOM     28  C   UNL     1      46.098  45.940  41.292  1.00  0.00    -0.000 C 
BRANCH  28  29
ATOM     29  C   UNL     1      47.214  44.940  41.640  1.00  0.00    -0.003 C 
ATOM     30  C   UNL     1      48.397  45.591  42.360  1.00  0.00     0.004 C 
ENDBRANCH  28  29
ENDBRANCH  27  28
ENDBRANCH  26  27
ENDBRANCH  25  26
ENDBRANCH  24  25
ENDBRANCH  23  24
ENDBRANCH  22  23
ENDBRANCH  21  22
ENDBRANCH  20  21
ENDBRANCH  19  20
ENDBRANCH  18  19
ENDBRANCH  17  18
ENDBRANCH   1  17
TORSDOF 26
ENDMDL
MODEL 5
REMARK VINA RESULT:     2.521      1.486      2.113
REMARK INTER + INTRA:           4.984
REMARK INTER:                   3.456
REMARK INTRA:                   1.527
REMARK UNBOUND:                -1.368
REMARK SMILES CCCCCCCCCCCCCCCCCCCCCCCCCCCC(=O)[O-]
REMARK SMILES IDX 15 1 16 2 17 3 18 4 19 5 20 6 21 7 22 8 23 9 24 10 25 11
REMARK SMILES IDX 26 12 27 13 28 14 29 15 30 16 14 17 13 18 12 19 11 20 10 21
REMARK SMILES IDX 9 22 8 23 7 24 6 25 5 26 4 27 3 28 2 29 1 30
REMARK H PARENT
REMARK Flexibility Score: inf
ROOT
ATOM      1  C   UNL     1      40.538  63.816  56.917  1.00  0.00     0.000 C 
ENDROOT
BRANCH   1   2
ATOM      2  C   UNL     1      40.144  63.623  58.391  1.00  0.00     0.000 C 
BRANCH   2   3
ATOM      3  C   UNL     1      38.896  64.431  58.779  1.00  0.00     0.000 C 
BRANCH   3   4
ATOM      4  C   UNL     1      37.712  64.187  57.827  1.00  0.00     0.000 C 
BRANCH   4   5
ATOM      5  C   UNL     1      36.325  64.520  58.415  1.00  0.00     0.000 C 
BRANCH   5   6
ATOM      6  C   UNL     1      36.339  65.099  59.842  1.00  0.00     0.000 C 
BRANCH   6   7
ATOM      7  C   UNL     1      35.028  64.845  60.600  1.00  0.00     0.000 C 
BRANCH   7   8
ATOM      8  C   UNL     1      34.926  63.381  61.053  1.00  0.00     0.000 C 
BRANCH   8   9
ATOM      9  C   UNL     1      36.289  62.668  61.045  1.00  0.00     0.000 C 
BRANCH   9  10
ATOM     10  C   UNL     1      36.471  61.764  59.813  1.00  0.00     0.000 C 
BRANCH  10  11
ATOM     11  C   UNL     1      37.949  61.457  59.518  1.00  0.00     0.000 C 
BRANCH  11  12
ATOM     12  C   UNL     1      38.863  61.732  60.721  1.00  0.00     0.006 C 
BRANCH  12  13
ATOM     13  C   UNL     1      39.696  60.492  61.068  1.00  0.00     0.053 C 
BRANCH  13  14
ATOM     14  C   UNL     1      39.313  59.340  60.193  1.00  0.00     0.041 C 
ATOM     15  O   UNL     1      39.755  58.186  60.437  1.00  0.00    -0.550 OA
ATOM     16  O   UNL     1      38.431  59.531  59.135  1.00  0.00    -0.550 OA
ENDBRANCH  13  14
ENDBRANCH  12  13
ENDBRANCH  11  12
ENDBRANCH  10  11
ENDBRANCH   9  10
ENDBRANCH   8   9
ENDBRANCH   7   8
ENDBRANCH   6   7
ENDBRANCH   5   6
ENDBRANCH   4   5
ENDBRANCH   3   4
ENDBRANCH   2   3
ENDBRANCH   1   2
BRANCH   1  17
ATOM     17  C   UNL     1      41.316  65.114  56.617  1.00  0.00     0.000 C 
BRANCH  17  18
ATOM     18  C   UNL     1      42.072  65.125  55.276  1.00  0.00     0.000 C 
BRANCH  18  19
ATOM     19  C   UNL     1      41.932  63.802  54.507  1.00  0.00     0.000 C 
BRANCH  19  20
ATOM     20  C   UNL     1      43.295  63.303  54.008  1.00  0.00     0.000 C 
BRANCH  20  21
ATOM     21  C   UNL     1      44.363  64.413  53.985  1.00  0.00     0.000 C 
BRANCH  21  22
ATOM     22  C   UNL     1      45.755  63.988  54.497  1.00  0.00    -0.000 C 
BRANCH  22  23
ATOM     23  C   UNL     1      45.878  62.498  54.875  1.00  0.00    -0.000 C 
BRANCH  23  24
ATOM     24  C   UNL     1      45.075  62.071  56.122  1.00  0.00    -0.000 C 
BRANCH  24  25
ATOM     25  C   UNL     1      44.919  63.154  57.205  1.00  0.00    -0.000 C 
BRANCH  25  26
ATOM     26  C   UNL     1      46.256  63.545  57.855  1.00  0.00    -0.000 C 
BRANCH  26  27
ATOM     27  C   UNL     1      46.111  64.664  58.903  1.00  0.00    -0.000 C 
BRANCH  27  28
ATOM     28  C   UNL     1      45.537  64.223  60.264  1.00  0.00    -0.000 C 
BRANCH  28  29
ATOM     29  C   UNL     1      44.402  65.107  60.810  1.00  0.00    -0.003 C 
ATOM     30  C   UNL     1      43.016  64.491  60.610  1.00  0.00     0.004 C 
ENDBRANCH  28  29
ENDBRANCH  27  28
ENDBRANCH  26  27
ENDBRANCH  25  26
ENDBRANCH  24  25
ENDBRANCH  23  24
ENDBRANCH  22  23
ENDBRANCH  21  22
ENDBRANCH  20  21
ENDBRANCH  19  20
ENDBRANCH  18  19
ENDBRANCH  17  18
ENDBRANCH   1  17
TORSDOF 26
ENDMDL
