MODEL 1
REMARK VINA RESULT:    -5.224      0.000      0.000
REMARK INTER + INTRA:          -9.165
REMARK INTER:                  -7.972
REMARK INTRA:                  -1.192
REMARK UNBOUND:                -1.192
REMARK SMILES OC[C@H]1O[C@@H](O[C@]2(CO)O[C@H](CO)[C@@H](O)[C@H]2O)[C@H](O)[C@@H](O)[C@H]1O
REMARK SMILES IDX 6 1 5 2 3 3 22 4 4 5 20 6 18 7 2 8 1 9 23 11 21 13 19 15
REMARK SMILES IDX 7 17 16 18 10 19 14 20 11 21 8 22 9 23 17 25 15 27 12 29
REMARK SMILES IDX 13 30
REMARK H PARENT 1 10 23 12 21 14 19 16 9 24 17 26 15 28 13 31
REMARK Flexibility Score: inf
ROOT
ATOM      1  O   UNL     1       4.232   9.981  59.788  1.00  0.00    -0.313 OA
ENDROOT
BRANCH   1   2
ATOM      2  C   UNL     1       4.070  10.609  61.054  1.00  0.00     0.285 C 
ATOM      3  C   UNL     1       1.723  10.153  61.261  1.00  0.00     0.178 C 
ATOM      4  C   UNL     1       1.360  11.640  61.003  1.00  0.00     0.177 C 
ATOM      5  O   UNL     1       3.032   9.980  61.799  1.00  0.00    -0.341 OA
ATOM      6  C   UNL     1       2.451  12.375  60.217  1.00  0.00     0.179 C 
ATOM      7  C   UNL     1       3.820  12.116  60.867  1.00  0.00     0.202 C 
BRANCH   3   8
ATOM      8  C   UNL     1       1.430   9.204  60.081  1.00  0.00     0.191 C 
BRANCH   8   9
ATOM      9  O   UNL     1       0.992   7.966  60.569  1.00  0.00    -0.394 OA
ATOM     10  H   UNL     1       1.773   7.356  60.516  1.00  0.00     0.210 HD
ENDBRANCH   8   9
ENDBRANCH   3   8
BRANCH   4  11
ATOM     11  O   UNL     1       0.131  11.758  60.331  1.00  0.00    -0.387 OA
ATOM     12  H   UNL     1      -0.578  11.718  61.024  1.00  0.00     0.211 HD
ENDBRANCH   4  11
BRANCH   6  13
ATOM     13  O   UNL     1       2.452  11.963  58.874  1.00  0.00    -0.387 OA
ATOM     14  H   UNL     1       1.966  12.659  58.358  1.00  0.00     0.211 HD
ENDBRANCH   6  13
BRANCH   7  15
ATOM     15  O   UNL     1       3.888  12.753  62.118  1.00  0.00    -0.385 OA
ATOM     16  H   UNL     1       2.955  12.867  62.436  1.00  0.00     0.211 HD
ENDBRANCH   7  15
ENDBRANCH   1   2
BRANCH   1  17
ATOM     17  C   UNL     1       5.106   8.851  59.765  1.00  0.00     0.224 C 
ATOM     18  C   UNL     1       6.096   9.102  58.600  1.00  0.00     0.208 C 
ATOM     19  O   UNL     1       5.863   8.769  60.968  1.00  0.00    -0.337 OA
ATOM     20  C   UNL     1       7.290   9.702  59.306  1.00  0.00     0.180 C 
ATOM     21  C   UNL     1       7.218   9.021  60.664  1.00  0.00     0.179 C 
BRANCH  17  22
ATOM     22  C   UNL     1       4.298   7.538  59.551  1.00  0.00     0.225 C 
BRANCH  22  23
ATOM     23  O   UNL     1       3.834   7.001  60.759  1.00  0.00    -0.391 OA
ATOM     24  H   UNL     1       3.550   7.768  61.324  1.00  0.00     0.210 HD
ENDBRANCH  22  23
ENDBRANCH  17  22
BRANCH  18  25
ATOM     25  O   UNL     1       6.436   7.933  57.880  1.00  0.00    -0.385 OA
ATOM     26  H   UNL     1       6.169   7.141  58.416  1.00  0.00     0.211 HD
ENDBRANCH  18  25
BRANCH  20  27
ATOM     27  O   UNL     1       8.502   9.416  58.657  1.00  0.00    -0.387 OA
ATOM     28  H   UNL     1       9.196   9.963  59.107  1.00  0.00     0.211 HD
ENDBRANCH  20  27
BRANCH  21  29
ATOM     29  C   UNL     1       7.877   9.841  61.777  1.00  0.00     0.191 C 
BRANCH  29  30
ATOM     30  O   UNL     1       9.089  10.388  61.340  1.00  0.00    -0.394 OA
ATOM     31  H   UNL     1       9.024  10.447  60.351  1.00  0.00     0.210 HD
ENDBRANCH  29  30
ENDBRANCH  21  29
ENDBRANCH   1  17
TORSDOF 13
ENDMDL
MODEL 2
REMARK VINA RESULT:    -5.216      1.498      2.866
REMARK INTER + INTRA:          -9.152
REMARK INTER:                  -7.996
REMARK INTRA:                  -1.156
REMARK UNBOUND:                -1.192
REMARK SMILES OC[C@H]1O[C@@H](O[C@]2(CO)O[C@H](CO)[C@@H](O)[C@H]2O)[C@H](O)[C@@H](O)[C@H]1O
REMARK SMILES IDX 6 1 5 2 3 3 22 4 4 5 20 6 18 7 2 8 1 9 23 11 21 13 19 15
REMARK SMILES IDX 7 17 16 18 10 19 14 20 11 21 8 22 9 23 17 25 15 27 12 29
REMARK SMILES IDX 13 30
REMARK H PARENT 1 10 23 12 21 14 19 16 9 24 17 26 15 28 13 31
REMARK Flexibility Score: inf
ROOT
ATOM      1  O   UNL     1       4.690  10.437  59.608  1.00  0.00    -0.313 OA
ENDROOT
BRANCH   1   2
ATOM      2  C   UNL     1       4.637  11.180  60.819  1.00  0.00     0.285 C 
ATOM      3  C   UNL     1       2.481  10.383  61.508  1.00  0.00     0.178 C 
ATOM      4  C   UNL     1       1.818  11.750  61.190  1.00  0.00     0.177 C 
ATOM      5  O   UNL     1       3.872  10.488  61.801  1.00  0.00    -0.341 OA
ATOM      6  C   UNL     1       2.608  12.549  60.149  1.00  0.00     0.179 C 
ATOM      7  C   UNL     1       4.092  12.594  60.548  1.00  0.00     0.202 C 
BRANCH   3   8
ATOM      8  C   UNL     1       2.165   9.263  60.495  1.00  0.00     0.191 C 
BRANCH   8   9
ATOM      9  O   UNL     1       0.900   8.726  60.765  1.00  0.00    -0.394 OA
ATOM     10  H   UNL     1       0.250   9.283  60.262  1.00  0.00     0.210 HD
ENDBRANCH   8   9
ENDBRANCH   3   8
BRANCH   4  11
ATOM     11  O   UNL     1       0.491  11.587  60.755  1.00  0.00    -0.387 OA
ATOM     12  H   UNL     1       0.534  11.315  59.801  1.00  0.00     0.211 HD
ENDBRANCH   4  11
BRANCH   6  13
ATOM     13  O   UNL     1       2.453  11.983  58.873  1.00  0.00    -0.387 OA
ATOM     14  H   UNL     1       2.950  11.123  58.876  1.00  0.00     0.211 HD
ENDBRANCH   6  13
BRANCH   7  15
ATOM     15  O   UNL     1       4.258  13.381  61.701  1.00  0.00    -0.385 OA
ATOM     16  H   UNL     1       4.414  12.756  62.457  1.00  0.00     0.211 HD
ENDBRANCH   7  15
ENDBRANCH   1   2
BRANCH   1  17
ATOM     17  C   UNL     1       5.972   9.911  59.260  1.00  0.00     0.224 C 
ATOM     18  C   UNL     1       5.753   8.400  58.991  1.00  0.00     0.208 C 
ATOM     19  O   UNL     1       6.455  10.500  58.058  1.00  0.00    -0.337 OA
ATOM     20  C   UNL     1       5.597   8.353  57.488  1.00  0.00     0.180 C 
ATOM     21  C   UNL     1       6.482   9.510  57.051  1.00  0.00     0.179 C 
BRANCH  17  22
ATOM     22  C   UNL     1       6.990  10.139  60.414  1.00  0.00     0.225 C 
BRANCH  22  23
ATOM     23  O   UNL     1       8.311  10.193  59.950  1.00  0.00    -0.391 OA
ATOM     24  H   UNL     1       8.505   9.312  59.533  1.00  0.00     0.210 HD
ENDBRANCH  22  23
ENDBRANCH  17  22
BRANCH  18  25
ATOM     25  O   UNL     1       6.813   7.582  59.442  1.00  0.00    -0.385 OA
ATOM     26  H   UNL     1       6.528   6.633  59.390  1.00  0.00     0.211 HD
ENDBRANCH  18  25
BRANCH  20  27
ATOM     27  O   UNL     1       6.039   7.139  56.937  1.00  0.00    -0.387 OA
ATOM     28  H   UNL     1       5.673   7.100  56.016  1.00  0.00     0.211 HD
ENDBRANCH  20  27
BRANCH  21  29
ATOM     29  C   UNL     1       6.065  10.102  55.702  1.00  0.00     0.191 C 
BRANCH  29  30
ATOM     30  O   UNL     1       7.175  10.618  55.022  1.00  0.00    -0.394 OA
ATOM     31  H   UNL     1       6.890  10.739  54.080  1.00  0.00     0.210 HD
ENDBRANCH  29  30
ENDBRANCH  21  29
ENDBRANCH   1  17
TORSDOF 13
ENDMDL
MODEL 3
REMARK VINA RESULT:    -5.201      1.217      5.880
REMARK INTER + INTRA:          -9.130
REMARK INTER:                  -7.743
REMARK INTRA:                  -1.387
REMARK UNBOUND:                -1.192
REMARK SMILES OC[C@H]1O[C@@H](O[C@]2(CO)O[C@H](CO)[C@@H](O)[C@H]2O)[C@H](O)[C@@H](O)[C@H]1O
REMARK SMILES IDX 6 1 5 2 3 3 22 4 4 5 20 6 18 7 2 8 1 9 23 11 21 13 19 15
REMARK SMILES IDX 7 17 16 18 10 19 14 20 11 21 8 22 9 23 17 25 15 27 12 29
REMARK SMILES IDX 13 30
REMARK H PARENT 1 10 23 12 21 14 19 16 9 24 17 26 15 28 13 31
REMARK Flexibility Score: inf
ROOT
ATOM      1  O   UNL     1       4.478  10.451  60.833  1.00  0.00    -0.313 OA
ENDROOT
BRANCH   1   2
ATOM      2  C   UNL     1       4.608   9.161  61.417  1.00  0.00     0.285 C 
ATOM      3  C   UNL     1       6.984   8.992  61.125  1.00  0.00     0.178 C 
ATOM      4  C   UNL     1       6.821   7.946  59.990  1.00  0.00     0.177 C 
ATOM      5  O   UNL     1       5.884   9.012  62.032  1.00  0.00    -0.341 OA
ATOM      6  C   UNL     1       5.457   8.047  59.301  1.00  0.00     0.179 C 
ATOM      7  C   UNL     1       4.343   8.074  60.359  1.00  0.00     0.202 C 
BRANCH   3   8
ATOM      8  C   UNL     1       7.395  10.400  60.650  1.00  0.00     0.191 C 
BRANCH   8   9
ATOM      9  O   UNL     1       8.792  10.499  60.618  1.00  0.00    -0.394 OA
ATOM     10  H   UNL     1       9.111   9.727  60.081  1.00  0.00     0.210 HD
ENDBRANCH   8   9
ENDBRANCH   3   8
BRANCH   4  11
ATOM     11  O   UNL     1       7.845   8.064  59.035  1.00  0.00    -0.387 OA
ATOM     12  H   UNL     1       7.523   8.704  58.348  1.00  0.00     0.211 HD
ENDBRANCH   4  11
BRANCH   6  13
ATOM     13  O   UNL     1       5.400   9.191  58.488  1.00  0.00    -0.387 OA
ATOM     14  H   UNL     1       5.357   8.876  57.548  1.00  0.00     0.211 HD
ENDBRANCH   6  13
BRANCH   7  15
ATOM     15  O   UNL     1       4.251   6.824  60.996  1.00  0.00    -0.385 OA
ATOM     16  H   UNL     1       3.334   6.757  61.370  1.00  0.00     0.211 HD
ENDBRANCH   7  15
ENDBRANCH   1   2
BRANCH   1  17
ATOM     17  C   UNL     1       3.258  11.139  61.117  1.00  0.00     0.224 C 
ATOM     18  C   UNL     1       2.744  11.674  59.755  1.00  0.00     0.208 C 
ATOM     19  O   UNL     1       2.278  10.243  61.629  1.00  0.00    -0.337 OA
ATOM     20  C   UNL     1       1.760  10.607  59.334  1.00  0.00     0.180 C 
ATOM     21  C   UNL     1       1.242  10.118  60.677  1.00  0.00     0.179 C 
BRANCH  17  22
ATOM     22  C   UNL     1       3.504  12.297  62.125  1.00  0.00     0.225 C 
BRANCH  22  23
ATOM     23  O   UNL     1       4.249  13.341  61.560  1.00  0.00    -0.391 OA
ATOM     24  H   UNL     1       4.518  13.042  60.651  1.00  0.00     0.210 HD
ENDBRANCH  22  23
ENDBRANCH  17  22
BRANCH  18  25
ATOM     25  O   UNL     1       2.144  12.950  59.836  1.00  0.00    -0.385 OA
ATOM     26  H   UNL     1       2.699  13.596  59.327  1.00  0.00     0.211 HD
ENDBRANCH  18  25
BRANCH  20  27
ATOM     27  O   UNL     1       0.718  11.117  58.542  1.00  0.00    -0.387 OA
ATOM     28  H   UNL     1      -0.020  11.344  59.165  1.00  0.00     0.211 HD
ENDBRANCH  20  27
BRANCH  21  29
ATOM     29  C   UNL     1       0.728   8.676  60.628  1.00  0.00     0.191 C 
BRANCH  29  30
ATOM     30  O   UNL     1       0.551   8.257  59.303  1.00  0.00    -0.394 OA
ATOM     31  H   UNL     1       1.382   8.508  58.822  1.00  0.00     0.210 HD
ENDBRANCH  29  30
ENDBRANCH  21  29
ENDBRANCH   1  17
TORSDOF 13
ENDMDL
MODEL 4
REMARK VINA RESULT:    -5.193      1.077      2.301
REMARK INTER + INTRA:          -9.118
REMARK INTER:                  -8.050
REMARK INTRA:                  -1.068
REMARK UNBOUND:                -1.192
REMARK SMILES OC[C@H]1O[C@@H](O[C@]2(CO)O[C@H](CO)[C@@H](O)[C@H]2O)[C@H](O)[C@@H](O)[C@H]1O
REMARK SMILES IDX 6 1 5 2 3 3 22 4 4 5 20 6 18 7 2 8 1 9 23 11 21 13 19 15
REMARK SMILES IDX 7 17 16 18 10 19 14 20 11 21 8 22 9 23 17 25 15 27 12 29
REMARK SMILES IDX 13 30
REMARK H PARENT 1 10 23 12 21 14 19 16 9 24 17 26 15 28 13 31
REMARK Flexibility Score: inf
ROOT
ATOM      1  O   UNL     1       4.655  10.237  59.609  1.00  0.00    -0.313 OA
ENDROOT
BRANCH   1   2
ATOM      2  C   UNL     1       4.580  10.938  60.844  1.00  0.00     0.285 C 
ATOM      3  C   UNL     1       2.371  10.198  61.419  1.00  0.00     0.178 C 
ATOM      4  C   UNL     1       1.770  11.599  61.125  1.00  0.00     0.177 C 
ATOM      5  O   UNL     1       3.752  10.242  61.769  1.00  0.00    -0.341 OA
ATOM      6  C   UNL     1       2.630  12.404  60.145  1.00  0.00     0.179 C 
ATOM      7  C   UNL     1       4.097  12.380  60.603  1.00  0.00     0.202 C 
BRANCH   3   8
ATOM      8  C   UNL     1       2.057   9.127  60.354  1.00  0.00     0.191 C 
BRANCH   8   9
ATOM      9  O   UNL     1       2.786   7.962  60.628  1.00  0.00    -0.394 OA
ATOM     10  H   UNL     1       3.068   7.599  59.748  1.00  0.00     0.210 HD
ENDBRANCH   8   9
ENDBRANCH   3   8
BRANCH   4  11
ATOM     11  O   UNL     1       0.458  11.501  60.634  1.00  0.00    -0.387 OA
ATOM     12  H   UNL     1       0.453  10.754  59.979  1.00  0.00     0.211 HD
ENDBRANCH   4  11
BRANCH   6  13
ATOM     13  O   UNL     1       2.506  11.889  58.844  1.00  0.00    -0.387 OA
ATOM     14  H   UNL     1       1.729  12.345  58.426  1.00  0.00     0.211 HD
ENDBRANCH   6  13
BRANCH   7  15
ATOM     15  O   UNL     1       4.245  13.119  61.790  1.00  0.00    -0.385 OA
ATOM     16  H   UNL     1       4.162  12.477  62.543  1.00  0.00     0.211 HD
ENDBRANCH   7  15
ENDBRANCH   1   2
BRANCH   1  17
ATOM     17  C   UNL     1       5.845   9.473  59.402  1.00  0.00     0.224 C 
ATOM     18  C   UNL     1       6.954  10.183  60.220  1.00  0.00     0.208 C 
ATOM     19  O   UNL     1       5.700   8.156  59.921  1.00  0.00    -0.337 OA
ATOM     20  C   UNL     1       6.965   9.397  61.511  1.00  0.00     0.180 C 
ATOM     21  C   UNL     1       6.562   8.012  61.031  1.00  0.00     0.179 C 
BRANCH  17  22
ATOM     22  C   UNL     1       6.204   9.416  57.890  1.00  0.00     0.225 C 
BRANCH  22  23
ATOM     23  O   UNL     1       7.198   8.466  57.618  1.00  0.00    -0.391 OA
ATOM     24  H   UNL     1       6.870   7.917  56.858  1.00  0.00     0.210 HD
ENDBRANCH  22  23
ENDBRANCH  17  22
BRANCH  18  25
ATOM     25  O   UNL     1       8.217  10.183  59.586  1.00  0.00    -0.385 OA
ATOM     26  H   UNL     1       8.611  11.091  59.661  1.00  0.00     0.211 HD
ENDBRANCH  18  25
BRANCH  20  27
ATOM     27  O   UNL     1       8.232   9.375  62.119  1.00  0.00    -0.387 OA
ATOM     28  H   UNL     1       8.741   8.646  61.678  1.00  0.00     0.211 HD
ENDBRANCH  20  27
BRANCH  21  29
ATOM     29  C   UNL     1       5.895   7.172  62.125  1.00  0.00     0.191 C 
BRANCH  29  30
ATOM     30  O   UNL     1       5.002   6.249  61.567  1.00  0.00    -0.394 OA
ATOM     31  H   UNL     1       4.720   5.655  62.310  1.00  0.00     0.210 HD
ENDBRANCH  29  30
ENDBRANCH  21  29
ENDBRANCH   1  17
TORSDOF 13
ENDMDL
MODEL 5
REMARK VINA RESULT:    -5.134      1.761      5.117
REMARK INTER + INTRA:          -9.028
REMARK INTER:                  -7.777
REMARK INTRA:                  -1.251
REMARK UNBOUND:                -1.192
REMARK SMILES OC[C@H]1O[C@@H](O[C@]2(CO)O[C@H](CO)[C@@H](O)[C@H]2O)[C@H](O)[C@@H](O)[C@H]1O
REMARK SMILES IDX 6 1 5 2 3 3 22 4 4 5 20 6 18 7 2 8 1 9 23 11 21 13 19 15
REMARK SMILES IDX 7 17 16 18 10 19 14 20 11 21 8 22 9 23 17 25 15 27 12 29
REMARK SMILES IDX 13 30
REMARK H PARENT 1 10 23 12 21 14 19 16 9 24 17 26 15 28 13 31
REMARK Flexibility Score: inf
ROOT
ATOM      1  O   UNL     1       4.748   9.804  58.706  1.00  0.00    -0.313 OA
ENDROOT
BRANCH   1   2
ATOM      2  C   UNL     1       6.073   9.364  58.439  1.00  0.00     0.285 C 
ATOM      3  C   UNL     1       5.943   7.361  59.754  1.00  0.00     0.178 C 
ATOM      4  C   UNL     1       6.864   7.960  60.851  1.00  0.00     0.177 C 
ATOM      5  O   UNL     1       6.148   7.942  58.469  1.00  0.00    -0.341 OA
ATOM      6  C   UNL     1       6.838   9.492  60.856  1.00  0.00     0.179 C 
ATOM      7  C   UNL     1       7.055  10.018  59.428  1.00  0.00     0.202 C 
BRANCH   3   8
ATOM      8  C   UNL     1       4.452   7.275  60.141  1.00  0.00     0.191 C 
BRANCH   8   9
ATOM      9  O   UNL     1       4.250   6.186  60.999  1.00  0.00    -0.394 OA
ATOM     10  H   UNL     1       4.168   6.565  61.913  1.00  0.00     0.210 HD
ENDBRANCH   8   9
ENDBRANCH   3   8
BRANCH   4  11
ATOM     11  O   UNL     1       6.524   7.475  62.125  1.00  0.00    -0.387 OA
ATOM     12  H   UNL     1       6.177   6.554  61.997  1.00  0.00     0.211 HD
ENDBRANCH   4  11
BRANCH   6  13
ATOM     13  O   UNL     1       5.621   9.961  61.379  1.00  0.00    -0.387 OA
ATOM     14  H   UNL     1       5.021  10.130  60.606  1.00  0.00     0.211 HD
ENDBRANCH   6  13
BRANCH   7  15
ATOM     15  O   UNL     1       8.372   9.755  59.012  1.00  0.00    -0.385 OA
ATOM     16  H   UNL     1       8.355   8.886  58.531  1.00  0.00     0.211 HD
ENDBRANCH   7  15
ENDBRANCH   1   2
BRANCH   1  17
ATOM     17  C   UNL     1       4.420  11.109  58.225  1.00  0.00     0.224 C 
ATOM     18  C   UNL     1       2.894  11.271  58.441  1.00  0.00     0.208 C 
ATOM     19  O   UNL     1       5.076  12.113  58.993  1.00  0.00    -0.337 OA
ATOM     20  C   UNL     1       2.825  12.006  59.760  1.00  0.00     0.180 C 
ATOM     21  C   UNL     1       4.101  12.830  59.720  1.00  0.00     0.179 C 
BRANCH  17  22
ATOM     22  C   UNL     1       4.799  11.251  56.723  1.00  0.00     0.225 C 
BRANCH  22  23
ATOM     23  O   UNL     1       4.001  10.447  55.898  1.00  0.00    -0.391 OA
ATOM     24  H   UNL     1       3.165  10.260  56.402  1.00  0.00     0.210 HD
ENDBRANCH  22  23
ENDBRANCH  17  22
BRANCH  18  25
ATOM     25  O   UNL     1       2.245  11.978  57.403  1.00  0.00    -0.385 OA
ATOM     26  H   UNL     1       2.817  11.949  56.592  1.00  0.00     0.211 HD
ENDBRANCH  18  25
BRANCH  20  27
ATOM     27  O   UNL     1       1.691  12.829  59.860  1.00  0.00    -0.387 OA
ATOM     28  H   UNL     1       1.946  13.586  60.450  1.00  0.00     0.211 HD
ENDBRANCH  20  27
BRANCH  21  29
ATOM     29  C   UNL     1       4.625  13.186  61.115  1.00  0.00     0.191 C 
BRANCH  29  30
ATOM     30  O   UNL     1       3.690  12.841  62.098  1.00  0.00    -0.394 OA
ATOM     31  H   UNL     1       2.820  13.208  61.792  1.00  0.00     0.210 HD
ENDBRANCH  29  30
ENDBRANCH  21  29
ENDBRANCH   1  17
TORSDOF 13
ENDMDL
MODEL 6
REMARK VINA RESULT:    -5.114      2.503      3.948
REMARK INTER + INTRA:          -8.997
REMARK INTER:                  -7.257
REMARK INTRA:                  -1.740
REMARK UNBOUND:                -1.192
REMARK SMILES OC[C@H]1O[C@@H](O[C@]2(CO)O[C@H](CO)[C@@H](O)[C@H]2O)[C@H](O)[C@@H](O)[C@H]1O
REMARK SMILES IDX 6 1 5 2 3 3 22 4 4 5 20 6 18 7 2 8 1 9 23 11 21 13 19 15
REMARK SMILES IDX 7 17 16 18 10 19 14 20 11 21 8 22 9 23 17 25 15 27 12 29
REMARK SMILES IDX 13 30
REMARK H PARENT 1 10 23 12 21 14 19 16 9 24 17 26 15 28 13 31
REMARK Flexibility Score: inf
ROOT
ATOM      1  O   UNL     1       3.695  10.998  57.987  1.00  0.00    -0.313 OA
ENDROOT
BRANCH   1   2
ATOM      2  C   UNL     1       3.779  10.012  59.008  1.00  0.00     0.285 C 
ATOM      3  C   UNL     1       2.414  11.179  60.599  1.00  0.00     0.178 C 
ATOM      4  C   UNL     1       3.645  11.522  61.480  1.00  0.00     0.177 C 
ATOM      5  O   UNL     1       2.599  10.009  59.805  1.00  0.00    -0.341 OA
ATOM      6  C   UNL     1       4.950  11.522  60.677  1.00  0.00     0.179 C 
ATOM      7  C   UNL     1       5.049  10.231  59.850  1.00  0.00     0.202 C 
BRANCH   3   8
ATOM      8  C   UNL     1       1.848  12.366  59.793  1.00  0.00     0.191 C 
BRANCH   8   9
ATOM      9  O   UNL     1       0.921  11.899  58.853  1.00  0.00    -0.394 OA
ATOM     10  H   UNL     1       0.117  12.475  58.947  1.00  0.00     0.210 HD
ENDBRANCH   8   9
ENDBRANCH   3   8
BRANCH   4  11
ATOM     11  O   UNL     1       3.484  12.760  62.125  1.00  0.00    -0.387 OA
ATOM     12  H   UNL     1       4.225  13.343  61.813  1.00  0.00     0.211 HD
ENDBRANCH   4  11
BRANCH   6  13
ATOM     13  O   UNL     1       5.015  12.653  59.846  1.00  0.00    -0.387 OA
ATOM     14  H   UNL     1       5.892  13.086  60.016  1.00  0.00     0.211 HD
ENDBRANCH   6  13
BRANCH   7  15
ATOM     15  O   UNL     1       5.235   9.126  60.699  1.00  0.00    -0.385 OA
ATOM     16  H   UNL     1       6.076   8.682  60.417  1.00  0.00     0.211 HD
ENDBRANCH   7  15
ENDBRANCH   1   2
BRANCH   1  17
ATOM     17  C   UNL     1       3.810  10.515  56.648  1.00  0.00     0.224 C 
ATOM     18  C   UNL     1       4.980  11.306  56.009  1.00  0.00     0.208 C 
ATOM     19  O   UNL     1       4.162   9.135  56.634  1.00  0.00    -0.337 OA
ATOM     20  C   UNL     1       6.150  10.367  56.189  1.00  0.00     0.180 C 
ATOM     21  C   UNL     1       5.469   9.010  56.116  1.00  0.00     0.179 C 
BRANCH  17  22
ATOM     22  C   UNL     1       2.482  10.736  55.869  1.00  0.00     0.225 C 
BRANCH  22  23
ATOM     23  O   UNL     1       1.971  12.028  56.051  1.00  0.00    -0.391 OA
ATOM     24  H   UNL     1       0.981  11.953  56.010  1.00  0.00     0.210 HD
ENDBRANCH  22  23
ENDBRANCH  17  22
BRANCH  18  25
ATOM     25  O   UNL     1       4.767  11.637  54.651  1.00  0.00    -0.385 OA
ATOM     26  H   UNL     1       3.983  12.242  54.590  1.00  0.00     0.211 HD
ENDBRANCH  18  25
BRANCH  20  27
ATOM     27  O   UNL     1       7.115  10.507  55.179  1.00  0.00    -0.387 OA
ATOM     28  H   UNL     1       6.624  10.479  54.317  1.00  0.00     0.211 HD
ENDBRANCH  20  27
BRANCH  21  29
ATOM     29  C   UNL     1       6.240   7.915  56.860  1.00  0.00     0.191 C 
BRANCH  29  30
ATOM     30  O   UNL     1       7.257   8.472  57.645  1.00  0.00    -0.394 OA
ATOM     31  H   UNL     1       6.976   8.347  58.589  1.00  0.00     0.210 HD
ENDBRANCH  29  30
ENDBRANCH  21  29
ENDBRANCH   1  17
TORSDOF 13
ENDMDL
MODEL 7
REMARK VINA RESULT:    -5.111      1.649      5.366
REMARK INTER + INTRA:          -8.992
REMARK INTER:                  -7.248
REMARK INTRA:                  -1.745
REMARK UNBOUND:                -1.192
REMARK SMILES OC[C@H]1O[C@@H](O[C@]2(CO)O[C@H](CO)[C@@H](O)[C@H]2O)[C@H](O)[C@@H](O)[C@H]1O
REMARK SMILES IDX 6 1 5 2 3 3 22 4 4 5 20 6 18 7 2 8 1 9 23 11 21 13 19 15
REMARK SMILES IDX 7 17 16 18 10 19 14 20 11 21 8 22 9 23 17 25 15 27 12 29
REMARK SMILES IDX 13 30
REMARK H PARENT 1 10 23 12 21 14 19 16 9 24 17 26 15 28 13 31
REMARK Flexibility Score: inf
ROOT
ATOM      1  O   UNL     1       5.186   9.046  60.423  1.00  0.00    -0.313 OA
ENDROOT
BRANCH   1   2
ATOM      2  C   UNL     1       6.147   9.016  59.376  1.00  0.00     0.285 C 
ATOM      3  C   UNL     1       6.949   6.801  59.834  1.00  0.00     0.178 C 
ATOM      4  C   UNL     1       8.283   7.348  60.408  1.00  0.00     0.177 C 
ATOM      5  O   UNL     1       6.334   7.687  58.901  1.00  0.00    -0.341 OA
ATOM      6  C   UNL     1       8.148   8.785  60.920  1.00  0.00     0.179 C 
ATOM      7  C   UNL     1       7.466   9.654  59.851  1.00  0.00     0.202 C 
BRANCH   3   8
ATOM      8  C   UNL     1       5.962   6.268  60.893  1.00  0.00     0.191 C 
BRANCH   8   9
ATOM      9  O   UNL     1       4.746   5.938  60.281  1.00  0.00    -0.394 OA
ATOM     10  H   UNL     1       4.146   6.716  60.420  1.00  0.00     0.210 HD
ENDBRANCH   8   9
ENDBRANCH   3   8
BRANCH   4  11
ATOM     11  O   UNL     1       8.775   6.523  61.433  1.00  0.00    -0.387 OA
ATOM     12  H   UNL     1       8.348   6.829  62.276  1.00  0.00     0.211 HD
ENDBRANCH   4  11
BRANCH   6  13
ATOM     13  O   UNL     1       7.421   8.813  62.121  1.00  0.00    -0.387 OA
ATOM     14  H   UNL     1       8.065   8.620  62.853  1.00  0.00     0.211 HD
ENDBRANCH   6  13
BRANCH   7  15
ATOM     15  O   UNL     1       8.320   9.821  58.747  1.00  0.00    -0.385 OA
ATOM     16  H   UNL     1       8.738  10.716  58.838  1.00  0.00     0.211 HD
ENDBRANCH   7  15
ENDBRANCH   1   2
BRANCH   1  17
ATOM     17  C   UNL     1       4.000   9.796  60.154  1.00  0.00     0.224 C 
ATOM     18  C   UNL     1       3.586  10.437  61.503  1.00  0.00     0.208 C 
ATOM     19  O   UNL     1       4.264  10.851  59.235  1.00  0.00    -0.337 OA
ATOM     20  C   UNL     1       4.189  11.820  61.409  1.00  0.00     0.180 C 
ATOM     21  C   UNL     1       4.124  12.082  59.912  1.00  0.00     0.179 C 
BRANCH  17  22
ATOM     22  C   UNL     1       2.881   8.870  59.598  1.00  0.00     0.225 C 
BRANCH  22  23
ATOM     23  O   UNL     1       2.536   7.857  60.503  1.00  0.00    -0.391 OA
ATOM     24  H   UNL     1       1.983   8.281  61.211  1.00  0.00     0.210 HD
ENDBRANCH  22  23
ENDBRANCH  17  22
BRANCH  18  25
ATOM     25  O   UNL     1       2.189  10.479  61.708  1.00  0.00    -0.385 OA
ATOM     26  H   UNL     1       1.808   9.589  61.486  1.00  0.00     0.211 HD
ENDBRANCH  18  25
BRANCH  20  27
ATOM     27  O   UNL     1       3.454  12.779  62.125  1.00  0.00    -0.387 OA
ATOM     28  H   UNL     1       3.499  13.618  61.596  1.00  0.00     0.211 HD
ENDBRANCH  20  27
BRANCH  21  29
ATOM     29  C   UNL     1       5.183  13.081  59.436  1.00  0.00     0.191 C 
BRANCH  29  30
ATOM     30  O   UNL     1       5.135  14.255  60.198  1.00  0.00    -0.394 OA
ATOM     31  H   UNL     1       4.619  14.911  59.661  1.00  0.00     0.210 HD
ENDBRANCH  29  30
ENDBRANCH  21  29
ENDBRANCH   1  17
TORSDOF 13
ENDMDL
MODEL 8
REMARK VINA RESULT:    -5.049      2.503      3.759
REMARK INTER + INTRA:          -8.898
REMARK INTER:                  -7.464
REMARK INTRA:                  -1.434
REMARK UNBOUND:                -1.192
REMARK SMILES OC[C@H]1O[C@@H](O[C@]2(CO)O[C@H](CO)[C@@H](O)[C@H]2O)[C@H](O)[C@@H](O)[C@H]1O
REMARK SMILES IDX 6 1 5 2 3 3 22 4 4 5 20 6 18 7 2 8 1 9 23 11 21 13 19 15
REMARK SMILES IDX 7 17 16 18 10 19 14 20 11 21 8 22 9 23 17 25 15 27 12 29
REMARK SMILES IDX 13 30
REMARK H PARENT 1 10 23 12 21 14 19 16 9 24 17 26 15 28 13 31
REMARK Flexibility Score: inf
ROOT
ATOM      1  O   UNL     1       4.786  10.546  58.720  1.00  0.00    -0.313 OA
ENDROOT
BRANCH   1   2
ATOM      2  C   UNL     1       5.559  11.383  59.571  1.00  0.00     0.285 C 
ATOM      3  C   UNL     1       4.261  10.996  61.551  1.00  0.00     0.178 C 
ATOM      4  C   UNL     1       3.648  12.421  61.489  1.00  0.00     0.177 C 
ATOM      5  O   UNL     1       5.532  10.903  60.911  1.00  0.00    -0.341 OA
ATOM      6  C   UNL     1       3.667  12.998  60.070  1.00  0.00     0.179 C 
ATOM      7  C   UNL     1       5.071  12.839  59.465  1.00  0.00     0.202 C 
BRANCH   3   8
ATOM      8  C   UNL     1       3.299   9.862  61.141  1.00  0.00     0.191 C 
BRANCH   8   9
ATOM      9  O   UNL     1       3.993   8.646  61.103  1.00  0.00    -0.394 OA
ATOM     10  H   UNL     1       4.952   8.878  60.997  1.00  0.00     0.210 HD
ENDBRANCH   8   9
ENDBRANCH   3   8
BRANCH   4  11
ATOM     11  O   UNL     1       2.336  12.436  61.990  1.00  0.00    -0.387 OA
ATOM     12  H   UNL     1       2.164  13.358  62.315  1.00  0.00     0.211 HD
ENDBRANCH   4  11
BRANCH   6  13
ATOM     13  O   UNL     1       2.705  12.362  59.268  1.00  0.00    -0.387 OA
ATOM     14  H   UNL     1       3.168  11.626  58.789  1.00  0.00     0.211 HD
ENDBRANCH   6  13
BRANCH   7  15
ATOM     15  O   UNL     1       5.981  13.680  60.129  1.00  0.00    -0.385 OA
ATOM     16  H   UNL     1       5.448  14.272  60.721  1.00  0.00     0.211 HD
ENDBRANCH   7  15
ENDBRANCH   1   2
BRANCH   1  17
ATOM     17  C   UNL     1       5.528   9.740  57.803  1.00  0.00     0.224 C 
ATOM     18  C   UNL     1       4.494   8.806  57.124  1.00  0.00     0.208 C 
ATOM     19  O   UNL     1       6.123  10.541  56.788  1.00  0.00    -0.337 OA
ATOM     20  C   UNL     1       4.179   9.543  55.842  1.00  0.00     0.180 C 
ATOM     21  C   UNL     1       5.499  10.242  55.557  1.00  0.00     0.179 C 
BRANCH  17  22
ATOM     22  C   UNL     1       6.623   8.926  58.551  1.00  0.00     0.225 C 
BRANCH  22  23
ATOM     23  O   UNL     1       6.074   8.040  59.489  1.00  0.00    -0.391 OA
ATOM     24  H   UNL     1       6.145   7.129  59.098  1.00  0.00     0.210 HD
ENDBRANCH  22  23
ENDBRANCH  17  22
BRANCH  18  25
ATOM     25  O   UNL     1       4.979   7.501  56.882  1.00  0.00    -0.385 OA
ATOM     26  H   UNL     1       5.806   7.564  56.337  1.00  0.00     0.211 HD
ENDBRANCH  18  25
BRANCH  20  27
ATOM     27  O   UNL     1       3.827   8.676  54.794  1.00  0.00    -0.387 OA
ATOM     28  H   UNL     1       3.799   9.230  53.971  1.00  0.00     0.211 HD
ENDBRANCH  20  27
BRANCH  21  29
ATOM     29  C   UNL     1       5.331  11.512  54.716  1.00  0.00     0.191 C 
BRANCH  29  30
ATOM     30  O   UNL     1       6.556  11.906  54.164  1.00  0.00    -0.394 OA
ATOM     31  H   UNL     1       6.856  11.153  53.592  1.00  0.00     0.210 HD
ENDBRANCH  29  30
ENDBRANCH  21  29
ENDBRANCH   1  17
TORSDOF 13
ENDMDL
MODEL 9
REMARK VINA RESULT:    -5.041      1.409      2.406
REMARK INTER + INTRA:          -8.886
REMARK INTER:                  -7.515
REMARK INTRA:                  -1.371
REMARK UNBOUND:                -1.192
REMARK SMILES OC[C@H]1O[C@@H](O[C@]2(CO)O[C@H](CO)[C@@H](O)[C@H]2O)[C@H](O)[C@@H](O)[C@H]1O
REMARK SMILES IDX 6 1 5 2 3 3 22 4 4 5 20 6 18 7 2 8 1 9 23 11 21 13 19 15
REMARK SMILES IDX 7 17 16 18 10 19 14 20 11 21 8 22 9 23 17 25 15 27 12 29
REMARK SMILES IDX 13 30
REMARK H PARENT 1 10 23 12 21 14 19 16 9 24 17 26 15 28 13 31
REMARK Flexibility Score: inf
ROOT
ATOM      1  O   UNL     1       4.609   9.486  60.338  1.00  0.00    -0.313 OA
ENDROOT
BRANCH   1   2
ATOM      2  C   UNL     1       3.204   9.356  60.161  1.00  0.00     0.285 C 
ATOM      3  C   UNL     1       2.936  11.325  58.817  1.00  0.00     0.178 C 
ATOM      4  C   UNL     1       2.246  12.087  59.980  1.00  0.00     0.177 C 
ATOM      5  O   UNL     1       2.800   9.909  58.913  1.00  0.00    -0.341 OA
ATOM      6  C   UNL     1       2.631  11.522  61.351  1.00  0.00     0.179 C 
ATOM      7  C   UNL     1       2.461   9.995  61.349  1.00  0.00     0.202 C 
BRANCH   3   8
ATOM      8  C   UNL     1       4.385  11.769  58.527  1.00  0.00     0.191 C 
BRANCH   8   9
ATOM      9  O   UNL     1       4.957  10.918  57.572  1.00  0.00    -0.394 OA
ATOM     10  H   UNL     1       4.610  11.218  56.691  1.00  0.00     0.210 HD
ENDBRANCH   8   9
ENDBRANCH   3   8
BRANCH   4  11
ATOM     11  O   UNL     1       2.534  13.461  59.934  1.00  0.00    -0.387 OA
ATOM     12  H   UNL     1       2.977  13.632  59.062  1.00  0.00     0.211 HD
ENDBRANCH   4  11
BRANCH   6  13
ATOM     13  O   UNL     1       3.951  11.876  61.675  1.00  0.00    -0.387 OA
ATOM     14  H   UNL     1       4.061  12.833  61.434  1.00  0.00     0.211 HD
ENDBRANCH   6  13
BRANCH   7  15
ATOM     15  O   UNL     1       1.098   9.660  61.272  1.00  0.00    -0.385 OA
ATOM     16  H   UNL     1       0.971   8.839  61.816  1.00  0.00     0.211 HD
ENDBRANCH   7  15
ENDBRANCH   1   2
BRANCH   1  17
ATOM     17  C   UNL     1       5.336   8.261  60.445  1.00  0.00     0.224 C 
ATOM     18  C   UNL     1       6.139   8.126  59.126  1.00  0.00     0.208 C 
ATOM     19  O   UNL     1       6.270   8.316  61.518  1.00  0.00    -0.337 OA
ATOM     20  C   UNL     1       7.493   8.679  59.507  1.00  0.00     0.180 C 
ATOM     21  C   UNL     1       7.575   8.304  60.978  1.00  0.00     0.179 C 
BRANCH  17  22
ATOM     22  C   UNL     1       4.365   7.062  60.643  1.00  0.00     0.225 C 
BRANCH  22  23
ATOM     23  O   UNL     1       4.944   6.030  61.392  1.00  0.00    -0.391 OA
ATOM     24  H   UNL     1       4.214   5.394  61.617  1.00  0.00     0.210 HD
ENDBRANCH  22  23
ENDBRANCH  17  22
BRANCH  18  25
ATOM     25  O   UNL     1       6.222   6.800  58.644  1.00  0.00    -0.385 OA
ATOM     26  H   UNL     1       5.308   6.484  58.422  1.00  0.00     0.211 HD
ENDBRANCH  18  25
BRANCH  20  27
ATOM     27  O   UNL     1       8.540   8.096  58.775  1.00  0.00    -0.387 OA
ATOM     28  H   UNL     1       8.859   8.791  58.142  1.00  0.00     0.211 HD
ENDBRANCH  20  27
BRANCH  21  29
ATOM     29  C   UNL     1       8.497   9.229  61.779  1.00  0.00     0.191 C 
BRANCH  29  30
ATOM     30  O   UNL     1       9.124  10.155  60.936  1.00  0.00    -0.394 OA
ATOM     31  H   UNL     1       8.852  11.052  61.262  1.00  0.00     0.210 HD
ENDBRANCH  29  30
ENDBRANCH  21  29
ENDBRANCH   1  17
TORSDOF 13
ENDMDL
