MODEL 1
REMARK VINA RESULT:    -6.241      0.000      0.000
REMARK INTER + INTRA:          -8.355
REMARK INTER:                  -7.883
REMARK INTRA:                  -0.471
REMARK UNBOUND:                -0.471
REMARK SMILES O=C(C=Cc1ccc(O)cc1)c1ccc(O)cc1O
REMARK SMILES IDX 4 1 3 2 5 3 6 4 7 5 8 6 11 7 10 8 9 9 2 11 1 12 12 13 18 14
REMARK SMILES IDX 13 15 17 16 14 17 15 18 19 19 16 21
REMARK H PARENT 9 10 19 20 16 22
REMARK Flexibility Score: inf
ROOT
ATOM      1  C   UNL     1      18.172  30.382  32.164  1.00  0.00     0.012 C 
ATOM      2  C   UNL     1      17.076  30.371  32.935  1.00  0.00     0.053 C 
ENDROOT
BRANCH   1   3
ATOM      3  C   UNL     1      18.217  29.827  30.789  1.00  0.00    -0.025 A 
ATOM      4  C   UNL     1      18.403  30.638  29.651  1.00  0.00     0.012 A 
ATOM      5  C   UNL     1      18.426  30.069  28.373  1.00  0.00     0.047 A 
ATOM      6  C   UNL     1      18.255  28.691  28.212  1.00  0.00     0.115 A 
ATOM      7  C   UNL     1      18.030  28.446  30.614  1.00  0.00     0.012 A 
ATOM      8  C   UNL     1      18.054  27.880  29.336  1.00  0.00     0.047 A 
BRANCH   6   9
ATOM      9  O   UNL     1      18.282  28.139  26.933  1.00  0.00    -0.508 OA
ATOM     10  H   UNL     1      17.495  28.229  26.301  1.00  0.00     0.293 HD
ENDBRANCH   6   9
ENDBRANCH   1   3
BRANCH   2  11
ATOM     11  C   UNL     1      17.064  30.948  34.297  1.00  0.00     0.189 C 
ATOM     12  O   UNL     1      17.590  30.315  35.253  1.00  0.00    -0.289 OA
BRANCH  11  13
ATOM     13  C   UNL     1      16.487  32.289  34.554  1.00  0.00     0.064 A 
ATOM     14  C   UNL     1      16.311  32.786  35.865  1.00  0.00     0.130 A 
ATOM     15  C   UNL     1      16.127  33.099  33.462  1.00  0.00     0.020 A 
ATOM     16  C   UNL     1      15.746  34.055  36.060  1.00  0.00     0.093 A 
ATOM     17  C   UNL     1      15.572  34.364  33.668  1.00  0.00     0.047 A 
ATOM     18  C   UNL     1      15.376  34.843  34.968  1.00  0.00     0.119 A 
BRANCH  14  19
ATOM     19  O   UNL     1      16.718  32.036  36.968  1.00  0.00    -0.507 OA
ATOM     20  H   UNL     1      16.389  31.089  37.119  1.00  0.00     0.293 HD
ENDBRANCH  14  19
BRANCH  18  21
ATOM     21  O   UNL     1      14.820  36.101  35.184  1.00  0.00    -0.508 OA
ATOM     22  H   UNL     1      14.146  36.501  34.542  1.00  0.00     0.293 HD
ENDBRANCH  18  21
ENDBRANCH  11  13
ENDBRANCH   2  11
TORSDOF 6
ENDMDL
MODEL 2
REMARK VINA RESULT:    -6.218      0.065      1.112
REMARK INTER + INTRA:          -8.325
REMARK INTER:                  -7.851
REMARK INTRA:                  -0.473
REMARK UNBOUND:                -0.471
REMARK SMILES O=C(C=Cc1ccc(O)cc1)c1ccc(O)cc1O
REMARK SMILES IDX 4 1 3 2 5 3 6 4 7 5 8 6 11 7 10 8 9 9 2 11 1 12 12 13 18 14
REMARK SMILES IDX 13 15 17 16 14 17 15 18 19 19 16 21
REMARK H PARENT 9 10 19 20 16 22
REMARK Flexibility Score: inf
ROOT
ATOM      1  C   UNL     1      18.164  30.318  32.216  1.00  0.00     0.012 C 
ATOM      2  C   UNL     1      17.063  30.361  32.979  1.00  0.00     0.053 C 
ENDROOT
BRANCH   1   3
ATOM      3  C   UNL     1      18.196  29.738  30.851  1.00  0.00    -0.025 A 
ATOM      4  C   UNL     1      18.050  28.356  30.611  1.00  0.00     0.012 A 
ATOM      5  C   UNL     1      18.100  27.855  29.306  1.00  0.00     0.047 A 
ATOM      6  C   UNL     1      18.306  28.719  28.227  1.00  0.00     0.115 A 
ATOM      7  C   UNL     1      18.419  30.595  29.760  1.00  0.00     0.012 A 
ATOM      8  C   UNL     1      18.468  30.090  28.457  1.00  0.00     0.047 A 
BRANCH   6   9
ATOM      9  O   UNL     1      18.352  28.205  26.933  1.00  0.00    -0.508 OA
ATOM     10  H   UNL     1      19.163  27.703  26.591  1.00  0.00     0.293 HD
ENDBRANCH   6   9
ENDBRANCH   1   3
BRANCH   2  11
ATOM     11  C   UNL     1      17.064  30.962  34.330  1.00  0.00     0.189 C 
ATOM     12  O   UNL     1      17.604  30.348  35.292  1.00  0.00    -0.289 OA
BRANCH  11  13
ATOM     13  C   UNL     1      16.485  32.305  34.571  1.00  0.00     0.064 A 
ATOM     14  C   UNL     1      16.307  32.818  35.875  1.00  0.00     0.130 A 
ATOM     15  C   UNL     1      16.125  33.101  33.469  1.00  0.00     0.020 A 
ATOM     16  C   UNL     1      15.740  34.089  36.055  1.00  0.00     0.093 A 
ATOM     17  C   UNL     1      15.568  34.368  33.659  1.00  0.00     0.047 A 
ATOM     18  C   UNL     1      15.370  34.863  34.952  1.00  0.00     0.119 A 
BRANCH  14  19
ATOM     19  O   UNL     1      16.715  32.082  36.988  1.00  0.00    -0.507 OA
ATOM     20  H   UNL     1      17.545  31.501  36.968  1.00  0.00     0.293 HD
ENDBRANCH  14  19
BRANCH  18  21
ATOM     21  O   UNL     1      14.812  36.122  35.153  1.00  0.00    -0.508 OA
ATOM     22  H   UNL     1      13.816  36.244  35.297  1.00  0.00     0.293 HD
ENDBRANCH  18  21
ENDBRANCH  11  13
ENDBRANCH   2  11
TORSDOF 6
ENDMDL
MODEL 3
REMARK VINA RESULT:    -6.212      1.964      8.532
REMARK INTER + INTRA:          -8.317
REMARK INTER:                  -7.695
REMARK INTRA:                  -0.622
REMARK UNBOUND:                -0.471
REMARK SMILES O=C(C=Cc1ccc(O)cc1)c1ccc(O)cc1O
REMARK SMILES IDX 4 1 3 2 5 3 6 4 7 5 8 6 11 7 10 8 9 9 2 11 1 12 12 13 18 14
REMARK SMILES IDX 13 15 17 16 14 17 15 18 19 19 16 21
REMARK H PARENT 9 10 19 20 16 22
REMARK Flexibility Score: inf
ROOT
ATOM      1  C   UNL     1      17.997  30.410  31.487  1.00  0.00     0.012 C 
ATOM      2  C   UNL     1      17.830  29.237  30.860  1.00  0.00     0.053 C 
ENDROOT
BRANCH   1   3
ATOM      3  C   UNL     1      17.516  30.684  32.863  1.00  0.00    -0.025 A 
ATOM      4  C   UNL     1      17.449  29.685  33.855  1.00  0.00     0.012 A 
ATOM      5  C   UNL     1      16.976  29.990  35.136  1.00  0.00     0.047 A 
ATOM      6  C   UNL     1      16.555  31.286  35.441  1.00  0.00     0.115 A 
ATOM      7  C   UNL     1      17.075  31.981  33.176  1.00  0.00     0.012 A 
ATOM      8  C   UNL     1      16.603  32.282  34.458  1.00  0.00     0.047 A 
BRANCH   6   9
ATOM      9  O   UNL     1      16.087  31.575  36.721  1.00  0.00    -0.508 OA
ATOM     10  H   UNL     1      16.656  31.408  37.544  1.00  0.00     0.293 HD
ENDBRANCH   6   9
ENDBRANCH   1   3
BRANCH   2  11
ATOM     11  C   UNL     1      18.338  28.995  29.493  1.00  0.00     0.189 C 
ATOM     12  O   UNL     1      18.628  29.971  28.747  1.00  0.00    -0.289 OA
BRANCH  11  13
ATOM     13  C   UNL     1      18.563  27.618  28.993  1.00  0.00     0.064 A 
ATOM     14  C   UNL     1      17.974  27.154  27.796  1.00  0.00     0.130 A 
ATOM     15  C   UNL     1      19.408  26.758  29.717  1.00  0.00     0.020 A 
ATOM     16  C   UNL     1      18.204  25.836  27.370  1.00  0.00     0.093 A 
ATOM     17  C   UNL     1      19.635  25.451  29.280  1.00  0.00     0.047 A 
ATOM     18  C   UNL     1      19.030  24.986  28.108  1.00  0.00     0.119 A 
BRANCH  14  19
ATOM     19  O   UNL     1      17.185  28.001  27.018  1.00  0.00    -0.507 OA
ATOM     20  H   UNL     1      16.492  27.639  26.372  1.00  0.00     0.293 HD
ENDBRANCH  14  19
BRANCH  18  21
ATOM     21  O   UNL     1      19.247  23.683  27.665  1.00  0.00    -0.508 OA
ATOM     22  H   UNL     1      18.667  23.264  26.948  1.00  0.00     0.293 HD
ENDBRANCH  18  21
ENDBRANCH  11  13
ENDBRANCH   2  11
TORSDOF 6
ENDMDL
MODEL 4
REMARK VINA RESULT:    -6.112      1.677      2.865
REMARK INTER + INTRA:          -8.191
REMARK INTER:                  -7.616
REMARK INTRA:                  -0.576
REMARK UNBOUND:                -0.471
REMARK SMILES O=C(C=Cc1ccc(O)cc1)c1ccc(O)cc1O
REMARK SMILES IDX 4 1 3 2 5 3 6 4 7 5 8 6 11 7 10 8 9 9 2 11 1 12 12 13 18 14
REMARK SMILES IDX 13 15 17 16 14 17 15 18 19 19 16 21
REMARK H PARENT 9 10 19 20 16 22
REMARK Flexibility Score: inf
ROOT
ATOM      1  C   UNL     1      18.362  30.474  30.241  1.00  0.00     0.012 C 
ATOM      2  C   UNL     1      17.978  30.489  31.525  1.00  0.00     0.053 C 
ENDROOT
BRANCH   1   3
ATOM      3  C   UNL     1      18.366  29.253  29.398  1.00  0.00    -0.025 A 
ATOM      4  C   UNL     1      18.399  27.954  29.945  1.00  0.00     0.012 A 
ATOM      5  C   UNL     1      18.413  26.834  29.108  1.00  0.00     0.047 A 
ATOM      6  C   UNL     1      18.405  26.991  27.720  1.00  0.00     0.115 A 
ATOM      7  C   UNL     1      18.375  29.400  28.000  1.00  0.00     0.012 A 
ATOM      8  C   UNL     1      18.389  28.277  27.167  1.00  0.00     0.047 A 
BRANCH   6   9
ATOM      9  O   UNL     1      18.419  25.865  26.899  1.00  0.00    -0.508 OA
ATOM     10  H   UNL     1      19.174  25.696  26.245  1.00  0.00     0.293 HD
ENDBRANCH   6   9
ENDBRANCH   1   3
BRANCH   2  11
ATOM     11  C   UNL     1      17.973  31.729  32.330  1.00  0.00     0.189 C 
ATOM     12  O   UNL     1      18.543  32.767  31.893  1.00  0.00    -0.289 OA
BRANCH  11  13
ATOM     13  C   UNL     1      17.262  31.795  33.629  1.00  0.00     0.064 A 
ATOM     14  C   UNL     1      16.680  32.992  34.101  1.00  0.00     0.130 A 
ATOM     15  C   UNL     1      17.142  30.626  34.402  1.00  0.00     0.020 A 
ATOM     16  C   UNL     1      16.029  33.010  35.344  1.00  0.00     0.093 A 
ATOM     17  C   UNL     1      16.486  30.653  35.635  1.00  0.00     0.047 A 
ATOM     18  C   UNL     1      15.932  31.846  36.111  1.00  0.00     0.119 A 
BRANCH  14  19
ATOM     19  O   UNL     1      16.722  34.154  33.330  1.00  0.00    -0.507 OA
ATOM     20  H   UNL     1      17.435  34.298  32.624  1.00  0.00     0.293 HD
ENDBRANCH  14  19
BRANCH  18  21
ATOM     21  O   UNL     1      15.280  31.885  37.341  1.00  0.00    -0.508 OA
ATOM     22  H   UNL     1      15.569  31.296  38.113  1.00  0.00     0.293 HD
ENDBRANCH  18  21
ENDBRANCH  11  13
ENDBRANCH   2  11
TORSDOF 6
ENDMDL
MODEL 5
REMARK VINA RESULT:    -6.112      4.844      8.083
REMARK INTER + INTRA:          -8.191
REMARK INTER:                  -7.560
REMARK INTRA:                  -0.631
REMARK UNBOUND:                -0.471
REMARK SMILES O=C(C=Cc1ccc(O)cc1)c1ccc(O)cc1O
REMARK SMILES IDX 4 1 3 2 5 3 6 4 7 5 8 6 11 7 10 8 9 9 2 11 1 12 12 13 18 14
REMARK SMILES IDX 13 15 17 16 14 17 15 18 19 19 16 21
REMARK H PARENT 9 10 19 20 16 22
REMARK Flexibility Score: inf
ROOT
ATOM      1  C   UNL     1      19.052  24.116  28.124  1.00  0.00     0.012 C 
ATOM      2  C   UNL     1      19.781  24.941  28.888  1.00  0.00     0.053 C 
ENDROOT
BRANCH   1   3
ATOM      3  C   UNL     1      19.059  22.640  28.269  1.00  0.00    -0.025 A 
ATOM      4  C   UNL     1      19.398  21.776  27.208  1.00  0.00     0.012 A 
ATOM      5  C   UNL     1      19.379  20.389  27.391  1.00  0.00     0.047 A 
ATOM      6  C   UNL     1      19.013  19.846  28.625  1.00  0.00     0.115 A 
ATOM      7  C   UNL     1      18.677  22.082  29.501  1.00  0.00     0.012 A 
ATOM      8  C   UNL     1      18.659  20.696  29.680  1.00  0.00     0.047 A 
BRANCH   6   9
ATOM      9  O   UNL     1      18.999  18.463  28.792  1.00  0.00    -0.508 OA
ATOM     10  H   UNL     1      18.894  18.041  29.707  1.00  0.00     0.293 HD
ENDBRANCH   6   9
ENDBRANCH   1   3
BRANCH   2  11
ATOM     11  C   UNL     1      19.736  26.411  28.725  1.00  0.00     0.189 C 
ATOM     12  O   UNL     1      20.057  26.931  27.621  1.00  0.00    -0.289 OA
BRANCH  11  13
ATOM     13  C   UNL     1      19.270  27.289  29.824  1.00  0.00     0.064 A 
ATOM     14  C   UNL     1      18.419  28.392  29.587  1.00  0.00     0.130 A 
ATOM     15  C   UNL     1      19.664  27.000  31.143  1.00  0.00     0.020 A 
ATOM     16  C   UNL     1      18.016  29.205  30.657  1.00  0.00     0.093 A 
ATOM     17  C   UNL     1      19.250  27.812  32.202  1.00  0.00     0.047 A 
ATOM     18  C   UNL     1      18.429  28.918  31.961  1.00  0.00     0.119 A 
BRANCH  14  19
ATOM     19  O   UNL     1      17.956  28.667  28.301  1.00  0.00    -0.507 OA
ATOM     20  H   UNL     1      17.012  28.998  28.134  1.00  0.00     0.293 HD
ENDBRANCH  14  19
BRANCH  18  21
ATOM     21  O   UNL     1      18.014  29.736  33.009  1.00  0.00    -0.508 OA
ATOM     22  H   UNL     1      17.236  30.377  32.905  1.00  0.00     0.293 HD
ENDBRANCH  18  21
ENDBRANCH  11  13
ENDBRANCH   2  11
TORSDOF 6
ENDMDL
MODEL 6
REMARK VINA RESULT:    -6.065      1.624      7.381
REMARK INTER + INTRA:          -8.132
REMARK INTER:                  -7.557
REMARK INTRA:                  -0.576
REMARK UNBOUND:                -0.471
REMARK SMILES O=C(C=Cc1ccc(O)cc1)c1ccc(O)cc1O
REMARK SMILES IDX 4 1 3 2 5 3 6 4 7 5 8 6 11 7 10 8 9 9 2 11 1 12 12 13 18 14
REMARK SMILES IDX 13 15 17 16 14 17 15 18 19 19 16 21
REMARK H PARENT 9 10 19 20 16 22
REMARK Flexibility Score: inf
ROOT
ATOM      1  C   UNL     1      16.630  31.651  34.921  1.00  0.00     0.012 C 
ATOM      2  C   UNL     1      17.206  31.029  33.883  1.00  0.00     0.053 C 
ENDROOT
BRANCH   1   3
ATOM      3  C   UNL     1      16.095  33.033  34.859  1.00  0.00    -0.025 A 
ATOM      4  C   UNL     1      15.920  33.831  36.008  1.00  0.00     0.012 A 
ATOM      5  C   UNL     1      15.401  35.125  35.899  1.00  0.00     0.047 A 
ATOM      6  C   UNL     1      15.042  35.637  34.650  1.00  0.00     0.115 A 
ATOM      7  C   UNL     1      15.715  33.553  33.610  1.00  0.00     0.012 A 
ATOM      8  C   UNL     1      15.197  34.847  33.505  1.00  0.00     0.047 A 
BRANCH   6   9
ATOM      9  O   UNL     1      14.527  36.928  34.557  1.00  0.00    -0.508 OA
ATOM     10  H   UNL     1      14.386  37.503  35.380  1.00  0.00     0.293 HD
ENDBRANCH   6   9
ENDBRANCH   1   3
BRANCH   2  11
ATOM     11  C   UNL     1      17.714  29.643  33.978  1.00  0.00     0.189 C 
ATOM     12  O   UNL     1      17.685  29.037  35.084  1.00  0.00    -0.289 OA
BRANCH  11  13
ATOM     13  C   UNL     1      18.213  28.928  32.779  1.00  0.00     0.064 A 
ATOM     14  C   UNL     1      19.167  27.890  32.874  1.00  0.00     0.130 A 
ATOM     15  C   UNL     1      17.702  29.274  31.515  1.00  0.00     0.020 A 
ATOM     16  C   UNL     1      19.621  27.251  31.710  1.00  0.00     0.093 A 
ATOM     17  C   UNL     1      18.157  28.626  30.364  1.00  0.00     0.047 A 
ATOM     18  C   UNL     1      19.120  27.617  30.458  1.00  0.00     0.119 A 
BRANCH  14  19
ATOM     19  O   UNL     1      19.644  27.477  34.118  1.00  0.00    -0.507 OA
ATOM     20  H   UNL     1      19.346  27.923  34.978  1.00  0.00     0.293 HD
ENDBRANCH  14  19
BRANCH  18  21
ATOM     21  O   UNL     1      19.583  26.968  29.317  1.00  0.00    -0.508 OA
ATOM     22  H   UNL     1      19.203  26.076  29.023  1.00  0.00     0.293 HD
ENDBRANCH  18  21
ENDBRANCH  11  13
ENDBRANCH   2  11
TORSDOF 6
ENDMDL
MODEL 7
REMARK VINA RESULT:    -6.027      2.731      4.075
REMARK INTER + INTRA:          -8.084
REMARK INTER:                  -7.411
REMARK INTRA:                  -0.673
REMARK UNBOUND:                -0.471
REMARK SMILES O=C(C=Cc1ccc(O)cc1)c1ccc(O)cc1O
REMARK SMILES IDX 4 1 3 2 5 3 6 4 7 5 8 6 11 7 10 8 9 9 2 11 1 12 12 13 18 14
REMARK SMILES IDX 13 15 17 16 14 17 15 18 19 19 16 21
REMARK H PARENT 9 10 19 20 16 22
REMARK Flexibility Score: inf
ROOT
ATOM      1  C   UNL     1      18.252  29.775  31.114  1.00  0.00     0.012 C 
ATOM      2  C   UNL     1      17.473  29.380  32.131  1.00  0.00     0.053 C 
ENDROOT
BRANCH   1   3
ATOM      3  C   UNL     1      18.331  29.065  29.814  1.00  0.00    -0.025 A 
ATOM      4  C   UNL     1      18.512  29.741  28.591  1.00  0.00     0.012 A 
ATOM      5  C   UNL     1      18.569  29.027  27.389  1.00  0.00     0.047 A 
ATOM      6  C   UNL     1      18.437  27.636  27.389  1.00  0.00     0.115 A 
ATOM      7  C   UNL     1      18.184  27.667  29.801  1.00  0.00     0.012 A 
ATOM      8  C   UNL     1      18.241  26.957  28.598  1.00  0.00     0.047 A 
BRANCH   6   9
ATOM      9  O   UNL     1      18.496  26.938  26.185  1.00  0.00    -0.508 OA
ATOM     10  H   UNL     1      17.664  26.757  25.636  1.00  0.00     0.293 HD
ENDBRANCH   6   9
ENDBRANCH   1   3
BRANCH   2  11
ATOM     11  C   UNL     1      17.408  30.123  33.408  1.00  0.00     0.189 C 
ATOM     12  O   UNL     1      16.495  30.975  33.594  1.00  0.00    -0.289 OA
BRANCH  11  13
ATOM     13  C   UNL     1      18.369  29.850  34.502  1.00  0.00     0.064 A 
ATOM     14  C   UNL     1      18.755  30.850  35.422  1.00  0.00     0.130 A 
ATOM     15  C   UNL     1      18.893  28.552  34.644  1.00  0.00     0.020 A 
ATOM     16  C   UNL     1      19.681  30.549  36.433  1.00  0.00     0.093 A 
ATOM     17  C   UNL     1      19.808  28.262  35.658  1.00  0.00     0.047 A 
ATOM     18  C   UNL     1      20.208  29.261  36.552  1.00  0.00     0.119 A 
BRANCH  14  19
ATOM     19  O   UNL     1      18.205  32.130  35.352  1.00  0.00    -0.507 OA
ATOM     20  H   UNL     1      17.206  32.275  35.258  1.00  0.00     0.293 HD
ENDBRANCH  14  19
BRANCH  18  21
ATOM     21  O   UNL     1      21.123  28.983  37.565  1.00  0.00    -0.508 OA
ATOM     22  H   UNL     1      21.132  28.088  38.040  1.00  0.00     0.293 HD
ENDBRANCH  18  21
ENDBRANCH  11  13
ENDBRANCH   2  11
TORSDOF 6
ENDMDL
MODEL 8
REMARK VINA RESULT:    -5.987      2.476      3.281
REMARK INTER + INTRA:          -8.033
REMARK INTER:                  -7.492
REMARK INTRA:                  -0.541
REMARK UNBOUND:                -0.471
REMARK SMILES O=C(C=Cc1ccc(O)cc1)c1ccc(O)cc1O
REMARK SMILES IDX 4 1 3 2 5 3 6 4 7 5 8 6 11 7 10 8 9 9 2 11 1 12 12 13 18 14
REMARK SMILES IDX 13 15 17 16 14 17 15 18 19 19 16 21
REMARK H PARENT 9 10 19 20 16 22
REMARK Flexibility Score: inf
ROOT
ATOM      1  C   UNL     1      17.603  29.750  35.013  1.00  0.00     0.012 C 
ATOM      2  C   UNL     1      17.805  31.075  34.976  1.00  0.00     0.053 C 
ENDROOT
BRANCH   1   3
ATOM      3  C   UNL     1      18.382  28.777  34.209  1.00  0.00    -0.025 A 
ATOM      4  C   UNL     1      19.171  27.768  34.797  1.00  0.00     0.012 A 
ATOM      5  C   UNL     1      19.898  26.880  33.996  1.00  0.00     0.047 A 
ATOM      6  C   UNL     1      19.856  26.992  32.604  1.00  0.00     0.115 A 
ATOM      7  C   UNL     1      18.359  28.889  32.808  1.00  0.00     0.012 A 
ATOM      8  C   UNL     1      19.087  28.000  32.011  1.00  0.00     0.047 A 
BRANCH   6   9
ATOM      9  O   UNL     1      20.584  26.100  31.820  1.00  0.00    -0.508 OA
ATOM     10  H   UNL     1      20.343  25.928  30.851  1.00  0.00     0.293 HD
ENDBRANCH   6   9
ENDBRANCH   1   3
BRANCH   2  11
ATOM     11  C   UNL     1      17.019  32.015  35.804  1.00  0.00     0.189 C 
ATOM     12  O   UNL     1      16.987  31.874  37.058  1.00  0.00    -0.289 OA
BRANCH  11  13
ATOM     13  C   UNL     1      16.302  33.159  35.192  1.00  0.00     0.064 A 
ATOM     14  C   UNL     1      15.932  34.295  35.944  1.00  0.00     0.130 A 
ATOM     15  C   UNL     1      16.005  33.122  33.817  1.00  0.00     0.020 A 
ATOM     16  C   UNL     1      15.240  35.348  35.324  1.00  0.00     0.093 A 
ATOM     17  C   UNL     1      15.323  34.179  33.209  1.00  0.00     0.047 A 
ATOM     18  C   UNL     1      14.935  35.292  33.962  1.00  0.00     0.119 A 
BRANCH  14  19
ATOM     19  O   UNL     1      16.269  34.394  37.294  1.00  0.00    -0.507 OA
ATOM     20  H   UNL     1      15.564  34.523  38.010  1.00  0.00     0.293 HD
ENDBRANCH  14  19
BRANCH  18  21
ATOM     21  O   UNL     1      14.251  36.348  33.367  1.00  0.00    -0.508 OA
ATOM     22  H   UNL     1      13.710  36.219  32.520  1.00  0.00     0.293 HD
ENDBRANCH  18  21
ENDBRANCH  11  13
ENDBRANCH   2  11
TORSDOF 6
ENDMDL
MODEL 9
REMARK VINA RESULT:    -5.929      1.739      2.346
REMARK INTER + INTRA:          -7.960
REMARK INTER:                  -7.222
REMARK INTRA:                  -0.738
REMARK UNBOUND:                -0.471
REMARK SMILES O=C(C=Cc1ccc(O)cc1)c1ccc(O)cc1O
REMARK SMILES IDX 4 1 3 2 5 3 6 4 7 5 8 6 11 7 10 8 9 9 2 11 1 12 12 13 18 14
REMARK SMILES IDX 13 15 17 16 14 17 15 18 19 19 16 21
REMARK H PARENT 9 10 19 20 16 22
REMARK Flexibility Score: inf
ROOT
ATOM      1  C   UNL     1      17.991  28.942  31.354  1.00  0.00     0.012 C 
ATOM      2  C   UNL     1      18.747  28.556  32.391  1.00  0.00     0.053 C 
ENDROOT
BRANCH   1   3
ATOM      3  C   UNL     1      18.279  28.577  29.945  1.00  0.00    -0.025 A 
ATOM      4  C   UNL     1      18.376  29.538  28.918  1.00  0.00     0.012 A 
ATOM      5  C   UNL     1      18.638  29.143  27.602  1.00  0.00     0.047 A 
ATOM      6  C   UNL     1      18.796  27.791  27.290  1.00  0.00     0.115 A 
ATOM      7  C   UNL     1      18.424  27.218  29.617  1.00  0.00     0.012 A 
ATOM      8  C   UNL     1      18.686  26.828  28.301  1.00  0.00     0.047 A 
BRANCH   6   9
ATOM      9  O   UNL     1      19.058  27.413  25.975  1.00  0.00    -0.508 OA
ATOM     10  H   UNL     1      19.943  26.998  25.709  1.00  0.00     0.293 HD
ENDBRANCH   6   9
ENDBRANCH   1   3
BRANCH   2  11
ATOM     11  C   UNL     1      18.420  28.926  33.785  1.00  0.00     0.189 C 
ATOM     12  O   UNL     1      18.514  28.065  34.703  1.00  0.00    -0.289 OA
BRANCH  11  13
ATOM     13  C   UNL     1      18.029  30.312  34.137  1.00  0.00     0.064 A 
ATOM     14  C   UNL     1      16.776  30.608  34.719  1.00  0.00     0.130 A 
ATOM     15  C   UNL     1      18.941  31.357  33.909  1.00  0.00     0.020 A 
ATOM     16  C   UNL     1      16.443  31.937  35.021  1.00  0.00     0.093 A 
ATOM     17  C   UNL     1      18.602  32.676  34.221  1.00  0.00     0.047 A 
ATOM     18  C   UNL     1      17.351  32.970  34.773  1.00  0.00     0.119 A 
BRANCH  14  19
ATOM     19  O   UNL     1      15.874  29.587  35.019  1.00  0.00    -0.507 OA
ATOM     20  H   UNL     1      16.078  28.617  34.808  1.00  0.00     0.293 HD
ENDBRANCH  14  19
BRANCH  18  21
ATOM     21  O   UNL     1      17.002  34.282  35.083  1.00  0.00    -0.508 OA
ATOM     22  H   UNL     1      16.156  34.705  34.719  1.00  0.00     0.293 HD
ENDBRANCH  18  21
ENDBRANCH  11  13
ENDBRANCH   2  11
TORSDOF 6
ENDMDL
