MODEL 1
REMARK VINA RESULT:    -3.764      0.000      0.000
REMARK INTER + INTRA:         -12.452
REMARK INTER:                  -8.606
REMARK INTRA:                  -3.846
REMARK UNBOUND:                -3.846
REMARK SMILES CCCCCCCCCCCCCCCCCCCCCCCC(=O)[O-]
REMARK SMILES IDX 13 1 14 2 15 3 16 4 17 5 18 6 19 7 20 8 21 9 22 10 23 11
REMARK SMILES IDX 24 12 25 13 26 14 12 15 11 16 10 17 9 18 8 19 7 20 6 21 5 22
REMARK SMILES IDX 4 23 3 24 2 25 1 26
REMARK H PARENT
REMARK Flexibility Score: inf
ROOT
ATOM      1  C   UNL     1     129.700 141.850 121.086  1.00  0.00     0.000 C 
ENDROOT
BRANCH   1   2
ATOM      2  C   UNL     1     128.545 141.035 120.481  1.00  0.00     0.000 C 
BRANCH   2   3
ATOM      3  C   UNL     1     127.222 141.811 120.449  1.00  0.00     0.000 C 
BRANCH   3   4
ATOM      4  C   UNL     1     127.424 143.250 120.939  1.00  0.00     0.000 C 
BRANCH   4   5
ATOM      5  C   UNL     1     127.242 144.256 119.790  1.00  0.00     0.000 C 
BRANCH   5   6
ATOM      6  C   UNL     1     127.189 145.713 120.278  1.00  0.00     0.000 C 
BRANCH   6   7
ATOM      7  C   UNL     1     127.127 145.825 121.811  1.00  0.00     0.000 C 
BRANCH   7   8
ATOM      8  C   UNL     1     128.426 146.389 122.414  1.00  0.00     0.000 C 
BRANCH   8   9
ATOM      9  C   UNL     1     128.284 146.730 123.904  1.00  0.00     0.000 C 
BRANCH   9  10
ATOM     10  C   UNL     1     127.072 146.009 124.514  1.00  0.00     0.006 C 
BRANCH  10  11
ATOM     11  C   UNL     1     127.430 145.237 125.790  1.00  0.00     0.053 C 
BRANCH  11  12
ATOM     12  C   UNL     1     127.990 143.872 125.502  1.00  0.00     0.041 C 
ATOM     13  O   UNL     1     128.979 143.450 126.153  1.00  0.00    -0.550 OA
ATOM     14  O   UNL     1     127.493 143.123 124.441  1.00  0.00    -0.550 OA
ENDBRANCH  11  12
ENDBRANCH  10  11
ENDBRANCH   9  10
ENDBRANCH   8   9
ENDBRANCH   7   8
ENDBRANCH   6   7
ENDBRANCH   5   6
ENDBRANCH   4   5
ENDBRANCH   3   4
ENDBRANCH   2   3
ENDBRANCH   1   2
BRANCH   1  15
ATOM     15  C   UNL     1     130.897 142.023 120.125  1.00  0.00     0.000 C 
BRANCH  15  16
ATOM     16  C   UNL     1     130.885 143.391 119.418  1.00  0.00     0.000 C 
BRANCH  16  17
ATOM     17  C   UNL     1     130.883 144.558 120.423  1.00  0.00     0.000 C 
BRANCH  17  18
ATOM     18  C   UNL     1     130.815 145.930 119.724  1.00  0.00    -0.000 C 
BRANCH  18  19
ATOM     19  C   UNL     1     131.615 147.013 120.471  1.00  0.00    -0.000 C 
BRANCH  19  20
ATOM     20  C   UNL     1     132.382 146.438 121.678  1.00  0.00    -0.000 C 
BRANCH  20  21
ATOM     21  C   UNL     1     133.911 146.586 121.523  1.00  0.00    -0.000 C 
BRANCH  21  22
ATOM     22  C   UNL     1     134.703 145.421 122.145  1.00  0.00    -0.000 C 
BRANCH  22  23
ATOM     23  C   UNL     1     135.445 144.581 121.097  1.00  0.00    -0.000 C 
BRANCH  23  24
ATOM     24  C   UNL     1     134.463 143.732 120.273  1.00  0.00    -0.000 C 
BRANCH  24  25
ATOM     25  C   UNL     1     134.625 143.939 118.759  1.00  0.00    -0.003 C 
ATOM     26  C   UNL     1     134.870 145.402 118.371  1.00  0.00     0.004 C 
ENDBRANCH  24  25
ENDBRANCH  23  24
ENDBRANCH  22  23
ENDBRANCH  21  22
ENDBRANCH  20  21
ENDBRANCH  19  20
ENDBRANCH  18  19
ENDBRANCH  17  18
ENDBRANCH  16  17
ENDBRANCH  15  16
ENDBRANCH   1  15
TORSDOF 22
ENDMDL
MODEL 2
REMARK VINA RESULT:    -3.741      1.733      3.919
REMARK INTER + INTRA:         -12.400
REMARK INTER:                  -8.024
REMARK INTRA:                  -4.375
REMARK UNBOUND:                -3.846
REMARK SMILES CCCCCCCCCCCCCCCCCCCCCCCC(=O)[O-]
REMARK SMILES IDX 13 1 14 2 15 3 16 4 17 5 18 6 19 7 20 8 21 9 22 10 23 11
REMARK SMILES IDX 24 12 25 13 26 14 12 15 11 16 10 17 9 18 8 19 7 20 6 21 5 22
REMARK SMILES IDX 4 23 3 24 2 25 1 26
REMARK H PARENT
REMARK Flexibility Score: inf
ROOT
ATOM      1  C   UNL     1     129.857 146.046 120.879  1.00  0.00     0.000 C 
ENDROOT
BRANCH   1   2
ATOM      2  C   UNL     1     128.354 145.736 120.790  1.00  0.00     0.000 C 
BRANCH   2   3
ATOM      3  C   UNL     1     127.917 145.308 119.383  1.00  0.00     0.000 C 
BRANCH   3   4
ATOM      4  C   UNL     1     127.808 143.781 119.289  1.00  0.00     0.000 C 
BRANCH   4   5
ATOM      5  C   UNL     1     127.160 143.194 120.554  1.00  0.00     0.000 C 
BRANCH   5   6
ATOM      6  C   UNL     1     127.517 141.715 120.774  1.00  0.00     0.000 C 
BRANCH   6   7
ATOM      7  C   UNL     1     128.117 141.449 122.165  1.00  0.00     0.000 C 
BRANCH   7   8
ATOM      8  C   UNL     1     128.298 142.737 122.986  1.00  0.00     0.000 C 
BRANCH   8   9
ATOM      9  C   UNL     1     128.151 142.500 124.495  1.00  0.00     0.000 C 
BRANCH   9  10
ATOM     10  C   UNL     1     128.239 143.826 125.266  1.00  0.00     0.006 C 
BRANCH  10  11
ATOM     11  C   UNL     1     128.414 145.034 124.337  1.00  0.00     0.053 C 
BRANCH  11  12
ATOM     12  C   UNL     1     129.326 146.079 124.914  1.00  0.00     0.041 C 
ATOM     13  O   UNL     1     129.579 147.123 124.259  1.00  0.00    -0.550 OA
ATOM     14  O   UNL     1     129.984 145.845 126.117  1.00  0.00    -0.550 OA
ENDBRANCH  11  12
ENDBRANCH  10  11
ENDBRANCH   9  10
ENDBRANCH   8   9
ENDBRANCH   7   8
ENDBRANCH   6   7
ENDBRANCH   5   6
ENDBRANCH   4   5
ENDBRANCH   3   4
ENDBRANCH   2   3
ENDBRANCH   1   2
BRANCH   1  15
ATOM     15  C   UNL     1     130.479 146.466 119.529  1.00  0.00     0.000 C 
BRANCH  15  16
ATOM     16  C   UNL     1     131.861 147.125 119.702  1.00  0.00     0.000 C 
BRANCH  16  17
ATOM     17  C   UNL     1     132.518 146.741 121.041  1.00  0.00     0.000 C 
BRANCH  17  18
ATOM     18  C   UNL     1     133.876 146.038 120.844  1.00  0.00    -0.000 C 
BRANCH  18  19
ATOM     19  C   UNL     1     134.320 146.016 119.371  1.00  0.00    -0.000 C 
BRANCH  19  20
ATOM     20  C   UNL     1     134.225 144.606 118.757  1.00  0.00    -0.000 C 
BRANCH  20  21
ATOM     21  C   UNL     1     133.528 143.603 119.701  1.00  0.00    -0.000 C 
BRANCH  21  22
ATOM     22  C   UNL     1     132.102 143.232 119.254  1.00  0.00    -0.000 C 
BRANCH  22  23
ATOM     23  C   UNL     1     131.294 142.539 120.358  1.00  0.00    -0.000 C 
BRANCH  23  24
ATOM     24  C   UNL     1     131.727 143.027 121.750  1.00  0.00    -0.000 C 
BRANCH  24  25
ATOM     25  C   UNL     1     132.451 141.940 122.561  1.00  0.00    -0.003 C 
ATOM     26  C   UNL     1     131.538 141.224 123.563  1.00  0.00     0.004 C 
ENDBRANCH  24  25
ENDBRANCH  23  24
ENDBRANCH  22  23
ENDBRANCH  21  22
ENDBRANCH  20  21
ENDBRANCH  19  20
ENDBRANCH  18  19
ENDBRANCH  17  18
ENDBRANCH  16  17
ENDBRANCH  15  16
ENDBRANCH   1  15
TORSDOF 22
ENDMDL
MODEL 3
REMARK VINA RESULT:    -3.694      1.850      4.203
REMARK INTER + INTRA:         -12.292
REMARK INTER:                  -8.004
REMARK INTRA:                  -4.289
REMARK UNBOUND:                -3.846
REMARK SMILES CCCCCCCCCCCCCCCCCCCCCCCC(=O)[O-]
REMARK SMILES IDX 13 1 14 2 15 3 16 4 17 5 18 6 19 7 20 8 21 9 22 10 23 11
REMARK SMILES IDX 24 12 25 13 26 14 12 15 11 16 10 17 9 18 8 19 7 20 6 21 5 22
REMARK SMILES IDX 4 23 3 24 2 25 1 26
REMARK H PARENT
REMARK Flexibility Score: inf
ROOT
ATOM      1  C   UNL     1     130.612 145.336 122.913  1.00  0.00     0.000 C 
ENDROOT
BRANCH   1   2
ATOM      2  C   UNL     1     129.617 144.216 123.258  1.00  0.00     0.000 C 
BRANCH   2   3
ATOM      3  C   UNL     1     128.155 144.675 123.183  1.00  0.00     0.000 C 
BRANCH   3   4
ATOM      4  C   UNL     1     128.062 146.204 123.228  1.00  0.00     0.000 C 
BRANCH   4   5
ATOM      5  C   UNL     1     127.182 146.738 122.085  1.00  0.00     0.000 C 
BRANCH   5   6
ATOM      6  C   UNL     1     126.930 145.689 120.989  1.00  0.00     0.000 C 
BRANCH   6   7
ATOM      7  C   UNL     1     127.843 145.875 119.765  1.00  0.00     0.000 C 
BRANCH   7   8
ATOM      8  C   UNL     1     128.320 144.537 119.176  1.00  0.00     0.000 C 
BRANCH   8   9
ATOM      9  C   UNL     1     127.559 143.335 119.754  1.00  0.00     0.000 C 
BRANCH   9  10
ATOM     10  C   UNL     1     128.537 142.292 120.317  1.00  0.00     0.006 C 
BRANCH  10  11
ATOM     11  C   UNL     1     127.990 140.862 120.221  1.00  0.00     0.053 C 
BRANCH  11  12
ATOM     12  C   UNL     1     127.687 140.267 121.567  1.00  0.00     0.041 C 
ATOM     13  O   UNL     1     126.989 139.224 121.649  1.00  0.00    -0.550 OA
ATOM     14  O   UNL     1     128.077 140.929 122.727  1.00  0.00    -0.550 OA
ENDBRANCH  11  12
ENDBRANCH  10  11
ENDBRANCH   9  10
ENDBRANCH   8   9
ENDBRANCH   7   8
ENDBRANCH   6   7
ENDBRANCH   5   6
ENDBRANCH   4   5
ENDBRANCH   3   4
ENDBRANCH   2   3
ENDBRANCH   1   2
BRANCH   1  15
ATOM     15  C   UNL     1     131.076 145.313 121.439  1.00  0.00     0.000 C 
BRANCH  15  16
ATOM     16  C   UNL     1     131.181 146.728 120.838  1.00  0.00     0.000 C 
BRANCH  16  17
ATOM     17  C   UNL     1     132.203 146.790 119.688  1.00  0.00     0.000 C 
BRANCH  17  18
ATOM     18  C   UNL     1     133.591 146.269 120.112  1.00  0.00    -0.000 C 
BRANCH  18  19
ATOM     19  C   UNL     1     134.613 146.313 118.963  1.00  0.00    -0.000 C 
BRANCH  19  20
ATOM     20  C   UNL     1     134.840 144.924 118.334  1.00  0.00    -0.000 C 
BRANCH  20  21
ATOM     21  C   UNL     1     134.356 143.780 119.252  1.00  0.00    -0.000 C 
BRANCH  21  22
ATOM     22  C   UNL     1     133.028 143.149 118.793  1.00  0.00    -0.000 C 
BRANCH  22  23
ATOM     23  C   UNL     1     132.386 142.266 119.871  1.00  0.00    -0.000 C 
BRANCH  23  24
ATOM     24  C   UNL     1     133.392 141.933 120.984  1.00  0.00    -0.000 C 
BRANCH  24  25
ATOM     25  C   UNL     1     132.935 142.428 122.365  1.00  0.00    -0.003 C 
ATOM     26  C   UNL     1     133.910 143.424 123.004  1.00  0.00     0.004 C 
ENDBRANCH  24  25
ENDBRANCH  23  24
ENDBRANCH  22  23
ENDBRANCH  21  22
ENDBRANCH  20  21
ENDBRANCH  19  20
ENDBRANCH  18  19
ENDBRANCH  17  18
ENDBRANCH  16  17
ENDBRANCH  15  16
ENDBRANCH   1  15
TORSDOF 22
ENDMDL
MODEL 4
REMARK VINA RESULT:    -3.684      2.880      6.076
REMARK INTER + INTRA:         -12.267
REMARK INTER:                  -7.613
REMARK INTRA:                  -4.654
REMARK UNBOUND:                -3.846
REMARK SMILES CCCCCCCCCCCCCCCCCCCCCCCC(=O)[O-]
REMARK SMILES IDX 13 1 14 2 15 3 16 4 17 5 18 6 19 7 20 8 21 9 22 10 23 11
REMARK SMILES IDX 24 12 25 13 26 14 12 15 11 16 10 17 9 18 8 19 7 20 6 21 5 22
REMARK SMILES IDX 4 23 3 24 2 25 1 26
REMARK H PARENT
REMARK Flexibility Score: inf
ROOT
ATOM      1  C   UNL     1     129.348 146.026 119.961  1.00  0.00     0.000 C 
ENDROOT
BRANCH   1   2
ATOM      2  C   UNL     1     127.903 145.577 119.688  1.00  0.00     0.000 C 
BRANCH   2   3
ATOM      3  C   UNL     1     127.824 144.204 119.009  1.00  0.00     0.000 C 
BRANCH   3   4
ATOM      4  C   UNL     1     127.495 143.110 120.032  1.00  0.00     0.000 C 
BRANCH   4   5
ATOM      5  C   UNL     1     128.613 142.056 120.093  1.00  0.00     0.000 C 
BRANCH   5   6
ATOM      6  C   UNL     1     129.839 142.536 120.888  1.00  0.00     0.000 C 
BRANCH   6   7
ATOM      7  C   UNL     1     131.169 142.161 120.212  1.00  0.00     0.000 C 
BRANCH   7   8
ATOM      8  C   UNL     1     131.763 143.321 119.395  1.00  0.00     0.000 C 
BRANCH   8   9
ATOM      9  C   UNL     1     132.965 143.976 120.089  1.00  0.00     0.000 C 
BRANCH   9  10
ATOM     10  C   UNL     1     133.009 145.483 119.794  1.00  0.00     0.006 C 
BRANCH  10  11
ATOM     11  C   UNL     1     133.269 146.320 121.053  1.00  0.00     0.053 C 
BRANCH  11  12
ATOM     12  C   UNL     1     134.711 146.300 121.473  1.00  0.00     0.041 C 
ATOM     13  O   UNL     1     135.049 145.701 122.526  1.00  0.00    -0.550 OA
ATOM     14  O   UNL     1     135.655 147.040 120.768  1.00  0.00    -0.550 OA
ENDBRANCH  11  12
ENDBRANCH  10  11
ENDBRANCH   9  10
ENDBRANCH   8   9
ENDBRANCH   7   8
ENDBRANCH   6   7
ENDBRANCH   5   6
ENDBRANCH   4   5
ENDBRANCH   3   4
ENDBRANCH   2   3
ENDBRANCH   1   2
BRANCH   1  15
ATOM     15  C   UNL     1     129.667 146.188 121.463  1.00  0.00     0.000 C 
BRANCH  15  16
ATOM     16  C   UNL     1     128.557 145.609 122.362  1.00  0.00     0.000 C 
BRANCH  16  17
ATOM     17  C   UNL     1     128.259 146.520 123.567  1.00  0.00     0.000 C 
BRANCH  17  18
ATOM     18  C   UNL     1     127.455 145.793 124.663  1.00  0.00    -0.000 C 
BRANCH  18  19
ATOM     19  C   UNL     1     128.290 145.524 125.927  1.00  0.00    -0.000 C 
BRANCH  19  20
ATOM     20  C   UNL     1     128.397 144.019 126.242  1.00  0.00    -0.000 C 
BRANCH  20  21
ATOM     21  C   UNL     1     128.126 143.141 125.002  1.00  0.00    -0.000 C 
BRANCH  21  22
ATOM     22  C   UNL     1     129.382 142.420 124.478  1.00  0.00    -0.000 C 
BRANCH  22  23
ATOM     23  C   UNL     1     130.685 143.045 124.994  1.00  0.00    -0.000 C 
BRANCH  23  24
ATOM     24  C   UNL     1     131.443 143.756 123.861  1.00  0.00    -0.000 C 
BRANCH  24  25
ATOM     25  C   UNL     1     131.928 145.159 124.261  1.00  0.00    -0.003 C 
ATOM     26  C   UNL     1     131.904 145.399 125.774  1.00  0.00     0.004 C 
ENDBRANCH  24  25
ENDBRANCH  23  24
ENDBRANCH  22  23
ENDBRANCH  21  22
ENDBRANCH  20  21
ENDBRANCH  19  20
ENDBRANCH  18  19
ENDBRANCH  17  18
ENDBRANCH  16  17
ENDBRANCH  15  16
ENDBRANCH   1  15
TORSDOF 22
ENDMDL
MODEL 5
REMARK VINA RESULT:    -3.666      2.847      5.629
REMARK INTER + INTRA:         -12.227
REMARK INTER:                  -7.532
REMARK INTRA:                  -4.695
REMARK UNBOUND:                -3.846
REMARK SMILES CCCCCCCCCCCCCCCCCCCCCCCC(=O)[O-]
REMARK SMILES IDX 13 1 14 2 15 3 16 4 17 5 18 6 19 7 20 8 21 9 22 10 23 11
REMARK SMILES IDX 24 12 25 13 26 14 12 15 11 16 10 17 9 18 8 19 7 20 6 21 5 22
REMARK SMILES IDX 4 23 3 24 2 25 1 26
REMARK H PARENT
REMARK Flexibility Score: inf
ROOT
ATOM      1  C   UNL     1     129.834 142.930 122.189  1.00  0.00     0.000 C 
ENDROOT
BRANCH   1   2
ATOM      2  C   UNL     1     129.645 142.304 120.798  1.00  0.00     0.000 C 
BRANCH   2   3
ATOM      3  C   UNL     1     128.211 141.814 120.556  1.00  0.00     0.000 C 
BRANCH   3   4
ATOM      4  C   UNL     1     127.258 142.998 120.360  1.00  0.00     0.000 C 
BRANCH   4   5
ATOM      5  C   UNL     1     127.885 144.069 119.452  1.00  0.00     0.000 C 
BRANCH   5   6
ATOM      6  C   UNL     1     127.660 145.497 119.976  1.00  0.00     0.000 C 
BRANCH   6   7
ATOM      7  C   UNL     1     128.955 146.158 120.479  1.00  0.00     0.000 C 
BRANCH   7   8
ATOM      8  C   UNL     1     130.174 145.799 119.612  1.00  0.00     0.000 C 
BRANCH   8   9
ATOM      9  C   UNL     1     131.361 146.744 119.845  1.00  0.00     0.000 C 
BRANCH   9  10
ATOM     10  C   UNL     1     132.691 145.980 119.757  1.00  0.00     0.006 C 
BRANCH  10  11
ATOM     11  C   UNL     1     132.591 144.560 120.329  1.00  0.00     0.053 C 
BRANCH  11  12
ATOM     12  C   UNL     1     133.149 143.522 119.397  1.00  0.00     0.041 C 
ATOM     13  O   UNL     1     132.391 142.943 118.577  1.00  0.00    -0.550 OA
ATOM     14  O   UNL     1     134.473 143.113 119.519  1.00  0.00    -0.550 OA
ENDBRANCH  11  12
ENDBRANCH  10  11
ENDBRANCH   9  10
ENDBRANCH   8   9
ENDBRANCH   7   8
ENDBRANCH   6   7
ENDBRANCH   5   6
ENDBRANCH   4   5
ENDBRANCH   3   4
ENDBRANCH   2   3
ENDBRANCH   1   2
BRANCH   1  15
ATOM     15  C   UNL     1     129.176 142.116 123.324  1.00  0.00     0.000 C 
BRANCH  15  16
ATOM     16  C   UNL     1     128.142 142.943 124.113  1.00  0.00     0.000 C 
BRANCH  16  17
ATOM     17  C   UNL     1     128.173 144.431 123.716  1.00  0.00     0.000 C 
BRANCH  17  18
ATOM     18  C   UNL     1     127.608 145.341 124.824  1.00  0.00    -0.000 C 
BRANCH  18  19
ATOM     19  C   UNL     1     127.207 144.556 126.085  1.00  0.00    -0.000 C 
BRANCH  19  20
ATOM     20  C   UNL     1     127.903 145.097 127.350  1.00  0.00    -0.000 C 
BRANCH  20  21
ATOM     21  C   UNL     1     129.409 145.351 127.126  1.00  0.00    -0.000 C 
BRANCH  21  22
ATOM     22  C   UNL     1     130.234 144.056 126.998  1.00  0.00    -0.000 C 
BRANCH  22  23
ATOM     23  C   UNL     1     131.223 144.095 125.827  1.00  0.00    -0.000 C 
BRANCH  23  24
ATOM     24  C   UNL     1     131.466 145.537 125.355  1.00  0.00    -0.000 C 
BRANCH  24  25
ATOM     25  C   UNL     1     131.613 145.647 123.829  1.00  0.00    -0.003 C 
ATOM     26  C   UNL     1     132.520 146.802 123.390  1.00  0.00     0.004 C 
ENDBRANCH  24  25
ENDBRANCH  23  24
ENDBRANCH  22  23
ENDBRANCH  21  22
ENDBRANCH  20  21
ENDBRANCH  19  20
ENDBRANCH  18  19
ENDBRANCH  17  18
ENDBRANCH  16  17
ENDBRANCH  15  16
ENDBRANCH   1  15
TORSDOF 22
ENDMDL
MODEL 6
REMARK VINA RESULT:    -3.665      3.059      6.408
REMARK INTER + INTRA:         -12.225
REMARK INTER:                  -7.883
REMARK INTRA:                  -4.342
REMARK UNBOUND:                -3.846
REMARK SMILES CCCCCCCCCCCCCCCCCCCCCCCC(=O)[O-]
REMARK SMILES IDX 13 1 14 2 15 3 16 4 17 5 18 6 19 7 20 8 21 9 22 10 23 11
REMARK SMILES IDX 24 12 25 13 26 14 12 15 11 16 10 17 9 18 8 19 7 20 6 21 5 22
REMARK SMILES IDX 4 23 3 24 2 25 1 26
REMARK H PARENT
REMARK Flexibility Score: inf
ROOT
ATOM      1  C   UNL     1     128.398 145.924 121.816  1.00  0.00     0.000 C 
ENDROOT
BRANCH   1   2
ATOM      2  C   UNL     1     128.024 146.098 120.335  1.00  0.00     0.000 C 
BRANCH   2   3
ATOM      3  C   UNL     1     127.785 144.762 119.620  1.00  0.00     0.000 C 
BRANCH   3   4
ATOM      4  C   UNL     1     127.263 143.706 120.602  1.00  0.00     0.000 C 
BRANCH   4   5
ATOM      5  C   UNL     1     128.052 142.392 120.470  1.00  0.00     0.000 C 
BRANCH   5   6
ATOM      6  C   UNL     1     128.939 142.106 121.693  1.00  0.00     0.000 C 
BRANCH   6   7
ATOM      7  C   UNL     1     130.399 142.541 121.483  1.00  0.00     0.000 C 
BRANCH   7   8
ATOM      8  C   UNL     1     130.852 142.399 120.020  1.00  0.00     0.000 C 
BRANCH   8   9
ATOM      9  C   UNL     1     131.499 143.681 119.476  1.00  0.00     0.000 C 
BRANCH   9  10
ATOM     10  C   UNL     1     131.608 144.745 120.579  1.00  0.00     0.006 C 
BRANCH  10  11
ATOM     11  C   UNL     1     131.869 146.148 120.017  1.00  0.00     0.053 C 
BRANCH  11  12
ATOM     12  C   UNL     1     133.327 146.508 120.014  1.00  0.00     0.041 C 
ATOM     13  O   UNL     1     133.906 146.792 121.095  1.00  0.00    -0.550 OA
ATOM     14  O   UNL     1     134.012 146.643 118.811  1.00  0.00    -0.550 OA
ENDBRANCH  11  12
ENDBRANCH  10  11
ENDBRANCH   9  10
ENDBRANCH   8   9
ENDBRANCH   7   8
ENDBRANCH   6   7
ENDBRANCH   5   6
ENDBRANCH   4   5
ENDBRANCH   3   4
ENDBRANCH   2   3
ENDBRANCH   1   2
BRANCH   1  15
ATOM     15  C   UNL     1     127.495 146.730 122.776  1.00  0.00     0.000 C 
BRANCH  15  16
ATOM     16  C   UNL     1     127.406 146.086 124.173  1.00  0.00     0.000 C 
BRANCH  16  17
ATOM     17  C   UNL     1     128.039 144.682 124.201  1.00  0.00     0.000 C 
BRANCH  17  18
ATOM     18  C   UNL     1     128.067 144.083 125.620  1.00  0.00    -0.000 C 
BRANCH  18  19
ATOM     19  C   UNL     1     127.790 145.133 126.710  1.00  0.00    -0.000 C 
BRANCH  19  20
ATOM     20  C   UNL     1     128.461 144.771 128.049  1.00  0.00    -0.000 C 
BRANCH  20  21
ATOM     21  C   UNL     1     129.179 145.978 128.689  1.00  0.00    -0.000 C 
BRANCH  21  22
ATOM     22  C   UNL     1     130.331 146.529 127.828  1.00  0.00    -0.000 C 
BRANCH  22  23
ATOM     23  C   UNL     1     131.411 145.479 127.538  1.00  0.00    -0.000 C 
BRANCH  23  24
ATOM     24  C   UNL     1     131.572 145.255 126.026  1.00  0.00    -0.000 C 
BRANCH  24  25
ATOM     25  C   UNL     1     131.040 146.431 125.191  1.00  0.00    -0.003 C 
ATOM     26  C   UNL     1     131.744 146.580 123.838  1.00  0.00     0.004 C 
ENDBRANCH  24  25
ENDBRANCH  23  24
ENDBRANCH  22  23
ENDBRANCH  21  22
ENDBRANCH  20  21
ENDBRANCH  19  20
ENDBRANCH  18  19
ENDBRANCH  17  18
ENDBRANCH  16  17
ENDBRANCH  15  16
ENDBRANCH   1  15
TORSDOF 22
ENDMDL
MODEL 7
REMARK VINA RESULT:    -3.622      1.229      5.213
REMARK INTER + INTRA:         -12.127
REMARK INTER:                  -8.030
REMARK INTRA:                  -4.097
REMARK UNBOUND:                -3.846
REMARK SMILES CCCCCCCCCCCCCCCCCCCCCCCC(=O)[O-]
REMARK SMILES IDX 13 1 14 2 15 3 16 4 17 5 18 6 19 7 20 8 21 9 22 10 23 11
REMARK SMILES IDX 24 12 25 13 26 14 12 15 11 16 10 17 9 18 8 19 7 20 6 21 5 22
REMARK SMILES IDX 4 23 3 24 2 25 1 26
REMARK H PARENT
REMARK Flexibility Score: inf
ROOT
ATOM      1  C   UNL     1     134.798 146.343 121.517  1.00  0.00     0.000 C 
ENDROOT
BRANCH   1   2
ATOM      2  C   UNL     1     133.341 146.741 121.229  1.00  0.00     0.000 C 
BRANCH   2   3
ATOM      3  C   UNL     1     132.343 146.079 122.187  1.00  0.00     0.000 C 
BRANCH   3   4
ATOM      4  C   UNL     1     130.949 146.001 121.553  1.00  0.00     0.000 C 
BRANCH   4   5
ATOM      5  C   UNL     1     131.042 145.958 120.019  1.00  0.00     0.000 C 
BRANCH   5   6
ATOM      6  C   UNL     1     129.719 146.340 119.333  1.00  0.00     0.000 C 
BRANCH   6   7
ATOM      7  C   UNL     1     128.755 145.149 119.197  1.00  0.00     0.000 C 
BRANCH   7   8
ATOM      8  C   UNL     1     127.287 145.551 119.423  1.00  0.00     0.000 C 
BRANCH   8   9
ATOM      9  C   UNL     1     127.015 146.005 120.864  1.00  0.00     0.000 C 
BRANCH   9  10
ATOM     10  C   UNL     1     127.512 144.954 121.868  1.00  0.00     0.006 C 
BRANCH  10  11
ATOM     11  C   UNL     1     127.700 145.531 123.277  1.00  0.00     0.053 C 
BRANCH  11  12
ATOM     12  C   UNL     1     128.281 144.532 124.237  1.00  0.00     0.041 C 
ATOM     13  O   UNL     1     127.567 143.593 124.673  1.00  0.00    -0.550 OA
ATOM     14  O   UNL     1     129.566 144.710 124.737  1.00  0.00    -0.550 OA
ENDBRANCH  11  12
ENDBRANCH  10  11
ENDBRANCH   9  10
ENDBRANCH   8   9
ENDBRANCH   7   8
ENDBRANCH   6   7
ENDBRANCH   5   6
ENDBRANCH   4   5
ENDBRANCH   3   4
ENDBRANCH   2   3
ENDBRANCH   1   2
BRANCH   1  15
ATOM     15  C   UNL     1     135.675 146.265 120.247  1.00  0.00     0.000 C 
BRANCH  15  16
ATOM     16  C   UNL     1     134.847 145.962 118.984  1.00  0.00     0.000 C 
BRANCH  16  17
ATOM     17  C   UNL     1     135.003 144.498 118.531  1.00  0.00     0.000 C 
BRANCH  17  18
ATOM     18  C   UNL     1     133.695 143.698 118.685  1.00  0.00    -0.000 C 
BRANCH  18  19
ATOM     19  C   UNL     1     133.507 143.144 120.108  1.00  0.00    -0.000 C 
BRANCH  19  20
ATOM     20  C   UNL     1     132.526 141.955 120.143  1.00  0.00    -0.000 C 
BRANCH  20  21
ATOM     21  C   UNL     1     131.055 142.414 120.254  1.00  0.00    -0.000 C 
BRANCH  21  22
ATOM     22  C   UNL     1     130.523 142.413 121.699  1.00  0.00    -0.000 C 
BRANCH  22  23
ATOM     23  C   UNL     1     129.167 141.710 121.833  1.00  0.00    -0.000 C 
BRANCH  23  24
ATOM     24  C   UNL     1     128.406 141.718 120.497  1.00  0.00    -0.000 C 
BRANCH  24  25
ATOM     25  C   UNL     1     127.140 140.847 120.530  1.00  0.00    -0.003 C 
ATOM     26  C   UNL     1     127.322 139.543 121.315  1.00  0.00     0.004 C 
ENDBRANCH  24  25
ENDBRANCH  23  24
ENDBRANCH  22  23
ENDBRANCH  21  22
ENDBRANCH  20  21
ENDBRANCH  19  20
ENDBRANCH  18  19
ENDBRANCH  17  18
ENDBRANCH  16  17
ENDBRANCH  15  16
ENDBRANCH   1  15
TORSDOF 22
ENDMDL
MODEL 8
REMARK VINA RESULT:    -3.592      1.476      2.403
REMARK INTER + INTRA:         -12.058
REMARK INTER:                  -7.760
REMARK INTRA:                  -4.298
REMARK UNBOUND:                -3.846
REMARK SMILES CCCCCCCCCCCCCCCCCCCCCCCC(=O)[O-]
REMARK SMILES IDX 13 1 14 2 15 3 16 4 17 5 18 6 19 7 20 8 21 9 22 10 23 11
REMARK SMILES IDX 24 12 25 13 26 14 12 15 11 16 10 17 9 18 8 19 7 20 6 21 5 22
REMARK SMILES IDX 4 23 3 24 2 25 1 26
REMARK H PARENT
REMARK Flexibility Score: inf
ROOT
ATOM      1  C   UNL     1     130.855 142.369 121.214  1.00  0.00     0.000 C 
ENDROOT
BRANCH   1   2
ATOM      2  C   UNL     1     129.337 142.290 121.449  1.00  0.00     0.000 C 
BRANCH   2   3
ATOM      3  C   UNL     1     128.539 142.159 120.146  1.00  0.00     0.000 C 
BRANCH   3   4
ATOM      4  C   UNL     1     127.392 143.177 120.106  1.00  0.00     0.000 C 
BRANCH   4   5
ATOM      5  C   UNL     1     127.648 144.256 119.041  1.00  0.00     0.000 C 
BRANCH   5   6
ATOM      6  C   UNL     1     127.800 145.662 119.645  1.00  0.00     0.000 C 
BRANCH   6   7
ATOM      7  C   UNL     1     129.262 146.016 119.967  1.00  0.00     0.000 C 
BRANCH   7   8
ATOM      8  C   UNL     1     129.552 146.005 121.478  1.00  0.00     0.000 C 
BRANCH   8   9
ATOM      9  C   UNL     1     128.308 146.326 122.318  1.00  0.00     0.000 C 
BRANCH   9  10
ATOM     10  C   UNL     1     127.985 145.170 123.276  1.00  0.00     0.006 C 
BRANCH  10  11
ATOM     11  C   UNL     1     127.731 145.650 124.711  1.00  0.00     0.053 C 
BRANCH  11  12
ATOM     12  C   UNL     1     128.857 145.304 125.644  1.00  0.00     0.041 C 
ATOM     13  O   UNL     1     129.831 146.089 125.770  1.00  0.00    -0.550 OA
ATOM     14  O   UNL     1     128.883 144.067 126.279  1.00  0.00    -0.550 OA
ENDBRANCH  11  12
ENDBRANCH  10  11
ENDBRANCH   9  10
ENDBRANCH   8   9
ENDBRANCH   7   8
ENDBRANCH   6   7
ENDBRANCH   5   6
ENDBRANCH   4   5
ENDBRANCH   3   4
ENDBRANCH   2   3
ENDBRANCH   1   2
BRANCH   1  15
ATOM     15  C   UNL     1     131.232 142.907 119.816  1.00  0.00     0.000 C 
BRANCH  15  16
ATOM     16  C   UNL     1     132.708 142.640 119.466  1.00  0.00     0.000 C 
BRANCH  16  17
ATOM     17  C   UNL     1     133.456 143.935 119.097  1.00  0.00     0.000 C 
BRANCH  17  18
ATOM     18  C   UNL     1     132.780 145.188 119.688  1.00  0.00    -0.000 C 
BRANCH  18  19
ATOM     19  C   UNL     1     133.568 146.476 119.397  1.00  0.00    -0.000 C 
BRANCH  19  20
ATOM     20  C   UNL     1     135.029 146.186 119.000  1.00  0.00    -0.000 C 
BRANCH  20  21
ATOM     21  C   UNL     1     136.039 146.863 119.950  1.00  0.00    -0.000 C 
BRANCH  21  22
ATOM     22  C   UNL     1     135.803 146.525 121.434  1.00  0.00    -0.000 C 
BRANCH  22  23
ATOM     23  C   UNL     1     136.079 145.051 121.759  1.00  0.00    -0.000 C 
BRANCH  23  24
ATOM     24  C   UNL     1     134.913 144.430 122.543  1.00  0.00    -0.000 C 
BRANCH  24  25
ATOM     25  C   UNL     1     133.935 145.483 123.087  1.00  0.00    -0.003 C 
ATOM     26  C   UNL     1     132.542 144.918 123.387  1.00  0.00     0.004 C 
ENDBRANCH  24  25
ENDBRANCH  23  24
ENDBRANCH  22  23
ENDBRANCH  21  22
ENDBRANCH  20  21
ENDBRANCH  19  20
ENDBRANCH  18  19
ENDBRANCH  17  18
ENDBRANCH  16  17
ENDBRANCH  15  16
ENDBRANCH   1  15
TORSDOF 22
ENDMDL
MODEL 9
REMARK VINA RESULT:    -3.556      3.185      5.851
REMARK INTER + INTRA:         -11.976
REMARK INTER:                  -7.381
REMARK INTRA:                  -4.595
REMARK UNBOUND:                -3.846
REMARK SMILES CCCCCCCCCCCCCCCCCCCCCCCC(=O)[O-]
REMARK SMILES IDX 13 1 14 2 15 3 16 4 17 5 18 6 19 7 20 8 21 9 22 10 23 11
REMARK SMILES IDX 24 12 25 13 26 14 12 15 11 16 10 17 9 18 8 19 7 20 6 21 5 22
REMARK SMILES IDX 4 23 3 24 2 25 1 26
REMARK H PARENT
REMARK Flexibility Score: inf
ROOT
ATOM      1  C   UNL     1     130.408 142.628 122.337  1.00  0.00     0.000 C 
ENDROOT
BRANCH   1   2
ATOM      2  C   UNL     1     129.559 142.042 121.196  1.00  0.00     0.000 C 
BRANCH   2   3
ATOM      3  C   UNL     1     128.066 141.970 121.541  1.00  0.00     0.000 C 
BRANCH   3   4
ATOM      4  C   UNL     1     127.227 142.682 120.474  1.00  0.00     0.000 C 
BRANCH   4   5
ATOM      5  C   UNL     1     128.100 143.604 119.607  1.00  0.00     0.000 C 
BRANCH   5   6
ATOM      6  C   UNL     1     127.769 145.093 119.802  1.00  0.00     0.000 C 
BRANCH   6   7
ATOM      7  C   UNL     1     128.942 146.017 119.430  1.00  0.00     0.000 C 
BRANCH   7   8
ATOM      8  C   UNL     1     130.284 145.521 119.995  1.00  0.00     0.000 C 
BRANCH   8   9
ATOM      9  C   UNL     1     131.222 146.674 120.381  1.00  0.00     0.000 C 
BRANCH   9  10
ATOM     10  C   UNL     1     132.628 146.447 119.806  1.00  0.00     0.006 C 
BRANCH  10  11
ATOM     11  C   UNL     1     133.712 146.445 120.891  1.00  0.00     0.053 C 
BRANCH  11  12
ATOM     12  C   UNL     1     135.102 146.477 120.320  1.00  0.00     0.041 C 
ATOM     13  O   UNL     1     136.095 146.544 121.089  1.00  0.00    -0.550 OA
ATOM     14  O   UNL     1     135.290 146.551 118.944  1.00  0.00    -0.550 OA
ENDBRANCH  11  12
ENDBRANCH  10  11
ENDBRANCH   9  10
ENDBRANCH   8   9
ENDBRANCH   7   8
ENDBRANCH   6   7
ENDBRANCH   5   6
ENDBRANCH   4   5
ENDBRANCH   3   4
ENDBRANCH   2   3
ENDBRANCH   1   2
BRANCH   1  15
ATOM     15  C   UNL     1     130.954 141.557 123.307  1.00  0.00     0.000 C 
BRANCH  15  16
ATOM     16  C   UNL     1     130.171 141.516 124.633  1.00  0.00     0.000 C 
BRANCH  16  17
ATOM     17  C   UNL     1     130.668 142.581 125.628  1.00  0.00     0.000 C 
BRANCH  17  18
ATOM     18  C   UNL     1     129.515 143.430 126.198  1.00  0.00    -0.000 C 
BRANCH  18  19
ATOM     19  C   UNL     1     128.256 143.385 125.314  1.00  0.00    -0.000 C 
BRANCH  19  20
ATOM     20  C   UNL     1     127.743 144.795 124.963  1.00  0.00    -0.000 C 
BRANCH  20  21
ATOM     21  C   UNL     1     128.044 145.179 123.498  1.00  0.00    -0.000 C 
BRANCH  21  22
ATOM     22  C   UNL     1     129.081 146.309 123.363  1.00  0.00    -0.000 C 
BRANCH  22  23
ATOM     23  C   UNL     1     129.607 146.798 124.718  1.00  0.00    -0.000 C 
BRANCH  23  24
ATOM     24  C   UNL     1     131.142 146.753 124.764  1.00  0.00    -0.000 C 
BRANCH  24  25
ATOM     25  C   UNL     1     131.731 145.643 123.879  1.00  0.00    -0.003 C 
ATOM     26  C   UNL     1     133.076 145.113 124.387  1.00  0.00     0.004 C 
ENDBRANCH  24  25
ENDBRANCH  23  24
ENDBRANCH  22  23
ENDBRANCH  21  22
ENDBRANCH  20  21
ENDBRANCH  19  20
ENDBRANCH  18  19
ENDBRANCH  17  18
ENDBRANCH  16  17
ENDBRANCH  15  16
ENDBRANCH   1  15
TORSDOF 22
ENDMDL
