MODEL 1
REMARK VINA RESULT:    -0.004      0.000      0.000
REMARK INTER + INTRA:          -0.004
REMARK INTER:                  -0.004
REMARK INTRA:                   0.000
REMARK UNBOUND:                 0.000
REMARK SMILES CC1=CC[C@@H]2C[C@H]1C2(C)C
REMARK SMILES IDX 1 1 2 2 3 3 4 4 5 5 6 6 7 7 8 8 9 9 10 10
REMARK H PARENT
REMARK Flexibility Score: inf
ROOT
ATOM      1  C   UNL     1      18.213   9.874  60.923  1.00  0.00     0.039 C 
ATOM      2  C   UNL     1      19.596  10.389  60.657  1.00  0.00    -0.074 C 
ATOM      3  C   UNL     1      20.263  10.123  59.496  1.00  0.00    -0.027 C 
ATOM      4  C   UNL     1      21.685  10.691  59.311  1.00  0.00     0.031 C 
ATOM      5  C   UNL     1      22.125  11.467  60.601  1.00  0.00    -0.000 C 
ATOM      6  C   UNL     1      21.755  10.553  61.786  1.00  0.00     0.013 C 
ATOM      7  C   UNL     1      20.354  11.194  61.720  1.00  0.00     0.021 C 
ATOM      8  C   UNL     1      21.001  12.439  61.057  1.00  0.00    -0.026 C 
ATOM      9  C   UNL     1      20.190  13.202  59.971  1.00  0.00     0.012 C 
ATOM     10  C   UNL     1      21.504  13.468  62.100  1.00  0.00     0.012 C 
ENDROOT
TORSDOF 0
ENDMDL
MODEL 2
REMARK VINA RESULT:     0.000     26.439     28.239
REMARK INTER + INTRA:           0.000
REMARK INTER:                   0.000
REMARK INTRA:                   0.000
REMARK UNBOUND:                 0.000
REMARK SMILES CC1=CC[C@@H]2C[C@H]1C2(C)C
REMARK SMILES IDX 1 1 2 2 3 3 4 4 5 5 6 6 7 7 8 8 9 9 10 10
REMARK H PARENT
REMARK Flexibility Score: inf
ROOT
ATOM      1  C   UNL     1       4.450  28.900  42.028  1.00  0.00     0.039 C 
ATOM      2  C   UNL     1       4.255  28.308  43.392  1.00  0.00    -0.074 C 
ATOM      3  C   UNL     1       3.501  27.189  43.601  1.00  0.00    -0.027 C 
ATOM      4  C   UNL     1       3.353  26.653  45.040  1.00  0.00     0.031 C 
ATOM      5  C   UNL     1       4.107  27.594  46.043  1.00  0.00    -0.000 C 
ATOM      6  C   UNL     1       3.699  29.030  45.657  1.00  0.00     0.013 C 
ATOM      7  C   UNL     1       4.852  28.980  44.635  1.00  0.00     0.021 C 
ATOM      8  C   UNL     1       5.536  27.906  45.521  1.00  0.00    -0.026 C 
ATOM      9  C   UNL     1       6.338  26.773  44.820  1.00  0.00     0.012 C 
ATOM     10  C   UNL     1       6.436  28.532  46.616  1.00  0.00     0.012 C 
ENDROOT
TORSDOF 0
ENDMDL
MODEL 3
REMARK VINA RESULT:     0.000      1.328      2.587
REMARK INTER + INTRA:           0.000
REMARK INTER:                   0.000
REMARK INTRA:                   0.000
REMARK UNBOUND:                 0.000
REMARK SMILES CC1=CC[C@@H]2C[C@H]1C2(C)C
REMARK SMILES IDX 1 1 2 2 3 3 4 4 5 5 6 6 7 7 8 8 9 9 10 10
REMARK H PARENT
REMARK Flexibility Score: inf
ROOT
ATOM      1  C   UNL     1      18.046  13.217  61.267  1.00  0.00     0.039 C 
ATOM      2  C   UNL     1      18.937  12.233  60.571  1.00  0.00    -0.074 C 
ATOM      3  C   UNL     1      19.428  12.453  59.316  1.00  0.00    -0.027 C 
ATOM      4  C   UNL     1      20.335  11.382  58.676  1.00  0.00     0.031 C 
ATOM      5  C   UNL     1      20.475  10.153  59.639  1.00  0.00    -0.000 C 
ATOM      6  C   UNL     1      19.046   9.835  60.123  1.00  0.00     0.013 C 
ATOM      7  C   UNL     1      19.286  10.889  61.223  1.00  0.00     0.021 C 
ATOM      8  C   UNL     1      20.809  10.630  61.080  1.00  0.00    -0.026 C 
ATOM      9  C   UNL     1      21.782  11.829  61.260  1.00  0.00     0.012 C 
ATOM     10  C   UNL     1      21.296   9.469  61.983  1.00  0.00     0.012 C 
ENDROOT
TORSDOF 0
ENDMDL
MODEL 4
REMARK VINA RESULT:     0.000     13.849     16.003
REMARK INTER + INTRA:           0.000
REMARK INTER:                   0.000
REMARK INTRA:                   0.000
REMARK UNBOUND:                 0.000
REMARK SMILES CC1=CC[C@@H]2C[C@H]1C2(C)C
REMARK SMILES IDX 1 1 2 2 3 3 4 4 5 5 6 6 7 7 8 8 9 9 10 10
REMARK H PARENT
REMARK Flexibility Score: inf
ROOT
ATOM      1  C   UNL     1      15.827  26.957  58.024  1.00  0.00     0.039 C 
ATOM      2  C   UNL     1      15.803  26.348  56.654  1.00  0.00    -0.074 C 
ATOM      3  C   UNL     1      16.655  26.745  55.664  1.00  0.00    -0.027 C 
ATOM      4  C   UNL     1      16.556  26.065  54.283  1.00  0.00     0.031 C 
ATOM      5  C   UNL     1      15.384  25.024  54.281  1.00  0.00    -0.000 C 
ATOM      6  C   UNL     1      14.184  25.743  54.930  1.00  0.00     0.013 C 
ATOM      7  C   UNL     1      14.762  25.284  56.283  1.00  0.00     0.021 C 
ATOM      8  C   UNL     1      15.464  24.117  55.540  1.00  0.00    -0.026 C 
ATOM      9  C   UNL     1      16.864  23.659  56.040  1.00  0.00     0.012 C 
ATOM     10  C   UNL     1      14.558  22.866  55.421  1.00  0.00     0.012 C 
ENDROOT
TORSDOF 0
ENDMDL
MODEL 5
REMARK VINA RESULT:     0.000     14.878     16.460
REMARK INTER + INTRA:           0.000
REMARK INTER:                   0.000
REMARK INTRA:                   0.000
REMARK UNBOUND:                 0.000
REMARK SMILES CC1=CC[C@@H]2C[C@H]1C2(C)C
REMARK SMILES IDX 1 1 2 2 3 3 4 4 5 5 6 6 7 7 8 8 9 9 10 10
REMARK H PARENT
REMARK Flexibility Score: inf
ROOT
ATOM      1  C   UNL     1      15.603  26.053  58.396  1.00  0.00     0.039 C 
ATOM      2  C   UNL     1      14.442  25.894  57.461  1.00  0.00    -0.074 C 
ATOM      3  C   UNL     1      14.340  26.601  56.297  1.00  0.00    -0.027 C 
ATOM      4  C   UNL     1      13.107  26.376  55.398  1.00  0.00     0.031 C 
ATOM      5  C   UNL     1      12.131  25.351  56.074  1.00  0.00    -0.000 C 
ATOM      6  C   UNL     1      12.003  25.800  57.543  1.00  0.00     0.013 C 
ATOM      7  C   UNL     1      13.272  24.965  57.809  1.00  0.00     0.021 C 
ATOM      8  C   UNL     1      12.915  24.104  56.569  1.00  0.00    -0.026 C 
ATOM      9  C   UNL     1      14.076  23.556  55.691  1.00  0.00     0.012 C 
ATOM     10  C   UNL     1      11.975  22.924  56.923  1.00  0.00     0.012 C 
ENDROOT
TORSDOF 0
ENDMDL
MODEL 6
REMARK VINA RESULT:     0.000     15.809     17.430
REMARK INTER + INTRA:           0.000
REMARK INTER:                   0.000
REMARK INTRA:                   0.000
REMARK UNBOUND:                 0.000
REMARK SMILES CC1=CC[C@@H]2C[C@H]1C2(C)C
REMARK SMILES IDX 1 1 2 2 3 3 4 4 5 5 6 6 7 7 8 8 9 9 10 10
REMARK H PARENT
REMARK Flexibility Score: inf
ROOT
ATOM      1  C   UNL     1      15.875  26.330  59.664  1.00  0.00     0.039 C 
ATOM      2  C   UNL     1      14.685  26.749  58.854  1.00  0.00    -0.074 C 
ATOM      3  C   UNL     1      14.807  27.331  57.625  1.00  0.00    -0.027 C 
ATOM      4  C   UNL     1      13.527  27.734  56.865  1.00  0.00     0.031 C 
ATOM      5  C   UNL     1      12.263  27.419  57.738  1.00  0.00    -0.000 C 
ATOM      6  C   UNL     1      12.584  27.957  59.147  1.00  0.00     0.013 C 
ATOM      7  C   UNL     1      13.263  26.598  59.408  1.00  0.00     0.021 C 
ATOM      8  C   UNL     1      12.350  25.980  58.316  1.00  0.00    -0.026 C 
ATOM      9  C   UNL     1      12.932  24.851  57.419  1.00  0.00     0.012 C 
ATOM     10  C   UNL     1      10.994  25.495  58.888  1.00  0.00     0.012 C 
ENDROOT
TORSDOF 0
ENDMDL
MODEL 7
REMARK VINA RESULT:     0.000     14.961     16.412
REMARK INTER + INTRA:           0.000
REMARK INTER:                   0.000
REMARK INTRA:                   0.000
REMARK UNBOUND:                 0.000
REMARK SMILES CC1=CC[C@@H]2C[C@H]1C2(C)C
REMARK SMILES IDX 1 1 2 2 3 3 4 4 5 5 6 6 7 7 8 8 9 9 10 10
REMARK H PARENT
REMARK Flexibility Score: inf
ROOT
ATOM      1  C   UNL     1      14.382  24.898  58.914  1.00  0.00     0.039 C 
ATOM      2  C   UNL     1      12.924  24.935  58.568  1.00  0.00    -0.074 C 
ATOM      3  C   UNL     1      12.457  25.543  57.438  1.00  0.00    -0.027 C 
ATOM      4  C   UNL     1      10.939  25.536  57.165  1.00  0.00     0.031 C 
ATOM      5  C   UNL     1      10.185  24.831  58.345  1.00  0.00    -0.000 C 
ATOM      6  C   UNL     1      10.784  25.423  59.637  1.00  0.00     0.013 C 
ATOM      7  C   UNL     1      11.874  24.340  59.515  1.00  0.00     0.021 C 
ATOM      8  C   UNL     1      10.873  23.483  58.698  1.00  0.00    -0.026 C 
ATOM      9  C   UNL     1      11.426  22.604  57.540  1.00  0.00     0.012 C 
ATOM     10  C   UNL     1       9.986  22.591  59.602  1.00  0.00     0.012 C 
ENDROOT
TORSDOF 0
ENDMDL
MODEL 8
REMARK VINA RESULT:     0.000     18.191     20.026
REMARK INTER + INTRA:           0.000
REMARK INTER:                   0.000
REMARK INTRA:                   0.000
REMARK UNBOUND:                 0.000
REMARK SMILES CC1=CC[C@@H]2C[C@H]1C2(C)C
REMARK SMILES IDX 1 1 2 2 3 3 4 4 5 5 6 6 7 7 8 8 9 9 10 10
REMARK H PARENT
REMARK Flexibility Score: inf
ROOT
ATOM      1  C   UNL     1      11.247  21.046  45.092  1.00  0.00     0.039 C 
ATOM      2  C   UNL     1      10.863  21.686  46.392  1.00  0.00    -0.074 C 
ATOM      3  C   UNL     1      10.147  21.024  47.348  1.00  0.00    -0.027 C 
ATOM      4  C   UNL     1       9.793  21.763  48.654  1.00  0.00     0.031 C 
ATOM      5  C   UNL     1      10.317  23.240  48.593  1.00  0.00    -0.000 C 
ATOM      6  C   UNL     1       9.900  23.776  47.209  1.00  0.00     0.013 C 
ATOM      7  C   UNL     1      11.207  23.153  46.680  1.00  0.00     0.021 C 
ATOM      8  C   UNL     1      11.794  23.271  48.111  1.00  0.00    -0.026 C 
ATOM      9  C   UNL     1      12.762  22.159  48.606  1.00  0.00     0.012 C 
ATOM     10  C   UNL     1      12.464  24.645  48.362  1.00  0.00     0.012 C 
ENDROOT
TORSDOF 0
ENDMDL
MODEL 9
REMARK VINA RESULT:     0.000     17.786     19.285
REMARK INTER + INTRA:           0.000
REMARK INTER:                   0.000
REMARK INTRA:                   0.000
REMARK UNBOUND:                 0.000
REMARK SMILES CC1=CC[C@@H]2C[C@H]1C2(C)C
REMARK SMILES IDX 1 1 2 2 3 3 4 4 5 5 6 6 7 7 8 8 9 9 10 10
REMARK H PARENT
REMARK Flexibility Score: inf
ROOT
ATOM      1  C   UNL     1      12.311  22.074  46.317  1.00  0.00     0.039 C 
ATOM      2  C   UNL     1      12.440  22.886  47.570  1.00  0.00    -0.074 C 
ATOM      3  C   UNL     1      11.998  22.435  48.781  1.00  0.00    -0.027 C 
ATOM      4  C   UNL     1      12.170  23.341  50.017  1.00  0.00     0.031 C 
ATOM      5  C   UNL     1      12.811  24.709  49.595  1.00  0.00    -0.000 C 
ATOM      6  C   UNL     1      12.035  25.166  48.344  1.00  0.00     0.013 C 
ATOM      7  C   UNL     1      13.023  24.304  47.533  1.00  0.00     0.021 C 
ATOM      8  C   UNL     1      14.048  24.468  48.686  1.00  0.00    -0.026 C 
ATOM      9  C   UNL     1      14.990  23.274  49.012  1.00  0.00     0.012 C 
ATOM     10  C   UNL     1      14.915  25.742  48.527  1.00  0.00     0.012 C 
ENDROOT
TORSDOF 0
ENDMDL
