MODEL 1
REMARK VINA RESULT:    21.663      0.000      0.000
REMARK INTER + INTRA:          25.232
REMARK INTER:                  25.462
REMARK INTRA:                  -0.230
REMARK UNBOUND:                -0.230
REMARK SMILES O=c1c(O)c(-c2ccc(O)c(O)c2)oc2cc(O)ccc12
REMARK SMILES IDX 5 1 3 2 2 3 1 4 21 5 15 6 14 7 16 8 17 9 19 10 20 11 6 12
REMARK SMILES IDX 7 13 8 14 9 15 13 16 11 17 10 18 12 20 4 22 18 24
REMARK H PARENT 10 19 12 21 4 23 18 25
REMARK Flexibility Score: inf
ROOT
ATOM      1  C   UNL     1      83.021  52.287  19.156  1.00  0.00     0.180 A 
ATOM      2  C   UNL     1      81.643  52.580  19.229  1.00  0.00     0.208 A 
ATOM      3  C   UNL     1      81.225  53.909  19.056  1.00  0.00     0.235 A 
ATOM      4  O   UNL     1      79.999  54.198  19.128  1.00  0.00    -0.285 OA
ATOM      5  C   UNL     1      82.179  54.905  18.795  1.00  0.00     0.069 A 
ATOM      6  C   UNL     1      83.536  54.526  18.713  1.00  0.00     0.142 A 
ATOM      7  O   UNL     1      83.891  53.258  18.893  1.00  0.00    -0.452 OA
ATOM      8  C   UNL     1      84.516  55.488  18.446  1.00  0.00     0.094 A 
ATOM      9  C   UNL     1      84.156  56.829  18.259  1.00  0.00     0.119 A 
ATOM     10  C   UNL     1      82.811  57.207  18.341  1.00  0.00     0.047 A 
ATOM     11  C   UNL     1      81.825  56.253  18.607  1.00  0.00     0.020 A 
ENDROOT
BRANCH   1  12
ATOM     12  C   UNL     1      83.543  50.914  19.346  1.00  0.00     0.025 A 
ATOM     13  C   UNL     1      84.139  50.246  18.264  1.00  0.00     0.016 A 
ATOM     14  C   UNL     1      84.657  48.959  18.426  1.00  0.00     0.051 A 
ATOM     15  C   UNL     1      84.602  48.326  19.671  1.00  0.00     0.157 A 
ATOM     16  C   UNL     1      83.508  50.284  20.603  1.00  0.00     0.062 A 
ATOM     17  C   UNL     1      84.029  48.993  20.767  1.00  0.00     0.158 A 
BRANCH  15  18
ATOM     18  O   UNL     1      85.125  47.040  19.802  1.00  0.00    -0.504 OA
ATOM     19  H   UNL     1      85.949  46.739  19.296  1.00  0.00     0.293 HD
ENDBRANCH  15  18
BRANCH  17  20
ATOM     20  O   UNL     1      83.984  48.372  22.015  1.00  0.00    -0.504 OA
ATOM     21  H   UNL     1      84.291  47.414  22.143  1.00  0.00     0.293 HD
ENDBRANCH  17  20
ENDBRANCH   1  12
BRANCH   2  22
ATOM     22  O   UNL     1      80.712  51.559  19.440  1.00  0.00    -0.502 OA
ATOM     23  H   UNL     1      80.861  50.614  19.108  1.00  0.00     0.293 HD
ENDBRANCH   2  22
BRANCH   9  24
ATOM     24  O   UNL     1      85.125  57.793  17.993  1.00  0.00    -0.508 OA
ATOM     25  H   UNL     1      85.808  58.064  18.689  1.00  0.00     0.293 HD
ENDBRANCH   9  24
TORSDOF 5
ENDMDL
