MODEL 1
REMARK VINA RESULT:    -2.452      0.000      0.000
REMARK INTER + INTRA:          -3.632
REMARK INTER:                  -3.814
REMARK INTRA:                   0.182
REMARK UNBOUND:                 0.182
REMARK SMILES C[C@]12C[C@]3(O)O[C@H](O1)[C@@]1(COC(=O)c4ccccc4)[C@@H]3C[C@]12O[C@@H]1O[C@@H](CO)[C@H](O)[C@H](O)[C@@H]1O
REMARK SMILES IDX 1 1 2 2 3 3 4 4 20 5 21 6 22 7 9 8 7 9 8 10 6 11 23 12 24 13
REMARK SMILES IDX 33 14 25 15 31 16 26 17 29 18 34 19 32 21 27 23 28 24 30 26
REMARK SMILES IDX 5 28 10 30 11 31 12 32 13 33 14 34 15 35 19 36 16 37 18 38
REMARK SMILES IDX 17 39
REMARK H PARENT 34 20 32 22 28 25 30 27 5 29
REMARK Flexibility Score: inf
ROOT
ATOM      1  C   UNL     1       1.384  25.054   1.928  1.00  0.00     0.046 C 
ATOM      2  C   UNL     1       0.599  23.978   2.684  1.00  0.00     0.104 C 
ATOM      3  C   UNL     1      -0.845  23.822   2.068  1.00  0.00     0.104 C 
ATOM      4  C   UNL     1      -1.474  22.644   2.886  1.00  0.00     0.175 C 
ATOM      5  C   UNL     1      -0.490  21.437   2.935  1.00  0.00     0.070 C 
ATOM      6  C   UNL     1       0.617  21.521   1.875  1.00  0.00     0.050 C 
ATOM      7  C   UNL     1       1.295  22.559   2.783  1.00  0.00     0.115 C 
ATOM      8  C   UNL     1       0.493  21.990   3.961  1.00  0.00     0.096 C 
ATOM      9  C   UNL     1      -0.196  23.180   4.615  1.00  0.00     0.267 C 
ATOM     10  O   UNL     1       0.382  24.345   4.035  1.00  0.00    -0.342 OA
ATOM     11  O   UNL     1      -1.556  23.092   4.225  1.00  0.00    -0.320 OA
ENDROOT
BRANCH   7  12
ATOM     12  O   UNL     1       2.719  22.434   2.761  1.00  0.00    -0.339 OA
BRANCH  12  13
ATOM     13  C   UNL     1       3.406  23.068   3.835  1.00  0.00     0.282 C 
ATOM     14  C   UNL     1       4.477  22.120   4.434  1.00  0.00     0.202 C 
ATOM     15  O   UNL     1       4.023  24.276   3.410  1.00  0.00    -0.341 OA
ATOM     16  C   UNL     1       5.613  21.859   3.435  1.00  0.00     0.179 C 
ATOM     17  C   UNL     1       4.989  24.067   2.387  1.00  0.00     0.178 C 
ATOM     18  C   UNL     1       6.154  23.196   2.907  1.00  0.00     0.177 C 
BRANCH  14  19
ATOM     19  O   UNL     1       3.903  20.902   4.822  1.00  0.00    -0.385 OA
ATOM     20  H   UNL     1       4.085  20.251   4.094  1.00  0.00     0.211 HD
ENDBRANCH  14  19
BRANCH  16  21
ATOM     21  O   UNL     1       5.144  21.061   2.375  1.00  0.00    -0.387 OA
ATOM     22  H   UNL     1       4.767  21.676   1.693  1.00  0.00     0.211 HD
ENDBRANCH  16  21
BRANCH  17  23
ATOM     23  C   UNL     1       5.523  25.433   1.931  1.00  0.00     0.191 C 
BRANCH  23  24
ATOM     24  O   UNL     1       6.674  25.766   2.655  1.00  0.00    -0.394 OA
ATOM     25  H   UNL     1       7.442  25.578   2.054  1.00  0.00     0.210 HD
ENDBRANCH  23  24
ENDBRANCH  17  23
BRANCH  18  26
ATOM     26  O   UNL     1       7.083  22.968   1.878  1.00  0.00    -0.387 OA
ATOM     27  H   UNL     1       7.189  21.984   1.802  1.00  0.00     0.211 HD
ENDBRANCH  18  26
ENDBRANCH  12  13
ENDBRANCH   7  12
BRANCH   4  28
ATOM     28  O   UNL     1      -2.730  22.262   2.393  1.00  0.00    -0.365 OA
ATOM     29  H   UNL     1      -3.397  22.527   3.078  1.00  0.00     0.214 HD
ENDBRANCH   4  28
BRANCH   8  30
ATOM     30  C   UNL     1       1.113  20.943   4.903  1.00  0.00     0.249 C 
BRANCH  30  31
ATOM     31  O   UNL     1       0.376  20.875   6.125  1.00  0.00    -0.461 OA
BRANCH  31  32
ATOM     32  C   UNL     1       0.895  21.230   7.377  1.00  0.00     0.338 C 
ATOM     33  O   UNL     1       0.186  21.117   8.414  1.00  0.00    -0.246 OA
BRANCH  32  34
ATOM     34  C   UNL     1       2.280  21.740   7.477  1.00  0.00     0.060 A 
ATOM     35  C   UNL     1       3.331  20.891   7.872  1.00  0.00     0.015 A 
ATOM     36  C   UNL     1       2.564  23.086   7.184  1.00  0.00     0.015 A 
ATOM     37  C   UNL     1       4.637  21.381   7.968  1.00  0.00     0.001 A 
ATOM     38  C   UNL     1       3.872  23.570   7.282  1.00  0.00     0.001 A 
ATOM     39  C   UNL     1       4.907  22.719   7.673  1.00  0.00     0.000 A 
ENDBRANCH  32  34
ENDBRANCH  31  32
ENDBRANCH  30  31
ENDBRANCH   8  30
TORSDOF 12
ENDMDL
MODEL 2
REMARK VINA RESULT:    -0.973      1.944      3.317
REMARK INTER + INTRA:          -1.331
REMARK INTER:                  -2.861
REMARK INTRA:                   1.530
REMARK UNBOUND:                 0.182
REMARK SMILES C[C@]12C[C@]3(O)O[C@H](O1)[C@@]1(COC(=O)c4ccccc4)[C@@H]3C[C@]12O[C@@H]1O[C@@H](CO)[C@H](O)[C@H](O)[C@@H]1O
REMARK SMILES IDX 1 1 2 2 3 3 4 4 20 5 21 6 22 7 9 8 7 9 8 10 6 11 23 12 24 13
REMARK SMILES IDX 33 14 25 15 31 16 26 17 29 18 34 19 32 21 27 23 28 24 30 26
REMARK SMILES IDX 5 28 10 30 11 31 12 32 13 33 14 34 15 35 19 36 16 37 18 38
REMARK SMILES IDX 17 39
REMARK H PARENT 34 20 32 22 28 25 30 27 5 29
REMARK Flexibility Score: inf
ROOT
ATOM      1  C   UNL     1       1.493  24.851   1.997  1.00  0.00     0.046 C 
ATOM      2  C   UNL     1       0.970  23.640   2.774  1.00  0.00     0.104 C 
ATOM      3  C   UNL     1      -0.208  22.950   1.983  1.00  0.00     0.104 C 
ATOM      4  C   UNL     1      -0.564  21.701   2.858  1.00  0.00     0.175 C 
ATOM      5  C   UNL     1       0.728  20.909   3.218  1.00  0.00     0.070 C 
ATOM      6  C   UNL     1       1.925  21.276   2.329  1.00  0.00     0.050 C 
ATOM      7  C   UNL     1       2.054  22.555   3.171  1.00  0.00     0.115 C 
ATOM      8  C   UNL     1       1.276  21.848   4.288  1.00  0.00     0.096 C 
ATOM      9  C   UNL     1       0.133  22.782   4.662  1.00  0.00     0.267 C 
ATOM     10  O   UNL     1       0.402  24.022   4.015  1.00  0.00    -0.342 OA
ATOM     11  O   UNL     1      -1.031  22.204   4.094  1.00  0.00    -0.320 OA
ENDROOT
BRANCH   7  12
ATOM     12  O   UNL     1       3.421  22.921   3.373  1.00  0.00    -0.339 OA
BRANCH  12  13
ATOM     13  C   UNL     1       4.232  21.933   4.002  1.00  0.00     0.282 C 
ATOM     14  C   UNL     1       5.627  21.860   3.328  1.00  0.00     0.202 C 
ATOM     15  O   UNL     1       4.388  22.201   5.390  1.00  0.00    -0.341 OA
ATOM     16  C   UNL     1       6.434  23.143   3.573  1.00  0.00     0.179 C 
ATOM     17  C   UNL     1       5.018  23.452   5.638  1.00  0.00     0.178 C 
ATOM     18  C   UNL     1       6.457  23.459   5.076  1.00  0.00     0.177 C 
BRANCH  14  19
ATOM     19  O   UNL     1       5.503  21.639   1.949  1.00  0.00    -0.385 OA
ATOM     20  H   UNL     1       6.422  21.520   1.592  1.00  0.00     0.211 HD
ENDBRANCH  14  19
BRANCH  16  21
ATOM     21  O   UNL     1       5.867  24.210   2.851  1.00  0.00    -0.387 OA
ATOM     22  H   UNL     1       6.194  25.049   3.268  1.00  0.00     0.211 HD
ENDBRANCH  16  21
BRANCH  17  23
ATOM     23  C   UNL     1       5.050  23.692   7.155  1.00  0.00     0.191 C 
BRANCH  23  24
ATOM     24  O   UNL     1       5.783  22.681   7.787  1.00  0.00    -0.394 OA
ATOM     25  H   UNL     1       6.474  23.141   8.332  1.00  0.00     0.210 HD
ENDBRANCH  23  24
ENDBRANCH  17  23
BRANCH  18  26
ATOM     26  O   UNL     1       7.056  24.711   5.297  1.00  0.00    -0.387 OA
ATOM     27  H   UNL     1       6.986  24.892   6.270  1.00  0.00     0.211 HD
ENDBRANCH  18  26
ENDBRANCH  12  13
ENDBRANCH   7  12
BRANCH   4  28
ATOM     28  O   UNL     1      -1.518  20.875   2.246  1.00  0.00    -0.365 OA
ATOM     29  H   UNL     1      -1.531  21.119   1.284  1.00  0.00     0.214 HD
ENDBRANCH   4  28
BRANCH   8  30
ATOM     30  C   UNL     1       2.015  21.157   5.448  1.00  0.00     0.249 C 
BRANCH  30  31
ATOM     31  O   UNL     1       1.110  20.875   6.516  1.00  0.00    -0.461 OA
BRANCH  31  32
ATOM     32  C   UNL     1       0.771  21.790   7.522  1.00  0.00     0.338 C 
ATOM     33  O   UNL     1       1.574  22.709   7.842  1.00  0.00    -0.246 OA
BRANCH  32  34
ATOM     34  C   UNL     1      -0.533  21.671   8.208  1.00  0.00     0.060 A 
ATOM     35  C   UNL     1      -1.604  20.984   7.604  1.00  0.00     0.015 A 
ATOM     36  C   UNL     1      -0.725  22.252   9.475  1.00  0.00     0.015 A 
ATOM     37  C   UNL     1      -2.836  20.880   8.257  1.00  0.00     0.001 A 
ATOM     38  C   UNL     1      -1.959  22.145  10.123  1.00  0.00     0.001 A 
ATOM     39  C   UNL     1      -3.013  21.460   9.515  1.00  0.00     0.000 A 
ENDBRANCH  32  34
ENDBRANCH  31  32
ENDBRANCH  30  31
ENDBRANCH   8  30
TORSDOF 12
ENDMDL
MODEL 3
REMARK VINA RESULT:    -0.715      1.784      6.660
REMARK INTER + INTRA:          -0.930
REMARK INTER:                  -1.844
REMARK INTRA:                   0.913
REMARK UNBOUND:                 0.182
REMARK SMILES C[C@]12C[C@]3(O)O[C@H](O1)[C@@]1(COC(=O)c4ccccc4)[C@@H]3C[C@]12O[C@@H]1O[C@@H](CO)[C@H](O)[C@H](O)[C@@H]1O
REMARK SMILES IDX 1 1 2 2 3 3 4 4 20 5 21 6 22 7 9 8 7 9 8 10 6 11 23 12 24 13
REMARK SMILES IDX 33 14 25 15 31 16 26 17 29 18 34 19 32 21 27 23 28 24 30 26
REMARK SMILES IDX 5 28 10 30 11 31 12 32 13 33 14 34 15 35 19 36 16 37 18 38
REMARK SMILES IDX 17 39
REMARK H PARENT 34 20 32 22 28 25 30 27 5 29
REMARK Flexibility Score: inf
ROOT
ATOM      1  C   UNL     1       2.626  24.201   7.234  1.00  0.00     0.046 C 
ATOM      2  C   UNL     1       3.823  23.432   6.669  1.00  0.00     0.104 C 
ATOM      3  C   UNL     1       4.967  23.330   7.750  1.00  0.00     0.104 C 
ATOM      4  C   UNL     1       6.064  22.456   7.052  1.00  0.00     0.175 C 
ATOM      5  C   UNL     1       5.423  21.174   6.443  1.00  0.00     0.070 C 
ATOM      6  C   UNL     1       4.026  20.875   7.005  1.00  0.00     0.050 C 
ATOM      7  C   UNL     1       3.507  21.993   6.088  1.00  0.00     0.115 C 
ATOM      8  C   UNL     1       4.762  21.811   5.224  1.00  0.00     0.096 C 
ATOM      9  C   UNL     1       5.378  23.195   5.079  1.00  0.00     0.267 C 
ATOM     10  O   UNL     1       4.413  24.117   5.577  1.00  0.00    -0.342 OA
ATOM     11  O   UNL     1       6.509  23.199   5.935  1.00  0.00    -0.320 OA
ENDROOT
BRANCH   7  12
ATOM     12  O   UNL     1       2.218  21.683   5.551  1.00  0.00    -0.339 OA
BRANCH  12  13
ATOM     13  C   UNL     1       1.291  22.764   5.521  1.00  0.00     0.282 C 
ATOM     14  C   UNL     1       1.228  23.392   4.105  1.00  0.00     0.202 C 
ATOM     15  O   UNL     1      -0.008  22.340   5.912  1.00  0.00    -0.341 OA
ATOM     16  C   UNL     1       0.618  22.415   3.088  1.00  0.00     0.179 C 
ATOM     17  C   UNL     1      -0.537  21.337   5.054  1.00  0.00     0.178 C 
ATOM     18  C   UNL     1      -0.721  21.885   3.622  1.00  0.00     0.177 C 
BRANCH  14  19
ATOM     19  O   UNL     1       2.504  23.780   3.674  1.00  0.00    -0.385 OA
ATOM     20  H   UNL     1       2.377  24.353   2.872  1.00  0.00     0.211 HD
ENDBRANCH  14  19
BRANCH  16  21
ATOM     21  O   UNL     1       1.510  21.354   2.848  1.00  0.00    -0.387 OA
ATOM     22  H   UNL     1       1.147  20.836   2.084  1.00  0.00     0.211 HD
ENDBRANCH  16  21
BRANCH  17  23
ATOM     23  C   UNL     1      -1.892  20.878   5.615  1.00  0.00     0.191 C 
BRANCH  23  24
ATOM     24  O   UNL     1      -1.873  20.919   7.013  1.00  0.00    -0.394 OA
ATOM     25  H   UNL     1      -0.951  21.185   7.269  1.00  0.00     0.210 HD
ENDBRANCH  23  24
ENDBRANCH  17  23
BRANCH  18  26
ATOM     26  O   UNL     1      -1.211  20.875   2.777  1.00  0.00    -0.387 OA
ATOM     27  H   UNL     1      -0.789  20.027   3.072  1.00  0.00     0.211 HD
ENDBRANCH  18  26
ENDBRANCH  12  13
ENDBRANCH   7  12
BRANCH   4  28
ATOM     28  O   UNL     1       7.123  22.140   7.915  1.00  0.00    -0.365 OA
ATOM     29  H   UNL     1       7.381  21.202   7.717  1.00  0.00     0.214 HD
ENDBRANCH   4  28
BRANCH   8  30
ATOM     30  C   UNL     1       4.729  20.930   3.963  1.00  0.00     0.249 C 
BRANCH  30  31
ATOM     31  O   UNL     1       4.665  21.742   2.790  1.00  0.00    -0.461 OA
BRANCH  31  32
ATOM     32  C   UNL     1       5.743  22.480   2.284  1.00  0.00     0.338 C 
ATOM     33  O   UNL     1       6.812  21.898   1.953  1.00  0.00    -0.246 OA
BRANCH  32  34
ATOM     34  C   UNL     1       5.621  23.946   2.140  1.00  0.00     0.060 A 
ATOM     35  C   UNL     1       6.767  24.763   2.104  1.00  0.00     0.015 A 
ATOM     36  C   UNL     1       4.352  24.547   2.043  1.00  0.00     0.015 A 
ATOM     37  C   UNL     1       6.644  26.150   1.972  1.00  0.00     0.001 A 
ATOM     38  C   UNL     1       4.235  25.934   1.911  1.00  0.00     0.001 A 
ATOM     39  C   UNL     1       5.379  26.735   1.875  1.00  0.00     0.000 A 
ENDBRANCH  32  34
ENDBRANCH  31  32
ENDBRANCH  30  31
ENDBRANCH   8  30
TORSDOF 12
ENDMDL
MODEL 4
REMARK VINA RESULT:    -0.416      2.155      5.556
REMARK INTER + INTRA:          -0.465
REMARK INTER:                  -1.412
REMARK INTRA:                   0.947
REMARK UNBOUND:                 0.182
REMARK SMILES C[C@]12C[C@]3(O)O[C@H](O1)[C@@]1(COC(=O)c4ccccc4)[C@@H]3C[C@]12O[C@@H]1O[C@@H](CO)[C@H](O)[C@H](O)[C@@H]1O
REMARK SMILES IDX 1 1 2 2 3 3 4 4 20 5 21 6 22 7 9 8 7 9 8 10 6 11 23 12 24 13
REMARK SMILES IDX 33 14 25 15 31 16 26 17 29 18 34 19 32 21 27 23 28 24 30 26
REMARK SMILES IDX 5 28 10 30 11 31 12 32 13 33 14 34 15 35 19 36 16 37 18 38
REMARK SMILES IDX 17 39
REMARK H PARENT 34 20 32 22 28 25 30 27 5 29
REMARK Flexibility Score: inf
ROOT
ATOM      1  C   UNL     1       6.569  21.865   4.306  1.00  0.00     0.046 C 
ATOM      2  C   UNL     1       5.880  22.134   5.646  1.00  0.00     0.104 C 
ATOM      3  C   UNL     1       6.738  23.136   6.511  1.00  0.00     0.104 C 
ATOM      4  C   UNL     1       5.865  23.367   7.791  1.00  0.00     0.175 C 
ATOM      5  C   UNL     1       4.400  23.711   7.388  1.00  0.00     0.070 C 
ATOM      6  C   UNL     1       4.265  24.137   5.920  1.00  0.00     0.050 C 
ATOM      7  C   UNL     1       4.384  22.647   5.561  1.00  0.00     0.115 C 
ATOM      8  C   UNL     1       3.942  22.310   6.991  1.00  0.00     0.096 C 
ATOM      9  C   UNL     1       4.986  21.349   7.540  1.00  0.00     0.267 C 
ATOM     10  O   UNL     1       5.791  20.957   6.432  1.00  0.00    -0.342 OA
ATOM     11  O   UNL     1       5.773  22.113   8.438  1.00  0.00    -0.320 OA
ENDROOT
BRANCH   7  12
ATOM     12  O   UNL     1       3.548  22.300   4.455  1.00  0.00    -0.339 OA
BRANCH  12  13
ATOM     13  C   UNL     1       3.761  23.055   3.266  1.00  0.00     0.282 C 
ATOM     14  C   UNL     1       3.506  22.181   2.010  1.00  0.00     0.202 C 
ATOM     15  O   UNL     1       2.922  24.201   3.226  1.00  0.00    -0.341 OA
ATOM     16  C   UNL     1       2.023  21.798   1.888  1.00  0.00     0.179 C 
ATOM     17  C   UNL     1       1.539  23.868   3.245  1.00  0.00     0.178 C 
ATOM     18  C   UNL     1       1.155  23.061   1.986  1.00  0.00     0.177 C 
BRANCH  14  19
ATOM     19  O   UNL     1       4.289  21.019   2.043  1.00  0.00    -0.385 OA
ATOM     20  H   UNL     1       4.241  20.664   2.970  1.00  0.00     0.211 HD
ENDBRANCH  14  19
BRANCH  16  21
ATOM     21  O   UNL     1       1.681  20.882   2.900  1.00  0.00    -0.387 OA
ATOM     22  H   UNL     1       0.956  20.307   2.539  1.00  0.00     0.211 HD
ENDBRANCH  16  21
BRANCH  17  23
ATOM     23  C   UNL     1       0.723  25.169   3.299  1.00  0.00     0.191 C 
BRANCH  23  24
ATOM     24  O   UNL     1       1.350  26.162   2.539  1.00  0.00    -0.394 OA
ATOM     25  H   UNL     1       2.220  26.341   2.981  1.00  0.00     0.210 HD
ENDBRANCH  23  24
ENDBRANCH  17  23
BRANCH  18  26
ATOM     26  O   UNL     1      -0.205  22.709   2.034  1.00  0.00    -0.387 OA
ATOM     27  H   UNL     1      -0.455  22.413   1.119  1.00  0.00     0.211 HD
ENDBRANCH  18  26
ENDBRANCH  12  13
ENDBRANCH   7  12
BRANCH   4  28
ATOM     28  O   UNL     1       6.407  24.344   8.637  1.00  0.00    -0.365 OA
ATOM     29  H   UNL     1       7.219  23.948   9.047  1.00  0.00     0.214 HD
ENDBRANCH   4  28
BRANCH   8  30
ATOM     30  C   UNL     1       2.470  21.991   7.307  1.00  0.00     0.249 C 
BRANCH  30  31
ATOM     31  O   UNL     1       1.871  21.283   6.221  1.00  0.00    -0.461 OA
BRANCH  31  32
ATOM     32  C   UNL     1       0.491  21.225   5.986  1.00  0.00     0.338 C 
ATOM     33  O   UNL     1       0.049  21.161   4.806  1.00  0.00    -0.246 OA
BRANCH  32  34
ATOM     34  C   UNL     1      -0.447  21.240   7.129  1.00  0.00     0.060 A 
ATOM     35  C   UNL     1      -0.007  21.611   8.414  1.00  0.00     0.015 A 
ATOM     36  C   UNL     1      -1.793  20.875   6.948  1.00  0.00     0.015 A 
ATOM     37  C   UNL     1      -0.899  21.619   9.492  1.00  0.00     0.001 A 
ATOM     38  C   UNL     1      -2.680  20.885   8.029  1.00  0.00     0.001 A 
ATOM     39  C   UNL     1      -2.234  21.257   9.299  1.00  0.00     0.000 A 
ENDBRANCH  32  34
ENDBRANCH  31  32
ENDBRANCH  30  31
ENDBRANCH   8  30
TORSDOF 12
ENDMDL
