MODEL 1
REMARK VINA RESULT:    -2.821      0.000      0.000
REMARK INTER + INTRA:          -5.473
REMARK INTER:                  -4.470
REMARK INTRA:                  -1.003
REMARK UNBOUND:                -1.003
REMARK SMILES CCCCCCCCCCCC=O
REMARK SMILES IDX 7 1 6 2 5 3 4 4 3 5 2 6 1 7 8 8 9 9 10 10 11 11 12 12 13 13
REMARK H PARENT
REMARK Flexibility Score: inf
ROOT
ATOM      1  C   UNL     1      -8.883  21.391  14.628  1.00  0.00     0.000 C 
ENDROOT
BRANCH   1   2
ATOM      2  C   UNL     1      -9.978  22.460  14.475  1.00  0.00     0.000 C 
BRANCH   2   3
ATOM      3  C   UNL     1      -9.464  23.880  14.767  1.00  0.00    -0.000 C 
BRANCH   3   4
ATOM      4  C   UNL     1      -7.943  23.921  14.991  1.00  0.00    -0.000 C 
BRANCH   4   5
ATOM      5  C   UNL     1      -7.559  24.628  16.303  1.00  0.00    -0.000 C 
BRANCH   5   6
ATOM      6  C   UNL     1      -7.148  23.641  17.405  1.00  0.00    -0.003 C 
ATOM      7  C   UNL     1      -7.886  23.884  18.721  1.00  0.00     0.004 C 
ENDBRANCH   5   6
ENDBRANCH   4   5
ENDBRANCH   3   4
ENDBRANCH   2   3
ENDBRANCH   1   2
BRANCH   1   8
ATOM      8  C   UNL     1      -8.593  20.651  13.314  1.00  0.00     0.000 C 
BRANCH   8   9
ATOM      9  C   UNL     1      -7.271  21.124  12.699  1.00  0.00     0.000 C 
BRANCH   9  10
ATOM     10  C   UNL     1      -7.521  22.114  11.551  1.00  0.00     0.008 C 
BRANCH  10  11
ATOM     11  C   UNL     1      -6.610  23.347  11.640  1.00  0.00     0.072 C 
BRANCH  11  12
ATOM     12  C   UNL     1      -5.392  23.221  10.771  1.00  0.00     0.224 C 
ATOM     13  O   UNL     1      -4.283  23.195  11.278  1.00  0.00    -0.303 OA
ENDBRANCH  11  12
ENDBRANCH  10  11
ENDBRANCH   9  10
ENDBRANCH   8   9
ENDBRANCH   1   8
TORSDOF 10
ENDMDL
MODEL 2
REMARK VINA RESULT:    -2.784      1.639      3.099
REMARK INTER + INTRA:          -5.415
REMARK INTER:                  -4.634
REMARK INTRA:                  -0.781
REMARK UNBOUND:                -1.003
REMARK SMILES CCCCCCCCCCCC=O
REMARK SMILES IDX 7 1 6 2 5 3 4 4 3 5 2 6 1 7 8 8 9 9 10 10 11 11 12 12 13 13
REMARK H PARENT
REMARK Flexibility Score: inf
ROOT
ATOM      1  C   UNL     1      -6.796  21.495  12.477  1.00  0.00     0.000 C 
ENDROOT
BRANCH   1   2
ATOM      2  C   UNL     1      -8.263  21.047  12.580  1.00  0.00     0.000 C 
BRANCH   2   3
ATOM      3  C   UNL     1      -8.783  21.054  14.027  1.00  0.00    -0.000 C 
BRANCH   3   4
ATOM      4  C   UNL     1      -9.199  22.458  14.496  1.00  0.00    -0.000 C 
BRANCH   4   5
ATOM      5  C   UNL     1      -8.482  22.885  15.789  1.00  0.00    -0.000 C 
BRANCH   5   6
ATOM      6  C   UNL     1      -7.764  24.236  15.644  1.00  0.00    -0.003 C 
ATOM      7  C   UNL     1      -7.796  24.771  14.213  1.00  0.00     0.004 C 
ENDBRANCH   5   6
ENDBRANCH   4   5
ENDBRANCH   3   4
ENDBRANCH   2   3
ENDBRANCH   1   2
BRANCH   1   8
ATOM      8  C   UNL     1      -6.461  22.109  11.109  1.00  0.00     0.000 C 
BRANCH   8   9
ATOM      9  C   UNL     1      -5.931  23.539  11.265  1.00  0.00     0.000 C 
BRANCH   9  10
ATOM     10  C   UNL     1      -4.649  23.743  10.443  1.00  0.00     0.008 C 
BRANCH  10  11
ATOM     11  C   UNL     1      -3.386  23.673  11.313  1.00  0.00     0.072 C 
BRANCH  11  12
ATOM     12  C   UNL     1      -2.403  24.760  10.983  1.00  0.00     0.224 C 
ATOM     13  O   UNL     1      -2.215  25.077   9.820  1.00  0.00    -0.303 OA
ENDBRANCH  11  12
ENDBRANCH  10  11
ENDBRANCH   9  10
ENDBRANCH   8   9
ENDBRANCH   1   8
TORSDOF 10
ENDMDL
MODEL 3
REMARK VINA RESULT:    -2.773      3.064      5.421
REMARK INTER + INTRA:          -5.397
REMARK INTER:                  -4.558
REMARK INTRA:                  -0.839
REMARK UNBOUND:                -1.003
REMARK SMILES CCCCCCCCCCCC=O
REMARK SMILES IDX 7 1 6 2 5 3 4 4 3 5 2 6 1 7 8 8 9 9 10 10 11 11 12 12 13 13
REMARK H PARENT
REMARK Flexibility Score: inf
ROOT
ATOM      1  C   UNL     1      -6.905  22.726   8.224  1.00  0.00     0.000 C 
ENDROOT
BRANCH   1   2
ATOM      2  C   UNL     1      -6.865  22.051   9.604  1.00  0.00     0.000 C 
BRANCH   2   3
ATOM      3  C   UNL     1      -5.994  22.819  10.613  1.00  0.00    -0.000 C 
BRANCH   3   4
ATOM      4  C   UNL     1      -6.464  22.626  12.064  1.00  0.00    -0.000 C 
BRANCH   4   5
ATOM      5  C   UNL     1      -6.777  21.156  12.393  1.00  0.00    -0.000 C 
BRANCH   5   6
ATOM      6  C   UNL     1      -8.189  20.970  12.969  1.00  0.00    -0.003 C 
ATOM      7  C   UNL     1      -9.086  22.184  12.736  1.00  0.00     0.004 C 
ENDBRANCH   5   6
ENDBRANCH   4   5
ENDBRANCH   3   4
ENDBRANCH   2   3
ENDBRANCH   1   2
BRANCH   1   8
ATOM      8  C   UNL     1      -6.370  21.817   7.107  1.00  0.00     0.000 C 
BRANCH   8   9
ATOM      9  C   UNL     1      -5.100  22.407   6.482  1.00  0.00     0.000 C 
BRANCH   9  10
ATOM     10  C   UNL     1      -4.756  23.765   7.111  1.00  0.00     0.008 C 
BRANCH  10  11
ATOM     11  C   UNL     1      -3.327  23.798   7.674  1.00  0.00     0.072 C 
BRANCH  11  12
ATOM     12  C   UNL     1      -3.207  24.688   8.877  1.00  0.00     0.224 C 
ATOM     13  O   UNL     1      -2.660  24.276   9.886  1.00  0.00    -0.303 OA
ENDBRANCH  11  12
ENDBRANCH  10  11
ENDBRANCH   9  10
ENDBRANCH   8   9
ENDBRANCH   1   8
TORSDOF 10
ENDMDL
MODEL 4
REMARK VINA RESULT:    -2.749      1.393      2.410
REMARK INTER + INTRA:          -5.359
REMARK INTER:                  -4.387
REMARK INTRA:                  -0.972
REMARK UNBOUND:                -1.003
REMARK SMILES CCCCCCCCCCCC=O
REMARK SMILES IDX 7 1 6 2 5 3 4 4 3 5 2 6 1 7 8 8 9 9 10 10 11 11 12 12 13 13
REMARK H PARENT
REMARK Flexibility Score: inf
ROOT
ATOM      1  C   UNL     1      -8.334  20.490  13.266  1.00  0.00     0.000 C 
ENDROOT
BRANCH   1   2
ATOM      2  C   UNL     1      -9.818  20.236  13.578  1.00  0.00     0.000 C 
BRANCH   2   3
ATOM      3  C   UNL     1     -10.214  20.707  14.988  1.00  0.00    -0.000 C 
BRANCH   3   4
ATOM      4  C   UNL     1     -11.100  21.964  14.961  1.00  0.00    -0.000 C 
BRANCH   4   5
ATOM      5  C   UNL     1     -10.277  23.265  14.927  1.00  0.00    -0.000 C 
BRANCH   5   6
ATOM      6  C   UNL     1      -9.019  23.188  15.804  1.00  0.00    -0.003 C 
ATOM      7  C   UNL     1      -7.847  23.979  15.226  1.00  0.00     0.004 C 
ENDBRANCH   5   6
ENDBRANCH   4   5
ENDBRANCH   3   4
ENDBRANCH   2   3
ENDBRANCH   1   2
BRANCH   1   8
ATOM      8  C   UNL     1      -8.127  21.663  12.297  1.00  0.00     0.000 C 
BRANCH   8   9
ATOM      9  C   UNL     1      -6.686  21.696  11.775  1.00  0.00     0.000 C 
BRANCH   9  10
ATOM     10  C   UNL     1      -6.168  23.139  11.679  1.00  0.00     0.008 C 
BRANCH  10  11
ATOM     11  C   UNL     1      -5.492  23.423  10.329  1.00  0.00     0.072 C 
BRANCH  11  12
ATOM     12  C   UNL     1      -4.029  23.730  10.475  1.00  0.00     0.224 C 
ATOM     13  O   UNL     1      -3.411  23.301  11.434  1.00  0.00    -0.303 OA
ENDBRANCH  11  12
ENDBRANCH  10  11
ENDBRANCH   9  10
ENDBRANCH   8   9
ENDBRANCH   1   8
TORSDOF 10
ENDMDL
MODEL 5
REMARK VINA RESULT:    -2.748      2.447      4.928
REMARK INTER + INTRA:          -5.358
REMARK INTER:                  -3.921
REMARK INTRA:                  -1.437
REMARK UNBOUND:                -1.003
REMARK SMILES CCCCCCCCCCCC=O
REMARK SMILES IDX 7 1 6 2 5 3 4 4 3 5 2 6 1 7 8 8 9 9 10 10 11 11 12 12 13 13
REMARK H PARENT
REMARK Flexibility Score: inf
ROOT
ATOM      1  C   UNL     1      -7.559  22.629  13.238  1.00  0.00     0.000 C 
ENDROOT
BRANCH   1   2
ATOM      2  C   UNL     1      -8.358  21.548  12.491  1.00  0.00     0.000 C 
BRANCH   2   3
ATOM      3  C   UNL     1      -8.674  20.330  13.376  1.00  0.00    -0.000 C 
BRANCH   3   4
ATOM      4  C   UNL     1     -10.131  20.320  13.867  1.00  0.00    -0.000 C 
BRANCH   4   5
ATOM      5  C   UNL     1     -10.263  20.774  15.331  1.00  0.00    -0.000 C 
BRANCH   5   6
ATOM      6  C   UNL     1     -11.235  21.952  15.496  1.00  0.00    -0.003 C 
ATOM      7  C   UNL     1     -11.688  22.534  14.159  1.00  0.00     0.004 C 
ENDBRANCH   5   6
ENDBRANCH   4   5
ENDBRANCH   3   4
ENDBRANCH   2   3
ENDBRANCH   1   2
BRANCH   1   8
ATOM      8  C   UNL     1      -8.375  23.909  13.471  1.00  0.00     0.000 C 
BRANCH   8   9
ATOM      9  C   UNL     1      -8.075  24.506  14.851  1.00  0.00     0.000 C 
BRANCH   9  10
ATOM     10  C   UNL     1      -7.826  23.400  15.887  1.00  0.00     0.008 C 
BRANCH  10  11
ATOM     11  C   UNL     1      -8.060  23.889  17.324  1.00  0.00     0.072 C 
BRANCH  11  12
ATOM     12  C   UNL     1      -6.776  24.073  18.082  1.00  0.00     0.224 C 
ATOM     13  O   UNL     1      -5.950  24.881  17.691  1.00  0.00    -0.303 OA
ENDBRANCH  11  12
ENDBRANCH  10  11
ENDBRANCH   9  10
ENDBRANCH   8   9
ENDBRANCH   1   8
TORSDOF 10
ENDMDL
MODEL 6
REMARK VINA RESULT:    -2.744      2.929      4.776
REMARK INTER + INTRA:          -5.351
REMARK INTER:                  -4.378
REMARK INTRA:                  -0.972
REMARK UNBOUND:                -1.003
REMARK SMILES CCCCCCCCCCCC=O
REMARK SMILES IDX 7 1 6 2 5 3 4 4 3 5 2 6 1 7 8 8 9 9 10 10 11 11 12 12 13 13
REMARK H PARENT
REMARK Flexibility Score: inf
ROOT
ATOM      1  C   UNL     1      -7.108  23.473  10.874  1.00  0.00     0.000 C 
ENDROOT
BRANCH   1   2
ATOM      2  C   UNL     1      -6.084  22.618  11.637  1.00  0.00     0.000 C 
BRANCH   2   3
ATOM      3  C   UNL     1      -6.727  21.411  12.339  1.00  0.00    -0.000 C 
BRANCH   3   4
ATOM      4  C   UNL     1      -7.897  21.815  13.252  1.00  0.00    -0.000 C 
BRANCH   4   5
ATOM      5  C   UNL     1      -8.871  20.652  13.512  1.00  0.00    -0.000 C 
BRANCH   5   6
ATOM      6  C   UNL     1      -9.702  20.293  12.271  1.00  0.00    -0.003 C 
ATOM      7  C   UNL     1     -10.347  21.515  11.618  1.00  0.00     0.004 C 
ENDBRANCH   5   6
ENDBRANCH   4   5
ENDBRANCH   3   4
ENDBRANCH   2   3
ENDBRANCH   1   2
BRANCH   1   8
ATOM      8  C   UNL     1      -7.551  22.824   9.554  1.00  0.00     0.000 C 
BRANCH   8   9
ATOM      9  C   UNL     1      -6.340  22.484   8.677  1.00  0.00     0.000 C 
BRANCH   9  10
ATOM     10  C   UNL     1      -5.663  23.761   8.155  1.00  0.00     0.008 C 
BRANCH  10  11
ATOM     11  C   UNL     1      -4.143  23.591   8.009  1.00  0.00     0.072 C 
BRANCH  11  12
ATOM     12  C   UNL     1      -3.397  24.036   9.234  1.00  0.00     0.224 C 
ATOM     13  O   UNL     1      -2.603  24.959   9.161  1.00  0.00    -0.303 OA
ENDBRANCH  11  12
ENDBRANCH  10  11
ENDBRANCH   9  10
ENDBRANCH   8   9
ENDBRANCH   1   8
TORSDOF 10
ENDMDL
MODEL 7
REMARK VINA RESULT:    -2.731      2.658      5.082
REMARK INTER + INTRA:          -5.330
REMARK INTER:                  -4.407
REMARK INTRA:                  -0.923
REMARK UNBOUND:                -1.003
REMARK SMILES CCCCCCCCCCCC=O
REMARK SMILES IDX 7 1 6 2 5 3 4 4 3 5 2 6 1 7 8 8 9 9 10 10 11 11 12 12 13 13
REMARK H PARENT
REMARK Flexibility Score: inf
ROOT
ATOM      1  C   UNL     1      -6.671  22.755   8.130  1.00  0.00     0.000 C 
ENDROOT
BRANCH   1   2
ATOM      2  C   UNL     1      -6.757  22.111   9.523  1.00  0.00     0.000 C 
BRANCH   2   3
ATOM      3  C   UNL     1      -7.520  22.985  10.533  1.00  0.00    -0.000 C 
BRANCH   3   4
ATOM      4  C   UNL     1      -6.916  22.918  11.945  1.00  0.00    -0.000 C 
BRANCH   4   5
ATOM      5  C   UNL     1      -6.753  21.473  12.448  1.00  0.00    -0.000 C 
BRANCH   5   6
ATOM      6  C   UNL     1      -8.091  20.836  12.851  1.00  0.00    -0.003 C 
ATOM      7  C   UNL     1      -8.730  21.519  14.060  1.00  0.00     0.004 C 
ENDBRANCH   5   6
ENDBRANCH   4   5
ENDBRANCH   3   4
ENDBRANCH   2   3
ENDBRANCH   1   2
BRANCH   1   8
ATOM      8  C   UNL     1      -5.234  23.134   7.743  1.00  0.00     0.000 C 
BRANCH   8   9
ATOM      9  C   UNL     1      -4.750  24.343   8.552  1.00  0.00     0.000 C 
BRANCH   9  10
ATOM     10  C   UNL     1      -3.382  24.064   9.193  1.00  0.00     0.008 C 
BRANCH  10  11
ATOM     11  C   UNL     1      -3.499  23.738  10.690  1.00  0.00     0.072 C 
BRANCH  11  12
ATOM     12  C   UNL     1      -3.070  24.885  11.559  1.00  0.00     0.224 C 
ATOM     13  O   UNL     1      -3.908  25.557  12.136  1.00  0.00    -0.303 OA
ENDBRANCH  11  12
ENDBRANCH  10  11
ENDBRANCH   9  10
ENDBRANCH   8   9
ENDBRANCH   1   8
TORSDOF 10
ENDMDL
MODEL 8
REMARK VINA RESULT:    -2.693      3.384      5.296
REMARK INTER + INTRA:          -5.270
REMARK INTER:                  -4.421
REMARK INTRA:                  -0.849
REMARK UNBOUND:                -1.003
REMARK SMILES CCCCCCCCCCCC=O
REMARK SMILES IDX 7 1 6 2 5 3 4 4 3 5 2 6 1 7 8 8 9 9 10 10 11 11 12 12 13 13
REMARK H PARENT
REMARK Flexibility Score: inf
ROOT
ATOM      1  C   UNL     1      -7.349  23.389  11.036  1.00  0.00     0.000 C 
ENDROOT
BRANCH   1   2
ATOM      2  C   UNL     1      -6.234  22.432  11.490  1.00  0.00     0.000 C 
BRANCH   2   3
ATOM      3  C   UNL     1      -6.728  21.393  12.511  1.00  0.00    -0.000 C 
BRANCH   3   4
ATOM      4  C   UNL     1      -8.057  21.799  13.169  1.00  0.00    -0.000 C 
BRANCH   4   5
ATOM      5  C   UNL     1      -8.888  20.585  13.618  1.00  0.00    -0.000 C 
BRANCH   5   6
ATOM      6  C   UNL     1      -9.716  19.983  12.473  1.00  0.00    -0.003 C 
ATOM      7  C   UNL     1     -10.211  21.039  11.485  1.00  0.00     0.004 C 
ENDBRANCH   5   6
ENDBRANCH   4   5
ENDBRANCH   3   4
ENDBRANCH   2   3
ENDBRANCH   1   2
BRANCH   1   8
ATOM      8  C   UNL     1      -7.716  23.207   9.555  1.00  0.00     0.000 C 
BRANCH   8   9
ATOM      9  C   UNL     1      -6.806  22.168   8.889  1.00  0.00     0.000 C 
BRANCH   9  10
ATOM     10  C   UNL     1      -7.090  22.074   7.382  1.00  0.00     0.008 C 
BRANCH  10  11
ATOM     11  C   UNL     1      -5.800  22.085   6.548  1.00  0.00     0.072 C 
BRANCH  11  12
ATOM     12  C   UNL     1      -5.783  21.004   5.507  1.00  0.00     0.224 C 
ATOM     13  O   UNL     1      -6.147  19.876   5.796  1.00  0.00    -0.303 OA
ENDBRANCH  11  12
ENDBRANCH  10  11
ENDBRANCH   9  10
ENDBRANCH   8   9
ENDBRANCH   1   8
TORSDOF 10
ENDMDL
MODEL 9
REMARK VINA RESULT:    -2.692      2.562      4.254
REMARK INTER + INTRA:          -5.269
REMARK INTER:                  -3.730
REMARK INTRA:                  -1.539
REMARK UNBOUND:                -1.003
REMARK SMILES CCCCCCCCCCCC=O
REMARK SMILES IDX 7 1 6 2 5 3 4 4 3 5 2 6 1 7 8 8 9 9 10 10 11 11 12 12 13 13
REMARK H PARENT
REMARK Flexibility Score: inf
ROOT
ATOM      1  C   UNL     1      -8.649  21.435  14.080  1.00  0.00     0.000 C 
ENDROOT
BRANCH   1   2
ATOM      2  C   UNL     1      -9.114  20.209  13.277  1.00  0.00     0.000 C 
BRANCH   2   3
ATOM      3  C   UNL     1     -10.406  20.477  12.486  1.00  0.00    -0.000 C 
BRANCH   3   4
ATOM      4  C   UNL     1     -10.181  20.452  10.964  1.00  0.00    -0.000 C 
BRANCH   4   5
ATOM      5  C   UNL     1     -10.490  21.805  10.300  1.00  0.00    -0.000 C 
BRANCH   5   6
ATOM      6  C   UNL     1     -10.755  22.917  11.327  1.00  0.00    -0.003 C 
ATOM      7  C   UNL     1      -9.869  24.143  11.112  1.00  0.00     0.004 C 
ENDBRANCH   5   6
ENDBRANCH   4   5
ENDBRANCH   3   4
ENDBRANCH   2   3
ENDBRANCH   1   2
BRANCH   1   8
ATOM      8  C   UNL     1      -7.594  22.264  13.332  1.00  0.00     0.000 C 
BRANCH   8   9
ATOM      9  C   UNL     1      -6.780  21.383  12.376  1.00  0.00     0.000 C 
BRANCH   9  10
ATOM     10  C   UNL     1      -6.689  22.022  10.982  1.00  0.00     0.008 C 
BRANCH  10  11
ATOM     11  C   UNL     1      -6.150  23.460  11.038  1.00  0.00     0.072 C 
BRANCH  11  12
ATOM     12  C   UNL     1      -4.860  23.616  10.286  1.00  0.00     0.224 C 
ATOM     13  O   UNL     1      -4.863  23.612   9.066  1.00  0.00    -0.303 OA
ENDBRANCH  11  12
ENDBRANCH  10  11
ENDBRANCH   9  10
ENDBRANCH   8   9
ENDBRANCH   1   8
TORSDOF 10
ENDMDL
