MODEL 1
REMARK VINA RESULT:    -5.804      0.000      0.000
REMARK INTER + INTRA:          -7.985
REMARK INTER:                  -7.162
REMARK INTRA:                  -0.823
REMARK UNBOUND:                -0.823
REMARK SMILES CC(C)=CCC[C@@H](C)c1ccc(C)cc1
REMARK SMILES IDX 6 1 7 2 8 3 9 4 13 5 12 6 11 7 14 8 10 9 15 10 5 11 4 12
REMARK SMILES IDX 2 13 1 14 3 15
REMARK H PARENT
REMARK Flexibility Score: inf
ROOT
ATOM      1  C   UNL     1      -6.581   1.680  -6.018  1.00  0.00     0.012 C 
ENDROOT
BRANCH   1   2
ATOM      2  C   UNL     1      -5.246   1.180  -5.423  1.00  0.00     0.016 C 
ATOM      3  C   UNL     1      -5.182  -0.354  -5.338  1.00  0.00     0.013 C 
BRANCH   2   4
ATOM      4  C   UNL     1      -4.075   1.715  -6.227  1.00  0.00    -0.045 A 
ATOM      5  C   UNL     1      -0.705   3.226  -8.468  1.00  0.00     0.044 C 
ATOM      6  C   UNL     1      -1.887   2.691  -7.716  1.00  0.00    -0.051 A 
ATOM      7  C   UNL     1      -3.010   3.502  -7.494  1.00  0.00     0.004 A 
ATOM      8  C   UNL     1      -1.852   1.401  -7.168  1.00  0.00     0.004 A 
ATOM      9  C   UNL     1      -4.097   3.017  -6.762  1.00  0.00     0.004 A 
ATOM     10  C   UNL     1      -2.938   0.915  -6.434  1.00  0.00     0.004 A 
ENDBRANCH   2   4
ENDBRANCH   1   2
BRANCH   1  11
ATOM     11  C   UNL     1      -7.346   2.606  -5.061  1.00  0.00     0.028 C 
BRANCH  11  12
ATOM     12  C   UNL     1      -8.120   1.802  -4.045  1.00  0.00    -0.028 C 
ATOM     13  C   UNL     1      -7.768   1.674  -2.746  1.00  0.00    -0.080 C 
ATOM     14  C   UNL     1      -6.500   2.280  -2.196  1.00  0.00     0.039 C 
ATOM     15  C   UNL     1      -8.632   0.870  -1.810  1.00  0.00     0.039 C 
ENDBRANCH  11  12
ENDBRANCH   1  11
TORSDOF 4
ENDMDL
MODEL 2
REMARK VINA RESULT:    -5.792      0.079      1.253
REMARK INTER + INTRA:          -7.970
REMARK INTER:                  -7.142
REMARK INTRA:                  -0.828
REMARK UNBOUND:                -0.823
REMARK SMILES CC(C)=CCC[C@@H](C)c1ccc(C)cc1
REMARK SMILES IDX 6 1 7 2 8 3 9 4 13 5 12 6 11 7 14 8 10 9 15 10 5 11 4 12
REMARK SMILES IDX 2 13 1 14 3 15
REMARK H PARENT
REMARK Flexibility Score: inf
ROOT
ATOM      1  C   UNL     1      -6.591   1.727  -6.041  1.00  0.00     0.012 C 
ENDROOT
BRANCH   1   2
ATOM      2  C   UNL     1      -5.260   1.246  -5.423  1.00  0.00     0.016 C 
ATOM      3  C   UNL     1      -5.185  -0.286  -5.318  1.00  0.00     0.013 C 
BRANCH   2   4
ATOM      4  C   UNL     1      -4.083   1.779  -6.219  1.00  0.00    -0.045 A 
ATOM      5  C   UNL     1      -0.772   3.306  -8.536  1.00  0.00     0.044 C 
ATOM      6  C   UNL     1      -1.909   2.788  -7.706  1.00  0.00    -0.051 A 
ATOM      7  C   UNL     1      -1.859   1.492  -7.171  1.00  0.00     0.004 A 
ATOM      8  C   UNL     1      -3.059   3.566  -7.518  1.00  0.00     0.004 A 
ATOM      9  C   UNL     1      -2.934   0.994  -6.429  1.00  0.00     0.004 A 
ATOM     10  C   UNL     1      -4.135   3.069  -6.777  1.00  0.00     0.004 A 
ENDBRANCH   2   4
ENDBRANCH   1   2
BRANCH   1  11
ATOM     11  C   UNL     1      -7.407   2.605  -5.079  1.00  0.00     0.028 C 
BRANCH  11  12
ATOM     12  C   UNL     1      -8.144   1.753  -4.075  1.00  0.00    -0.028 C 
ATOM     13  C   UNL     1      -7.791   1.629  -2.775  1.00  0.00    -0.080 C 
ATOM     14  C   UNL     1      -6.558   2.292  -2.214  1.00  0.00     0.039 C 
ATOM     15  C   UNL     1      -8.618   0.774  -1.852  1.00  0.00     0.039 C 
ENDBRANCH  11  12
ENDBRANCH   1  11
TORSDOF 4
ENDMDL
MODEL 3
REMARK VINA RESULT:    -5.396      1.101      6.708
REMARK INTER + INTRA:          -7.481
REMARK INTER:                  -6.999
REMARK INTRA:                  -0.482
REMARK UNBOUND:                -0.823
REMARK SMILES CC(C)=CCC[C@@H](C)c1ccc(C)cc1
REMARK SMILES IDX 6 1 7 2 8 3 9 4 13 5 12 6 11 7 14 8 10 9 15 10 5 11 4 12
REMARK SMILES IDX 2 13 1 14 3 15
REMARK H PARENT
REMARK Flexibility Score: inf
ROOT
ATOM      1  C   UNL     1      -4.968   1.589  -5.957  1.00  0.00     0.012 C 
ENDROOT
BRANCH   1   2
ATOM      2  C   UNL     1      -6.057   0.524  -5.695  1.00  0.00     0.016 C 
ATOM      3  C   UNL     1      -5.467  -0.887  -5.536  1.00  0.00     0.013 C 
BRANCH   2   4
ATOM      4  C   UNL     1      -6.877   0.896  -4.474  1.00  0.00    -0.045 A 
ATOM      5  C   UNL     1      -9.230   2.005  -1.024  1.00  0.00     0.044 C 
ATOM      6  C   UNL     1      -8.419   1.590  -2.216  1.00  0.00    -0.051 A 
ATOM      7  C   UNL     1      -7.035   1.390  -2.094  1.00  0.00     0.004 A 
ATOM      8  C   UNL     1      -9.023   1.467  -3.475  1.00  0.00     0.004 A 
ATOM      9  C   UNL     1      -6.272   1.041  -3.211  1.00  0.00     0.004 A 
ATOM     10  C   UNL     1      -8.260   1.118  -4.593  1.00  0.00     0.004 A 
ENDBRANCH   2   4
ENDBRANCH   1   2
BRANCH   1  11
ATOM     11  C   UNL     1      -3.616   0.970  -6.344  1.00  0.00     0.028 C 
BRANCH  11  12
ATOM     12  C   UNL     1      -2.608   2.047  -6.662  1.00  0.00    -0.028 C 
ATOM     13  C   UNL     1      -1.630   1.926  -7.589  1.00  0.00    -0.080 C 
ATOM     14  C   UNL     1      -1.408   0.647  -8.357  1.00  0.00     0.039 C 
ATOM     15  C   UNL     1      -0.695   3.079  -7.847  1.00  0.00     0.039 C 
ENDBRANCH  11  12
ENDBRANCH   1  11
TORSDOF 4
ENDMDL
MODEL 4
REMARK VINA RESULT:    -5.236      1.430      2.120
REMARK INTER + INTRA:          -7.284
REMARK INTER:                  -6.167
REMARK INTRA:                  -1.118
REMARK UNBOUND:                -0.823
REMARK SMILES CC(C)=CCC[C@@H](C)c1ccc(C)cc1
REMARK SMILES IDX 6 1 7 2 8 3 9 4 13 5 12 6 11 7 14 8 10 9 15 10 5 11 4 12
REMARK SMILES IDX 2 13 1 14 3 15
REMARK H PARENT
REMARK Flexibility Score: inf
ROOT
ATOM      1  C   UNL     1      -5.804  -0.969  -5.635  1.00  0.00     0.012 C 
ENDROOT
BRANCH   1   2
ATOM      2  C   UNL     1      -5.686  -0.451  -7.086  1.00  0.00     0.016 C 
ATOM      3  C   UNL     1      -6.946   0.302  -7.542  1.00  0.00     0.013 C 
BRANCH   2   4
ATOM      4  C   UNL     1      -4.460   0.432  -7.234  1.00  0.00    -0.045 A 
ATOM      5  C   UNL     1      -0.936   2.894  -7.661  1.00  0.00     0.044 C 
ATOM      6  C   UNL     1      -2.176   2.062  -7.526  1.00  0.00    -0.051 A 
ATOM      7  C   UNL     1      -2.943   2.122  -6.352  1.00  0.00     0.004 A 
ATOM      8  C   UNL     1      -2.541   1.165  -8.540  1.00  0.00     0.004 A 
ATOM      9  C   UNL     1      -4.078   1.319  -6.210  1.00  0.00     0.004 A 
ATOM     10  C   UNL     1      -3.675   0.361  -8.397  1.00  0.00     0.004 A 
ENDBRANCH   2   4
ENDBRANCH   1   2
BRANCH   1  11
ATOM     11  C   UNL     1      -7.101  -0.514  -4.948  1.00  0.00     0.028 C 
BRANCH  11  12
ATOM     12  C   UNL     1      -6.796   0.220  -3.665  1.00  0.00    -0.028 C 
ATOM     13  C   UNL     1      -6.942   1.554  -3.497  1.00  0.00    -0.080 C 
ATOM     14  C   UNL     1      -7.367   2.462  -4.623  1.00  0.00     0.039 C 
ATOM     15  C   UNL     1      -6.636   2.179  -2.160  1.00  0.00     0.039 C 
ENDBRANCH  11  12
ENDBRANCH   1  11
TORSDOF 4
ENDMDL
MODEL 5
REMARK VINA RESULT:    -5.174      2.308      5.784
REMARK INTER + INTRA:          -7.208
REMARK INTER:                  -5.655
REMARK INTRA:                  -1.553
REMARK UNBOUND:                -0.823
REMARK SMILES CC(C)=CCC[C@@H](C)c1ccc(C)cc1
REMARK SMILES IDX 6 1 7 2 8 3 9 4 13 5 12 6 11 7 14 8 10 9 15 10 5 11 4 12
REMARK SMILES IDX 2 13 1 14 3 15
REMARK H PARENT
REMARK Flexibility Score: inf
ROOT
ATOM      1  C   UNL     1      -2.147   0.865  -7.645  1.00  0.00     0.012 C 
ENDROOT
BRANCH   1   2
ATOM      2  C   UNL     1      -2.825   1.758  -6.582  1.00  0.00     0.016 C 
ATOM      3  C   UNL     1      -3.151   3.160  -7.120  1.00  0.00     0.013 C 
BRANCH   2   4
ATOM      4  C   UNL     1      -4.081   1.089  -6.053  1.00  0.00    -0.045 A 
ATOM      5  C   UNL     1      -7.656  -0.850  -4.598  1.00  0.00     0.044 C 
ATOM      6  C   UNL     1      -6.406  -0.173  -5.074  1.00  0.00    -0.051 A 
ATOM      7  C   UNL     1      -6.393   1.212  -5.295  1.00  0.00     0.004 A 
ATOM      8  C   UNL     1      -5.262  -0.927  -5.369  1.00  0.00     0.004 A 
ATOM      9  C   UNL     1      -5.240   1.839  -5.775  1.00  0.00     0.004 A 
ATOM     10  C   UNL     1      -4.108  -0.301  -5.850  1.00  0.00     0.004 A 
ENDBRANCH   2   4
ENDBRANCH   1   2
BRANCH   1  11
ATOM     11  C   UNL     1      -2.717   1.085  -9.055  1.00  0.00     0.028 C 
BRANCH  11  12
ATOM     12  C   UNL     1      -3.596  -0.072  -9.463  1.00  0.00    -0.028 C 
ATOM     13  C   UNL     1      -4.930   0.017  -9.663  1.00  0.00    -0.080 C 
ATOM     14  C   UNL     1      -5.692   1.296  -9.424  1.00  0.00     0.039 C 
ATOM     15  C   UNL     1      -5.706  -1.199 -10.099  1.00  0.00     0.039 C 
ENDBRANCH  11  12
ENDBRANCH   1  11
TORSDOF 4
ENDMDL
MODEL 6
REMARK VINA RESULT:    -5.023      1.707      2.863
REMARK INTER + INTRA:          -7.021
REMARK INTER:                  -5.915
REMARK INTRA:                  -1.106
REMARK UNBOUND:                -0.823
REMARK SMILES CC(C)=CCC[C@@H](C)c1ccc(C)cc1
REMARK SMILES IDX 6 1 7 2 8 3 9 4 13 5 12 6 11 7 14 8 10 9 15 10 5 11 4 12
REMARK SMILES IDX 2 13 1 14 3 15
REMARK H PARENT
REMARK Flexibility Score: inf
ROOT
ATOM      1  C   UNL     1      -5.910   0.011  -7.266  1.00  0.00     0.012 C 
ENDROOT
BRANCH   1   2
ATOM      2  C   UNL     1      -4.958   0.454  -6.132  1.00  0.00     0.016 C 
ATOM      3  C   UNL     1      -4.487  -0.729  -5.271  1.00  0.00     0.013 C 
BRANCH   2   4
ATOM      4  C   UNL     1      -3.766   1.200  -6.704  1.00  0.00    -0.045 A 
ATOM      5  C   UNL     1      -0.410   3.349  -8.372  1.00  0.00     0.044 C 
ATOM      6  C   UNL     1      -1.562   2.605  -7.765  1.00  0.00    -0.051 A 
ATOM      7  C   UNL     1      -1.554   1.202  -7.724  1.00  0.00     0.004 A 
ATOM      8  C   UNL     1      -2.687   3.299  -7.299  1.00  0.00     0.004 A 
ATOM      9  C   UNL     1      -2.643   0.506  -7.193  1.00  0.00     0.004 A 
ATOM     10  C   UNL     1      -3.777   2.604  -6.768  1.00  0.00     0.004 A 
ENDBRANCH   2   4
ENDBRANCH   1   2
BRANCH   1  11
ATOM     11  C   UNL     1      -7.321   0.600  -7.117  1.00  0.00     0.028 C 
BRANCH  11  12
ATOM     12  C   UNL     1      -7.337   2.056  -7.512  1.00  0.00    -0.028 C 
ATOM     13  C   UNL     1      -7.424   3.083  -6.636  1.00  0.00    -0.080 C 
ATOM     14  C   UNL     1      -7.588   2.859  -5.153  1.00  0.00     0.039 C 
ATOM     15  C   UNL     1      -7.401   4.502  -7.140  1.00  0.00     0.039 C 
ENDBRANCH  11  12
ENDBRANCH   1  11
TORSDOF 4
ENDMDL
MODEL 7
REMARK VINA RESULT:    -4.972      2.610      5.179
REMARK INTER + INTRA:          -6.958
REMARK INTER:                  -5.648
REMARK INTRA:                  -1.310
REMARK UNBOUND:                -0.823
REMARK SMILES CC(C)=CCC[C@@H](C)c1ccc(C)cc1
REMARK SMILES IDX 6 1 7 2 8 3 9 4 13 5 12 6 11 7 14 8 10 9 15 10 5 11 4 12
REMARK SMILES IDX 2 13 1 14 3 15
REMARK H PARENT
REMARK Flexibility Score: inf
ROOT
ATOM      1  C   UNL     1      -2.274   2.750  -7.706  1.00  0.00     0.012 C 
ENDROOT
BRANCH   1   2
ATOM      2  C   UNL     1      -2.692   1.462  -8.449  1.00  0.00     0.016 C 
ATOM      3  C   UNL     1      -1.487   0.578  -8.808  1.00  0.00     0.013 C 
BRANCH   2   4
ATOM      4  C   UNL     1      -3.696   0.678  -7.624  1.00  0.00    -0.045 A 
ATOM      5  C   UNL     1      -6.597  -1.513  -5.290  1.00  0.00     0.044 C 
ATOM      6  C   UNL     1      -5.577  -0.779  -6.108  1.00  0.00    -0.051 A 
ATOM      7  C   UNL     1      -4.407  -0.291  -5.505  1.00  0.00     0.004 A 
ATOM      8  C   UNL     1      -5.814  -0.513  -7.463  1.00  0.00     0.004 A 
ATOM      9  C   UNL     1      -3.472   0.425  -6.258  1.00  0.00     0.004 A 
ATOM     10  C   UNL     1      -4.880   0.205  -8.217  1.00  0.00     0.004 A 
ENDBRANCH   2   4
ENDBRANCH   1   2
BRANCH   1  11
ATOM     11  C   UNL     1      -3.093   3.976  -8.140  1.00  0.00     0.028 C 
BRANCH  11  12
ATOM     12  C   UNL     1      -4.334   4.116  -7.292  1.00  0.00    -0.028 C 
ATOM     13  C   UNL     1      -5.593   3.921  -7.747  1.00  0.00    -0.080 C 
ATOM     14  C   UNL     1      -5.884   3.608  -9.193  1.00  0.00     0.039 C 
ATOM     15  C   UNL     1      -6.760   4.058  -6.803  1.00  0.00     0.039 C 
ENDBRANCH  11  12
ENDBRANCH   1  11
TORSDOF 4
ENDMDL
MODEL 8
REMARK VINA RESULT:    -4.942      2.219      4.185
REMARK INTER + INTRA:          -6.921
REMARK INTER:                  -5.480
REMARK INTRA:                  -1.441
REMARK UNBOUND:                -0.823
REMARK SMILES CC(C)=CCC[C@@H](C)c1ccc(C)cc1
REMARK SMILES IDX 6 1 7 2 8 3 9 4 13 5 12 6 11 7 14 8 10 9 15 10 5 11 4 12
REMARK SMILES IDX 2 13 1 14 3 15
REMARK H PARENT
REMARK Flexibility Score: inf
ROOT
ATOM      1  C   UNL     1      -6.655  -0.215  -6.050  1.00  0.00     0.012 C 
ENDROOT
BRANCH   1   2
ATOM      2  C   UNL     1      -6.321   1.220  -5.584  1.00  0.00     0.016 C 
ATOM      3  C   UNL     1      -6.361   1.361  -4.054  1.00  0.00     0.013 C 
BRANCH   2   4
ATOM      4  C   UNL     1      -4.967   1.648  -6.120  1.00  0.00    -0.045 A 
ATOM      5  C   UNL     1      -1.088   2.857  -7.588  1.00  0.00     0.044 C 
ATOM      6  C   UNL     1      -2.441   2.425  -7.105  1.00  0.00    -0.051 A 
ATOM      7  C   UNL     1      -3.536   3.297  -7.200  1.00  0.00     0.004 A 
ATOM      8  C   UNL     1      -2.608   1.175  -6.493  1.00  0.00     0.004 A 
ATOM      9  C   UNL     1      -4.789   2.910  -6.717  1.00  0.00     0.004 A 
ATOM     10  C   UNL     1      -3.861   0.787  -6.009  1.00  0.00     0.004 A 
ENDBRANCH   2   4
ENDBRANCH   1   2
BRANCH   1  11
ATOM     11  C   UNL     1      -7.089  -0.273  -7.523  1.00  0.00     0.028 C 
BRANCH  11  12
ATOM     12  C   UNL     1      -5.976  -0.818  -8.385  1.00  0.00    -0.028 C 
ATOM     13  C   UNL     1      -5.337  -0.108  -9.342  1.00  0.00    -0.080 C 
ATOM     14  C   UNL     1      -5.734   1.305  -9.692  1.00  0.00     0.039 C 
ATOM     15  C   UNL     1      -4.217  -0.743 -10.125  1.00  0.00     0.039 C 
ENDBRANCH  11  12
ENDBRANCH   1  11
TORSDOF 4
ENDMDL
MODEL 9
REMARK VINA RESULT:    -4.917      1.734      2.984
REMARK INTER + INTRA:          -6.891
REMARK INTER:                  -5.342
REMARK INTRA:                  -1.549
REMARK UNBOUND:                -0.823
REMARK SMILES CC(C)=CCC[C@@H](C)c1ccc(C)cc1
REMARK SMILES IDX 6 1 7 2 8 3 9 4 13 5 12 6 11 7 14 8 10 9 15 10 5 11 4 12
REMARK SMILES IDX 2 13 1 14 3 15
REMARK H PARENT
REMARK Flexibility Score: inf
ROOT
ATOM      1  C   UNL     1      -5.994   0.826  -4.471  1.00  0.00     0.012 C 
ENDROOT
BRANCH   1   2
ATOM      2  C   UNL     1      -5.198  -0.198  -5.310  1.00  0.00     0.016 C 
ATOM      3  C   UNL     1      -6.111  -1.232  -5.990  1.00  0.00     0.013 C 
BRANCH   2   4
ATOM      4  C   UNL     1      -4.344   0.514  -6.344  1.00  0.00    -0.045 A 
ATOM      5  C   UNL     1      -1.886   2.488  -9.297  1.00  0.00     0.044 C 
ATOM      6  C   UNL     1      -2.762   1.822  -8.279  1.00  0.00    -0.051 A 
ATOM      7  C   UNL     1      -2.737   2.245  -6.941  1.00  0.00     0.004 A 
ATOM      8  C   UNL     1      -3.561   0.728  -8.639  1.00  0.00     0.004 A 
ATOM      9  C   UNL     1      -3.525   1.601  -5.983  1.00  0.00     0.004 A 
ATOM     10  C   UNL     1      -4.349   0.082  -7.681  1.00  0.00     0.004 A 
ENDBRANCH   2   4
ENDBRANCH   1   2
BRANCH   1  11
ATOM     11  C   UNL     1      -7.204   1.397  -5.227  1.00  0.00     0.028 C 
BRANCH  11  12
ATOM     12  C   UNL     1      -7.010   2.866  -5.513  1.00  0.00    -0.028 C 
ATOM     13  C   UNL     1      -6.913   3.395  -6.754  1.00  0.00    -0.080 C 
ATOM     14  C   UNL     1      -6.918   2.536  -7.994  1.00  0.00     0.039 C 
ATOM     15  C   UNL     1      -6.750   4.883  -6.924  1.00  0.00     0.039 C 
ENDBRANCH  11  12
ENDBRANCH   1  11
TORSDOF 4
ENDMDL
