MODEL 1
REMARK VINA RESULT:    -6.380      0.000      0.000
REMARK INTER + INTRA:         -14.022
REMARK INTER:                 -12.161
REMARK INTRA:                  -1.861
REMARK UNBOUND:                -1.861
REMARK SMILES C[C@@H]1O[C@H](O[C@H]2[C@H](O)[C@@H](OCCc3ccc(O)c(O)c3)O[C@@H](CO)[C@@H]2OC(=O)C=Cc2ccc(O)c(O)c2)[C@@H](O)[C@@H](O)[C@H]1O
REMARK SMILES IDX 6 1 7 2 9 3 21 4 22 5 25 6 5 7 4 8 1 9 2 10 43 11 3 12 41 13
REMARK SMILES IDX 39 14 44 15 42 17 40 19 8 21 26 23 27 24 28 25 29 26 30 27
REMARK SMILES IDX 31 28 38 29 32 30 36 31 33 32 34 33 37 34 35 36 10 38 11 39
REMARK SMILES IDX 12 40 13 41 20 42 14 43 18 44 15 45 16 46 19 47 17 49 23 51
REMARK SMILES IDX 24 52
REMARK H PARENT 44 16 42 18 40 20 8 22 37 35 35 37 19 48 17 50 24 53
REMARK Flexibility Score: inf
ROOT
ATOM      1  C   UNL     1      17.298  36.542  66.115  1.00  0.00     0.199 C 
ATOM      2  C   UNL     1      17.499  35.262  65.291  1.00  0.00     0.203 C 
ATOM      3  C   UNL     1      16.654  35.263  64.006  1.00  0.00     0.282 C 
ATOM      4  O   UNL     1      16.910  36.397  63.198  1.00  0.00    -0.340 OA
ATOM      5  C   UNL     1      16.713  37.650  63.840  1.00  0.00     0.190 C 
ATOM      6  C   UNL     1      17.404  37.797  65.230  1.00  0.00     0.240 C 
ENDROOT
BRANCH   1   7
ATOM      7  O   UNL     1      16.035  36.514  66.780  1.00  0.00    -0.340 OA
BRANCH   7   8
ATOM      8  C   UNL     1      15.641  37.802  67.253  1.00  0.00     0.282 C 
ATOM      9  C   UNL     1      13.387  35.691  67.823  1.00  0.00     0.041 C 
ATOM     10  C   UNL     1      13.559  37.146  68.264  1.00  0.00     0.150 C 
ATOM     11  C   UNL     1      14.144  37.284  69.691  1.00  0.00     0.174 C 
ATOM     12  O   UNL     1      14.224  37.926  67.275  1.00  0.00    -0.344 OA
ATOM     13  C   UNL     1      15.677  37.170  69.680  1.00  0.00     0.179 C 
ATOM     14  C   UNL     1      16.267  38.113  68.630  1.00  0.00     0.202 C 
BRANCH  11  15
ATOM     15  O   UNL     1      13.751  38.524  70.228  1.00  0.00    -0.388 OA
ATOM     16  H   UNL     1      13.895  39.210  69.522  1.00  0.00     0.211 HD
ENDBRANCH  11  15
BRANCH  13  17
ATOM     17  O   UNL     1      16.212  37.477  70.941  1.00  0.00    -0.387 OA
ATOM     18  H   UNL     1      16.626  38.377  70.864  1.00  0.00     0.211 HD
ENDBRANCH  13  17
BRANCH  14  19
ATOM     19  O   UNL     1      16.019  39.450  68.985  1.00  0.00    -0.385 OA
ATOM     20  H   UNL     1      15.644  39.440  69.905  1.00  0.00     0.211 HD
ENDBRANCH  14  19
ENDBRANCH   7   8
ENDBRANCH   1   7
BRANCH   2  21
ATOM     21  O   UNL     1      18.859  35.139  64.958  1.00  0.00    -0.385 OA
ATOM     22  H   UNL     1      19.360  35.769  65.538  1.00  0.00     0.211 HD
ENDBRANCH   2  21
BRANCH   6  23
ATOM     23  O   UNL     1      18.790  38.102  65.038  1.00  0.00    -0.453 OA
BRANCH  23  24
ATOM     24  C   UNL     1      19.534  38.905  65.914  1.00  0.00     0.331 C 
ATOM     25  O   UNL     1      19.369  38.812  67.162  1.00  0.00    -0.247 OA
BRANCH  24  26
ATOM     26  C   UNL     1      20.520  39.864  65.396  1.00  0.00     0.094 C 
ATOM     27  C   UNL     1      21.581  40.255  66.117  1.00  0.00     0.016 C 
BRANCH  27  28
ATOM     28  C   UNL     1      22.624  41.168  65.592  1.00  0.00    -0.021 A 
ATOM     29  C   UNL     1      23.804  40.695  64.989  1.00  0.00     0.058 A 
ATOM     30  C   UNL     1      22.417  42.553  65.681  1.00  0.00     0.012 A 
ATOM     31  C   UNL     1      24.776  41.584  64.512  1.00  0.00     0.157 A 
ATOM     32  C   UNL     1      23.383  43.447  65.211  1.00  0.00     0.051 A 
ATOM     33  C   UNL     1      24.569  42.978  64.636  1.00  0.00     0.157 A 
BRANCH  31  34
ATOM     34  O   UNL     1      25.920  41.043  63.921  1.00  0.00    -0.504 OA
ATOM     35  H   UNL     1      26.047  40.942  62.926  1.00  0.00     0.293 HD
ENDBRANCH  31  34
BRANCH  33  36
ATOM     36  O   UNL     1      25.506  43.922  64.209  1.00  0.00    -0.504 OA
ATOM     37  H   UNL     1      26.483  43.717  64.053  1.00  0.00     0.293 HD
ENDBRANCH  33  36
ENDBRANCH  27  28
ENDBRANCH  24  26
ENDBRANCH  23  24
ENDBRANCH   6  23
BRANCH   3  38
ATOM     38  O   UNL     1      15.268  35.149  64.298  1.00  0.00    -0.350 OA
BRANCH  38  39
ATOM     39  C   UNL     1      14.974  33.885  64.861  1.00  0.00     0.168 C 
BRANCH  39  40
ATOM     40  C   UNL     1      13.490  33.572  64.681  1.00  0.00     0.064 C 
BRANCH  40  41
ATOM     41  C   UNL     1      13.292  32.452  63.693  1.00  0.00    -0.042 A 
ATOM     42  C   UNL     1      14.355  32.032  62.875  1.00  0.00     0.054 A 
ATOM     43  C   UNL     1      12.056  31.792  63.608  1.00  0.00     0.008 A 
ATOM     44  C   UNL     1      14.174  30.989  61.957  1.00  0.00     0.157 A 
ATOM     45  C   UNL     1      11.875  30.753  62.694  1.00  0.00     0.050 A 
ATOM     46  C   UNL     1      12.926  30.349  61.864  1.00  0.00     0.157 A 
BRANCH  44  47
ATOM     47  O   UNL     1      15.230  30.585  61.141  1.00  0.00    -0.504 OA
ATOM     48  H   UNL     1      15.581  31.174  60.395  1.00  0.00     0.293 HD
ENDBRANCH  44  47
BRANCH  46  49
ATOM     49  O   UNL     1      12.713  29.314  60.956  1.00  0.00    -0.504 OA
ATOM     50  H   UNL     1      12.037  29.388  60.207  1.00  0.00     0.293 HD
ENDBRANCH  46  49
ENDBRANCH  40  41
ENDBRANCH  39  40
ENDBRANCH  38  39
ENDBRANCH   3  38
BRANCH   5  51
ATOM     51  C   UNL     1      15.252  38.134  63.765  1.00  0.00     0.192 C 
BRANCH  51  52
ATOM     52  O   UNL     1      14.858  38.405  62.454  1.00  0.00    -0.394 OA
ATOM     53  H   UNL     1      13.892  38.179  62.405  1.00  0.00     0.210 HD
ENDBRANCH  51  52
ENDBRANCH   5  51
TORSDOF 20
ENDMDL
MODEL 2
REMARK VINA RESULT:    -6.330      1.861      9.919
REMARK INTER + INTRA:         -13.926
REMARK INTER:                 -11.863
REMARK INTRA:                  -2.063
REMARK UNBOUND:                -1.861
REMARK SMILES C[C@@H]1O[C@H](O[C@H]2[C@H](O)[C@@H](OCCc3ccc(O)c(O)c3)O[C@@H](CO)[C@@H]2OC(=O)C=Cc2ccc(O)c(O)c2)[C@@H](O)[C@@H](O)[C@H]1O
REMARK SMILES IDX 6 1 7 2 9 3 21 4 22 5 25 6 5 7 4 8 1 9 2 10 43 11 3 12 41 13
REMARK SMILES IDX 39 14 44 15 42 17 40 19 8 21 26 23 27 24 28 25 29 26 30 27
REMARK SMILES IDX 31 28 38 29 32 30 36 31 33 32 34 33 37 34 35 36 10 38 11 39
REMARK SMILES IDX 12 40 13 41 20 42 14 43 18 44 15 45 16 46 19 47 17 49 23 51
REMARK SMILES IDX 24 52
REMARK H PARENT 44 16 42 18 40 20 8 22 37 35 35 37 19 48 17 50 24 53
REMARK Flexibility Score: inf
ROOT
ATOM      1  C   UNL     1      14.738  36.789  65.309  1.00  0.00     0.199 C 
ATOM      2  C   UNL     1      15.205  37.795  64.247  1.00  0.00     0.203 C 
ATOM      3  C   UNL     1      16.632  37.497  63.757  1.00  0.00     0.282 C 
ATOM      4  O   UNL     1      16.763  36.179  63.256  1.00  0.00    -0.340 OA
ATOM      5  C   UNL     1      16.400  35.151  64.168  1.00  0.00     0.190 C 
ATOM      6  C   UNL     1      15.020  35.341  64.866  1.00  0.00     0.240 C 
ENDROOT
BRANCH   1   7
ATOM      7  O   UNL     1      15.372  37.052  66.560  1.00  0.00    -0.340 OA
BRANCH   7   8
ATOM      8  C   UNL     1      14.809  38.180  67.229  1.00  0.00     0.282 C 
ATOM      9  C   UNL     1      13.303  35.552  68.059  1.00  0.00     0.041 C 
ATOM     10  C   UNL     1      13.227  36.985  68.592  1.00  0.00     0.150 C 
ATOM     11  C   UNL     1      14.077  37.204  69.868  1.00  0.00     0.174 C 
ATOM     12  O   UNL     1      13.446  37.946  67.565  1.00  0.00    -0.344 OA
ATOM     13  C   UNL     1      15.550  37.476  69.519  1.00  0.00     0.179 C 
ATOM     14  C   UNL     1      15.645  38.579  68.464  1.00  0.00     0.202 C 
BRANCH  11  15
ATOM     15  O   UNL     1      13.541  38.283  70.595  1.00  0.00    -0.388 OA
ATOM     16  H   UNL     1      12.556  38.149  70.636  1.00  0.00     0.211 HD
ENDBRANCH  11  15
BRANCH  13  17
ATOM     17  O   UNL     1      16.274  37.853  70.661  1.00  0.00    -0.387 OA
ATOM     18  H   UNL     1      17.102  38.299  70.340  1.00  0.00     0.211 HD
ENDBRANCH  13  17
BRANCH  14  19
ATOM     19  O   UNL     1      15.181  39.796  68.992  1.00  0.00    -0.385 OA
ATOM     20  H   UNL     1      15.058  39.659  69.968  1.00  0.00     0.211 HD
ENDBRANCH  14  19
ENDBRANCH   7   8
ENDBRANCH   1   7
BRANCH   2  21
ATOM     21  O   UNL     1      14.318  37.759  63.157  1.00  0.00    -0.385 OA
ATOM     22  H   UNL     1      13.538  37.211  63.434  1.00  0.00     0.211 HD
ENDBRANCH   2  21
BRANCH   6  23
ATOM     23  O   UNL     1      13.979  34.929  63.973  1.00  0.00    -0.453 OA
BRANCH  23  24
ATOM     24  C   UNL     1      13.458  33.628  63.939  1.00  0.00     0.331 C 
ATOM     25  O   UNL     1      12.325  33.381  64.438  1.00  0.00    -0.247 OA
BRANCH  24  26
ATOM     26  C   UNL     1      14.216  32.533  63.319  1.00  0.00     0.094 C 
ATOM     27  C   UNL     1      13.621  31.422  62.862  1.00  0.00     0.016 C 
BRANCH  27  28
ATOM     28  C   UNL     1      14.355  30.334  62.173  1.00  0.00    -0.021 A 
ATOM     29  C   UNL     1      13.704  29.206  61.640  1.00  0.00     0.058 A 
ATOM     30  C   UNL     1      15.747  30.445  62.028  1.00  0.00     0.012 A 
ATOM     31  C   UNL     1      14.429  28.190  61.004  1.00  0.00     0.157 A 
ATOM     32  C   UNL     1      16.477  29.433  61.398  1.00  0.00     0.051 A 
ATOM     33  C   UNL     1      15.835  28.299  60.891  1.00  0.00     0.157 A 
BRANCH  31  34
ATOM     34  O   UNL     1      13.716  27.102  60.495  1.00  0.00    -0.504 OA
ATOM     35  H   UNL     1      12.710  27.074  60.414  1.00  0.00     0.293 HD
ENDBRANCH  31  34
BRANCH  33  36
ATOM     36  O   UNL     1      16.624  27.312  60.296  1.00  0.00    -0.504 OA
ATOM     37  H   UNL     1      16.388  26.330  60.287  1.00  0.00     0.293 HD
ENDBRANCH  33  36
ENDBRANCH  27  28
ENDBRANCH  24  26
ENDBRANCH  23  24
ENDBRANCH   6  23
BRANCH   3  38
ATOM     38  O   UNL     1      17.592  37.752  64.773  1.00  0.00    -0.350 OA
BRANCH  38  39
ATOM     39  C   UNL     1      18.875  37.962  64.214  1.00  0.00     0.168 C 
BRANCH  39  40
ATOM     40  C   UNL     1      19.944  37.389  65.143  1.00  0.00     0.064 C 
BRANCH  40  41
ATOM     41  C   UNL     1      20.795  38.488  65.725  1.00  0.00    -0.042 A 
ATOM     42  C   UNL     1      21.504  38.278  66.919  1.00  0.00     0.054 A 
ATOM     43  C   UNL     1      20.917  39.717  65.059  1.00  0.00     0.008 A 
ATOM     44  C   UNL     1      22.299  39.298  67.460  1.00  0.00     0.157 A 
ATOM     45  C   UNL     1      21.709  40.733  65.596  1.00  0.00     0.050 A 
ATOM     46  C   UNL     1      22.398  40.533  66.797  1.00  0.00     0.157 A 
BRANCH  44  47
ATOM     47  O   UNL     1      22.992  39.086  68.652  1.00  0.00    -0.504 OA
ATOM     48  H   UNL     1      22.904  39.719  69.438  1.00  0.00     0.293 HD
ENDBRANCH  44  47
BRANCH  46  49
ATOM     49  O   UNL     1      23.174  41.568  67.313  1.00  0.00    -0.504 OA
ATOM     50  H   UNL     1      22.899  42.084  68.139  1.00  0.00     0.293 HD
ENDBRANCH  46  49
ENDBRANCH  40  41
ENDBRANCH  39  40
ENDBRANCH  38  39
ENDBRANCH   3  38
BRANCH   5  51
ATOM     51  C   UNL     1      17.564  34.736  65.090  1.00  0.00     0.192 C 
BRANCH  51  52
ATOM     52  O   UNL     1      17.406  35.229  66.385  1.00  0.00    -0.394 OA
ATOM     53  H   UNL     1      18.270  35.657  66.624  1.00  0.00     0.210 HD
ENDBRANCH  51  52
ENDBRANCH   5  51
TORSDOF 20
ENDMDL
MODEL 3
REMARK VINA RESULT:    -6.315      4.221      7.582
REMARK INTER + INTRA:         -13.898
REMARK INTER:                 -11.416
REMARK INTRA:                  -2.483
REMARK UNBOUND:                -1.861
REMARK SMILES C[C@@H]1O[C@H](O[C@H]2[C@H](O)[C@@H](OCCc3ccc(O)c(O)c3)O[C@@H](CO)[C@@H]2OC(=O)C=Cc2ccc(O)c(O)c2)[C@@H](O)[C@@H](O)[C@H]1O
REMARK SMILES IDX 6 1 7 2 9 3 21 4 22 5 25 6 5 7 4 8 1 9 2 10 43 11 3 12 41 13
REMARK SMILES IDX 39 14 44 15 42 17 40 19 8 21 26 23 27 24 28 25 29 26 30 27
REMARK SMILES IDX 31 28 38 29 32 30 36 31 33 32 34 33 37 34 35 36 10 38 11 39
REMARK SMILES IDX 12 40 13 41 20 42 14 43 18 44 15 45 16 46 19 47 17 49 23 51
REMARK SMILES IDX 24 52
REMARK H PARENT 44 16 42 18 40 20 8 22 37 35 35 37 19 48 17 50 24 53
REMARK Flexibility Score: inf
ROOT
ATOM      1  C   UNL     1      22.233  39.051  64.688  1.00  0.00     0.199 C 
ATOM      2  C   UNL     1      20.796  39.429  65.073  1.00  0.00     0.203 C 
ATOM      3  C   UNL     1      20.555  39.323  66.588  1.00  0.00     0.282 C 
ATOM      4  O   UNL     1      21.471  40.106  67.332  1.00  0.00    -0.340 OA
ATOM      5  C   UNL     1      22.842  39.817  67.095  1.00  0.00     0.190 C 
ATOM      6  C   UNL     1      23.256  39.761  65.593  1.00  0.00     0.240 C 
ENDROOT
BRANCH   1   7
ATOM      7  O   UNL     1      22.413  37.637  64.758  1.00  0.00    -0.340 OA
BRANCH   7   8
ATOM      8  C   UNL     1      22.783  37.073  63.501  1.00  0.00     0.282 C 
ATOM      9  C   UNL     1      21.775  34.828  65.452  1.00  0.00     0.041 C 
ATOM     10  C   UNL     1      22.120  34.806  63.961  1.00  0.00     0.150 C 
ATOM     11  C   UNL     1      20.877  34.925  63.047  1.00  0.00     0.174 C 
ATOM     12  O   UNL     1      23.173  35.712  63.646  1.00  0.00    -0.344 OA
ATOM     13  C   UNL     1      20.454  36.393  62.865  1.00  0.00     0.179 C 
ATOM     14  C   UNL     1      21.660  37.240  62.454  1.00  0.00     0.202 C 
BRANCH  11  15
ATOM     15  O   UNL     1      21.169  34.344  61.799  1.00  0.00    -0.388 OA
ATOM     16  H   UNL     1      20.899  34.998  61.099  1.00  0.00     0.211 HD
ENDBRANCH  11  15
BRANCH  13  17
ATOM     17  O   UNL     1      19.446  36.508  61.895  1.00  0.00    -0.387 OA
ATOM     18  H   UNL     1      18.579  36.416  62.373  1.00  0.00     0.211 HD
ENDBRANCH  13  17
BRANCH  14  19
ATOM     19  O   UNL     1      22.117  36.849  61.184  1.00  0.00    -0.385 OA
ATOM     20  H   UNL     1      22.745  37.554  60.873  1.00  0.00     0.211 HD
ENDBRANCH  14  19
ENDBRANCH   7   8
ENDBRANCH   1   7
BRANCH   2  21
ATOM     21  O   UNL     1      20.536  40.744  64.648  1.00  0.00    -0.385 OA
ATOM     22  H   UNL     1      19.693  40.722  64.126  1.00  0.00     0.211 HD
ENDBRANCH   2  21
BRANCH   6  23
ATOM     23  O   UNL     1      23.444  41.095  65.106  1.00  0.00    -0.453 OA
BRANCH  23  24
ATOM     24  C   UNL     1      24.578  41.870  65.388  1.00  0.00     0.331 C 
ATOM     25  O   UNL     1      24.623  42.578  66.432  1.00  0.00    -0.247 OA
BRANCH  24  26
ATOM     26  C   UNL     1      25.734  41.866  64.480  1.00  0.00     0.094 C 
ATOM     27  C   UNL     1      26.528  42.936  64.332  1.00  0.00     0.016 C 
BRANCH  27  28
ATOM     28  C   UNL     1      27.737  42.935  63.474  1.00  0.00    -0.021 A 
ATOM     29  C   UNL     1      29.011  43.269  63.969  1.00  0.00     0.058 A 
ATOM     30  C   UNL     1      27.609  42.566  62.126  1.00  0.00     0.012 A 
ATOM     31  C   UNL     1      30.133  43.268  63.129  1.00  0.00     0.157 A 
ATOM     32  C   UNL     1      28.722  42.566  61.281  1.00  0.00     0.051 A 
ATOM     33  C   UNL     1      29.984  42.924  61.765  1.00  0.00     0.157 A 
BRANCH  31  34
ATOM     34  O   UNL     1      31.366  43.606  63.690  1.00  0.00    -0.504 OA
ATOM     35  H   UNL     1      31.847  43.044  64.377  1.00  0.00     0.293 HD
ENDBRANCH  31  34
BRANCH  33  36
ATOM     36  O   UNL     1      31.052  42.930  60.864  1.00  0.00    -0.504 OA
ATOM     37  H   UNL     1      32.016  43.070  61.133  1.00  0.00     0.293 HD
ENDBRANCH  33  36
ENDBRANCH  27  28
ENDBRANCH  24  26
ENDBRANCH  23  24
ENDBRANCH   6  23
BRANCH   3  38
ATOM     38  O   UNL     1      20.575  37.970  67.022  1.00  0.00    -0.350 OA
BRANCH  38  39
ATOM     39  C   UNL     1      19.342  37.333  66.745  1.00  0.00     0.168 C 
BRANCH  39  40
ATOM     40  C   UNL     1      18.189  38.292  67.034  1.00  0.00     0.064 C 
BRANCH  40  41
ATOM     41  C   UNL     1      17.163  38.248  65.932  1.00  0.00    -0.042 A 
ATOM     42  C   UNL     1      17.462  37.626  64.709  1.00  0.00     0.054 A 
ATOM     43  C   UNL     1      15.885  38.794  66.133  1.00  0.00     0.008 A 
ATOM     44  C   UNL     1      16.507  37.581  63.684  1.00  0.00     0.157 A 
ATOM     45  C   UNL     1      14.934  38.750  65.112  1.00  0.00     0.050 A 
ATOM     46  C   UNL     1      15.238  38.150  63.886  1.00  0.00     0.157 A 
BRANCH  44  47
ATOM     47  O   UNL     1      16.816  36.972  62.468  1.00  0.00    -0.504 OA
ATOM     48  H   UNL     1      16.503  36.034  62.249  1.00  0.00     0.293 HD
ENDBRANCH  44  47
BRANCH  46  49
ATOM     49  O   UNL     1      14.271  38.128  62.884  1.00  0.00    -0.504 OA
ATOM     50  H   UNL     1      13.654  38.913  62.717  1.00  0.00     0.293 HD
ENDBRANCH  46  49
ENDBRANCH  40  41
ENDBRANCH  39  40
ENDBRANCH  38  39
ENDBRANCH   3  38
BRANCH   5  51
ATOM     51  C   UNL     1      23.368  38.667  67.976  1.00  0.00     0.192 C 
BRANCH  51  52
ATOM     52  O   UNL     1      22.701  38.599  69.200  1.00  0.00    -0.394 OA
ATOM     53  H   UNL     1      23.024  37.771  69.644  1.00  0.00     0.210 HD
ENDBRANCH  51  52
ENDBRANCH   5  51
TORSDOF 20
ENDMDL
MODEL 4
REMARK VINA RESULT:    -6.289      4.088      6.770
REMARK INTER + INTRA:         -13.848
REMARK INTER:                 -10.365
REMARK INTRA:                  -3.483
REMARK UNBOUND:                -1.861
REMARK SMILES C[C@@H]1O[C@H](O[C@H]2[C@H](O)[C@@H](OCCc3ccc(O)c(O)c3)O[C@@H](CO)[C@@H]2OC(=O)C=Cc2ccc(O)c(O)c2)[C@@H](O)[C@@H](O)[C@H]1O
REMARK SMILES IDX 6 1 7 2 9 3 21 4 22 5 25 6 5 7 4 8 1 9 2 10 43 11 3 12 41 13
REMARK SMILES IDX 39 14 44 15 42 17 40 19 8 21 26 23 27 24 28 25 29 26 30 27
REMARK SMILES IDX 31 28 38 29 32 30 36 31 33 32 34 33 37 34 35 36 10 38 11 39
REMARK SMILES IDX 12 40 13 41 20 42 14 43 18 44 15 45 16 46 19 47 17 49 23 51
REMARK SMILES IDX 24 52
REMARK H PARENT 44 16 42 18 40 20 8 22 37 35 35 37 19 48 17 50 24 53
REMARK Flexibility Score: inf
ROOT
ATOM      1  C   UNL     1      21.235  37.905  69.357  1.00  0.00     0.199 C 
ATOM      2  C   UNL     1      20.770  38.010  70.816  1.00  0.00     0.203 C 
ATOM      3  C   UNL     1      20.551  36.629  71.455  1.00  0.00     0.282 C 
ATOM      4  O   UNL     1      21.707  35.815  71.381  1.00  0.00    -0.340 OA
ATOM      5  C   UNL     1      22.211  35.605  70.068  1.00  0.00     0.190 C 
ATOM      6  C   UNL     1      22.390  36.896  69.213  1.00  0.00     0.240 C 
ENDROOT
BRANCH   1   7
ATOM      7  O   UNL     1      20.148  37.532  68.512  1.00  0.00    -0.340 OA
BRANCH   7   8
ATOM      8  C   UNL     1      20.334  37.962  67.164  1.00  0.00     0.282 C 
ATOM      9  C   UNL     1      18.242  35.624  67.285  1.00  0.00     0.041 C 
ATOM     10  C   UNL     1      18.674  36.550  66.146  1.00  0.00     0.150 C 
ATOM     11  C   UNL     1      17.710  37.742  65.932  1.00  0.00     0.174 C 
ATOM     12  O   UNL     1      20.048  36.912  66.248  1.00  0.00    -0.344 OA
ATOM     13  C   UNL     1      18.019  38.893  66.903  1.00  0.00     0.179 C 
ATOM     14  C   UNL     1      19.510  39.232  66.858  1.00  0.00     0.202 C 
BRANCH  11  15
ATOM     15  O   UNL     1      17.818  38.185  64.601  1.00  0.00    -0.388 OA
ATOM     16  H   UNL     1      18.789  38.249  64.391  1.00  0.00     0.211 HD
ENDBRANCH  11  15
BRANCH  13  17
ATOM     17  O   UNL     1      17.267  40.034  66.585  1.00  0.00    -0.387 OA
ATOM     18  H   UNL     1      16.311  39.784  66.689  1.00  0.00     0.211 HD
ENDBRANCH  13  17
BRANCH  14  19
ATOM     19  O   UNL     1      19.853  39.741  65.594  1.00  0.00    -0.385 OA
ATOM     20  H   UNL     1      19.908  40.729  65.685  1.00  0.00     0.211 HD
ENDBRANCH  14  19
ENDBRANCH   7   8
ENDBRANCH   1   7
BRANCH   2  21
ATOM     21  O   UNL     1      21.731  38.722  71.556  1.00  0.00    -0.385 OA
ATOM     22  H   UNL     1      21.344  38.888  72.454  1.00  0.00     0.211 HD
ENDBRANCH   2  21
BRANCH   6  23
ATOM     23  O   UNL     1      23.609  37.546  69.587  1.00  0.00    -0.453 OA
BRANCH  23  24
ATOM     24  C   UNL     1      24.535  38.049  68.661  1.00  0.00     0.331 C 
ATOM     25  O   UNL     1      25.719  37.612  68.641  1.00  0.00    -0.247 OA
BRANCH  24  26
ATOM     26  C   UNL     1      24.142  39.086  67.697  1.00  0.00     0.094 C 
ATOM     27  C   UNL     1      24.697  40.307  67.698  1.00  0.00     0.016 C 
BRANCH  27  28
ATOM     28  C   UNL     1      24.366  41.347  66.694  1.00  0.00    -0.021 A 
ATOM     29  C   UNL     1      23.453  42.384  66.959  1.00  0.00     0.058 A 
ATOM     30  C   UNL     1      25.004  41.307  65.445  1.00  0.00     0.012 A 
ATOM     31  C   UNL     1      23.155  43.347  65.985  1.00  0.00     0.157 A 
ATOM     32  C   UNL     1      24.709  42.261  64.467  1.00  0.00     0.051 A 
ATOM     33  C   UNL     1      23.781  43.277  64.719  1.00  0.00     0.157 A 
BRANCH  31  34
ATOM     34  O   UNL     1      22.243  44.350  66.319  1.00  0.00    -0.504 OA
ATOM     35  H   UNL     1      21.555  44.723  65.683  1.00  0.00     0.293 HD
ENDBRANCH  31  34
BRANCH  33  36
ATOM     36  O   UNL     1      23.511  44.184  63.691  1.00  0.00    -0.504 OA
ATOM     37  H   UNL     1      23.655  43.986  62.711  1.00  0.00     0.293 HD
ENDBRANCH  33  36
ENDBRANCH  27  28
ENDBRANCH  24  26
ENDBRANCH  23  24
ENDBRANCH   6  23
BRANCH   3  38
ATOM     38  O   UNL     1      19.428  35.969  70.888  1.00  0.00    -0.350 OA
BRANCH  38  39
ATOM     39  C   UNL     1      18.220  36.563  71.325  1.00  0.00     0.168 C 
BRANCH  39  40
ATOM     40  C   UNL     1      17.045  35.643  71.000  1.00  0.00     0.064 C 
BRANCH  40  41
ATOM     41  C   UNL     1      16.078  36.317  70.061  1.00  0.00    -0.042 A 
ATOM     42  C   UNL     1      16.109  37.711  69.891  1.00  0.00     0.054 A 
ATOM     43  C   UNL     1      15.164  35.553  69.319  1.00  0.00     0.008 A 
ATOM     44  C   UNL     1      15.213  38.338  69.016  1.00  0.00     0.157 A 
ATOM     45  C   UNL     1      14.271  36.177  68.447  1.00  0.00     0.050 A 
ATOM     46  C   UNL     1      14.286  37.568  68.294  1.00  0.00     0.157 A 
BRANCH  44  47
ATOM     47  O   UNL     1      15.242  39.724  68.861  1.00  0.00    -0.504 OA
ATOM     48  H   UNL     1      14.708  40.190  68.137  1.00  0.00     0.293 HD
ENDBRANCH  44  47
BRANCH  46  49
ATOM     49  O   UNL     1      13.377  38.163  67.421  1.00  0.00    -0.504 OA
ATOM     50  H   UNL     1      12.583  38.694  67.755  1.00  0.00     0.293 HD
ENDBRANCH  46  49
ENDBRANCH  40  41
ENDBRANCH  39  40
ENDBRANCH  38  39
ENDBRANCH   3  38
BRANCH   5  51
ATOM     51  C   UNL     1      21.535  34.418  69.354  1.00  0.00     0.192 C 
BRANCH  51  52
ATOM     52  O   UNL     1      21.365  34.657  67.990  1.00  0.00    -0.394 OA
ATOM     53  H   UNL     1      21.843  35.506  67.798  1.00  0.00     0.210 HD
ENDBRANCH  51  52
ENDBRANCH   5  51
TORSDOF 20
ENDMDL
MODEL 5
REMARK VINA RESULT:    -6.280      3.947     11.610
REMARK INTER + INTRA:         -13.832
REMARK INTER:                 -11.462
REMARK INTRA:                  -2.370
REMARK UNBOUND:                -1.861
REMARK SMILES C[C@@H]1O[C@H](O[C@H]2[C@H](O)[C@@H](OCCc3ccc(O)c(O)c3)O[C@@H](CO)[C@@H]2OC(=O)C=Cc2ccc(O)c(O)c2)[C@@H](O)[C@@H](O)[C@H]1O
REMARK SMILES IDX 6 1 7 2 9 3 21 4 22 5 25 6 5 7 4 8 1 9 2 10 43 11 3 12 41 13
REMARK SMILES IDX 39 14 44 15 42 17 40 19 8 21 26 23 27 24 28 25 29 26 30 27
REMARK SMILES IDX 31 28 38 29 32 30 36 31 33 32 34 33 37 34 35 36 10 38 11 39
REMARK SMILES IDX 12 40 13 41 20 42 14 43 18 44 15 45 16 46 19 47 17 49 23 51
REMARK SMILES IDX 24 52
REMARK H PARENT 44 16 42 18 40 20 8 22 37 35 35 37 19 48 17 50 24 53
REMARK Flexibility Score: inf
ROOT
ATOM      1  C   UNL     1      22.428  41.011  66.382  1.00  0.00     0.199 C 
ATOM      2  C   UNL     1      22.221  40.395  64.991  1.00  0.00     0.203 C 
ATOM      3  C   UNL     1      22.946  39.047  64.842  1.00  0.00     0.282 C 
ATOM      4  O   UNL     1      22.559  38.117  65.838  1.00  0.00    -0.340 OA
ATOM      5  C   UNL     1      22.746  38.558  67.176  1.00  0.00     0.190 C 
ATOM      6  C   UNL     1      22.177  39.974  67.493  1.00  0.00     0.240 C 
ENDROOT
BRANCH   1   7
ATOM      7  O   UNL     1      23.745  41.547  66.500  1.00  0.00    -0.340 OA
BRANCH   7   8
ATOM      8  C   UNL     1      23.760  42.973  66.430  1.00  0.00     0.282 C 
ATOM      9  C   UNL     1      26.370  41.919  67.824  1.00  0.00     0.041 C 
ATOM     10  C   UNL     1      25.959  43.314  67.346  1.00  0.00     0.150 C 
ATOM     11  C   UNL     1      26.541  43.676  65.958  1.00  0.00     0.174 C 
ATOM     12  O   UNL     1      24.556  43.527  67.471  1.00  0.00    -0.344 OA
ATOM     13  C   UNL     1      25.680  43.099  64.822  1.00  0.00     0.179 C 
ATOM     14  C   UNL     1      24.211  43.465  65.038  1.00  0.00     0.202 C 
BRANCH  11  15
ATOM     15  O   UNL     1      26.620  45.077  65.846  1.00  0.00    -0.388 OA
ATOM     16  H   UNL     1      26.355  45.313  64.917  1.00  0.00     0.211 HD
ENDBRANCH  11  15
BRANCH  13  17
ATOM     17  O   UNL     1      26.107  43.582  63.574  1.00  0.00    -0.387 OA
ATOM     18  H   UNL     1      25.828  44.534  63.526  1.00  0.00     0.211 HD
ENDBRANCH  13  17
BRANCH  14  19
ATOM     19  O   UNL     1      24.038  44.856  64.934  1.00  0.00    -0.385 OA
ATOM     20  H   UNL     1      23.119  45.008  64.588  1.00  0.00     0.211 HD
ENDBRANCH  14  19
ENDBRANCH   7   8
ENDBRANCH   1   7
BRANCH   2  21
ATOM     21  O   UNL     1      20.845  40.215  64.768  1.00  0.00    -0.385 OA
ATOM     22  H   UNL     1      20.483  41.085  64.458  1.00  0.00     0.211 HD
ENDBRANCH   2  21
BRANCH   6  23
ATOM     23  O   UNL     1      20.765  39.877  67.712  1.00  0.00    -0.453 OA
BRANCH  23  24
ATOM     24  C   UNL     1      20.121  38.693  68.097  1.00  0.00     0.331 C 
ATOM     25  O   UNL     1      20.528  38.041  69.098  1.00  0.00    -0.247 OA
BRANCH  24  26
ATOM     26  C   UNL     1      18.960  38.193  67.347  1.00  0.00     0.094 C 
ATOM     27  C   UNL     1      18.127  39.013  66.691  1.00  0.00     0.016 C 
BRANCH  27  28
ATOM     28  C   UNL     1      16.990  38.528  65.873  1.00  0.00    -0.021 A 
ATOM     29  C   UNL     1      17.166  37.981  64.588  1.00  0.00     0.058 A 
ATOM     30  C   UNL     1      15.695  38.597  66.409  1.00  0.00     0.012 A 
ATOM     31  C   UNL     1      16.068  37.541  63.836  1.00  0.00     0.157 A 
ATOM     32  C   UNL     1      14.594  38.164  65.664  1.00  0.00     0.051 A 
ATOM     33  C   UNL     1      14.764  37.645  64.376  1.00  0.00     0.157 A 
BRANCH  31  34
ATOM     34  O   UNL     1      16.319  37.005  62.572  1.00  0.00    -0.504 OA
ATOM     35  H   UNL     1      15.611  36.869  61.866  1.00  0.00     0.293 HD
ENDBRANCH  31  34
BRANCH  33  36
ATOM     36  O   UNL     1      13.623  37.253  63.673  1.00  0.00    -0.504 OA
ATOM     37  H   UNL     1      12.955  37.899  63.277  1.00  0.00     0.293 HD
ENDBRANCH  33  36
ENDBRANCH  27  28
ENDBRANCH  24  26
ENDBRANCH  23  24
ENDBRANCH   6  23
BRANCH   3  38
ATOM     38  O   UNL     1      24.357  39.217  64.826  1.00  0.00    -0.350 OA
BRANCH  38  39
ATOM     39  C   UNL     1      24.973  38.239  64.009  1.00  0.00     0.168 C 
BRANCH  39  40
ATOM     40  C   UNL     1      26.492  38.349  64.129  1.00  0.00     0.064 C 
BRANCH  40  41
ATOM     41  C   UNL     1      27.061  39.184  63.012  1.00  0.00    -0.042 A 
ATOM     42  C   UNL     1      27.603  40.452  63.280  1.00  0.00     0.054 A 
ATOM     43  C   UNL     1      27.090  38.687  61.700  1.00  0.00     0.008 A 
ATOM     44  C   UNL     1      28.136  41.229  62.243  1.00  0.00     0.157 A 
ATOM     45  C   UNL     1      27.620  39.460  60.666  1.00  0.00     0.050 A 
ATOM     46  C   UNL     1      28.140  40.732  60.929  1.00  0.00     0.157 A 
BRANCH  44  47
ATOM     47  O   UNL     1      28.663  42.491  62.516  1.00  0.00    -0.504 OA
ATOM     48  H   UNL     1      28.160  43.167  63.078  1.00  0.00     0.293 HD
ENDBRANCH  44  47
BRANCH  46  49
ATOM     49  O   UNL     1      28.656  41.483  59.875  1.00  0.00    -0.504 OA
ATOM     50  H   UNL     1      28.555  41.194  58.911  1.00  0.00     0.293 HD
ENDBRANCH  46  49
ENDBRANCH  40  41
ENDBRANCH  39  40
ENDBRANCH  38  39
ENDBRANCH   3  38
BRANCH   5  51
ATOM     51  C   UNL     1      24.167  38.276  67.703  1.00  0.00     0.192 C 
BRANCH  51  52
ATOM     52  O   UNL     1      24.582  39.235  68.626  1.00  0.00    -0.394 OA
ATOM     53  H   UNL     1      24.686  40.081  68.116  1.00  0.00     0.210 HD
ENDBRANCH  51  52
ENDBRANCH   5  51
TORSDOF 20
ENDMDL
MODEL 6
REMARK VINA RESULT:    -6.190      2.005      4.909
REMARK INTER + INTRA:         -13.659
REMARK INTER:                 -10.601
REMARK INTRA:                  -3.058
REMARK UNBOUND:                -1.861
REMARK SMILES C[C@@H]1O[C@H](O[C@H]2[C@H](O)[C@@H](OCCc3ccc(O)c(O)c3)O[C@@H](CO)[C@@H]2OC(=O)C=Cc2ccc(O)c(O)c2)[C@@H](O)[C@@H](O)[C@H]1O
REMARK SMILES IDX 6 1 7 2 9 3 21 4 22 5 25 6 5 7 4 8 1 9 2 10 43 11 3 12 41 13
REMARK SMILES IDX 39 14 44 15 42 17 40 19 8 21 26 23 27 24 28 25 29 26 30 27
REMARK SMILES IDX 31 28 38 29 32 30 36 31 33 32 34 33 37 34 35 36 10 38 11 39
REMARK SMILES IDX 12 40 13 41 20 42 14 43 18 44 15 45 16 46 19 47 17 49 23 51
REMARK SMILES IDX 24 52
REMARK H PARENT 44 16 42 18 40 20 8 22 37 35 35 37 19 48 17 50 24 53
REMARK Flexibility Score: inf
ROOT
ATOM      1  C   UNL     1      18.277  38.079  66.004  1.00  0.00     0.199 C 
ATOM      2  C   UNL     1      16.901  38.759  66.014  1.00  0.00     0.203 C 
ATOM      3  C   UNL     1      15.833  37.893  66.703  1.00  0.00     0.282 C 
ATOM      4  O   UNL     1      16.200  37.540  68.024  1.00  0.00    -0.340 OA
ATOM      5  C   UNL     1      17.443  36.860  68.141  1.00  0.00     0.190 C 
ATOM      6  C   UNL     1      18.637  37.532  67.398  1.00  0.00     0.240 C 
ENDROOT
BRANCH   1   7
ATOM      7  O   UNL     1      18.308  37.027  65.040  1.00  0.00    -0.340 OA
BRANCH   7   8
ATOM      8  C   UNL     1      18.463  37.514  63.708  1.00  0.00     0.282 C 
ATOM      9  C   UNL     1      21.245  36.664  64.891  1.00  0.00     0.041 C 
ATOM     10  C   UNL     1      20.819  37.080  63.481  1.00  0.00     0.150 C 
ATOM     11  C   UNL     1      20.563  35.874  62.544  1.00  0.00     0.174 C 
ATOM     12  O   UNL     1      19.769  38.042  63.505  1.00  0.00    -0.344 OA
ATOM     13  C   UNL     1      19.147  35.305  62.738  1.00  0.00     0.179 C 
ATOM     14  C   UNL     1      18.113  36.430  62.666  1.00  0.00     0.202 C 
BRANCH  11  15
ATOM     15  O   UNL     1      20.743  36.286  61.210  1.00  0.00    -0.388 OA
ATOM     16  H   UNL     1      20.260  37.148  61.101  1.00  0.00     0.211 HD
ENDBRANCH  11  15
BRANCH  13  17
ATOM     17  O   UNL     1      18.858  34.336  61.764  1.00  0.00    -0.387 OA
ATOM     18  H   UNL     1      18.863  34.804  60.887  1.00  0.00     0.211 HD
ENDBRANCH  13  17
BRANCH  14  19
ATOM     19  O   UNL     1      18.091  36.985  61.375  1.00  0.00    -0.385 OA
ATOM     20  H   UNL     1      17.137  37.052  61.105  1.00  0.00     0.211 HD
ENDBRANCH  14  19
ENDBRANCH   7   8
ENDBRANCH   1   7
BRANCH   2  21
ATOM     21  O   UNL     1      17.003  39.994  66.677  1.00  0.00    -0.385 OA
ATOM     22  H   UNL     1      16.613  39.873  67.581  1.00  0.00     0.211 HD
ENDBRANCH   2  21
BRANCH   6  23
ATOM     23  O   UNL     1      19.142  38.610  68.193  1.00  0.00    -0.453 OA
BRANCH  23  24
ATOM     24  C   UNL     1      20.508  38.873  68.364  1.00  0.00     0.331 C 
ATOM     25  O   UNL     1      21.177  38.238  69.226  1.00  0.00    -0.247 OA
BRANCH  24  26
ATOM     26  C   UNL     1      21.187  39.885  67.542  1.00  0.00     0.094 C 
ATOM     27  C   UNL     1      22.461  39.747  67.147  1.00  0.00     0.016 C 
BRANCH  27  28
ATOM     28  C   UNL     1      23.145  40.720  66.263  1.00  0.00    -0.021 A 
ATOM     29  C   UNL     1      22.714  42.054  66.138  1.00  0.00     0.058 A 
ATOM     30  C   UNL     1      24.275  40.302  65.544  1.00  0.00     0.012 A 
ATOM     31  C   UNL     1      23.377  42.947  65.285  1.00  0.00     0.157 A 
ATOM     32  C   UNL     1      24.939  41.186  64.689  1.00  0.00     0.051 A 
ATOM     33  C   UNL     1      24.497  42.504  64.542  1.00  0.00     0.157 A 
BRANCH  31  34
ATOM     34  O   UNL     1      22.897  44.257  65.214  1.00  0.00    -0.504 OA
ATOM     35  H   UNL     1      23.346  45.047  65.651  1.00  0.00     0.293 HD
ENDBRANCH  31  34
BRANCH  33  36
ATOM     36  O   UNL     1      25.188  43.330  63.652  1.00  0.00    -0.504 OA
ATOM     37  H   UNL     1      26.095  43.110  63.266  1.00  0.00     0.293 HD
ENDBRANCH  33  36
ENDBRANCH  27  28
ENDBRANCH  24  26
ENDBRANCH  23  24
ENDBRANCH   6  23
BRANCH   3  38
ATOM     38  O   UNL     1      15.528  36.738  65.934  1.00  0.00    -0.350 OA
BRANCH  38  39
ATOM     39  C   UNL     1      14.139  36.471  65.953  1.00  0.00     0.168 C 
BRANCH  39  40
ATOM     40  C   UNL     1      13.893  35.041  66.429  1.00  0.00     0.064 C 
BRANCH  40  41
ATOM     41  C   UNL     1      13.995  34.067  65.284  1.00  0.00    -0.042 A 
ATOM     42  C   UNL     1      15.224  33.861  64.636  1.00  0.00     0.054 A 
ATOM     43  C   UNL     1      12.872  33.330  64.880  1.00  0.00     0.008 A 
ATOM     44  C   UNL     1      15.321  32.953  63.573  1.00  0.00     0.157 A 
ATOM     45  C   UNL     1      12.967  32.425  63.821  1.00  0.00     0.050 A 
ATOM     46  C   UNL     1      14.186  32.235  63.161  1.00  0.00     0.157 A 
BRANCH  44  47
ATOM     47  O   UNL     1      16.543  32.762  62.928  1.00  0.00    -0.504 OA
ATOM     48  H   UNL     1      16.685  32.002  62.273  1.00  0.00     0.293 HD
ENDBRANCH  44  47
BRANCH  46  49
ATOM     49  O   UNL     1      14.249  31.332  62.102  1.00  0.00    -0.504 OA
ATOM     50  H   UNL     1      14.200  31.632  61.137  1.00  0.00     0.293 HD
ENDBRANCH  46  49
ENDBRANCH  40  41
ENDBRANCH  39  40
ENDBRANCH  38  39
ENDBRANCH   3  38
BRANCH   5  51
ATOM     51  C   UNL     1      17.308  35.337  67.951  1.00  0.00     0.192 C 
BRANCH  51  52
ATOM     52  O   UNL     1      17.775  34.923  66.703  1.00  0.00    -0.394 OA
ATOM     53  H   UNL     1      16.969  34.797  66.136  1.00  0.00     0.210 HD
ENDBRANCH  51  52
ENDBRANCH   5  51
TORSDOF 20
ENDMDL
MODEL 7
REMARK VINA RESULT:    -6.181      2.223     10.610
REMARK INTER + INTRA:         -13.642
REMARK INTER:                 -10.872
REMARK INTRA:                  -2.769
REMARK UNBOUND:                -1.861
REMARK SMILES C[C@@H]1O[C@H](O[C@H]2[C@H](O)[C@@H](OCCc3ccc(O)c(O)c3)O[C@@H](CO)[C@@H]2OC(=O)C=Cc2ccc(O)c(O)c2)[C@@H](O)[C@@H](O)[C@H]1O
REMARK SMILES IDX 6 1 7 2 9 3 21 4 22 5 25 6 5 7 4 8 1 9 2 10 43 11 3 12 41 13
REMARK SMILES IDX 39 14 44 15 42 17 40 19 8 21 26 23 27 24 28 25 29 26 30 27
REMARK SMILES IDX 31 28 38 29 32 30 36 31 33 32 34 33 37 34 35 36 10 38 11 39
REMARK SMILES IDX 12 40 13 41 20 42 14 43 18 44 15 45 16 46 19 47 17 49 23 51
REMARK SMILES IDX 24 52
REMARK H PARENT 44 16 42 18 40 20 8 22 37 35 35 37 19 48 17 50 24 53
REMARK Flexibility Score: inf
ROOT
ATOM      1  C   UNL     1      19.377  36.978  63.949  1.00  0.00     0.199 C 
ATOM      2  C   UNL     1      20.502  37.969  63.617  1.00  0.00     0.203 C 
ATOM      3  C   UNL     1      21.437  38.205  64.815  1.00  0.00     0.282 C 
ATOM      4  O   UNL     1      21.993  37.000  65.307  1.00  0.00    -0.340 OA
ATOM      5  C   UNL     1      21.044  36.013  65.692  1.00  0.00     0.190 C 
ATOM      6  C   UNL     1      19.931  35.719  64.641  1.00  0.00     0.240 C 
ENDROOT
BRANCH   1   7
ATOM      7  O   UNL     1      18.392  37.599  64.773  1.00  0.00    -0.340 OA
BRANCH   7   8
ATOM      8  C   UNL     1      17.257  36.761  64.989  1.00  0.00     0.282 C 
ATOM      9  C   UNL     1      16.993  39.410  66.655  1.00  0.00     0.041 C 
ATOM     10  C   UNL     1      16.007  38.270  66.386  1.00  0.00     0.150 C 
ATOM     11  C   UNL     1      15.008  38.587  65.246  1.00  0.00     0.174 C 
ATOM     12  O   UNL     1      16.668  37.015  66.260  1.00  0.00    -0.344 OA
ATOM     13  C   UNL     1      15.625  38.300  63.866  1.00  0.00     0.179 C 
ATOM     14  C   UNL     1      16.230  36.895  63.843  1.00  0.00     0.202 C 
BRANCH  11  15
ATOM     15  O   UNL     1      13.845  37.817  65.430  1.00  0.00    -0.388 OA
ATOM     16  H   UNL     1      13.923  37.375  66.317  1.00  0.00     0.211 HD
ENDBRANCH  11  15
BRANCH  13  17
ATOM     17  O   UNL     1      14.660  38.413  62.853  1.00  0.00    -0.387 OA
ATOM     18  H   UNL     1      13.810  38.675  63.296  1.00  0.00     0.211 HD
ENDBRANCH  13  17
BRANCH  14  19
ATOM     19  O   UNL     1      15.219  35.929  63.981  1.00  0.00    -0.385 OA
ATOM     20  H   UNL     1      14.515  36.329  64.558  1.00  0.00     0.211 HD
ENDBRANCH  14  19
ENDBRANCH   7   8
ENDBRANCH   1   7
BRANCH   2  21
ATOM     21  O   UNL     1      21.246  37.474  62.532  1.00  0.00    -0.385 OA
ATOM     22  H   UNL     1      20.658  36.847  62.037  1.00  0.00     0.211 HD
ENDBRANCH   2  21
BRANCH   6  23
ATOM     23  O   UNL     1      20.451  34.841  63.637  1.00  0.00    -0.453 OA
BRANCH  23  24
ATOM     24  C   UNL     1      19.811  34.600  62.412  1.00  0.00     0.331 C 
ATOM     25  O   UNL     1      20.414  34.815  61.324  1.00  0.00    -0.247 OA
BRANCH  24  26
ATOM     26  C   UNL     1      18.434  34.089  62.373  1.00  0.00     0.094 C 
ATOM     27  C   UNL     1      18.150  32.789  62.536  1.00  0.00     0.016 C 
BRANCH  27  28
ATOM     28  C   UNL     1      16.766  32.259  62.568  1.00  0.00    -0.021 A 
ATOM     29  C   UNL     1      15.828  32.662  63.536  1.00  0.00     0.058 A 
ATOM     30  C   UNL     1      16.371  31.341  61.583  1.00  0.00     0.012 A 
ATOM     31  C   UNL     1      14.530  32.135  63.545  1.00  0.00     0.157 A 
ATOM     32  C   UNL     1      15.079  30.808  61.587  1.00  0.00     0.051 A 
ATOM     33  C   UNL     1      14.154  31.187  62.565  1.00  0.00     0.157 A 
BRANCH  31  34
ATOM     34  O   UNL     1      13.652  32.584  64.534  1.00  0.00    -0.504 OA
ATOM     35  H   UNL     1      13.939  33.096  65.354  1.00  0.00     0.293 HD
ENDBRANCH  31  34
BRANCH  33  36
ATOM     36  O   UNL     1      12.888  30.598  62.530  1.00  0.00    -0.504 OA
ATOM     37  H   UNL     1      12.236  30.706  61.765  1.00  0.00     0.293 HD
ENDBRANCH  33  36
ENDBRANCH  27  28
ENDBRANCH  24  26
ENDBRANCH  23  24
ENDBRANCH   6  23
BRANCH   3  38
ATOM     38  O   UNL     1      20.779  38.921  65.851  1.00  0.00    -0.350 OA
BRANCH  38  39
ATOM     39  C   UNL     1      21.222  40.265  65.896  1.00  0.00     0.168 C 
BRANCH  39  40
ATOM     40  C   UNL     1      22.409  40.386  66.850  1.00  0.00     0.064 C 
BRANCH  40  41
ATOM     41  C   UNL     1      23.284  41.552  66.474  1.00  0.00    -0.042 A 
ATOM     42  C   UNL     1      22.960  42.355  65.367  1.00  0.00     0.054 A 
ATOM     43  C   UNL     1      24.410  41.872  67.249  1.00  0.00     0.008 A 
ATOM     44  C   UNL     1      23.772  43.442  65.018  1.00  0.00     0.157 A 
ATOM     45  C   UNL     1      25.219  42.955  66.901  1.00  0.00     0.050 A 
ATOM     46  C   UNL     1      24.910  43.740  65.786  1.00  0.00     0.157 A 
BRANCH  44  47
ATOM     47  O   UNL     1      23.450  44.227  63.911  1.00  0.00    -0.504 OA
ATOM     48  H   UNL     1      24.154  44.522  63.244  1.00  0.00     0.293 HD
ENDBRANCH  44  47
BRANCH  46  49
ATOM     49  O   UNL     1      25.740  44.810  65.460  1.00  0.00    -0.504 OA
ATOM     50  H   UNL     1      26.717  44.831  65.725  1.00  0.00     0.293 HD
ENDBRANCH  46  49
ENDBRANCH  40  41
ENDBRANCH  39  40
ENDBRANCH  38  39
ENDBRANCH   3  38
BRANCH   5  51
ATOM     51  C   UNL     1      20.562  36.187  67.146  1.00  0.00     0.192 C 
BRANCH  51  52
ATOM     52  O   UNL     1      19.440  37.013  67.229  1.00  0.00    -0.394 OA
ATOM     53  H   UNL     1      19.766  37.884  67.578  1.00  0.00     0.210 HD
ENDBRANCH  51  52
ENDBRANCH   5  51
TORSDOF 20
ENDMDL
MODEL 8
REMARK VINA RESULT:    -6.166      2.608      4.535
REMARK INTER + INTRA:         -13.615
REMARK INTER:                 -11.140
REMARK INTRA:                  -2.475
REMARK UNBOUND:                -1.861
REMARK SMILES C[C@@H]1O[C@H](O[C@H]2[C@H](O)[C@@H](OCCc3ccc(O)c(O)c3)O[C@@H](CO)[C@@H]2OC(=O)C=Cc2ccc(O)c(O)c2)[C@@H](O)[C@@H](O)[C@H]1O
REMARK SMILES IDX 6 1 7 2 9 3 21 4 22 5 25 6 5 7 4 8 1 9 2 10 43 11 3 12 41 13
REMARK SMILES IDX 39 14 44 15 42 17 40 19 8 21 26 23 27 24 28 25 29 26 30 27
REMARK SMILES IDX 31 28 38 29 32 30 36 31 33 32 34 33 37 34 35 36 10 38 11 39
REMARK SMILES IDX 12 40 13 41 20 42 14 43 18 44 15 45 16 46 19 47 17 49 23 51
REMARK SMILES IDX 24 52
REMARK H PARENT 44 16 42 18 40 20 8 22 37 35 35 37 19 48 17 50 24 53
REMARK Flexibility Score: inf
ROOT
ATOM      1  C   UNL     1      18.450  36.722  65.728  1.00  0.00     0.199 C 
ATOM      2  C   UNL     1      18.138  35.359  65.095  1.00  0.00     0.203 C 
ATOM      3  C   UNL     1      16.776  35.350  64.382  1.00  0.00     0.282 C 
ATOM      4  O   UNL     1      16.679  36.366  63.400  1.00  0.00    -0.340 OA
ATOM      5  C   UNL     1      16.906  37.686  63.876  1.00  0.00     0.190 C 
ATOM      6  C   UNL     1      18.194  37.869  64.733  1.00  0.00     0.240 C 
ENDROOT
BRANCH   1   7
ATOM      7  O   UNL     1      17.674  36.914  66.910  1.00  0.00    -0.340 OA
BRANCH   7   8
ATOM      8  C   UNL     1      18.247  37.882  67.787  1.00  0.00     0.282 C 
ATOM      9  C   UNL     1      16.780  35.648  69.436  1.00  0.00     0.041 C 
ATOM     10  C   UNL     1      17.690  36.802  69.863  1.00  0.00     0.150 C 
ATOM     11  C   UNL     1      19.158  36.365  70.095  1.00  0.00     0.174 C 
ATOM     12  O   UNL     1      17.539  37.939  69.020  1.00  0.00    -0.344 OA
ATOM     13  C   UNL     1      19.942  36.317  68.773  1.00  0.00     0.179 C 
ATOM     14  C   UNL     1      19.755  37.626  68.002  1.00  0.00     0.202 C 
BRANCH  11  15
ATOM     15  O   UNL     1      19.766  37.264  70.990  1.00  0.00    -0.388 OA
ATOM     16  H   UNL     1      20.407  37.815  70.464  1.00  0.00     0.211 HD
ENDBRANCH  11  15
BRANCH  13  17
ATOM     17  O   UNL     1      21.309  36.101  69.008  1.00  0.00    -0.387 OA
ATOM     18  H   UNL     1      21.719  36.995  69.147  1.00  0.00     0.211 HD
ENDBRANCH  13  17
BRANCH  14  19
ATOM     19  O   UNL     1      20.333  38.692  68.712  1.00  0.00    -0.385 OA
ATOM     20  H   UNL     1      21.318  38.599  68.622  1.00  0.00     0.211 HD
ENDBRANCH  14  19
ENDBRANCH   7   8
ENDBRANCH   1   7
BRANCH   2  21
ATOM     21  O   UNL     1      19.151  35.035  64.176  1.00  0.00    -0.385 OA
ATOM     22  H   UNL     1      19.238  34.047  64.173  1.00  0.00     0.211 HD
ENDBRANCH   2  21
BRANCH   6  23
ATOM     23  O   UNL     1      19.328  37.978  63.865  1.00  0.00    -0.453 OA
BRANCH  23  24
ATOM     24  C   UNL     1      20.639  38.166  64.324  1.00  0.00     0.331 C 
ATOM     25  O   UNL     1      21.330  37.181  64.705  1.00  0.00    -0.247 OA
BRANCH  24  26
ATOM     26  C   UNL     1      21.234  39.510  64.363  1.00  0.00     0.094 C 
ATOM     27  C   UNL     1      22.315  39.790  65.105  1.00  0.00     0.016 C 
BRANCH  27  28
ATOM     28  C   UNL     1      22.973  41.119  65.109  1.00  0.00    -0.021 A 
ATOM     29  C   UNL     1      22.371  42.254  65.682  1.00  0.00     0.058 A 
ATOM     30  C   UNL     1      24.249  41.242  64.540  1.00  0.00     0.012 A 
ATOM     31  C   UNL     1      23.014  43.499  65.660  1.00  0.00     0.157 A 
ATOM     32  C   UNL     1      24.896  42.481  64.511  1.00  0.00     0.051 A 
ATOM     33  C   UNL     1      24.289  43.616  65.056  1.00  0.00     0.157 A 
BRANCH  31  34
ATOM     34  O   UNL     1      22.360  44.580  66.253  1.00  0.00    -0.504 OA
ATOM     35  H   UNL     1      22.374  45.520  65.885  1.00  0.00     0.293 HD
ENDBRANCH  31  34
BRANCH  33  36
ATOM     36  O   UNL     1      24.976  44.830  64.972  1.00  0.00    -0.504 OA
ATOM     37  H   UNL     1      25.020  45.396  64.137  1.00  0.00     0.293 HD
ENDBRANCH  33  36
ENDBRANCH  27  28
ENDBRANCH  24  26
ENDBRANCH  23  24
ENDBRANCH   6  23
BRANCH   3  38
ATOM     38  O   UNL     1      15.705  35.439  65.311  1.00  0.00    -0.350 OA
BRANCH  38  39
ATOM     39  C   UNL     1      14.531  34.846  64.786  1.00  0.00     0.168 C 
BRANCH  39  40
ATOM     40  C   UNL     1      13.727  34.205  65.915  1.00  0.00     0.064 C 
BRANCH  40  41
ATOM     41  C   UNL     1      13.552  35.164  67.063  1.00  0.00    -0.042 A 
ATOM     42  C   UNL     1      14.098  36.456  66.997  1.00  0.00     0.054 A 
ATOM     43  C   UNL     1      12.809  34.787  68.193  1.00  0.00     0.008 A 
ATOM     44  C   UNL     1      13.934  37.350  68.064  1.00  0.00     0.157 A 
ATOM     45  C   UNL     1      12.645  35.678  69.255  1.00  0.00     0.050 A 
ATOM     46  C   UNL     1      13.207  36.957  69.200  1.00  0.00     0.157 A 
BRANCH  44  47
ATOM     47  O   UNL     1      14.489  38.628  67.995  1.00  0.00    -0.504 OA
ATOM     48  H   UNL     1      15.487  38.771  67.903  1.00  0.00     0.293 HD
ENDBRANCH  44  47
BRANCH  46  49
ATOM     49  O   UNL     1      13.033  37.821  70.279  1.00  0.00    -0.504 OA
ATOM     50  H   UNL     1      12.460  37.574  71.076  1.00  0.00     0.293 HD
ENDBRANCH  46  49
ENDBRANCH  40  41
ENDBRANCH  39  40
ENDBRANCH  38  39
ENDBRANCH   3  38
BRANCH   5  51
ATOM     51  C   UNL     1      15.629  38.342  64.438  1.00  0.00     0.192 C 
BRANCH  51  52
ATOM     52  O   UNL     1      15.906  39.186  65.514  1.00  0.00    -0.394 OA
ATOM     53  H   UNL     1      15.049  39.298  66.003  1.00  0.00     0.210 HD
ENDBRANCH  51  52
ENDBRANCH   5  51
TORSDOF 20
ENDMDL
MODEL 9
REMARK VINA RESULT:    -6.063      2.885      6.275
REMARK INTER + INTRA:         -13.417
REMARK INTER:                 -10.704
REMARK INTRA:                  -2.713
REMARK UNBOUND:                -1.861
REMARK SMILES C[C@@H]1O[C@H](O[C@H]2[C@H](O)[C@@H](OCCc3ccc(O)c(O)c3)O[C@@H](CO)[C@@H]2OC(=O)C=Cc2ccc(O)c(O)c2)[C@@H](O)[C@@H](O)[C@H]1O
REMARK SMILES IDX 6 1 7 2 9 3 21 4 22 5 25 6 5 7 4 8 1 9 2 10 43 11 3 12 41 13
REMARK SMILES IDX 39 14 44 15 42 17 40 19 8 21 26 23 27 24 28 25 29 26 30 27
REMARK SMILES IDX 31 28 38 29 32 30 36 31 33 32 34 33 37 34 35 36 10 38 11 39
REMARK SMILES IDX 12 40 13 41 20 42 14 43 18 44 15 45 16 46 19 47 17 49 23 51
REMARK SMILES IDX 24 52
REMARK H PARENT 44 16 42 18 40 20 8 22 37 35 35 37 19 48 17 50 24 53
REMARK Flexibility Score: inf
ROOT
ATOM      1  C   UNL     1      18.683  36.985  66.420  1.00  0.00     0.199 C 
ATOM      2  C   UNL     1      18.732  37.414  67.893  1.00  0.00     0.203 C 
ATOM      3  C   UNL     1      19.230  36.283  68.809  1.00  0.00     0.282 C 
ATOM      4  O   UNL     1      20.497  35.792  68.413  1.00  0.00    -0.340 OA
ATOM      5  C   UNL     1      20.567  35.320  67.074  1.00  0.00     0.190 C 
ATOM      6  C   UNL     1      19.992  36.292  65.999  1.00  0.00     0.240 C 
ENDROOT
BRANCH   1   7
ATOM      7  O   UNL     1      17.572  36.120  66.188  1.00  0.00    -0.340 OA
BRANCH   7   8
ATOM      8  C   UNL     1      17.106  36.182  64.841  1.00  0.00     0.282 C 
ATOM      9  C   UNL     1      14.785  35.295  66.761  1.00  0.00     0.041 C 
ATOM     10  C   UNL     1      14.794  35.682  65.280  1.00  0.00     0.150 C 
ATOM     11  C   UNL     1      14.371  37.150  65.032  1.00  0.00     0.174 C 
ATOM     12  O   UNL     1      16.007  35.300  64.639  1.00  0.00    -0.344 OA
ATOM     13  C   UNL     1      15.554  38.113  65.229  1.00  0.00     0.179 C 
ATOM     14  C   UNL     1      16.764  37.630  64.428  1.00  0.00     0.202 C 
BRANCH  11  15
ATOM     15  O   UNL     1      13.861  37.265  63.726  1.00  0.00    -0.388 OA
ATOM     16  H   UNL     1      14.453  36.731  63.131  1.00  0.00     0.211 HD
ENDBRANCH  11  15
BRANCH  13  17
ATOM     17  O   UNL     1      15.212  39.415  64.827  1.00  0.00    -0.387 OA
ATOM     18  H   UNL     1      16.066  39.901  64.679  1.00  0.00     0.211 HD
ENDBRANCH  13  17
BRANCH  14  19
ATOM     19  O   UNL     1      16.490  37.691  63.051  1.00  0.00    -0.385 OA
ATOM     20  H   UNL     1      17.351  37.881  62.593  1.00  0.00     0.211 HD
ENDBRANCH  14  19
ENDBRANCH   7   8
ENDBRANCH   1   7
BRANCH   2  21
ATOM     21  O   UNL     1      19.581  38.528  68.020  1.00  0.00    -0.385 OA
ATOM     22  H   UNL     1      20.332  38.397  67.386  1.00  0.00     0.211 HD
ENDBRANCH   2  21
BRANCH   6  23
ATOM     23  O   UNL     1      20.965  37.300  65.705  1.00  0.00    -0.453 OA
BRANCH  23  24
ATOM     24  C   UNL     1      20.824  38.234  64.668  1.00  0.00     0.331 C 
ATOM     25  O   UNL     1      20.224  37.919  63.603  1.00  0.00    -0.247 OA
BRANCH  24  26
ATOM     26  C   UNL     1      21.366  39.593  64.805  1.00  0.00     0.094 C 
ATOM     27  C   UNL     1      22.662  39.822  65.058  1.00  0.00     0.016 C 
BRANCH  27  28
ATOM     28  C   UNL     1      23.244  41.184  65.133  1.00  0.00    -0.021 A 
ATOM     29  C   UNL     1      24.575  41.455  64.766  1.00  0.00     0.058 A 
ATOM     30  C   UNL     1      22.431  42.243  65.565  1.00  0.00     0.012 A 
ATOM     31  C   UNL     1      25.098  42.751  64.859  1.00  0.00     0.157 A 
ATOM     32  C   UNL     1      22.946  43.539  65.664  1.00  0.00     0.051 A 
ATOM     33  C   UNL     1      24.277  43.805  65.325  1.00  0.00     0.157 A 
BRANCH  31  34
ATOM     34  O   UNL     1      26.426  42.947  64.473  1.00  0.00    -0.504 OA
ATOM     35  H   UNL     1      27.002  43.709  64.798  1.00  0.00     0.293 HD
ENDBRANCH  31  34
BRANCH  33  36
ATOM     36  O   UNL     1      24.739  45.115  65.471  1.00  0.00    -0.504 OA
ATOM     37  H   UNL     1      24.159  45.888  65.767  1.00  0.00     0.293 HD
ENDBRANCH  33  36
ENDBRANCH  27  28
ENDBRANCH  24  26
ENDBRANCH  23  24
ENDBRANCH   6  23
BRANCH   3  38
ATOM     38  O   UNL     1      18.280  35.230  68.893  1.00  0.00    -0.350 OA
BRANCH  38  39
ATOM     39  C   UNL     1      17.729  35.151  70.195  1.00  0.00     0.168 C 
BRANCH  39  40
ATOM     40  C   UNL     1      16.206  35.249  70.118  1.00  0.00     0.064 C 
BRANCH  40  41
ATOM     41  C   UNL     1      15.742  36.654  70.404  1.00  0.00    -0.042 A 
ATOM     42  C   UNL     1      15.717  37.614  69.380  1.00  0.00     0.054 A 
ATOM     43  C   UNL     1      15.295  37.004  71.687  1.00  0.00     0.008 A 
ATOM     44  C   UNL     1      15.282  38.920  69.643  1.00  0.00     0.157 A 
ATOM     45  C   UNL     1      14.863  38.305  71.951  1.00  0.00     0.050 A 
ATOM     46  C   UNL     1      14.858  39.268  70.937  1.00  0.00     0.157 A 
BRANCH  44  47
ATOM     47  O   UNL     1      15.270  39.872  68.624  1.00  0.00    -0.504 OA
ATOM     48  H   UNL     1      14.573  40.606  68.589  1.00  0.00     0.293 HD
ENDBRANCH  44  47
BRANCH  46  49
ATOM     49  O   UNL     1      14.427  40.560  71.232  1.00  0.00    -0.504 OA
ATOM     50  H   UNL     1      14.842  41.106  71.976  1.00  0.00     0.293 HD
ENDBRANCH  46  49
ENDBRANCH  40  41
ENDBRANCH  39  40
ENDBRANCH  38  39
ENDBRANCH   3  38
BRANCH   5  51
ATOM     51  C   UNL     1      20.139  33.845  66.939  1.00  0.00     0.192 C 
BRANCH  51  52
ATOM     52  O   UNL     1      20.191  33.173  68.161  1.00  0.00    -0.394 OA
ATOM     53  H   UNL     1      20.693  32.333  67.991  1.00  0.00     0.210 HD
ENDBRANCH  51  52
ENDBRANCH   5  51
TORSDOF 20
ENDMDL
