MODEL 1
REMARK VINA RESULT:    -4.577      0.000      0.000
REMARK INTER + INTRA:          -4.861
REMARK INTER:                  -4.844
REMARK INTRA:                  -0.016
REMARK UNBOUND:                -0.016
REMARK SMILES O=C([O-])c1cccnc1
REMARK SMILES IDX 4 1 5 2 9 3 6 4 8 5 7 6 2 7 1 8 3 9
REMARK H PARENT
REMARK Flexibility Score: inf
ROOT
ATOM      1  C   UNL     1     -46.073  73.223  -8.495  1.00  0.00     0.016 A 
ATOM      2  C   UNL     1     -45.267  72.081  -8.632  1.00  0.00     0.013 A 
ATOM      3  C   UNL     1     -45.883  74.044  -7.368  1.00  0.00     0.120 A 
ATOM      4  C   UNL     1     -44.304  71.782  -7.667  1.00  0.00     0.021 A 
ATOM      5  N   UNL     1     -44.937  73.729  -6.442  1.00  0.00    -0.264 NA
ATOM      6  C   UNL     1     -44.153  72.627  -6.567  1.00  0.00     0.111 A 
ENDROOT
BRANCH   1   7
ATOM      7  C   UNL     1     -47.096  73.550  -9.511  1.00  0.00     0.073 C 
ATOM      8  O   UNL     1     -48.314  73.308  -9.294  1.00  0.00    -0.545 OA
ATOM      9  O   UNL     1     -46.728  74.129 -10.720  1.00  0.00    -0.545 OA
ENDBRANCH   1   7
TORSDOF 1
ENDMDL
MODEL 2
REMARK VINA RESULT:    -4.442      0.920      1.937
REMARK INTER + INTRA:          -4.718
REMARK INTER:                  -4.702
REMARK INTRA:                  -0.016
REMARK UNBOUND:                -0.016
REMARK SMILES O=C([O-])c1cccnc1
REMARK SMILES IDX 4 1 5 2 9 3 6 4 8 5 7 6 2 7 1 8 3 9
REMARK H PARENT
REMARK Flexibility Score: inf
ROOT
ATOM      1  C   UNL     1     -45.913  73.166  -8.420  1.00  0.00     0.016 A 
ATOM      2  C   UNL     1     -45.787  73.982  -7.283  1.00  0.00     0.013 A 
ATOM      3  C   UNL     1     -45.062  72.053  -8.541  1.00  0.00     0.120 A 
ATOM      4  C   UNL     1     -44.837  73.682  -6.307  1.00  0.00     0.021 A 
ATOM      5  N   UNL     1     -44.144  71.783  -7.574  1.00  0.00    -0.264 NA
ATOM      6  C   UNL     1     -44.015  72.566  -6.471  1.00  0.00     0.111 A 
ENDROOT
BRANCH   1   7
ATOM      7  C   UNL     1     -46.916  73.475  -9.461  1.00  0.00     0.073 C 
ATOM      8  O   UNL     1     -46.566  74.007 -10.549  1.00  0.00    -0.545 OA
ATOM      9  O   UNL     1     -48.258  73.182  -9.255  1.00  0.00    -0.545 OA
ENDBRANCH   1   7
TORSDOF 1
ENDMDL
MODEL 3
REMARK VINA RESULT:    -4.215      2.912      3.761
REMARK INTER + INTRA:          -4.477
REMARK INTER:                  -4.457
REMARK INTRA:                  -0.020
REMARK UNBOUND:                -0.016
REMARK SMILES O=C([O-])c1cccnc1
REMARK SMILES IDX 4 1 5 2 9 3 6 4 8 5 7 6 2 7 1 8 3 9
REMARK H PARENT
REMARK Flexibility Score: inf
ROOT
ATOM      1  C   UNL     1     -45.088  72.817  -7.413  1.00  0.00     0.016 A 
ATOM      2  C   UNL     1     -45.400  72.366  -8.706  1.00  0.00     0.013 A 
ATOM      3  C   UNL     1     -45.557  74.082  -7.015  1.00  0.00     0.120 A 
ATOM      4  C   UNL     1     -46.157  73.165  -9.564  1.00  0.00     0.021 A 
ATOM      5  N   UNL     1     -46.293  74.841  -7.872  1.00  0.00    -0.264 NA
ATOM      6  C   UNL     1     -46.599  74.413  -9.124  1.00  0.00     0.111 A 
ENDROOT
BRANCH   1   7
ATOM      7  C   UNL     1     -44.287  71.979  -6.496  1.00  0.00     0.073 C 
ATOM      8  O   UNL     1     -43.238  71.410  -6.901  1.00  0.00    -0.545 OA
ATOM      9  O   UNL     1     -44.679  71.809  -5.174  1.00  0.00    -0.545 OA
ENDBRANCH   1   7
TORSDOF 1
ENDMDL
MODEL 4
REMARK VINA RESULT:    -4.182      3.008      4.066
REMARK INTER + INTRA:          -4.443
REMARK INTER:                  -4.423
REMARK INTRA:                  -0.020
REMARK UNBOUND:                -0.016
REMARK SMILES O=C([O-])c1cccnc1
REMARK SMILES IDX 4 1 5 2 9 3 6 4 8 5 7 6 2 7 1 8 3 9
REMARK H PARENT
REMARK Flexibility Score: inf
ROOT
ATOM      1  C   UNL     1     -45.121  72.836  -7.511  1.00  0.00     0.016 A 
ATOM      2  C   UNL     1     -45.696  74.056  -7.117  1.00  0.00     0.013 A 
ATOM      3  C   UNL     1     -45.344  72.385  -8.824  1.00  0.00     0.120 A 
ATOM      4  C   UNL     1     -46.467  74.791  -8.018  1.00  0.00     0.021 A 
ATOM      5  N   UNL     1     -46.101  73.121  -9.682  1.00  0.00    -0.264 NA
ATOM      6  C   UNL     1     -46.661  74.302  -9.311  1.00  0.00     0.111 A 
ENDROOT
BRANCH   1   7
ATOM      7  C   UNL     1     -44.302  72.050  -6.564  1.00  0.00     0.073 C 
ATOM      8  O   UNL     1     -43.212  71.535  -6.935  1.00  0.00    -0.545 OA
ATOM      9  O   UNL     1     -44.722  71.866  -5.253  1.00  0.00    -0.545 OA
ENDBRANCH   1   7
TORSDOF 1
ENDMDL
MODEL 5
REMARK VINA RESULT:    -4.074      1.850      2.918
REMARK INTER + INTRA:          -4.328
REMARK INTER:                  -4.307
REMARK INTRA:                  -0.022
REMARK UNBOUND:                -0.016
REMARK SMILES O=C([O-])c1cccnc1
REMARK SMILES IDX 4 1 5 2 9 3 6 4 8 5 7 6 2 7 1 8 3 9
REMARK H PARENT
REMARK Flexibility Score: inf
ROOT
ATOM      1  C   UNL     1     -46.454  73.940  -8.061  1.00  0.00     0.016 A 
ATOM      2  C   UNL     1     -47.763  74.447  -7.998  1.00  0.00     0.013 A 
ATOM      3  C   UNL     1     -45.595  74.172  -6.972  1.00  0.00     0.120 A 
ATOM      4  C   UNL     1     -48.186  75.159  -6.875  1.00  0.00     0.021 A 
ATOM      5  N   UNL     1     -46.033  74.870  -5.889  1.00  0.00    -0.264 NA
ATOM      6  C   UNL     1     -47.297  75.363  -5.819  1.00  0.00     0.111 A 
ENDROOT
BRANCH   1   7
ATOM      7  C   UNL     1     -45.995  73.184  -9.245  1.00  0.00     0.073 C 
ATOM      8  O   UNL     1     -46.422  73.474 -10.395  1.00  0.00    -0.545 OA
ATOM      9  O   UNL     1     -45.086  72.143  -9.107  1.00  0.00    -0.545 OA
ENDBRANCH   1   7
TORSDOF 1
ENDMDL
MODEL 6
REMARK VINA RESULT:    -3.991      3.065      3.775
REMARK INTER + INTRA:          -4.240
REMARK INTER:                  -4.216
REMARK INTRA:                  -0.024
REMARK UNBOUND:                -0.016
REMARK SMILES O=C([O-])c1cccnc1
REMARK SMILES IDX 4 1 5 2 9 3 6 4 8 5 7 6 2 7 1 8 3 9
REMARK H PARENT
REMARK Flexibility Score: inf
ROOT
ATOM      1  C   UNL     1     -45.630  73.882  -7.076  1.00  0.00     0.016 A 
ATOM      2  C   UNL     1     -45.564  72.943  -8.119  1.00  0.00     0.013 A 
ATOM      3  C   UNL     1     -46.733  74.753  -7.030  1.00  0.00     0.120 A 
ATOM      4  C   UNL     1     -46.577  72.888  -9.078  1.00  0.00     0.021 A 
ATOM      5  N   UNL     1     -47.706  74.679  -7.978  1.00  0.00    -0.264 NA
ATOM      6  C   UNL     1     -47.651  73.774  -8.990  1.00  0.00     0.111 A 
ENDROOT
BRANCH   1   7
ATOM      7  C   UNL     1     -44.563  73.949  -6.055  1.00  0.00     0.073 C 
ATOM      8  O   UNL     1     -44.643  74.766  -5.099  1.00  0.00    -0.545 OA
ATOM      9  O   UNL     1     -43.458  73.111  -6.135  1.00  0.00    -0.545 OA
ENDBRANCH   1   7
TORSDOF 1
ENDMDL
MODEL 7
REMARK VINA RESULT:    -3.956      2.160      2.896
REMARK INTER + INTRA:          -4.204
REMARK INTER:                  -4.182
REMARK INTRA:                  -0.022
REMARK UNBOUND:                -0.016
REMARK SMILES O=C([O-])c1cccnc1
REMARK SMILES IDX 4 1 5 2 9 3 6 4 8 5 7 6 2 7 1 8 3 9
REMARK H PARENT
REMARK Flexibility Score: inf
ROOT
ATOM      1  C   UNL     1     -46.377  74.142  -7.312  1.00  0.00     0.016 A 
ATOM      2  C   UNL     1     -46.780  73.712  -8.587  1.00  0.00     0.013 A 
ATOM      3  C   UNL     1     -45.274  73.508  -6.711  1.00  0.00     0.120 A 
ATOM      4  C   UNL     1     -46.094  72.681  -9.229  1.00  0.00     0.021 A 
ATOM      5  N   UNL     1     -44.623  72.505  -7.359  1.00  0.00    -0.264 NA
ATOM      6  C   UNL     1     -45.006  72.083  -8.592  1.00  0.00     0.111 A 
ENDROOT
BRANCH   1   7
ATOM      7  C   UNL     1     -47.097  75.233  -6.622  1.00  0.00     0.073 C 
ATOM      8  O   UNL     1     -46.511  75.943  -5.762  1.00  0.00    -0.545 OA
ATOM      9  O   UNL     1     -48.431  75.492  -6.913  1.00  0.00    -0.545 OA
ENDBRANCH   1   7
TORSDOF 1
ENDMDL
MODEL 8
REMARK VINA RESULT:    -3.932      7.070      7.542
REMARK INTER + INTRA:          -4.178
REMARK INTER:                  -4.156
REMARK INTRA:                  -0.022
REMARK UNBOUND:                -0.016
REMARK SMILES O=C([O-])c1cccnc1
REMARK SMILES IDX 4 1 5 2 9 3 6 4 8 5 7 6 2 7 1 8 3 9
REMARK H PARENT
REMARK Flexibility Score: inf
ROOT
ATOM      1  C   UNL     1     -40.892  71.098  -3.880  1.00  0.00     0.016 A 
ATOM      2  C   UNL     1     -40.812  70.580  -5.183  1.00  0.00     0.013 A 
ATOM      3  C   UNL     1     -41.911  70.625  -3.034  1.00  0.00     0.120 A 
ATOM      4  C   UNL     1     -41.728  69.620  -5.614  1.00  0.00     0.021 A 
ATOM      5  N   UNL     1     -42.792  69.689  -3.479  1.00  0.00    -0.264 NA
ATOM      6  C   UNL     1     -42.723  69.182  -4.738  1.00  0.00     0.111 A 
ENDROOT
BRANCH   1   7
ATOM      7  C   UNL     1     -39.926  72.116  -3.414  1.00  0.00     0.073 C 
ATOM      8  O   UNL     1     -40.251  72.945  -2.521  1.00  0.00    -0.545 OA
ATOM      9  O   UNL     1     -38.647  72.173  -3.953  1.00  0.00    -0.545 OA
ENDBRANCH   1   7
TORSDOF 1
ENDMDL
MODEL 9
REMARK VINA RESULT:    -3.906      6.166      6.609
REMARK INTER + INTRA:          -4.151
REMARK INTER:                  -4.134
REMARK INTRA:                  -0.018
REMARK UNBOUND:                -0.016
REMARK SMILES O=C([O-])c1cccnc1
REMARK SMILES IDX 4 1 5 2 9 3 6 4 8 5 7 6 2 7 1 8 3 9
REMARK H PARENT
REMARK Flexibility Score: inf
ROOT
ATOM      1  C   UNL     1     -42.510  69.817  -4.310  1.00  0.00     0.016 A 
ATOM      2  C   UNL     1     -41.923  70.068  -5.561  1.00  0.00     0.013 A 
ATOM      3  C   UNL     1     -41.996  70.487  -3.185  1.00  0.00     0.120 A 
ATOM      4  C   UNL     1     -40.858  70.962  -5.671  1.00  0.00     0.021 A 
ATOM      5  N   UNL     1     -40.956  71.355  -3.320  1.00  0.00    -0.264 NA
ATOM      6  C   UNL     1     -40.383  71.603  -4.526  1.00  0.00     0.111 A 
ENDROOT
BRANCH   1   7
ATOM      7  C   UNL     1     -43.638  68.871  -4.183  1.00  0.00     0.073 C 
ATOM      8  O   UNL     1     -44.758  69.263  -3.757  1.00  0.00    -0.545 OA
ATOM      9  O   UNL     1     -43.480  67.535  -4.531  1.00  0.00    -0.545 OA
ENDBRANCH   1   7
TORSDOF 1
ENDMDL
