MODEL 1
REMARK VINA RESULT:    -5.933      0.000      0.000
REMARK INTER + INTRA:         -12.118
REMARK INTER:                 -11.136
REMARK INTRA:                  -0.982
REMARK UNBOUND:                -0.982
REMARK SMILES CCCCCCCCC=CCCCCCCCC(=O)[O-]
REMARK SMILES IDX 10 1 9 2 11 3 12 4 13 5 14 6 15 7 16 8 17 9 18 10 19 11
REMARK SMILES IDX 20 12 8 13 7 14 6 15 5 16 4 17 3 18 2 19 1 20
REMARK H PARENT
REMARK Flexibility Score: inf
ROOT
ATOM      1  C   UNL     1     -26.040  56.778   0.598  1.00  0.00    -0.031 C 
ATOM      2  C   UNL     1     -25.665  57.626   1.569  1.00  0.00    -0.031 C 
ENDROOT
BRANCH   1   3
ATOM      3  C   UNL     1     -27.410  56.843  -0.019  1.00  0.00     0.027 C 
BRANCH   3   4
ATOM      4  C   UNL     1     -28.397  57.572   0.901  1.00  0.00     0.004 C 
BRANCH   4   5
ATOM      5  C   UNL     1     -29.800  57.615   0.277  1.00  0.00     0.000 C 
BRANCH   5   6
ATOM      6  C   UNL     1     -30.850  56.876   1.122  1.00  0.00     0.000 C 
BRANCH   6   7
ATOM      7  C   UNL     1     -30.237  56.174   2.345  1.00  0.00     0.000 C 
BRANCH   7   8
ATOM      8  C   UNL     1     -30.827  56.680   3.672  1.00  0.00     0.006 C 
BRANCH   8   9
ATOM      9  C   UNL     1     -30.050  57.870   4.250  1.00  0.00     0.053 C 
BRANCH   9  10
ATOM     10  C   UNL     1     -30.413  58.082   5.685  1.00  0.00     0.041 C 
ATOM     11  O   UNL     1     -31.619  58.050   6.046  1.00  0.00    -0.550 OA
ATOM     12  O   UNL     1     -29.416  58.265   6.634  1.00  0.00    -0.550 OA
ENDBRANCH   9  10
ENDBRANCH   8   9
ENDBRANCH   7   8
ENDBRANCH   6   7
ENDBRANCH   5   6
ENDBRANCH   4   5
ENDBRANCH   3   4
ENDBRANCH   1   3
BRANCH   2  13
ATOM     13  C   UNL     1     -24.302  57.549   2.198  1.00  0.00     0.027 C 
BRANCH  13  14
ATOM     14  C   UNL     1     -24.038  58.770   3.092  1.00  0.00     0.004 C 
BRANCH  14  15
ATOM     15  C   UNL     1     -22.603  59.303   2.961  1.00  0.00     0.000 C 
BRANCH  15  16
ATOM     16  C   UNL     1     -22.407  60.167   1.702  1.00  0.00     0.000 C 
BRANCH  16  17
ATOM     17  C   UNL     1     -20.926  60.441   1.399  1.00  0.00    -0.000 C 
BRANCH  17  18
ATOM     18  C   UNL     1     -20.600  60.347  -0.102  1.00  0.00    -0.000 C 
BRANCH  18  19
ATOM     19  C   UNL     1     -19.093  60.218  -0.370  1.00  0.00    -0.003 C 
ATOM     20  C   UNL     1     -18.394  59.293   0.626  1.00  0.00     0.004 C 
ENDBRANCH  18  19
ENDBRANCH  17  18
ENDBRANCH  16  17
ENDBRANCH  15  16
ENDBRANCH  14  15
ENDBRANCH  13  14
ENDBRANCH   2  13
TORSDOF 15
ENDMDL
MODEL 2
REMARK VINA RESULT:    -5.901      6.058     10.866
REMARK INTER + INTRA:         -12.058
REMARK INTER:                 -11.040
REMARK INTRA:                  -1.019
REMARK UNBOUND:                -0.982
REMARK SMILES CCCCCCCCC=CCCCCCCCC(=O)[O-]
REMARK SMILES IDX 10 1 9 2 11 3 12 4 13 5 14 6 15 7 16 8 17 9 18 10 19 11
REMARK SMILES IDX 20 12 8 13 7 14 6 15 5 16 4 17 3 18 2 19 1 20
REMARK H PARENT
REMARK Flexibility Score: inf
ROOT
ATOM      1  C   UNL     1     -16.465  60.628  -2.071  1.00  0.00    -0.031 C 
ATOM      2  C   UNL     1     -16.130  60.302  -0.813  1.00  0.00    -0.031 C 
ENDROOT
BRANCH   1   3
ATOM      3  C   UNL     1     -15.428  60.766  -3.151  1.00  0.00     0.027 C 
BRANCH   3   4
ATOM      4  C   UNL     1     -15.977  60.303  -4.507  1.00  0.00     0.004 C 
BRANCH   4   5
ATOM      5  C   UNL     1     -17.302  59.545  -4.332  1.00  0.00     0.000 C 
BRANCH   5   6
ATOM      6  C   UNL     1     -17.801  58.911  -5.641  1.00  0.00     0.000 C 
BRANCH   6   7
ATOM      7  C   UNL     1     -17.903  57.380  -5.555  1.00  0.00     0.000 C 
BRANCH   7   8
ATOM      8  C   UNL     1     -19.290  56.906  -5.093  1.00  0.00     0.006 C 
BRANCH   8   9
ATOM      9  C   UNL     1     -20.415  57.858  -5.521  1.00  0.00     0.053 C 
BRANCH   9  10
ATOM     10  C   UNL     1     -21.712  57.444  -4.903  1.00  0.00     0.041 C 
ATOM     11  O   UNL     1     -22.672  58.256  -4.837  1.00  0.00    -0.550 OA
ATOM     12  O   UNL     1     -21.879  56.143  -4.445  1.00  0.00    -0.550 OA
ENDBRANCH   9  10
ENDBRANCH   8   9
ENDBRANCH   7   8
ENDBRANCH   6   7
ENDBRANCH   5   6
ENDBRANCH   4   5
ENDBRANCH   3   4
ENDBRANCH   1   3
BRANCH   2  13
ATOM     13  C   UNL     1     -17.165  60.182   0.271  1.00  0.00     0.027 C 
BRANCH  13  14
ATOM     14  C   UNL     1     -18.585  60.239  -0.314  1.00  0.00     0.004 C 
BRANCH  14  15
ATOM     15  C   UNL     1     -19.672  59.985   0.742  1.00  0.00     0.000 C 
BRANCH  15  16
ATOM     16  C   UNL     1     -20.983  60.729   0.429  1.00  0.00     0.000 C 
BRANCH  16  17
ATOM     17  C   UNL     1     -22.162  60.229   1.279  1.00  0.00    -0.000 C 
BRANCH  17  18
ATOM     18  C   UNL     1     -21.778  60.005   2.753  1.00  0.00    -0.000 C 
BRANCH  18  19
ATOM     19  C   UNL     1     -22.491  58.791   3.368  1.00  0.00    -0.003 C 
ATOM     20  C   UNL     1     -23.937  58.652   2.892  1.00  0.00     0.004 C 
ENDBRANCH  18  19
ENDBRANCH  17  18
ENDBRANCH  16  17
ENDBRANCH  15  16
ENDBRANCH  14  15
ENDBRANCH  13  14
ENDBRANCH   2  13
TORSDOF 15
ENDMDL
MODEL 3
REMARK VINA RESULT:    -5.802      2.732      4.000
REMARK INTER + INTRA:         -11.872
REMARK INTER:                 -11.045
REMARK INTRA:                  -0.827
REMARK UNBOUND:                -0.982
REMARK SMILES CCCCCCCCC=CCCCCCCCC(=O)[O-]
REMARK SMILES IDX 10 1 9 2 11 3 12 4 13 5 14 6 15 7 16 8 17 9 18 10 19 11
REMARK SMILES IDX 20 12 8 13 7 14 6 15 5 16 4 17 3 18 2 19 1 20
REMARK H PARENT
REMARK Flexibility Score: inf
ROOT
ATOM      1  C   UNL     1     -25.225  57.313   1.354  1.00  0.00    -0.031 C 
ATOM      2  C   UNL     1     -25.357  58.000   2.499  1.00  0.00    -0.031 C 
ENDROOT
BRANCH   1   3
ATOM      3  C   UNL     1     -26.422  56.837   0.578  1.00  0.00     0.027 C 
BRANCH   3   4
ATOM      4  C   UNL     1     -27.728  57.262   1.260  1.00  0.00     0.004 C 
BRANCH   4   5
ATOM      5  C   UNL     1     -28.936  56.992   0.350  1.00  0.00     0.000 C 
BRANCH   5   6
ATOM      6  C   UNL     1     -30.043  56.192   1.054  1.00  0.00     0.000 C 
BRANCH   6   7
ATOM      7  C   UNL     1     -30.817  57.033   2.083  1.00  0.00     0.000 C 
BRANCH   7   8
ATOM      8  C   UNL     1     -30.264  56.874   3.509  1.00  0.00     0.006 C 
BRANCH   8   9
ATOM      9  C   UNL     1     -31.200  57.458   4.576  1.00  0.00     0.053 C 
BRANCH   9  10
ATOM     10  C   UNL     1     -30.416  57.917   5.763  1.00  0.00     0.041 C 
ATOM     11  O   UNL     1     -30.962  57.991   6.895  1.00  0.00    -0.550 OA
ATOM     12  O   UNL     1     -29.067  58.218   5.630  1.00  0.00    -0.550 OA
ENDBRANCH   9  10
ENDBRANCH   8   9
ENDBRANCH   7   8
ENDBRANCH   6   7
ENDBRANCH   5   6
ENDBRANCH   4   5
ENDBRANCH   3   4
ENDBRANCH   1   3
BRANCH   2  13
ATOM     13  C   UNL     1     -24.160  58.461   3.284  1.00  0.00     0.027 C 
BRANCH  13  14
ATOM     14  C   UNL     1     -23.334  57.264   3.781  1.00  0.00     0.004 C 
BRANCH  14  15
ATOM     15  C   UNL     1     -23.685  56.858   5.221  1.00  0.00     0.000 C 
BRANCH  15  16
ATOM     16  C   UNL     1     -22.436  56.581   6.077  1.00  0.00     0.000 C 
BRANCH  16  17
ATOM     17  C   UNL     1     -21.300  57.577   5.801  1.00  0.00    -0.000 C 
BRANCH  17  18
ATOM     18  C   UNL     1     -20.598  58.048   7.087  1.00  0.00    -0.000 C 
BRANCH  18  19
ATOM     19  C   UNL     1     -21.400  57.707   8.353  1.00  0.00    -0.003 C 
ATOM     20  C   UNL     1     -21.417  58.850   9.367  1.00  0.00     0.004 C 
ENDBRANCH  18  19
ENDBRANCH  17  18
ENDBRANCH  16  17
ENDBRANCH  15  16
ENDBRANCH  14  15
ENDBRANCH  13  14
ENDBRANCH   2  13
TORSDOF 15
ENDMDL
MODEL 4
REMARK VINA RESULT:    -5.794      4.002      5.722
REMARK INTER + INTRA:         -11.856
REMARK INTER:                 -10.686
REMARK INTRA:                  -1.170
REMARK UNBOUND:                -0.982
REMARK SMILES CCCCCCCCC=CCCCCCCCC(=O)[O-]
REMARK SMILES IDX 10 1 9 2 11 3 12 4 13 5 14 6 15 7 16 8 17 9 18 10 19 11
REMARK SMILES IDX 20 12 8 13 7 14 6 15 5 16 4 17 3 18 2 19 1 20
REMARK H PARENT
REMARK Flexibility Score: inf
ROOT
ATOM      1  C   UNL     1     -24.414  58.096   3.027  1.00  0.00    -0.031 C 
ATOM      2  C   UNL     1     -23.947  57.450   4.107  1.00  0.00    -0.031 C 
ENDROOT
BRANCH   1   3
ATOM      3  C   UNL     1     -25.883  58.137   2.708  1.00  0.00     0.027 C 
BRANCH   3   4
ATOM      4  C   UNL     1     -26.673  58.825   3.829  1.00  0.00     0.004 C 
BRANCH   4   5
ATOM      5  C   UNL     1     -28.153  58.413   3.790  1.00  0.00     0.000 C 
BRANCH   5   6
ATOM      6  C   UNL     1     -28.623  58.018   2.381  1.00  0.00     0.000 C 
BRANCH   6   7
ATOM      7  C   UNL     1     -29.066  59.229   1.544  1.00  0.00     0.000 C 
BRANCH   7   8
ATOM      8  C   UNL     1     -29.911  58.827   0.325  1.00  0.00     0.006 C 
BRANCH   8   9
ATOM      9  C   UNL     1     -30.172  57.316   0.257  1.00  0.00     0.053 C 
BRANCH   9  10
ATOM     10  C   UNL     1     -31.606  57.020   0.557  1.00  0.00     0.041 C 
ATOM     11  O   UNL     1     -32.340  56.484  -0.315  1.00  0.00    -0.550 OA
ATOM     12  O   UNL     1     -32.122  57.290   1.818  1.00  0.00    -0.550 OA
ENDBRANCH   9  10
ENDBRANCH   8   9
ENDBRANCH   7   8
ENDBRANCH   6   7
ENDBRANCH   5   6
ENDBRANCH   4   5
ENDBRANCH   3   4
ENDBRANCH   1   3
BRANCH   2  13
ATOM     13  C   UNL     1     -22.477  57.395   4.416  1.00  0.00     0.027 C 
BRANCH  13  14
ATOM     14  C   UNL     1     -22.233  56.894   5.848  1.00  0.00     0.004 C 
BRANCH  14  15
ATOM     15  C   UNL     1     -23.419  56.092   6.406  1.00  0.00     0.000 C 
BRANCH  15  16
ATOM     16  C   UNL     1     -23.486  56.129   7.943  1.00  0.00     0.000 C 
BRANCH  16  17
ATOM     17  C   UNL     1     -22.127  56.448   8.585  1.00  0.00    -0.000 C 
BRANCH  17  18
ATOM     18  C   UNL     1     -22.213  57.581   9.623  1.00  0.00    -0.000 C 
BRANCH  18  19
ATOM     19  C   UNL     1     -21.412  58.824   9.204  1.00  0.00    -0.003 C 
ATOM     20  C   UNL     1     -20.157  58.475   8.404  1.00  0.00     0.004 C 
ENDBRANCH  18  19
ENDBRANCH  17  18
ENDBRANCH  16  17
ENDBRANCH  15  16
ENDBRANCH  14  15
ENDBRANCH  13  14
ENDBRANCH   2  13
TORSDOF 15
ENDMDL
MODEL 5
REMARK VINA RESULT:    -5.602      7.666     11.042
REMARK INTER + INTRA:         -11.496
REMARK INTER:                  -9.651
REMARK INTRA:                  -1.845
REMARK UNBOUND:                -0.982
REMARK SMILES CCCCCCCCC=CCCCCCCCC(=O)[O-]
REMARK SMILES IDX 10 1 9 2 11 3 12 4 13 5 14 6 15 7 16 8 17 9 18 10 19 11
REMARK SMILES IDX 20 12 8 13 7 14 6 15 5 16 4 17 3 18 2 19 1 20
REMARK H PARENT
REMARK Flexibility Score: inf
ROOT
ATOM      1  C   UNL     1     -16.636  60.235  -2.354  1.00  0.00    -0.031 C 
ATOM      2  C   UNL     1     -16.215  61.488  -2.124  1.00  0.00    -0.031 C 
ENDROOT
BRANCH   1   3
ATOM      3  C   UNL     1     -17.310  59.855  -3.643  1.00  0.00     0.027 C 
BRANCH   3   4
ATOM      4  C   UNL     1     -16.314  59.855  -4.809  1.00  0.00     0.004 C 
BRANCH   4   5
ATOM      5  C   UNL     1     -16.718  58.827  -5.877  1.00  0.00     0.000 C 
BRANCH   5   6
ATOM      6  C   UNL     1     -18.141  59.053  -6.412  1.00  0.00     0.000 C 
BRANCH   6   7
ATOM      7  C   UNL     1     -18.955  57.752  -6.497  1.00  0.00     0.000 C 
BRANCH   7   8
ATOM      8  C   UNL     1     -18.912  56.944  -5.189  1.00  0.00     0.006 C 
BRANCH   8   9
ATOM      9  C   UNL     1     -19.912  57.455  -4.143  1.00  0.00     0.053 C 
BRANCH   9  10
ATOM     10  C   UNL     1     -21.306  57.393  -4.681  1.00  0.00     0.041 C 
ATOM     11  O   UNL     1     -21.844  56.281  -4.923  1.00  0.00    -0.550 OA
ATOM     12  O   UNL     1     -22.032  58.563  -4.867  1.00  0.00    -0.550 OA
ENDBRANCH   9  10
ENDBRANCH   8   9
ENDBRANCH   7   8
ENDBRANCH   6   7
ENDBRANCH   5   6
ENDBRANCH   4   5
ENDBRANCH   3   4
ENDBRANCH   1   3
BRANCH   2  13
ATOM     13  C   UNL     1     -15.557  61.872  -0.828  1.00  0.00     0.027 C 
BRANCH  13  14
ATOM     14  C   UNL     1     -15.670  60.739   0.204  1.00  0.00     0.004 C 
BRANCH  14  15
ATOM     15  C   UNL     1     -16.859  60.925   1.161  1.00  0.00     0.000 C 
BRANCH  15  16
ATOM     16  C   UNL     1     -17.600  59.606   1.444  1.00  0.00     0.000 C 
BRANCH  16  17
ATOM     17  C   UNL     1     -18.851  59.433   0.569  1.00  0.00    -0.000 C 
BRANCH  17  18
ATOM     18  C   UNL     1     -19.387  60.770   0.028  1.00  0.00    -0.000 C 
BRANCH  18  19
ATOM     19  C   UNL     1     -20.899  60.931   0.253  1.00  0.00    -0.003 C 
ATOM     20  C   UNL     1     -21.380  60.255   1.535  1.00  0.00     0.004 C 
ENDBRANCH  18  19
ENDBRANCH  17  18
ENDBRANCH  16  17
ENDBRANCH  15  16
ENDBRANCH  14  15
ENDBRANCH  13  14
ENDBRANCH   2  13
TORSDOF 15
ENDMDL
MODEL 6
REMARK VINA RESULT:    -5.579      9.337     11.648
REMARK INTER + INTRA:         -11.453
REMARK INTER:                  -9.513
REMARK INTRA:                  -1.940
REMARK UNBOUND:                -0.982
REMARK SMILES CCCCCCCCC=CCCCCCCCC(=O)[O-]
REMARK SMILES IDX 10 1 9 2 11 3 12 4 13 5 14 6 15 7 16 8 17 9 18 10 19 11
REMARK SMILES IDX 20 12 8 13 7 14 6 15 5 16 4 17 3 18 2 19 1 20
REMARK H PARENT
REMARK Flexibility Score: inf
ROOT
ATOM      1  C   UNL     1     -15.926  60.613  -4.642  1.00  0.00    -0.031 C 
ATOM      2  C   UNL     1     -14.709  60.419  -4.111  1.00  0.00    -0.031 C 
ENDROOT
BRANCH   1   3
ATOM      3  C   UNL     1     -16.950  59.513  -4.687  1.00  0.00     0.027 C 
BRANCH   3   4
ATOM      4  C   UNL     1     -16.855  58.722  -5.997  1.00  0.00     0.004 C 
BRANCH   4   5
ATOM      5  C   UNL     1     -18.061  59.011  -6.903  1.00  0.00     0.000 C 
BRANCH   5   6
ATOM      6  C   UNL     1     -19.297  58.176  -6.532  1.00  0.00     0.000 C 
BRANCH   6   7
ATOM      7  C   UNL     1     -20.307  58.963  -5.680  1.00  0.00     0.000 C 
BRANCH   7   8
ATOM      8  C   UNL     1     -20.694  58.223  -4.389  1.00  0.00     0.006 C 
BRANCH   8   9
ATOM      9  C   UNL     1     -19.604  57.252  -3.914  1.00  0.00     0.053 C 
BRANCH   9  10
ATOM     10  C   UNL     1     -20.179  55.889  -3.697  1.00  0.00     0.041 C 
ATOM     11  O   UNL     1     -19.570  55.049  -2.983  1.00  0.00    -0.550 OA
ATOM     12  O   UNL     1     -21.414  55.561  -4.241  1.00  0.00    -0.550 OA
ENDBRANCH   9  10
ENDBRANCH   8   9
ENDBRANCH   7   8
ENDBRANCH   6   7
ENDBRANCH   5   6
ENDBRANCH   4   5
ENDBRANCH   3   4
ENDBRANCH   1   3
BRANCH   2  13
ATOM     13  C   UNL     1     -13.679  61.514  -4.083  1.00  0.00     0.027 C 
BRANCH  13  14
ATOM     14  C   UNL     1     -13.381  61.952  -2.640  1.00  0.00     0.004 C 
BRANCH  14  15
ATOM     15  C   UNL     1     -13.687  60.852  -1.611  1.00  0.00     0.000 C 
BRANCH  15  16
ATOM     16  C   UNL     1     -13.963  61.419  -0.207  1.00  0.00     0.000 C 
BRANCH  16  17
ATOM     17  C   UNL     1     -15.372  61.075   0.301  1.00  0.00    -0.000 C 
BRANCH  17  18
ATOM     18  C   UNL     1     -16.087  60.041  -0.586  1.00  0.00    -0.000 C 
BRANCH  18  19
ATOM     19  C   UNL     1     -17.420  60.565  -1.142  1.00  0.00    -0.003 C 
ATOM     20  C   UNL     1     -18.546  59.538  -1.041  1.00  0.00     0.004 C 
ENDBRANCH  18  19
ENDBRANCH  17  18
ENDBRANCH  16  17
ENDBRANCH  15  16
ENDBRANCH  14  15
ENDBRANCH  13  14
ENDBRANCH   2  13
TORSDOF 15
ENDMDL
MODEL 7
REMARK VINA RESULT:    -5.517      6.065     11.323
REMARK INTER + INTRA:         -11.337
REMARK INTER:                 -10.484
REMARK INTRA:                  -0.853
REMARK UNBOUND:                -0.982
REMARK SMILES CCCCCCCCC=CCCCCCCCC(=O)[O-]
REMARK SMILES IDX 10 1 9 2 11 3 12 4 13 5 14 6 15 7 16 8 17 9 18 10 19 11
REMARK SMILES IDX 20 12 8 13 7 14 6 15 5 16 4 17 3 18 2 19 1 20
REMARK H PARENT
REMARK Flexibility Score: inf
ROOT
ATOM      1  C   UNL     1     -17.035  60.225  -1.859  1.00  0.00    -0.031 C 
ATOM      2  C   UNL     1     -17.676  60.482  -0.708  1.00  0.00    -0.031 C 
ENDROOT
BRANCH   1   3
ATOM      3  C   UNL     1     -16.146  61.247  -2.511  1.00  0.00     0.027 C 
BRANCH   3   4
ATOM      4  C   UNL     1     -14.843  60.609  -3.009  1.00  0.00     0.004 C 
BRANCH   4   5
ATOM      5  C   UNL     1     -14.970  60.174  -4.477  1.00  0.00     0.000 C 
BRANCH   5   6
ATOM      6  C   UNL     1     -16.422  60.199  -4.981  1.00  0.00     0.000 C 
BRANCH   6   7
ATOM      7  C   UNL     1     -16.813  58.910  -5.722  1.00  0.00     0.000 C 
BRANCH   7   8
ATOM      8  C   UNL     1     -18.336  58.739  -5.844  1.00  0.00     0.006 C 
BRANCH   8   9
ATOM      9  C   UNL     1     -18.999  58.359  -4.514  1.00  0.00     0.053 C 
BRANCH   9  10
ATOM     10  C   UNL     1     -20.444  58.037  -4.724  1.00  0.00     0.041 C 
ATOM     11  O   UNL     1     -20.782  56.925  -5.209  1.00  0.00    -0.550 OA
ATOM     12  O   UNL     1     -21.421  58.945  -4.339  1.00  0.00    -0.550 OA
ENDBRANCH   9  10
ENDBRANCH   8   9
ENDBRANCH   7   8
ENDBRANCH   6   7
ENDBRANCH   5   6
ENDBRANCH   4   5
ENDBRANCH   3   4
ENDBRANCH   1   3
BRANCH   2  13
ATOM     13  C   UNL     1     -18.579  59.466  -0.066  1.00  0.00     0.027 C 
BRANCH  13  14
ATOM     14  C   UNL     1     -18.590  59.627   1.463  1.00  0.00     0.004 C 
BRANCH  14  15
ATOM     15  C   UNL     1     -20.011  59.745   2.036  1.00  0.00     0.000 C 
BRANCH  15  16
ATOM     16  C   UNL     1     -20.970  60.489   1.089  1.00  0.00     0.000 C 
BRANCH  16  17
ATOM     17  C   UNL     1     -22.445  60.163   1.369  1.00  0.00    -0.000 C 
BRANCH  17  18
ATOM     18  C   UNL     1     -22.651  59.456   2.720  1.00  0.00    -0.000 C 
BRANCH  18  19
ATOM     19  C   UNL     1     -23.955  58.644   2.766  1.00  0.00    -0.003 C 
ATOM     20  C   UNL     1     -23.985  57.642   3.919  1.00  0.00     0.004 C 
ENDBRANCH  18  19
ENDBRANCH  17  18
ENDBRANCH  16  17
ENDBRANCH  15  16
ENDBRANCH  14  15
ENDBRANCH  13  14
ENDBRANCH   2  13
TORSDOF 15
ENDMDL
MODEL 8
REMARK VINA RESULT:    -5.448      8.434     11.138
REMARK INTER + INTRA:         -11.208
REMARK INTER:                  -9.490
REMARK INTRA:                  -1.717
REMARK UNBOUND:                -0.982
REMARK SMILES CCCCCCCCC=CCCCCCCCC(=O)[O-]
REMARK SMILES IDX 10 1 9 2 11 3 12 4 13 5 14 6 15 7 16 8 17 9 18 10 19 11
REMARK SMILES IDX 20 12 8 13 7 14 6 15 5 16 4 17 3 18 2 19 1 20
REMARK H PARENT
REMARK Flexibility Score: inf
ROOT
ATOM      1  C   UNL     1     -15.129  60.885  -2.894  1.00  0.00    -0.031 C 
ATOM      2  C   UNL     1     -15.801  61.930  -2.385  1.00  0.00    -0.031 C 
ENDROOT
BRANCH   1   3
ATOM      3  C   UNL     1     -15.351  60.417  -4.305  1.00  0.00     0.027 C 
BRANCH   3   4
ATOM      4  C   UNL     1     -16.762  59.841  -4.481  1.00  0.00     0.004 C 
BRANCH   4   5
ATOM      5  C   UNL     1     -16.886  59.088  -5.814  1.00  0.00     0.000 C 
BRANCH   5   6
ATOM      6  C   UNL     1     -17.721  57.803  -5.696  1.00  0.00     0.000 C 
BRANCH   6   7
ATOM      7  C   UNL     1     -18.971  57.989  -4.819  1.00  0.00     0.000 C 
BRANCH   7   8
ATOM      8  C   UNL     1     -20.193  58.455  -5.627  1.00  0.00     0.006 C 
BRANCH   8   9
ATOM      9  C   UNL     1     -21.436  58.666  -4.751  1.00  0.00     0.053 C 
BRANCH   9  10
ATOM     10  C   UNL     1     -22.324  57.464  -4.808  1.00  0.00     0.041 C 
ATOM     11  O   UNL     1     -21.882  56.369  -5.245  1.00  0.00    -0.550 OA
ATOM     12  O   UNL     1     -23.626  57.539  -4.330  1.00  0.00    -0.550 OA
ENDBRANCH   9  10
ENDBRANCH   8   9
ENDBRANCH   7   8
ENDBRANCH   6   7
ENDBRANCH   5   6
ENDBRANCH   4   5
ENDBRANCH   3   4
ENDBRANCH   1   3
BRANCH   2  13
ATOM     13  C   UNL     1     -15.591  62.387  -0.969  1.00  0.00     0.027 C 
BRANCH  13  14
ATOM     14  C   UNL     1     -15.084  61.234  -0.088  1.00  0.00     0.004 C 
BRANCH  14  15
ATOM     15  C   UNL     1     -15.201  61.540   1.414  1.00  0.00     0.000 C 
BRANCH  15  16
ATOM     16  C   UNL     1     -16.393  60.821   2.071  1.00  0.00     0.000 C 
BRANCH  16  17
ATOM     17  C   UNL     1     -16.793  59.539   1.325  1.00  0.00    -0.000 C 
BRANCH  17  18
ATOM     18  C   UNL     1     -18.318  59.359   1.229  1.00  0.00    -0.000 C 
BRANCH  18  19
ATOM     19  C   UNL     1     -18.921  60.090   0.020  1.00  0.00    -0.003 C 
ATOM     20  C   UNL     1     -18.505  59.471  -1.313  1.00  0.00     0.004 C 
ENDBRANCH  18  19
ENDBRANCH  17  18
ENDBRANCH  16  17
ENDBRANCH  15  16
ENDBRANCH  14  15
ENDBRANCH  13  14
ENDBRANCH   2  13
TORSDOF 15
ENDMDL
MODEL 9
REMARK VINA RESULT:    -5.404      6.389     10.859
REMARK INTER + INTRA:         -11.123
REMARK INTER:                 -10.293
REMARK INTRA:                  -0.830
REMARK UNBOUND:                -0.982
REMARK SMILES CCCCCCCCC=CCCCCCCCC(=O)[O-]
REMARK SMILES IDX 10 1 9 2 11 3 12 4 13 5 14 6 15 7 16 8 17 9 18 10 19 11
REMARK SMILES IDX 20 12 8 13 7 14 6 15 5 16 4 17 3 18 2 19 1 20
REMARK H PARENT
REMARK Flexibility Score: inf
ROOT
ATOM      1  C   UNL     1     -19.139  60.627   0.471  1.00  0.00    -0.031 C 
ATOM      2  C   UNL     1     -20.341  60.724  -0.117  1.00  0.00    -0.031 C 
ENDROOT
BRANCH   1   3
ATOM      3  C   UNL     1     -17.881  61.053  -0.233  1.00  0.00     0.027 C 
BRANCH   3   4
ATOM      4  C   UNL     1     -17.201  59.862  -0.921  1.00  0.00     0.004 C 
BRANCH   4   5
ATOM      5  C   UNL     1     -16.848  60.198  -2.378  1.00  0.00     0.000 C 
BRANCH   5   6
ATOM      6  C   UNL     1     -17.744  59.466  -3.390  1.00  0.00     0.000 C 
BRANCH   6   7
ATOM      7  C   UNL     1     -17.099  59.360  -4.782  1.00  0.00     0.000 C 
BRANCH   7   8
ATOM      8  C   UNL     1     -18.081  58.849  -5.849  1.00  0.00     0.006 C 
BRANCH   8   9
ATOM      9  C   UNL     1     -18.707  57.498  -5.480  1.00  0.00     0.053 C 
BRANCH   9  10
ATOM     10  C   UNL     1     -20.187  57.634  -5.324  1.00  0.00     0.041 C 
ATOM     11  O   UNL     1     -20.766  58.701  -5.662  1.00  0.00    -0.550 OA
ATOM     12  O   UNL     1     -20.938  56.565  -4.852  1.00  0.00    -0.550 OA
ENDBRANCH   9  10
ENDBRANCH   8   9
ENDBRANCH   7   8
ENDBRANCH   6   7
ENDBRANCH   5   6
ENDBRANCH   4   5
ENDBRANCH   3   4
ENDBRANCH   1   3
BRANCH   2  13
ATOM     13  C   UNL     1     -21.597  60.281   0.581  1.00  0.00     0.027 C 
BRANCH  13  14
ATOM     14  C   UNL     1     -21.567  60.668   2.068  1.00  0.00     0.004 C 
BRANCH  14  15
ATOM     15  C   UNL     1     -21.910  59.491   2.994  1.00  0.00     0.000 C 
BRANCH  15  16
ATOM     16  C   UNL     1     -23.412  59.155   2.988  1.00  0.00     0.000 C 
BRANCH  16  17
ATOM     17  C   UNL     1     -23.691  57.696   3.384  1.00  0.00    -0.000 C 
BRANCH  17  18
ATOM     18  C   UNL     1     -22.873  57.246   4.607  1.00  0.00    -0.000 C 
BRANCH  18  19
ATOM     19  C   UNL     1     -23.737  56.542   5.665  1.00  0.00    -0.003 C 
ATOM     20  C   UNL     1     -22.903  55.813   6.717  1.00  0.00     0.004 C 
ENDBRANCH  18  19
ENDBRANCH  17  18
ENDBRANCH  16  17
ENDBRANCH  15  16
ENDBRANCH  14  15
ENDBRANCH  13  14
ENDBRANCH   2  13
TORSDOF 15
ENDMDL
