MODEL 1
REMARK VINA RESULT:    -3.556      0.000      0.000
REMARK INTER + INTRA:          -4.738
REMARK INTER:                  -4.388
REMARK INTRA:                  -0.350
REMARK UNBOUND:                -0.350
REMARK SMILES CCCCC=CC(C)=O
REMARK SMILES IDX 4 1 3 2 2 3 1 4 5 5 6 6 7 7 9 8 8 9
REMARK H PARENT
REMARK Flexibility Score: inf
ROOT
ATOM      1  C   UNL     1      13.304  61.708  21.418  1.00  0.00     0.027 C 
ENDROOT
BRANCH   1   2
ATOM      2  C   UNL     1      12.673  62.143  20.086  1.00  0.00     0.004 C 
BRANCH   2   3
ATOM      3  C   UNL     1      12.446  63.661  20.011  1.00  0.00    -0.003 C 
ATOM      4  C   UNL     1      11.504  64.058  18.874  1.00  0.00     0.004 C 
ENDBRANCH   2   3
ENDBRANCH   1   2
BRANCH   1   5
ATOM      5  C   UNL     1      14.304  62.723  21.903  1.00  0.00    -0.023 C 
ATOM      6  C   UNL     1      15.640  62.630  21.784  1.00  0.00     0.042 C 
BRANCH   6   7
ATOM      7  C   UNL     1      16.392  61.541  21.118  1.00  0.00     0.152 C 
ATOM      8  O   UNL     1      16.947  60.621  21.775  1.00  0.00    -0.295 OA
ATOM      9  C   UNL     1      16.435  61.492  19.625  1.00  0.00     0.093 C 
ENDBRANCH   6   7
ENDBRANCH   1   5
TORSDOF 4
ENDMDL
MODEL 2
REMARK VINA RESULT:    -3.528      1.453      2.037
REMARK INTER + INTRA:          -4.703
REMARK INTER:                  -4.149
REMARK INTRA:                  -0.555
REMARK UNBOUND:                -0.350
REMARK SMILES CCCCC=CC(C)=O
REMARK SMILES IDX 4 1 3 2 2 3 1 4 5 5 6 6 7 7 9 8 8 9
REMARK H PARENT
REMARK Flexibility Score: inf
ROOT
ATOM      1  C   UNL     1      13.871  62.646  22.060  1.00  0.00     0.027 C 
ENDROOT
BRANCH   1   2
ATOM      2  C   UNL     1      13.199  63.161  20.777  1.00  0.00     0.004 C 
BRANCH   2   3
ATOM      3  C   UNL     1      12.452  62.053  20.020  1.00  0.00    -0.003 C 
ATOM      4  C   UNL     1      12.116  60.856  20.910  1.00  0.00     0.004 C 
ENDBRANCH   2   3
ENDBRANCH   1   2
BRANCH   1   5
ATOM      5  C   UNL     1      15.356  62.890  22.030  1.00  0.00    -0.023 C 
ATOM      6  C   UNL     1      16.265  62.134  21.390  1.00  0.00     0.042 C 
BRANCH   6   7
ATOM      7  C   UNL     1      15.989  60.942  20.554  1.00  0.00     0.152 C 
ATOM      8  O   UNL     1      15.852  61.026  19.305  1.00  0.00    -0.295 OA
ATOM      9  C   UNL     1      15.941  59.595  21.198  1.00  0.00     0.093 C 
ENDBRANCH   6   7
ENDBRANCH   1   5
TORSDOF 4
ENDMDL
MODEL 3
REMARK VINA RESULT:    -3.429      1.931      3.906
REMARK INTER + INTRA:          -4.582
REMARK INTER:                  -3.999
REMARK INTRA:                  -0.583
REMARK UNBOUND:                -0.350
REMARK SMILES CCCCC=CC(C)=O
REMARK SMILES IDX 4 1 3 2 2 3 1 4 5 5 6 6 7 7 9 8 8 9
REMARK H PARENT
REMARK Flexibility Score: inf
ROOT
ATOM      1  C   UNL     1      15.243  62.138  22.487  1.00  0.00     0.027 C 
ENDROOT
BRANCH   1   2
ATOM      2  C   UNL     1      15.993  62.640  21.243  1.00  0.00     0.004 C 
BRANCH   2   3
ATOM      3  C   UNL     1      16.333  61.505  20.265  1.00  0.00    -0.003 C 
ATOM      4  C   UNL     1      15.875  60.136  20.770  1.00  0.00     0.004 C 
ENDBRANCH   2   3
ENDBRANCH   1   2
BRANCH   1   5
ATOM      5  C   UNL     1      13.982  62.927  22.717  1.00  0.00    -0.023 C 
ATOM      6  C   UNL     1      12.825  62.774  22.051  1.00  0.00     0.042 C 
BRANCH   6   7
ATOM      7  C   UNL     1      12.543  61.774  20.994  1.00  0.00     0.152 C 
ATOM      8  O   UNL     1      12.212  60.591  21.271  1.00  0.00    -0.295 OA
ATOM      9  C   UNL     1      12.582  62.198  19.561  1.00  0.00     0.093 C 
ENDBRANCH   6   7
ENDBRANCH   1   5
TORSDOF 4
ENDMDL
MODEL 4
REMARK VINA RESULT:    -3.401     17.058     18.164
REMARK INTER + INTRA:          -4.546
REMARK INTER:                  -4.286
REMARK INTRA:                  -0.260
REMARK UNBOUND:                -0.350
REMARK SMILES CCCCC=CC(C)=O
REMARK SMILES IDX 4 1 3 2 2 3 1 4 5 5 6 6 7 7 9 8 8 9
REMARK H PARENT
REMARK Flexibility Score: inf
ROOT
ATOM      1  C   UNL     1      18.748  53.239  35.901  1.00  0.00     0.027 C 
ENDROOT
BRANCH   1   2
ATOM      2  C   UNL     1      19.347  54.114  34.788  1.00  0.00     0.004 C 
BRANCH   2   3
ATOM      3  C   UNL     1      20.043  53.283  33.699  1.00  0.00    -0.003 C 
ATOM      4  C   UNL     1      21.490  53.718  33.463  1.00  0.00     0.004 C 
ENDBRANCH   2   3
ENDBRANCH   1   2
BRANCH   1   5
ATOM      5  C   UNL     1      17.772  52.239  35.340  1.00  0.00    -0.023 C 
ATOM      6  C   UNL     1      16.452  52.201  35.591  1.00  0.00     0.042 C 
BRANCH   6   7
ATOM      7  C   UNL     1      15.687  53.154  36.429  1.00  0.00     0.152 C 
ATOM      8  O   UNL     1      15.361  54.295  36.006  1.00  0.00    -0.295 OA
ATOM      9  C   UNL     1      15.227  52.727  37.785  1.00  0.00     0.093 C 
ENDBRANCH   6   7
ENDBRANCH   1   5
TORSDOF 4
ENDMDL
MODEL 5
REMARK VINA RESULT:    -3.391     16.948     17.971
REMARK INTER + INTRA:          -4.535
REMARK INTER:                  -4.243
REMARK INTRA:                  -0.292
REMARK UNBOUND:                -0.350
REMARK SMILES CCCCC=CC(C)=O
REMARK SMILES IDX 4 1 3 2 2 3 1 4 5 5 6 6 7 7 9 8 8 9
REMARK H PARENT
REMARK Flexibility Score: inf
ROOT
ATOM      1  C   UNL     1      16.738  52.495  34.898  1.00  0.00     0.027 C 
ENDROOT
BRANCH   1   2
ATOM      2  C   UNL     1      15.378  52.318  35.591  1.00  0.00     0.004 C 
BRANCH   2   3
ATOM      3  C   UNL     1      15.436  52.647  37.091  1.00  0.00    -0.003 C 
ATOM      4  C   UNL     1      14.855  51.531  37.960  1.00  0.00     0.004 C 
ENDBRANCH   2   3
ENDBRANCH   1   2
BRANCH   1   5
ATOM      5  C   UNL     1      17.859  52.531  35.902  1.00  0.00    -0.023 C 
ATOM      6  C   UNL     1      19.058  53.113  35.723  1.00  0.00     0.042 C 
BRANCH   6   7
ATOM      7  C   UNL     1      19.500  53.870  34.529  1.00  0.00     0.152 C 
ATOM      8  O   UNL     1      19.168  55.071  34.345  1.00  0.00    -0.295 OA
ATOM      9  C   UNL     1      20.422  53.216  33.551  1.00  0.00     0.093 C 
ENDBRANCH   6   7
ENDBRANCH   1   5
TORSDOF 4
ENDMDL
MODEL 6
REMARK VINA RESULT:    -3.317      1.238      1.736
REMARK INTER + INTRA:          -4.444
REMARK INTER:                  -4.164
REMARK INTRA:                  -0.280
REMARK UNBOUND:                -0.350
REMARK SMILES CCCCC=CC(C)=O
REMARK SMILES IDX 4 1 3 2 2 3 1 4 5 5 6 6 7 7 9 8 8 9
REMARK H PARENT
REMARK Flexibility Score: inf
ROOT
ATOM      1  C   UNL     1      14.346  62.305  21.908  1.00  0.00     0.027 C 
ENDROOT
BRANCH   1   2
ATOM      2  C   UNL     1      13.037  62.967  21.449  1.00  0.00     0.004 C 
BRANCH   2   3
ATOM      3  C   UNL     1      12.682  62.620  19.995  1.00  0.00    -0.003 C 
ATOM      4  C   UNL     1      11.980  63.770  19.271  1.00  0.00     0.004 C 
ENDBRANCH   2   3
ENDBRANCH   1   2
BRANCH   1   5
ATOM      5  C   UNL     1      15.428  62.468  20.875  1.00  0.00    -0.023 C 
ATOM      6  C   UNL     1      16.427  61.600  20.638  1.00  0.00     0.042 C 
BRANCH   6   7
ATOM      7  C   UNL     1      16.638  60.295  21.308  1.00  0.00     0.152 C 
ATOM      8  O   UNL     1      15.980  59.271  20.988  1.00  0.00    -0.295 OA
ATOM      9  C   UNL     1      17.710  60.172  22.343  1.00  0.00     0.093 C 
ENDBRANCH   6   7
ENDBRANCH   1   5
TORSDOF 4
ENDMDL
MODEL 7
REMARK VINA RESULT:    -3.278      2.441      4.526
REMARK INTER + INTRA:          -4.395
REMARK INTER:                  -3.967
REMARK INTRA:                  -0.428
REMARK UNBOUND:                -0.350
REMARK SMILES CCCCC=CC(C)=O
REMARK SMILES IDX 4 1 3 2 2 3 1 4 5 5 6 6 7 7 9 8 8 9
REMARK H PARENT
REMARK Flexibility Score: inf
ROOT
ATOM      1  C   UNL     1      15.905  61.410  20.301  1.00  0.00     0.027 C 
ENDROOT
BRANCH   1   2
ATOM      2  C   UNL     1      16.521  60.320  21.192  1.00  0.00     0.004 C 
BRANCH   2   3
ATOM      3  C   UNL     1      15.463  59.367  21.771  1.00  0.00    -0.003 C 
ATOM      4  C   UNL     1      15.551  57.961  21.177  1.00  0.00     0.004 C 
ENDBRANCH   2   3
ENDBRANCH   1   2
BRANCH   1   5
ATOM      5  C   UNL     1      15.217  62.463  21.127  1.00  0.00    -0.023 C 
ATOM      6  C   UNL     1      13.896  62.709  21.148  1.00  0.00     0.042 C 
BRANCH   6   7
ATOM      7  C   UNL     1      12.850  61.969  20.403  1.00  0.00     0.152 C 
ATOM      8  O   UNL     1      12.604  62.210  19.191  1.00  0.00    -0.295 OA
ATOM      9  C   UNL     1      12.116  60.860  21.084  1.00  0.00     0.093 C 
ENDBRANCH   6   7
ENDBRANCH   1   5
TORSDOF 4
ENDMDL
MODEL 8
REMARK VINA RESULT:    -3.103     16.694     17.922
REMARK INTER + INTRA:          -4.180
REMARK INTER:                  -3.583
REMARK INTRA:                  -0.597
REMARK UNBOUND:                -0.350
REMARK SMILES CCCCC=CC(C)=O
REMARK SMILES IDX 4 1 3 2 2 3 1 4 5 5 6 6 7 7 9 8 8 9
REMARK H PARENT
REMARK Flexibility Score: inf
ROOT
ATOM      1  C   UNL     1      16.826  52.783  33.850  1.00  0.00     0.027 C 
ENDROOT
BRANCH   1   2
ATOM      2  C   UNL     1      17.978  52.104  34.607  1.00  0.00     0.004 C 
BRANCH   2   3
ATOM      3  C   UNL     1      18.701  53.066  35.562  1.00  0.00    -0.003 C 
ATOM      4  C   UNL     1      18.371  54.532  35.280  1.00  0.00     0.004 C 
ENDBRANCH   2   3
ENDBRANCH   1   2
BRANCH   1   5
ATOM      5  C   UNL     1      15.516  52.091  34.117  1.00  0.00    -0.023 C 
ATOM      6  C   UNL     1      14.728  52.284  35.188  1.00  0.00     0.042 C 
BRANCH   6   7
ATOM      7  C   UNL     1      14.963  53.242  36.294  1.00  0.00     0.152 C 
ATOM      8  O   UNL     1      14.760  54.477  36.156  1.00  0.00    -0.295 OA
ATOM      9  C   UNL     1      15.386  52.724  37.631  1.00  0.00     0.093 C 
ENDBRANCH   6   7
ENDBRANCH   1   5
TORSDOF 4
ENDMDL
MODEL 9
REMARK VINA RESULT:    -3.088      1.998      4.818
REMARK INTER + INTRA:          -4.161
REMARK INTER:                  -3.902
REMARK INTRA:                  -0.259
REMARK UNBOUND:                -0.350
REMARK SMILES CCCCC=CC(C)=O
REMARK SMILES IDX 4 1 3 2 2 3 1 4 5 5 6 6 7 7 9 8 8 9
REMARK H PARENT
REMARK Flexibility Score: inf
ROOT
ATOM      1  C   UNL     1      16.508  61.205  20.618  1.00  0.00     0.027 C 
ENDROOT
BRANCH   1   2
ATOM      2  C   UNL     1      17.362  60.497  21.682  1.00  0.00     0.004 C 
BRANCH   2   3
ATOM      3  C   UNL     1      17.803  61.444  22.808  1.00  0.00    -0.003 C 
ATOM      4  C   UNL     1      19.287  61.301  23.149  1.00  0.00     0.004 C 
ENDBRANCH   2   3
ENDBRANCH   1   2
BRANCH   1   5
ATOM      5  C   UNL     1      15.862  62.445  21.177  1.00  0.00    -0.023 C 
ATOM      6  C   UNL     1      14.542  62.690  21.228  1.00  0.00     0.042 C 
BRANCH   6   7
ATOM      7  C   UNL     1      13.459  61.779  20.789  1.00  0.00     0.152 C 
ATOM      8  O   UNL     1      13.200  60.712  21.405  1.00  0.00    -0.295 OA
ATOM      9  C   UNL     1      12.604  62.169  19.626  1.00  0.00     0.093 C 
ENDBRANCH   6   7
ENDBRANCH   1   5
TORSDOF 4
ENDMDL
