MODEL 1
REMARK VINA RESULT:    -7.352      0.000      0.000
REMARK INTER + INTRA:          -7.567
REMARK INTER:                  -7.567
REMARK INTRA:                   0.000
REMARK UNBOUND:                 0.000
REMARK SMILES C[C@H]1CC[C@@]2(OC1)O[C@H]1C[C@@H]3[C@@H]4CC=C5C[C@H](O)CC[C@@]5(C)[C@@H]4CC[C@]3(C)[C@@H]1[C@H]2C
REMARK SMILES IDX 1 1 2 2 3 3 4 4 5 5 29 6 28 7 9 8 8 9 10 10 11 11 26 12
REMARK SMILES IDX 25 13 24 14 23 15 12 16 13 17 14 18 15 19 21 20 20 21 19 22
REMARK SMILES IDX 17 23 16 24 22 25 27 26 30 27 6 28 7 29 18 30
REMARK H PARENT 18 31
REMARK Flexibility Score: inf
ROOT
ATOM      1  C   UNL     1     -11.155  25.345 -16.887  1.00  0.00     0.010 C 
ATOM      2  C   UNL     1      -9.974  26.153 -16.328  1.00  0.00     0.012 C 
ATOM      3  C   UNL     1     -10.065  26.327 -14.803  1.00  0.00     0.011 C 
ATOM      4  C   UNL     1      -9.706  25.028 -14.075  1.00  0.00     0.066 C 
ATOM      5  C   UNL     1      -8.366  24.452 -14.604  1.00  0.00     0.171 C 
ATOM      6  C   UNL     1      -7.991  23.062 -13.955  1.00  0.00     0.052 C 
ATOM      7  C   UNL     1      -6.958  23.522 -12.961  1.00  0.00     0.033 C 
ATOM      8  C   UNL     1      -6.289  24.561 -13.785  1.00  0.00     0.126 C 
ATOM      9  O   UNL     1      -7.317  25.374 -14.267  1.00  0.00    -0.346 OA
ATOM     10  C   UNL     1      -5.272  25.138 -12.834  1.00  0.00     0.037 C 
ATOM     11  C   UNL     1      -4.714  23.858 -12.139  1.00  0.00     0.002 C 
ATOM     12  C   UNL     1      -5.795  22.721 -12.346  1.00  0.00    -0.024 C 
ATOM     13  C   UNL     1      -5.303  21.583 -13.276  1.00  0.00     0.008 C 
ATOM     14  C   UNL     1      -3.911  21.023 -12.908  1.00  0.00     0.005 C 
ATOM     15  C   UNL     1      -2.972  21.997 -12.125  1.00  0.00     0.003 C 
ATOM     16  C   UNL     1      -3.253  23.461 -12.537  1.00  0.00     0.000 C 
ATOM     17  C   UNL     1      -2.842  23.666 -14.014  1.00  0.00     0.031 C 
ATOM     18  C   UNL     1      -1.449  23.162 -14.280  1.00  0.00    -0.027 C 
ATOM     19  C   UNL     1      -0.823  22.225 -13.531  1.00  0.00    -0.065 C 
ATOM     20  C   UNL     1      -1.437  21.639 -12.254  1.00  0.00    -0.008 C 
ATOM     21  C   UNL     1      -0.645  22.243 -11.047  1.00  0.00     0.014 C 
ATOM     22  C   UNL     1       0.892  22.129 -11.183  1.00  0.00     0.033 C 
ATOM     23  C   UNL     1       1.402  22.667 -12.538  1.00  0.00     0.118 C 
ATOM     24  C   UNL     1       0.664  22.023 -13.725  1.00  0.00     0.063 C 
ATOM     25  C   UNL     1      -1.251  20.093 -12.228  1.00  0.00     0.016 C 
ATOM     26  C   UNL     1      -6.246  22.115 -10.994  1.00  0.00     0.012 C 
ATOM     27  C   UNL     1      -9.125  22.256 -13.303  1.00  0.00     0.014 C 
ATOM     28  O   UNL     1      -8.437  24.272 -16.015  1.00  0.00    -0.349 OA
ATOM     29  C   UNL     1      -8.629  25.501 -16.696  1.00  0.00     0.167 C 
ENDROOT
BRANCH  23  30
ATOM     30  O   UNL     1       2.790  22.478 -12.656  1.00  0.00    -0.393 OA
ATOM     31  H   UNL     1       3.007  21.597 -12.253  1.00  0.00     0.210 HD
ENDBRANCH  23  30
TORSDOF 1
ENDMDL
MODEL 2
REMARK VINA RESULT:    -7.125      2.924      4.644
REMARK INTER + INTRA:          -7.333
REMARK INTER:                  -7.333
REMARK INTRA:                   0.000
REMARK UNBOUND:                 0.000
REMARK SMILES C[C@H]1CC[C@@]2(OC1)O[C@H]1C[C@@H]3[C@@H]4CC=C5C[C@H](O)CC[C@@]5(C)[C@@H]4CC[C@]3(C)[C@@H]1[C@H]2C
REMARK SMILES IDX 1 1 2 2 3 3 4 4 5 5 29 6 28 7 9 8 8 9 10 10 11 11 26 12
REMARK SMILES IDX 25 13 24 14 23 15 12 16 13 17 14 18 15 19 21 20 20 21 19 22
REMARK SMILES IDX 17 23 16 24 22 25 27 26 30 27 6 28 7 29 18 30
REMARK H PARENT 18 31
REMARK Flexibility Score: inf
ROOT
ATOM      1  C   UNL     1      -8.156  23.630 -22.647  1.00  0.00     0.010 C 
ATOM      2  C   UNL     1      -6.982  24.361 -21.978  1.00  0.00     0.012 C 
ATOM      3  C   UNL     1      -7.412  25.707 -21.371  1.00  0.00     0.011 C 
ATOM      4  C   UNL     1      -8.208  25.502 -20.079  1.00  0.00     0.066 C 
ATOM      5  C   UNL     1      -7.460  24.543 -19.116  1.00  0.00     0.171 C 
ATOM      6  C   UNL     1      -8.277  24.221 -17.804  1.00  0.00     0.052 C 
ATOM      7  C   UNL     1      -7.564  25.129 -16.837  1.00  0.00     0.033 C 
ATOM      8  C   UNL     1      -6.176  24.950 -17.332  1.00  0.00     0.126 C 
ATOM      9  O   UNL     1      -6.238  25.180 -18.709  1.00  0.00    -0.346 OA
ATOM     10  C   UNL     1      -5.386  25.893 -16.459  1.00  0.00     0.037 C 
ATOM     11  C   UNL     1      -6.019  25.642 -15.057  1.00  0.00     0.002 C 
ATOM     12  C   UNL     1      -7.440  24.994 -15.308  1.00  0.00    -0.024 C 
ATOM     13  C   UNL     1      -7.524  23.520 -14.835  1.00  0.00     0.008 C 
ATOM     14  C   UNL     1      -7.008  23.287 -13.398  1.00  0.00     0.005 C 
ATOM     15  C   UNL     1      -5.970  24.331 -12.871  1.00  0.00     0.003 C 
ATOM     16  C   UNL     1      -5.112  24.872 -14.038  1.00  0.00     0.000 C 
ATOM     17  C   UNL     1      -4.231  23.731 -14.599  1.00  0.00     0.031 C 
ATOM     18  C   UNL     1      -3.481  23.017 -13.507  1.00  0.00    -0.027 C 
ATOM     19  C   UNL     1      -3.866  22.995 -12.210  1.00  0.00    -0.065 C 
ATOM     20  C   UNL     1      -5.069  23.789 -11.689  1.00  0.00    -0.008 C 
ATOM     21  C   UNL     1      -4.502  24.988 -10.857  1.00  0.00     0.014 C 
ATOM     22  C   UNL     1      -3.444  24.579  -9.806  1.00  0.00     0.033 C 
ATOM     23  C   UNL     1      -2.319  23.710 -10.413  1.00  0.00     0.118 C 
ATOM     24  C   UNL     1      -2.881  22.497 -11.175  1.00  0.00     0.063 C 
ATOM     25  C   UNL     1      -5.925  22.904 -10.736  1.00  0.00     0.016 C 
ATOM     26  C   UNL     1      -8.565  25.812 -14.626  1.00  0.00     0.012 C 
ATOM     27  C   UNL     1      -9.794  24.463 -17.838  1.00  0.00     0.014 C 
ATOM     28  O   UNL     1      -7.184  23.311 -19.774  1.00  0.00    -0.349 OA
ATOM     29  C   UNL     1      -6.329  23.488 -20.891  1.00  0.00     0.167 C 
ENDROOT
BRANCH  23  30
ATOM     30  O   UNL     1      -1.420  23.296  -9.415  1.00  0.00    -0.393 OA
ATOM     31  H   UNL     1      -1.829  22.522  -8.945  1.00  0.00     0.210 HD
ENDBRANCH  23  30
TORSDOF 1
ENDMDL
MODEL 3
REMARK VINA RESULT:    -7.085      2.556      8.925
REMARK INTER + INTRA:          -7.292
REMARK INTER:                  -7.292
REMARK INTRA:                   0.000
REMARK UNBOUND:                 0.000
REMARK SMILES C[C@H]1CC[C@@]2(OC1)O[C@H]1C[C@@H]3[C@@H]4CC=C5C[C@H](O)CC[C@@]5(C)[C@@H]4CC[C@]3(C)[C@@H]1[C@H]2C
REMARK SMILES IDX 1 1 2 2 3 3 4 4 5 5 29 6 28 7 9 8 8 9 10 10 11 11 26 12
REMARK SMILES IDX 25 13 24 14 23 15 12 16 13 17 14 18 15 19 21 20 20 21 19 22
REMARK SMILES IDX 17 23 16 24 22 25 27 26 30 27 6 28 7 29 18 30
REMARK H PARENT 18 31
REMARK Flexibility Score: inf
ROOT
ATOM      1  C   UNL     1      -0.202  20.987 -11.998  1.00  0.00     0.010 C 
ATOM      2  C   UNL     1      -0.650  22.451 -12.127  1.00  0.00     0.012 C 
ATOM      3  C   UNL     1      -0.261  23.056 -13.487  1.00  0.00     0.011 C 
ATOM      4  C   UNL     1      -1.165  22.530 -14.605  1.00  0.00     0.066 C 
ATOM      5  C   UNL     1      -2.660  22.668 -14.216  1.00  0.00     0.171 C 
ATOM      6  C   UNL     1      -3.639  22.057 -15.294  1.00  0.00     0.052 C 
ATOM      7  C   UNL     1      -4.094  23.326 -15.965  1.00  0.00     0.033 C 
ATOM      8  C   UNL     1      -4.192  24.199 -14.769  1.00  0.00     0.126 C 
ATOM      9  O   UNL     1      -2.968  24.068 -14.109  1.00  0.00    -0.346 OA
ATOM     10  C   UNL     1      -4.576  25.533 -15.359  1.00  0.00     0.037 C 
ATOM     11  C   UNL     1      -5.638  25.122 -16.424  1.00  0.00     0.002 C 
ATOM     12  C   UNL     1      -5.403  23.588 -16.733  1.00  0.00    -0.024 C 
ATOM     13  C   UNL     1      -6.567  22.689 -16.245  1.00  0.00     0.008 C 
ATOM     14  C   UNL     1      -7.967  23.177 -16.678  1.00  0.00     0.005 C 
ATOM     15  C   UNL     1      -8.092  24.707 -16.974  1.00  0.00     0.003 C 
ATOM     16  C   UNL     1      -7.117  25.508 -16.082  1.00  0.00     0.000 C 
ATOM     17  C   UNL     1      -7.554  25.385 -14.603  1.00  0.00     0.031 C 
ATOM     18  C   UNL     1      -9.016  25.698 -14.427  1.00  0.00    -0.027 C 
ATOM     19  C   UNL     1      -9.938  25.602 -15.413  1.00  0.00    -0.065 C 
ATOM     20  C   UNL     1      -9.571  25.256 -16.860  1.00  0.00    -0.008 C 
ATOM     21  C   UNL     1      -9.718  26.571 -17.696  1.00  0.00     0.014 C 
ATOM     22  C   UNL     1     -11.065  27.302 -17.488  1.00  0.00     0.033 C 
ATOM     23  C   UNL     1     -11.384  27.527 -15.993  1.00  0.00     0.118 C 
ATOM     24  C   UNL     1     -11.301  26.219 -15.187  1.00  0.00     0.063 C 
ATOM     25  C   UNL     1     -10.569  24.207 -17.432  1.00  0.00     0.016 C 
ATOM     26  C   UNL     1      -5.170  23.345 -18.245  1.00  0.00     0.012 C 
ATOM     27  C   UNL     1      -3.055  21.038 -16.284  1.00  0.00     0.014 C 
ATOM     28  O   UNL     1      -2.904  22.008 -12.978  1.00  0.00    -0.349 OA
ATOM     29  C   UNL     1      -2.168  22.591 -11.914  1.00  0.00     0.167 C 
ENDROOT
BRANCH  23  30
ATOM     30  O   UNL     1     -12.647  28.124 -15.841  1.00  0.00    -0.393 OA
ATOM     31  H   UNL     1     -13.190  27.533 -15.258  1.00  0.00     0.210 HD
ENDBRANCH  23  30
TORSDOF 1
ENDMDL
MODEL 4
REMARK VINA RESULT:    -6.735      2.060      2.945
REMARK INTER + INTRA:          -6.932
REMARK INTER:                  -6.932
REMARK INTRA:                   0.000
REMARK UNBOUND:                 0.000
REMARK SMILES C[C@H]1CC[C@@]2(OC1)O[C@H]1C[C@@H]3[C@@H]4CC=C5C[C@H](O)CC[C@@]5(C)[C@@H]4CC[C@]3(C)[C@@H]1[C@H]2C
REMARK SMILES IDX 1 1 2 2 3 3 4 4 5 5 29 6 28 7 9 8 8 9 10 10 11 11 26 12
REMARK SMILES IDX 25 13 24 14 23 15 12 16 13 17 14 18 15 19 21 20 20 21 19 22
REMARK SMILES IDX 17 23 16 24 22 25 27 26 30 27 6 28 7 29 18 30
REMARK H PARENT 18 31
REMARK Flexibility Score: inf
ROOT
ATOM      1  C   UNL     1      -9.383  25.403 -21.026  1.00  0.00     0.010 C 
ATOM      2  C   UNL     1      -8.697  26.305 -19.989  1.00  0.00     0.012 C 
ATOM      3  C   UNL     1      -9.603  26.586 -18.779  1.00  0.00     0.011 C 
ATOM      4  C   UNL     1      -9.698  25.362 -17.863  1.00  0.00     0.066 C 
ATOM      5  C   UNL     1      -8.286  24.814 -17.528  1.00  0.00     0.171 C 
ATOM      6  C   UNL     1      -8.324  23.495 -16.661  1.00  0.00     0.052 C 
ATOM      7  C   UNL     1      -7.999  24.076 -15.310  1.00  0.00     0.033 C 
ATOM      8  C   UNL     1      -6.990  25.082 -15.727  1.00  0.00     0.126 C 
ATOM      9  O   UNL     1      -7.590  25.808 -16.758  1.00  0.00    -0.346 OA
ATOM     10  C   UNL     1      -6.654  25.775 -14.431  1.00  0.00     0.037 C 
ATOM     11  C   UNL     1      -6.564  24.578 -13.436  1.00  0.00     0.002 C 
ATOM     12  C   UNL     1      -7.358  23.378 -14.095  1.00  0.00    -0.024 C 
ATOM     13  C   UNL     1      -6.439  22.200 -14.506  1.00  0.00     0.008 C 
ATOM     14  C   UNL     1      -5.472  21.736 -13.395  1.00  0.00     0.005 C 
ATOM     15  C   UNL     1      -5.110  22.809 -12.317  1.00  0.00     0.003 C 
ATOM     16  C   UNL     1      -5.121  24.223 -12.941  1.00  0.00     0.000 C 
ATOM     17  C   UNL     1      -3.973  24.339 -13.970  1.00  0.00     0.031 C 
ATOM     18  C   UNL     1      -2.659  23.884 -13.393  1.00  0.00    -0.027 C 
ATOM     19  C   UNL     1      -2.542  23.035 -12.346  1.00  0.00    -0.065 C 
ATOM     20  C   UNL     1      -3.752  22.516 -11.560  1.00  0.00    -0.008 C 
ATOM     21  C   UNL     1      -3.745  23.245 -10.175  1.00  0.00     0.014 C 
ATOM     22  C   UNL     1      -2.382  23.194  -9.445  1.00  0.00     0.033 C 
ATOM     23  C   UNL     1      -1.216  23.655 -10.349  1.00  0.00     0.118 C 
ATOM     24  C   UNL     1      -1.190  22.891 -11.684  1.00  0.00     0.063 C 
ATOM     25  C   UNL     1      -3.610  20.987 -11.303  1.00  0.00     0.016 C 
ATOM     26  C   UNL     1      -8.472  22.852 -13.156  1.00  0.00     0.012 C 
ATOM     27  C   UNL     1      -9.630  22.686 -16.660  1.00  0.00     0.014 C 
ATOM     28  O   UNL     1      -7.578  24.528 -18.729  1.00  0.00    -0.349 OA
ATOM     29  C   UNL     1      -7.368  25.693 -19.510  1.00  0.00     0.167 C 
ENDROOT
BRANCH  23  30
ATOM     30  O   UNL     1       0.012  23.524  -9.678  1.00  0.00    -0.393 OA
ATOM     31  H   UNL     1       0.719  23.886 -10.273  1.00  0.00     0.210 HD
ENDBRANCH  23  30
TORSDOF 1
ENDMDL
MODEL 5
REMARK VINA RESULT:    -6.688      2.965      8.404
REMARK INTER + INTRA:          -6.884
REMARK INTER:                  -6.884
REMARK INTRA:                   0.000
REMARK UNBOUND:                 0.000
REMARK SMILES C[C@H]1CC[C@@]2(OC1)O[C@H]1C[C@@H]3[C@@H]4CC=C5C[C@H](O)CC[C@@]5(C)[C@@H]4CC[C@]3(C)[C@@H]1[C@H]2C
REMARK SMILES IDX 1 1 2 2 3 3 4 4 5 5 29 6 28 7 9 8 8 9 10 10 11 11 26 12
REMARK SMILES IDX 25 13 24 14 23 15 12 16 13 17 14 18 15 19 21 20 20 21 19 22
REMARK SMILES IDX 17 23 16 24 22 25 27 26 30 27 6 28 7 29 18 30
REMARK H PARENT 18 31
REMARK Flexibility Score: inf
ROOT
ATOM      1  C   UNL     1      -4.125  21.479  -7.883  1.00  0.00     0.010 C 
ATOM      2  C   UNL     1      -4.260  22.910  -8.424  1.00  0.00     0.012 C 
ATOM      3  C   UNL     1      -3.097  23.287  -9.356  1.00  0.00     0.011 C 
ATOM      4  C   UNL     1      -3.237  22.604 -10.720  1.00  0.00     0.066 C 
ATOM      5  C   UNL     1      -4.659  22.824 -11.302  1.00  0.00     0.171 C 
ATOM      6  C   UNL     1      -4.892  22.065 -12.667  1.00  0.00     0.052 C 
ATOM      7  C   UNL     1      -4.740  23.218 -13.623  1.00  0.00     0.033 C 
ATOM      8  C   UNL     1      -5.420  24.271 -12.827  1.00  0.00     0.126 C 
ATOM      9  O   UNL     1      -4.824  24.227 -11.564  1.00  0.00    -0.346 OA
ATOM     10  C   UNL     1      -5.250  25.500 -13.684  1.00  0.00     0.037 C 
ATOM     11  C   UNL     1      -5.537  24.942 -15.111  1.00  0.00     0.002 C 
ATOM     12  C   UNL     1      -5.329  23.375 -15.038  1.00  0.00    -0.024 C 
ATOM     13  C   UNL     1      -6.647  22.581 -15.222  1.00  0.00     0.008 C 
ATOM     14  C   UNL     1      -7.479  23.015 -16.449  1.00  0.00     0.005 C 
ATOM     15  C   UNL     1      -7.250  24.481 -16.942  1.00  0.00     0.003 C 
ATOM     16  C   UNL     1      -6.892  25.399 -15.751  1.00  0.00     0.000 C 
ATOM     17  C   UNL     1      -8.113  25.518 -14.809  1.00  0.00     0.031 C 
ATOM     18  C   UNL     1      -9.366  25.875 -15.563  1.00  0.00    -0.027 C 
ATOM     19  C   UNL     1      -9.553  25.639 -16.882  1.00  0.00    -0.065 C 
ATOM     20  C   UNL     1      -8.456  25.063 -17.785  1.00  0.00    -0.008 C 
ATOM     21  C   UNL     1      -7.954  26.231 -18.697  1.00  0.00     0.014 C 
ATOM     22  C   UNL     1      -9.088  27.006 -19.408  1.00  0.00     0.033 C 
ATOM     23  C   UNL     1     -10.187  27.469 -18.425  1.00  0.00     0.118 C 
ATOM     24  C   UNL     1     -10.722  26.304 -17.574  1.00  0.00     0.063 C 
ATOM     25  C   UNL     1      -9.043  23.951 -18.703  1.00  0.00     0.016 C 
ATOM     26  C   UNL     1      -4.292  22.892 -16.083  1.00  0.00     0.012 C 
ATOM     27  C   UNL     1      -3.954  20.894 -12.995  1.00  0.00     0.014 C 
ATOM     28  O   UNL     1      -5.639  22.371 -10.375  1.00  0.00    -0.349 OA
ATOM     29  C   UNL     1      -5.598  23.104  -9.161  1.00  0.00     0.167 C 
ENDROOT
BRANCH  23  30
ATOM     30  O   UNL     1     -11.235  28.101 -19.116  1.00  0.00    -0.393 OA
ATOM     31  H   UNL     1     -11.477  28.920 -18.609  1.00  0.00     0.210 HD
ENDBRANCH  23  30
TORSDOF 1
ENDMDL
MODEL 6
REMARK VINA RESULT:    -6.524      2.627      5.298
REMARK INTER + INTRA:          -6.715
REMARK INTER:                  -6.715
REMARK INTRA:                   0.000
REMARK UNBOUND:                 0.000
REMARK SMILES C[C@H]1CC[C@@]2(OC1)O[C@H]1C[C@@H]3[C@@H]4CC=C5C[C@H](O)CC[C@@]5(C)[C@@H]4CC[C@]3(C)[C@@H]1[C@H]2C
REMARK SMILES IDX 1 1 2 2 3 3 4 4 5 5 29 6 28 7 9 8 8 9 10 10 11 11 26 12
REMARK SMILES IDX 25 13 24 14 23 15 12 16 13 17 14 18 15 19 21 20 20 21 19 22
REMARK SMILES IDX 17 23 16 24 22 25 27 26 30 27 6 28 7 29 18 30
REMARK H PARENT 18 31
REMARK Flexibility Score: inf
ROOT
ATOM      1  C   UNL     1      -7.019  24.672 -14.488  1.00  0.00     0.010 C 
ATOM      2  C   UNL     1      -6.338  24.364 -13.145  1.00  0.00     0.012 C 
ATOM      3  C   UNL     1      -6.379  22.865 -12.808  1.00  0.00     0.011 C 
ATOM      4  C   UNL     1      -5.378  22.078 -13.660  1.00  0.00     0.066 C 
ATOM      5  C   UNL     1      -3.974  22.737 -13.608  1.00  0.00     0.171 C 
ATOM      6  C   UNL     1      -2.921  22.022 -14.543  1.00  0.00     0.052 C 
ATOM      7  C   UNL     1      -2.166  21.232 -13.507  1.00  0.00     0.033 C 
ATOM      8  C   UNL     1      -2.154  22.235 -12.413  1.00  0.00     0.126 C 
ATOM      9  O   UNL     1      -3.482  22.639 -12.262  1.00  0.00    -0.346 OA
ATOM     10  C   UNL     1      -1.472  21.497 -11.289  1.00  0.00     0.037 C 
ATOM     11  C   UNL     1      -0.310  20.773 -12.035  1.00  0.00     0.002 C 
ATOM     12  C   UNL     1      -0.715  20.717 -13.564  1.00  0.00    -0.024 C 
ATOM     13  C   UNL     1       0.191  21.598 -14.461  1.00  0.00     0.008 C 
ATOM     14  C   UNL     1       1.704  21.381 -14.237  1.00  0.00     0.005 C 
ATOM     15  C   UNL     1       2.111  20.834 -12.830  1.00  0.00     0.003 C 
ATOM     16  C   UNL     1       1.124  21.336 -11.752  1.00  0.00     0.000 C 
ATOM     17  C   UNL     1       1.264  22.869 -11.601  1.00  0.00     0.031 C 
ATOM     18  C   UNL     1       2.700  23.283 -11.423  1.00  0.00    -0.027 C 
ATOM     19  C   UNL     1       3.760  22.547 -11.831  1.00  0.00    -0.065 C 
ATOM     20  C   UNL     1       3.612  21.146 -12.437  1.00  0.00    -0.008 C 
ATOM     21  C   UNL     1       4.105  20.126 -11.358  1.00  0.00     0.014 C 
ATOM     22  C   UNL     1       5.487  20.468 -10.754  1.00  0.00     0.033 C 
ATOM     23  C   UNL     1       5.561  21.926 -10.249  1.00  0.00     0.118 C 
ATOM     24  C   UNL     1       5.136  22.930 -11.335  1.00  0.00     0.063 C 
ATOM     25  C   UNL     1       4.526  21.004 -13.690  1.00  0.00     0.016 C 
ATOM     26  C   UNL     1      -0.705  19.264 -14.100  1.00  0.00     0.012 C 
ATOM     27  C   UNL     1      -3.465  21.143 -15.679  1.00  0.00     0.014 C 
ATOM     28  O   UNL     1      -4.062  24.100 -14.010  1.00  0.00    -0.349 OA
ATOM     29  C   UNL     1      -4.880  24.858 -13.133  1.00  0.00     0.167 C 
ENDROOT
BRANCH  23  30
ATOM     30  O   UNL     1       6.852  22.222  -9.778  1.00  0.00    -0.393 OA
ATOM     31  H   UNL     1       7.479  21.575 -10.195  1.00  0.00     0.210 HD
ENDBRANCH  23  30
TORSDOF 1
ENDMDL
MODEL 7
REMARK VINA RESULT:    -6.472      3.947      5.517
REMARK INTER + INTRA:          -6.661
REMARK INTER:                  -6.661
REMARK INTRA:                   0.000
REMARK UNBOUND:                 0.000
REMARK SMILES C[C@H]1CC[C@@]2(OC1)O[C@H]1C[C@@H]3[C@@H]4CC=C5C[C@H](O)CC[C@@]5(C)[C@@H]4CC[C@]3(C)[C@@H]1[C@H]2C
REMARK SMILES IDX 1 1 2 2 3 3 4 4 5 5 29 6 28 7 9 8 8 9 10 10 11 11 26 12
REMARK SMILES IDX 25 13 24 14 23 15 12 16 13 17 14 18 15 19 21 20 20 21 19 22
REMARK SMILES IDX 17 23 16 24 22 25 27 26 30 27 6 28 7 29 18 30
REMARK H PARENT 18 31
REMARK Flexibility Score: inf
ROOT
ATOM      1  C   UNL     1      -4.622  21.933 -22.583  1.00  0.00     0.010 C 
ATOM      2  C   UNL     1      -3.714  22.738 -21.640  1.00  0.00     0.012 C 
ATOM      3  C   UNL     1      -4.261  24.152 -21.381  1.00  0.00     0.011 C 
ATOM      4  C   UNL     1      -5.459  24.117 -20.429  1.00  0.00     0.066 C 
ATOM      5  C   UNL     1      -5.132  23.284 -19.162  1.00  0.00     0.171 C 
ATOM      6  C   UNL     1      -6.364  23.134 -18.184  1.00  0.00     0.052 C 
ATOM      7  C   UNL     1      -5.981  24.154 -17.145  1.00  0.00     0.033 C 
ATOM      8  C   UNL     1      -4.518  23.908 -17.105  1.00  0.00     0.126 C 
ATOM      9  O   UNL     1      -4.094  23.962 -18.435  1.00  0.00    -0.346 OA
ATOM     10  C   UNL     1      -4.030  24.950 -16.130  1.00  0.00     0.037 C 
ATOM     11  C   UNL     1      -5.116  24.882 -15.013  1.00  0.00     0.002 C 
ATOM     12  C   UNL     1      -6.395  24.213 -15.662  1.00  0.00    -0.024 C 
ATOM     13  C   UNL     1      -6.706  22.812 -15.077  1.00  0.00     0.008 C 
ATOM     14  C   UNL     1      -6.724  22.761 -13.534  1.00  0.00     0.005 C 
ATOM     15  C   UNL     1      -5.880  23.858 -12.807  1.00  0.00     0.003 C 
ATOM     16  C   UNL     1      -4.650  24.243 -13.661  1.00  0.00     0.000 C 
ATOM     17  C   UNL     1      -3.686  23.037 -13.746  1.00  0.00     0.031 C 
ATOM     18  C   UNL     1      -3.390  22.464 -12.386  1.00  0.00    -0.027 C 
ATOM     19  C   UNL     1      -4.196  22.608 -11.308  1.00  0.00    -0.065 C 
ATOM     20  C   UNL     1      -5.465  23.467 -11.332  1.00  0.00    -0.008 C 
ATOM     21  C   UNL     1      -5.160  24.759 -10.503  1.00  0.00     0.014 C 
ATOM     22  C   UNL     1      -4.546  24.482  -9.110  1.00  0.00     0.033 C 
ATOM     23  C   UNL     1      -3.325  23.538  -9.185  1.00  0.00     0.118 C 
ATOM     24  C   UNL     1      -3.649  22.241  -9.946  1.00  0.00     0.063 C 
ATOM     25  C   UNL     1      -6.637  22.713 -10.637  1.00  0.00     0.016 C 
ATOM     26  C   UNL     1      -7.644  25.117 -15.512  1.00  0.00     0.012 C 
ATOM     27  C   UNL     1      -7.764  23.377 -18.768  1.00  0.00     0.014 C 
ATOM     28  O   UNL     1      -4.708  21.977 -19.534  1.00  0.00    -0.349 OA
ATOM     29  C   UNL     1      -3.514  22.007 -20.300  1.00  0.00     0.167 C 
ENDROOT
BRANCH  23  30
ATOM     30  O   UNL     1      -2.842  23.250  -7.896  1.00  0.00    -0.393 OA
ATOM     31  H   UNL     1      -2.939  24.072  -7.349  1.00  0.00     0.210 HD
ENDBRANCH  23  30
TORSDOF 1
ENDMDL
MODEL 8
REMARK VINA RESULT:    -6.335      3.021      8.528
REMARK INTER + INTRA:          -6.520
REMARK INTER:                  -6.520
REMARK INTRA:                   0.000
REMARK UNBOUND:                 0.000
REMARK SMILES C[C@H]1CC[C@@]2(OC1)O[C@H]1C[C@@H]3[C@@H]4CC=C5C[C@H](O)CC[C@@]5(C)[C@@H]4CC[C@]3(C)[C@@H]1[C@H]2C
REMARK SMILES IDX 1 1 2 2 3 3 4 4 5 5 29 6 28 7 9 8 8 9 10 10 11 11 26 12
REMARK SMILES IDX 25 13 24 14 23 15 12 16 13 17 14 18 15 19 21 20 20 21 19 22
REMARK SMILES IDX 17 23 16 24 22 25 27 26 30 27 6 28 7 29 18 30
REMARK H PARENT 18 31
REMARK Flexibility Score: inf
ROOT
ATOM      1  C   UNL     1      -4.184  21.725  -9.120  1.00  0.00     0.010 C 
ATOM      2  C   UNL     1      -5.401  22.574  -9.519  1.00  0.00     0.012 C 
ATOM      3  C   UNL     1      -5.030  24.052  -9.727  1.00  0.00     0.011 C 
ATOM      4  C   UNL     1      -4.278  24.252 -11.046  1.00  0.00     0.066 C 
ATOM      5  C   UNL     1      -5.036  23.580 -12.221  1.00  0.00     0.171 C 
ATOM      6  C   UNL     1      -4.259  23.675 -13.593  1.00  0.00     0.052 C 
ATOM      7  C   UNL     1      -5.032  24.794 -14.239  1.00  0.00     0.033 C 
ATOM      8  C   UNL     1      -6.395  24.433 -13.777  1.00  0.00     0.126 C 
ATOM      9  O   UNL     1      -6.288  24.263 -12.395  1.00  0.00    -0.346 OA
ATOM     10  C   UNL     1      -7.242  25.555 -14.322  1.00  0.00     0.037 C 
ATOM     11  C   UNL     1      -6.655  25.738 -15.755  1.00  0.00     0.002 C 
ATOM     12  C   UNL     1      -5.209  25.096 -15.740  1.00  0.00    -0.024 C 
ATOM     13  C   UNL     1      -5.104  23.822 -16.616  1.00  0.00     0.008 C 
ATOM     14  C   UNL     1      -5.666  23.990 -18.045  1.00  0.00     0.005 C 
ATOM     15  C   UNL     1      -6.751  25.102 -18.222  1.00  0.00     0.003 C 
ATOM     16  C   UNL     1      -7.578  25.257 -16.925  1.00  0.00     0.000 C 
ATOM     17  C   UNL     1      -8.408  23.973 -16.689  1.00  0.00     0.031 C 
ATOM     18  C   UNL     1      -9.178  23.573 -17.918  1.00  0.00    -0.027 C 
ATOM     19  C   UNL     1      -8.842  23.935 -19.178  1.00  0.00    -0.065 C 
ATOM     20  C   UNL     1      -7.680  24.888 -19.484  1.00  0.00    -0.008 C 
ATOM     21  C   UNL     1      -8.309  26.252 -19.922  1.00  0.00     0.014 C 
ATOM     22  C   UNL     1      -9.394  26.122 -21.017  1.00  0.00     0.033 C 
ATOM     23  C   UNL     1     -10.472  25.077 -20.652  1.00  0.00     0.118 C 
ATOM     24  C   UNL     1      -9.851  23.718 -20.284  1.00  0.00     0.063 C 
ATOM     25  C   UNL     1      -6.836  24.341 -20.674  1.00  0.00     0.016 C 
ATOM     26  C   UNL     1      -4.132  26.115 -16.190  1.00  0.00     0.012 C 
ATOM     27  C   UNL     1      -2.749  23.952 -13.534  1.00  0.00     0.014 C 
ATOM     28  O   UNL     1      -5.253  22.203 -11.935  1.00  0.00    -0.349 OA
ATOM     29  C   UNL     1      -6.072  22.023 -10.791  1.00  0.00     0.167 C 
ENDROOT
BRANCH  23  30
ATOM     30  O   UNL     1     -11.396  24.932 -21.701  1.00  0.00    -0.393 OA
ATOM     31  H   UNL     1     -10.990  25.328 -22.515  1.00  0.00     0.210 HD
ENDBRANCH  23  30
TORSDOF 1
ENDMDL
MODEL 9
REMARK VINA RESULT:    -6.268      2.536      4.808
REMARK INTER + INTRA:          -6.451
REMARK INTER:                  -6.451
REMARK INTRA:                   0.000
REMARK UNBOUND:                 0.000
REMARK SMILES C[C@H]1CC[C@@]2(OC1)O[C@H]1C[C@@H]3[C@@H]4CC=C5C[C@H](O)CC[C@@]5(C)[C@@H]4CC[C@]3(C)[C@@H]1[C@H]2C
REMARK SMILES IDX 1 1 2 2 3 3 4 4 5 5 29 6 28 7 9 8 8 9 10 10 11 11 26 12
REMARK SMILES IDX 25 13 24 14 23 15 12 16 13 17 14 18 15 19 21 20 20 21 19 22
REMARK SMILES IDX 17 23 16 24 22 25 27 26 30 27 6 28 7 29 18 30
REMARK H PARENT 18 31
REMARK Flexibility Score: inf
ROOT
ATOM      1  C   UNL     1     -11.673  23.050 -22.048  1.00  0.00     0.010 C 
ATOM      2  C   UNL     1     -10.382  23.819 -21.727  1.00  0.00     0.012 C 
ATOM      3  C   UNL     1     -10.669  25.170 -21.052  1.00  0.00     0.011 C 
ATOM      4  C   UNL     1     -11.090  24.982 -19.592  1.00  0.00     0.066 C 
ATOM      5  C   UNL     1     -10.091  24.059 -18.845  1.00  0.00     0.171 C 
ATOM      6  C   UNL     1     -10.525  23.753 -17.357  1.00  0.00     0.052 C 
ATOM      7  C   UNL     1      -9.604  24.697 -16.630  1.00  0.00     0.033 C 
ATOM      8  C   UNL     1      -8.392  24.533 -17.472  1.00  0.00     0.126 C 
ATOM      9  O   UNL     1      -8.820  24.729 -18.786  1.00  0.00    -0.346 OA
ATOM     10  C   UNL     1      -7.422  25.510 -16.856  1.00  0.00     0.037 C 
ATOM     11  C   UNL     1      -7.656  25.281 -15.331  1.00  0.00     0.002 C 
ATOM     12  C   UNL     1      -9.077  24.600 -15.186  1.00  0.00    -0.024 C 
ATOM     13  C   UNL     1      -8.997  23.137 -14.682  1.00  0.00     0.008 C 
ATOM     14  C   UNL     1      -8.114  22.948 -13.428  1.00  0.00     0.005 C 
ATOM     15  C   UNL     1      -6.999  24.023 -13.214  1.00  0.00     0.003 C 
ATOM     16  C   UNL     1      -6.494  24.552 -14.576  1.00  0.00     0.000 C 
ATOM     17  C   UNL     1      -5.764  23.415 -15.330  1.00  0.00     0.031 C 
ATOM     18  C   UNL     1      -4.736  22.741 -14.462  1.00  0.00    -0.027 C 
ATOM     19  C   UNL     1      -4.763  22.743 -13.109  1.00  0.00    -0.065 C 
ATOM     20  C   UNL     1      -5.805  23.526 -12.302  1.00  0.00    -0.008 C 
ATOM     21  C   UNL     1      -5.068  24.754 -11.672  1.00  0.00     0.014 C 
ATOM     22  C   UNL     1      -3.760  24.390 -10.931  1.00  0.00     0.033 C 
ATOM     23  C   UNL     1      -2.815  23.529 -11.798  1.00  0.00     0.118 C 
ATOM     24  C   UNL     1      -3.528  22.288 -12.363  1.00  0.00     0.063 C 
ATOM     25  C   UNL     1      -6.358  22.647 -11.142  1.00  0.00     0.016 C 
ATOM     26  C   UNL     1     -10.001  25.413 -14.245  1.00  0.00     0.012 C 
ATOM     27  C   UNL     1     -12.002  23.966 -16.993  1.00  0.00     0.014 C 
ATOM     28  O   UNL     1      -9.969  22.817 -19.530  1.00  0.00    -0.349 OA
ATOM     29  C   UNL     1      -9.443  22.984 -20.837  1.00  0.00     0.167 C 
ENDROOT
BRANCH  23  30
ATOM     30  O   UNL     1      -1.674  23.155 -11.067  1.00  0.00    -0.393 OA
ATOM     31  H   UNL     1      -0.882  23.322 -11.641  1.00  0.00     0.210 HD
ENDBRANCH  23  30
TORSDOF 1
ENDMDL
