MODEL 1
REMARK VINA RESULT:     9.492      0.000      0.000
REMARK INTER + INTRA:          16.301
REMARK INTER:                  16.705
REMARK INTRA:                  -0.404
REMARK UNBOUND:                -0.404
REMARK SMILES CCCCCCCCCCCCCCC(=O)[O-]
REMARK SMILES IDX 9 1 10 2 11 3 12 4 13 5 14 6 15 7 16 8 17 9 8 10 7 11 6 12
REMARK SMILES IDX 5 13 4 14 3 15 2 16 1 17
REMARK H PARENT
REMARK Flexibility Score: inf
ROOT
ATOM      1  C   UNL     1      13.923  14.723  16.748  1.00  0.00     0.000 C 
ENDROOT
BRANCH   1   2
ATOM      2  C   UNL     1      14.875  15.373  17.767  1.00  0.00     0.000 C 
BRANCH   2   3
ATOM      3  C   UNL     1      14.770  16.906  17.782  1.00  0.00     0.000 C 
BRANCH   3   4
ATOM      4  C   UNL     1      16.060  17.580  18.284  1.00  0.00     0.000 C 
BRANCH   4   5
ATOM      5  C   UNL     1      15.797  18.589  19.412  1.00  0.00     0.006 C 
BRANCH   5   6
ATOM      6  C   UNL     1      17.039  19.419  19.766  1.00  0.00     0.053 C 
BRANCH   6   7
ATOM      7  C   UNL     1      16.813  20.860  19.440  1.00  0.00     0.041 C 
ATOM      8  O   UNL     1      17.648  21.490  18.737  1.00  0.00    -0.550 OA
ATOM      9  O   UNL     1      15.657  21.499  19.871  1.00  0.00    -0.550 OA
ENDBRANCH   6   7
ENDBRANCH   5   6
ENDBRANCH   4   5
ENDBRANCH   3   4
ENDBRANCH   2   3
ENDBRANCH   1   2
BRANCH   1  10
ATOM     10  C   UNL     1      14.064  13.190  16.695  1.00  0.00     0.000 C 
BRANCH  10  11
ATOM     11  C   UNL     1      13.480  12.444  17.911  1.00  0.00    -0.000 C 
BRANCH  11  12
ATOM     12  C   UNL     1      12.170  11.678  17.639  1.00  0.00    -0.000 C 
BRANCH  12  13
ATOM     13  C   UNL     1      11.176  12.396  16.704  1.00  0.00    -0.000 C 
BRANCH  13  14
ATOM     14  C   UNL     1       9.802  11.716  16.564  1.00  0.00    -0.000 C 
BRANCH  14  15
ATOM     15  C   UNL     1       8.681  12.704  16.201  1.00  0.00    -0.000 C 
BRANCH  15  16
ATOM     16  C   UNL     1       8.214  12.555  14.745  1.00  0.00    -0.003 C 
ATOM     17  C   UNL     1       9.049  11.550  13.953  1.00  0.00     0.004 C 
ENDBRANCH  15  16
ENDBRANCH  14  15
ENDBRANCH  13  14
ENDBRANCH  12  13
ENDBRANCH  11  12
ENDBRANCH  10  11
ENDBRANCH   1  10
TORSDOF 13
ENDMDL
MODEL 2
REMARK VINA RESULT:     9.493      4.376      9.219
REMARK INTER + INTRA:          16.304
REMARK INTER:                  16.987
REMARK INTRA:                  -0.683
REMARK UNBOUND:                -0.404
REMARK SMILES CCCCCCCCCCCCCCC(=O)[O-]
REMARK SMILES IDX 9 1 10 2 11 3 12 4 13 5 14 6 15 7 16 8 17 9 8 10 7 11 6 12
REMARK SMILES IDX 5 13 4 14 3 15 2 16 1 17
REMARK H PARENT
REMARK Flexibility Score: inf
ROOT
ATOM      1  C   UNL     1      14.347  13.910  16.711  1.00  0.00     0.000 C 
ENDROOT
BRANCH   1   2
ATOM      2  C   UNL     1      14.022  12.939  17.859  1.00  0.00     0.000 C 
BRANCH   2   3
ATOM      3  C   UNL     1      13.215  11.718  17.393  1.00  0.00     0.000 C 
BRANCH   3   4
ATOM      4  C   UNL     1      11.707  11.870  17.665  1.00  0.00     0.000 C 
BRANCH   4   5
ATOM      5  C   UNL     1      10.943  12.429  16.454  1.00  0.00     0.006 C 
BRANCH   5   6
ATOM      6  C   UNL     1       9.783  11.524  16.018  1.00  0.00     0.053 C 
BRANCH   6   7
ATOM      7  C   UNL     1       8.681  12.341  15.421  1.00  0.00     0.041 C 
ATOM      8  O   UNL     1       8.437  12.271  14.187  1.00  0.00    -0.550 OA
ATOM      9  O   UNL     1       7.891  13.144  16.235  1.00  0.00    -0.550 OA
ENDBRANCH   6   7
ENDBRANCH   5   6
ENDBRANCH   4   5
ENDBRANCH   3   4
ENDBRANCH   2   3
ENDBRANCH   1   2
BRANCH   1  10
ATOM     10  C   UNL     1      13.433  15.149  16.702  1.00  0.00     0.000 C 
BRANCH  10  11
ATOM     11  C   UNL     1      14.148  16.483  17.001  1.00  0.00    -0.000 C 
BRANCH  11  12
ATOM     12  C   UNL     1      14.886  16.539  18.354  1.00  0.00    -0.000 C 
BRANCH  12  13
ATOM     13  C   UNL     1      16.311  17.123  18.298  1.00  0.00    -0.000 C 
BRANCH  13  14
ATOM     14  C   UNL     1      16.398  18.651  18.465  1.00  0.00    -0.000 C 
BRANCH  14  15
ATOM     15  C   UNL     1      16.690  19.078  19.913  1.00  0.00    -0.000 C 
BRANCH  15  16
ATOM     16  C   UNL     1      16.703  20.605  20.085  1.00  0.00    -0.003 C 
ATOM     17  C   UNL     1      17.102  21.343  18.808  1.00  0.00     0.004 C 
ENDBRANCH  15  16
ENDBRANCH  14  15
ENDBRANCH  13  14
ENDBRANCH  12  13
ENDBRANCH  11  12
ENDBRANCH  10  11
ENDBRANCH   1  10
TORSDOF 13
ENDMDL
MODEL 3
REMARK VINA RESULT:    10.215      4.859      9.061
REMARK INTER + INTRA:          17.574
REMARK INTER:                  18.157
REMARK INTRA:                  -0.583
REMARK UNBOUND:                -0.404
REMARK SMILES CCCCCCCCCCCCCCC(=O)[O-]
REMARK SMILES IDX 9 1 10 2 11 3 12 4 13 5 14 6 15 7 16 8 17 9 8 10 7 11 6 12
REMARK SMILES IDX 5 13 4 14 3 15 2 16 1 17
REMARK H PARENT
REMARK Flexibility Score: inf
ROOT
ATOM      1  C   UNL     1      14.595  14.804  17.678  1.00  0.00     0.000 C 
ENDROOT
BRANCH   1   2
ATOM      2  C   UNL     1      13.814  13.903  16.705  1.00  0.00     0.000 C 
BRANCH   2   3
ATOM      3  C   UNL     1      13.717  12.448  17.192  1.00  0.00     0.000 C 
BRANCH   3   4
ATOM      4  C   UNL     1      12.283  12.054  17.586  1.00  0.00     0.000 C 
BRANCH   4   5
ATOM      5  C   UNL     1      11.246  12.469  16.530  1.00  0.00     0.006 C 
BRANCH   5   6
ATOM      6  C   UNL     1       9.905  11.744  16.699  1.00  0.00     0.053 C 
BRANCH   6   7
ATOM      7  C   UNL     1       8.888  12.302  15.756  1.00  0.00     0.041 C 
ATOM      8  O   UNL     1       7.948  13.021  16.190  1.00  0.00    -0.550 OA
ATOM      9  O   UNL     1       9.002  12.069  14.391  1.00  0.00    -0.550 OA
ENDBRANCH   6   7
ENDBRANCH   5   6
ENDBRANCH   4   5
ENDBRANCH   3   4
ENDBRANCH   2   3
ENDBRANCH   1   2
BRANCH   1  10
ATOM     10  C   UNL     1      14.354  16.303  17.424  1.00  0.00     0.000 C 
BRANCH  10  11
ATOM     11  C   UNL     1      13.480  16.619  16.193  1.00  0.00    -0.000 C 
BRANCH  11  12
ATOM     12  C   UNL     1      13.220  18.119  15.946  1.00  0.00    -0.000 C 
BRANCH  12  13
ATOM     13  C   UNL     1      14.468  18.946  15.577  1.00  0.00    -0.000 C 
BRANCH  13  14
ATOM     14  C   UNL     1      14.202  20.432  15.276  1.00  0.00    -0.000 C 
BRANCH  14  15
ATOM     15  C   UNL     1      14.640  21.361  16.421  1.00  0.00    -0.000 C 
BRANCH  15  16
ATOM     16  C   UNL     1      15.951  22.099  16.111  1.00  0.00    -0.003 C 
ATOM     17  C   UNL     1      16.478  21.810  14.706  1.00  0.00     0.004 C 
ENDBRANCH  15  16
ENDBRANCH  14  15
ENDBRANCH  13  14
ENDBRANCH  12  13
ENDBRANCH  11  12
ENDBRANCH  10  11
ENDBRANCH   1  10
TORSDOF 13
ENDMDL
MODEL 4
REMARK VINA RESULT:    10.638      2.276      2.701
REMARK INTER + INTRA:          18.319
REMARK INTER:                  18.914
REMARK INTRA:                  -0.595
REMARK UNBOUND:                -0.404
REMARK SMILES CCCCCCCCCCCCCCC(=O)[O-]
REMARK SMILES IDX 9 1 10 2 11 3 12 4 13 5 14 6 15 7 16 8 17 9 8 10 7 11 6 12
REMARK SMILES IDX 5 13 4 14 3 15 2 16 1 17
REMARK H PARENT
REMARK Flexibility Score: inf
ROOT
ATOM      1  C   UNL     1      14.619  14.999  17.832  1.00  0.00     0.000 C 
ENDROOT
BRANCH   1   2
ATOM      2  C   UNL     1      14.326  16.472  17.494  1.00  0.00     0.000 C 
BRANCH   2   3
ATOM      3  C   UNL     1      13.672  16.645  16.114  1.00  0.00     0.000 C 
BRANCH   3   4
ATOM      4  C   UNL     1      13.180  18.083  15.872  1.00  0.00     0.000 C 
BRANCH   4   5
ATOM      5  C   UNL     1      14.309  19.025  15.424  1.00  0.00     0.006 C 
BRANCH   5   6
ATOM      6  C   UNL     1      13.923  20.506  15.536  1.00  0.00     0.053 C 
BRANCH   6   7
ATOM      7  C   UNL     1      15.142  21.348  15.735  1.00  0.00     0.041 C 
ATOM      8  O   UNL     1      15.281  22.025  16.789  1.00  0.00    -0.550 OA
ATOM      9  O   UNL     1      16.151  21.351  14.779  1.00  0.00    -0.550 OA
ENDBRANCH   6   7
ENDBRANCH   5   6
ENDBRANCH   4   5
ENDBRANCH   3   4
ENDBRANCH   2   3
ENDBRANCH   1   2
BRANCH   1  10
ATOM     10  C   UNL     1      14.159  14.032  16.726  1.00  0.00     0.000 C 
BRANCH  10  11
ATOM     11  C   UNL     1      13.848  12.600  17.207  1.00  0.00    -0.000 C 
BRANCH  11  12
ATOM     12  C   UNL     1      12.383  12.355  17.621  1.00  0.00    -0.000 C 
BRANCH  12  13
ATOM     13  C   UNL     1      11.365  12.375  16.464  1.00  0.00    -0.000 C 
BRANCH  13  14
ATOM     14  C   UNL     1      10.027  11.673  16.758  1.00  0.00    -0.000 C 
BRANCH  14  15
ATOM     15  C   UNL     1       8.810  12.476  16.267  1.00  0.00    -0.000 C 
BRANCH  15  16
ATOM     16  C   UNL     1       8.802  12.660  14.742  1.00  0.00    -0.003 C 
ATOM     17  C   UNL     1       8.834  11.334  13.983  1.00  0.00     0.004 C 
ENDBRANCH  15  16
ENDBRANCH  14  15
ENDBRANCH  13  14
ENDBRANCH  12  13
ENDBRANCH  11  12
ENDBRANCH  10  11
ENDBRANCH   1  10
TORSDOF 13
ENDMDL
