MODEL 1
REMARK VINA RESULT:    53.333      0.000      0.000
REMARK INTER + INTRA:          71.051
REMARK INTER:                  70.481
REMARK INTRA:                   0.570
REMARK UNBOUND:                 0.570
REMARK SMILES CC[C@@H](C=C[C@@H](C)[C@H]1CC[C@@H]2[C@@H]3CC=C4C[C@@H](O)CC[C@]4(C)[C@H]3CC[C@@]21C)C(C)C
REMARK SMILES IDX 6 1 7 2 5 3 4 4 3 5 2 6 1 7 28 8 29 9 30 10 8 11 9 12 26 13
REMARK SMILES IDX 10 14 11 15 25 16 27 17 12 18 24 19 23 20 13 21 21 22 14 23
REMARK SMILES IDX 15 24 20 25 22 26 16 27 19 28 17 29 18 30
REMARK H PARENT 18 31
REMARK Flexibility Score: inf
ROOT
ATOM      1  C   UNL     1     -12.628  61.163  -3.167  1.00  0.00     0.012 C 
ATOM      2  C   UNL     1     -11.876  62.176  -2.277  1.00  0.00     0.012 C 
ENDROOT
BRANCH   1   3
ATOM      3  C   UNL     1     -12.859  61.834  -4.508  1.00  0.00    -0.028 C 
ATOM      4  C   UNL     1     -12.082  61.582  -5.573  1.00  0.00    -0.027 C 
BRANCH   4   5
ATOM      5  C   UNL     1     -12.327  62.237  -6.916  1.00  0.00     0.014 C 
BRANCH   5   6
ATOM      6  C   UNL     1     -13.832  62.623  -7.004  1.00  0.00     0.004 C 
ATOM      7  C   UNL     1     -14.068  63.884  -7.839  1.00  0.00     0.004 C 
ENDBRANCH   5   6
BRANCH   5   8
ATOM      8  C   UNL     1     -11.875  61.278  -8.061  1.00  0.00    -0.011 C 
ATOM      9  C   UNL     1     -12.019  61.948  -9.441  1.00  0.00     0.008 C 
ATOM     10  C   UNL     1     -12.668  59.960  -8.065  1.00  0.00     0.008 C 
ENDBRANCH   5   8
ENDBRANCH   4   5
ENDBRANCH   1   3
BRANCH   1  11
ATOM     11  C   UNL     1     -14.002  60.705  -2.561  1.00  0.00     0.002 C 
ATOM     12  C   UNL     1     -13.934  60.647  -1.014  1.00  0.00     0.005 C 
ATOM     13  C   UNL     1     -15.304  61.544  -2.887  1.00  0.00    -0.026 C 
ATOM     14  C   UNL     1     -15.212  61.259  -0.477  1.00  0.00     0.005 C 
ATOM     15  C   UNL     1     -15.647  62.248  -1.553  1.00  0.00    -0.001 C 
ATOM     16  C   UNL     1     -16.437  60.544  -3.271  1.00  0.00     0.007 C 
ATOM     17  C   UNL     1     -15.145  62.601  -4.009  1.00  0.00     0.012 C 
ATOM     18  C   UNL     1     -17.117  62.774  -1.432  1.00  0.00     0.000 C 
ATOM     19  C   UNL     1     -17.831  61.169  -3.263  1.00  0.00     0.005 C 
ATOM     20  C   UNL     1     -18.187  61.745  -1.872  1.00  0.00     0.003 C 
ATOM     21  C   UNL     1     -17.414  63.264  -0.005  1.00  0.00     0.031 C 
ATOM     22  C   UNL     1     -19.651  62.346  -1.804  1.00  0.00    -0.008 C 
ATOM     23  C   UNL     1     -18.838  63.687   0.183  1.00  0.00    -0.027 C 
ATOM     24  C   UNL     1     -19.865  63.155  -0.513  1.00  0.00    -0.065 C 
ATOM     25  C   UNL     1     -20.678  61.171  -1.825  1.00  0.00     0.014 C 
ATOM     26  C   UNL     1     -19.931  63.293  -3.006  1.00  0.00     0.016 C 
ATOM     27  C   UNL     1     -21.280  63.523  -0.105  1.00  0.00     0.063 C 
ATOM     28  C   UNL     1     -22.118  61.599  -1.502  1.00  0.00     0.033 C 
ATOM     29  C   UNL     1     -22.193  62.291  -0.138  1.00  0.00     0.118 C 
BRANCH  29  30
ATOM     30  O   UNL     1     -23.521  62.676   0.108  1.00  0.00    -0.393 OA
ATOM     31  H   UNL     1     -23.585  63.642  -0.107  1.00  0.00     0.210 HD
ENDBRANCH  29  30
ENDBRANCH   1  11
TORSDOF 6
ENDMDL
MODEL 2
REMARK VINA RESULT:    53.642      0.968      2.401
REMARK INTER + INTRA:          71.460
REMARK INTER:                  70.995
REMARK INTRA:                   0.466
REMARK UNBOUND:                 0.570
REMARK SMILES CC[C@@H](C=C[C@@H](C)[C@H]1CC[C@@H]2[C@@H]3CC=C4C[C@@H](O)CC[C@]4(C)[C@H]3CC[C@@]21C)C(C)C
REMARK SMILES IDX 6 1 7 2 5 3 4 4 3 5 2 6 1 7 28 8 29 9 30 10 8 11 9 12 26 13
REMARK SMILES IDX 10 14 11 15 25 16 27 17 12 18 24 19 23 20 13 21 21 22 14 23
REMARK SMILES IDX 15 24 20 25 22 26 16 27 19 28 17 29 18 30
REMARK H PARENT 18 31
REMARK Flexibility Score: inf
ROOT
ATOM      1  C   UNL     1     -13.290  61.333  -3.592  1.00  0.00     0.012 C 
ATOM      2  C   UNL     1     -12.344  61.332  -2.372  1.00  0.00     0.012 C 
ENDROOT
BRANCH   1   3
ATOM      3  C   UNL     1     -12.496  61.864  -4.771  1.00  0.00    -0.028 C 
ATOM      4  C   UNL     1     -12.803  61.542  -6.038  1.00  0.00    -0.027 C 
BRANCH   4   5
ATOM      5  C   UNL     1     -12.022  62.089  -7.214  1.00  0.00     0.014 C 
BRANCH   5   6
ATOM      6  C   UNL     1     -12.747  63.366  -7.731  1.00  0.00     0.004 C 
ATOM      7  C   UNL     1     -14.135  63.064  -8.300  1.00  0.00     0.004 C 
ENDBRANCH   5   6
BRANCH   5   8
ATOM      8  C   UNL     1     -11.875  60.986  -8.308  1.00  0.00    -0.011 C 
ATOM      9  C   UNL     1     -11.878  61.598  -9.723  1.00  0.00     0.008 C 
ATOM     10  C   UNL     1     -12.988  59.928  -8.223  1.00  0.00     0.008 C 
ENDBRANCH   5   8
ENDBRANCH   4   5
ENDBRANCH   1   3
BRANCH   1  11
ATOM     11  C   UNL     1     -14.574  62.211  -3.381  1.00  0.00     0.002 C 
ATOM     12  C   UNL     1     -15.426  62.268  -4.673  1.00  0.00     0.005 C 
ATOM     13  C   UNL     1     -15.591  61.820  -2.232  1.00  0.00    -0.026 C 
ATOM     14  C   UNL     1     -16.878  62.097  -4.272  1.00  0.00     0.005 C 
ATOM     15  C   UNL     1     -16.829  61.280  -2.986  1.00  0.00    -0.001 C 
ATOM     16  C   UNL     1     -15.962  63.121  -1.455  1.00  0.00     0.007 C 
ATOM     17  C   UNL     1     -15.080  60.750  -1.233  1.00  0.00     0.012 C 
ATOM     18  C   UNL     1     -18.156  61.247  -2.157  1.00  0.00     0.000 C 
ATOM     19  C   UNL     1     -17.191  62.967  -0.561  1.00  0.00     0.005 C 
ATOM     20  C   UNL     1     -18.439  62.554  -1.376  1.00  0.00     0.003 C 
ATOM     21  C   UNL     1     -19.358  60.896  -3.050  1.00  0.00     0.031 C 
ATOM     22  C   UNL     1     -19.750  62.446  -0.494  1.00  0.00    -0.008 C 
ATOM     23  C   UNL     1     -20.664  60.947  -2.318  1.00  0.00    -0.027 C 
ATOM     24  C   UNL     1     -20.892  61.765  -1.269  1.00  0.00    -0.065 C 
ATOM     25  C   UNL     1     -20.211  63.885  -0.102  1.00  0.00     0.014 C 
ATOM     26  C   UNL     1     -19.497  61.618   0.798  1.00  0.00     0.016 C 
ATOM     27  C   UNL     1     -22.307  61.868  -0.729  1.00  0.00     0.063 C 
ATOM     28  C   UNL     1     -21.611  63.937   0.532  1.00  0.00     0.033 C 
ATOM     29  C   UNL     1     -22.659  63.324  -0.400  1.00  0.00     0.118 C 
BRANCH  29  30
ATOM     30  O   UNL     1     -23.916  63.382   0.223  1.00  0.00    -0.393 OA
ATOM     31  H   UNL     1     -23.881  62.763   0.998  1.00  0.00     0.210 HD
ENDBRANCH  29  30
ENDBRANCH   1  11
TORSDOF 6
ENDMDL
