MODEL 1
REMARK VINA RESULT:    -2.986      0.000      0.000
REMARK INTER + INTRA:          -5.938
REMARK INTER:                  -5.430
REMARK INTRA:                  -0.508
REMARK UNBOUND:                -0.508
REMARK SMILES CCCCCCCCCCCCCCCC(=O)[O-]
REMARK SMILES IDX 9 1 10 2 11 3 12 4 13 5 14 6 15 7 16 8 17 9 18 10 8 11 7 12
REMARK SMILES IDX 6 13 5 14 4 15 3 16 2 17 1 18
REMARK H PARENT
REMARK Flexibility Score: inf
ROOT
ATOM      1  C   UNL     1      26.681  24.573  -0.407  1.00  0.00     0.000 C 
ENDROOT
BRANCH   1   2
ATOM      2  C   UNL     1      28.093  24.734   0.177  1.00  0.00     0.000 C 
BRANCH   2   3
ATOM      3  C   UNL     1      28.409  26.183   0.575  1.00  0.00     0.000 C 
BRANCH   3   4
ATOM      4  C   UNL     1      29.120  26.235   1.935  1.00  0.00     0.000 C 
BRANCH   4   5
ATOM      5  C   UNL     1      28.303  26.980   3.002  1.00  0.00     0.000 C 
BRANCH   5   6
ATOM      6  C   UNL     1      29.120  28.067   3.722  1.00  0.00     0.006 C 
BRANCH   6   7
ATOM      7  C   UNL     1      28.333  28.721   4.865  1.00  0.00     0.053 C 
BRANCH   7   8
ATOM      8  C   UNL     1      28.421  30.216   4.817  1.00  0.00     0.041 C 
ATOM      9  O   UNL     1      28.051  30.903   5.805  1.00  0.00    -0.550 OA
ATOM     10  O   UNL     1      28.875  30.849   3.669  1.00  0.00    -0.550 OA
ENDBRANCH   7   8
ENDBRANCH   6   7
ENDBRANCH   5   6
ENDBRANCH   4   5
ENDBRANCH   3   4
ENDBRANCH   2   3
ENDBRANCH   1   2
BRANCH   1  11
ATOM     11  C   UNL     1      26.691  24.001  -1.837  1.00  0.00     0.000 C 
BRANCH  11  12
ATOM     12  C   UNL     1      28.003  23.254  -2.155  1.00  0.00    -0.000 C 
BRANCH  12  13
ATOM     13  C   UNL     1      27.785  21.885  -2.821  1.00  0.00    -0.000 C 
BRANCH  13  14
ATOM     14  C   UNL     1      28.695  20.788  -2.243  1.00  0.00    -0.000 C 
BRANCH  14  15
ATOM     15  C   UNL     1      28.035  19.401  -2.264  1.00  0.00    -0.000 C 
BRANCH  15  16
ATOM     16  C   UNL     1      28.883  18.334  -1.549  1.00  0.00    -0.000 C 
BRANCH  16  17
ATOM     17  C   UNL     1      28.025  17.225  -0.921  1.00  0.00    -0.003 C 
ATOM     18  C   UNL     1      28.409  16.933   0.530  1.00  0.00     0.004 C 
ENDBRANCH  16  17
ENDBRANCH  15  16
ENDBRANCH  14  15
ENDBRANCH  13  14
ENDBRANCH  12  13
ENDBRANCH  11  12
ENDBRANCH   1  11
TORSDOF 14
ENDMDL
MODEL 2
REMARK VINA RESULT:    -2.792      1.316      2.072
REMARK INTER + INTRA:          -5.585
REMARK INTER:                  -4.826
REMARK INTRA:                  -0.759
REMARK UNBOUND:                -0.508
REMARK SMILES CCCCCCCCCCCCCCCC(=O)[O-]
REMARK SMILES IDX 9 1 10 2 11 3 12 4 13 5 14 6 15 7 16 8 17 9 18 10 8 11 7 12
REMARK SMILES IDX 6 13 5 14 4 15 3 16 2 17 1 18
REMARK H PARENT
REMARK Flexibility Score: inf
ROOT
ATOM      1  C   UNL     1      27.024  24.940   0.744  1.00  0.00     0.000 C 
ENDROOT
BRANCH   1   2
ATOM      2  C   UNL     1      28.276  25.733   1.150  1.00  0.00     0.000 C 
BRANCH   2   3
ATOM      3  C   UNL     1      29.038  25.083   2.315  1.00  0.00     0.000 C 
BRANCH   3   4
ATOM      4  C   UNL     1      29.096  26.028   3.524  1.00  0.00     0.000 C 
BRANCH   4   5
ATOM      5  C   UNL     1      28.550  27.430   3.207  1.00  0.00     0.000 C 
BRANCH   5   6
ATOM      6  C   UNL     1      29.110  28.510   4.149  1.00  0.00     0.006 C 
BRANCH   6   7
ATOM      7  C   UNL     1      28.004  29.206   4.954  1.00  0.00     0.053 C 
BRANCH   7   8
ATOM      8  C   UNL     1      28.541  29.855   6.192  1.00  0.00     0.041 C 
ATOM      9  O   UNL     1      28.498  31.108   6.319  1.00  0.00    -0.550 OA
ATOM     10  O   UNL     1      29.123  29.082   7.187  1.00  0.00    -0.550 OA
ENDBRANCH   7   8
ENDBRANCH   6   7
ENDBRANCH   5   6
ENDBRANCH   4   5
ENDBRANCH   3   4
ENDBRANCH   2   3
ENDBRANCH   1   2
BRANCH   1  11
ATOM     11  C   UNL     1      26.993  24.606  -0.759  1.00  0.00     0.000 C 
BRANCH  11  12
ATOM     12  C   UNL     1      28.290  25.033  -1.476  1.00  0.00    -0.000 C 
BRANCH  12  13
ATOM     13  C   UNL     1      29.125  23.847  -1.993  1.00  0.00    -0.000 C 
BRANCH  13  14
ATOM     14  C   UNL     1      28.260  22.723  -2.586  1.00  0.00    -0.000 C 
BRANCH  14  15
ATOM     15  C   UNL     1      29.007  21.382  -2.664  1.00  0.00    -0.000 C 
BRANCH  15  16
ATOM     16  C   UNL     1      28.410  20.436  -3.720  1.00  0.00    -0.000 C 
BRANCH  16  17
ATOM     17  C   UNL     1      27.949  19.099  -3.118  1.00  0.00    -0.003 C 
ATOM     18  C   UNL     1      28.715  18.729  -1.848  1.00  0.00     0.004 C 
ENDBRANCH  16  17
ENDBRANCH  15  16
ENDBRANCH  14  15
ENDBRANCH  13  14
ENDBRANCH  12  13
ENDBRANCH  11  12
ENDBRANCH   1  11
TORSDOF 14
ENDMDL
MODEL 3
REMARK VINA RESULT:    -2.541      1.667      2.806
REMARK INTER + INTRA:          -5.129
REMARK INTER:                  -4.498
REMARK INTRA:                  -0.632
REMARK UNBOUND:                -0.508
REMARK SMILES CCCCCCCCCCCCCCCC(=O)[O-]
REMARK SMILES IDX 9 1 10 2 11 3 12 4 13 5 14 6 15 7 16 8 17 9 18 10 8 11 7 12
REMARK SMILES IDX 6 13 5 14 4 15 3 16 2 17 1 18
REMARK H PARENT
REMARK Flexibility Score: inf
ROOT
ATOM      1  C   UNL     1      27.695  25.258   1.939  1.00  0.00     0.000 C 
ENDROOT
BRANCH   1   2
ATOM      2  C   UNL     1      28.627  26.145   2.780  1.00  0.00     0.000 C 
BRANCH   2   3
ATOM      3  C   UNL     1      29.125  27.378   2.012  1.00  0.00     0.000 C 
BRANCH   3   4
ATOM      4  C   UNL     1      28.855  28.664   2.807  1.00  0.00     0.000 C 
BRANCH   4   5
ATOM      5  C   UNL     1      29.077  28.483   4.317  1.00  0.00     0.000 C 
BRANCH   5   6
ATOM      6  C   UNL     1      28.013  29.206   5.162  1.00  0.00     0.006 C 
BRANCH   6   7
ATOM      7  C   UNL     1      28.456  30.619   5.564  1.00  0.00     0.053 C 
BRANCH   7   8
ATOM      8  C   UNL     1      28.898  30.678   6.994  1.00  0.00     0.041 C 
ATOM      9  O   UNL     1      29.069  29.615   7.648  1.00  0.00    -0.550 OA
ATOM     10  O   UNL     1      29.085  31.906   7.615  1.00  0.00    -0.550 OA
ENDBRANCH   7   8
ENDBRANCH   6   7
ENDBRANCH   5   6
ENDBRANCH   4   5
ENDBRANCH   3   4
ENDBRANCH   2   3
ENDBRANCH   1   2
BRANCH   1  11
ATOM     11  C   UNL     1      27.996  25.341   0.431  1.00  0.00     0.000 C 
BRANCH  11  12
ATOM     12  C   UNL     1      27.036  24.468  -0.403  1.00  0.00    -0.000 C 
BRANCH  12  13
ATOM     13  C   UNL     1      27.411  24.394  -1.893  1.00  0.00    -0.000 C 
BRANCH  13  14
ATOM     14  C   UNL     1      28.561  23.413  -2.172  1.00  0.00    -0.000 C 
BRANCH  14  15
ATOM     15  C   UNL     1      28.260  22.467  -3.344  1.00  0.00    -0.000 C 
BRANCH  15  16
ATOM     16  C   UNL     1      29.034  21.141  -3.244  1.00  0.00    -0.000 C 
BRANCH  16  17
ATOM     17  C   UNL     1      28.493  20.226  -2.135  1.00  0.00    -0.003 C 
ATOM     18  C   UNL     1      28.304  18.782  -2.601  1.00  0.00     0.004 C 
ENDBRANCH  16  17
ENDBRANCH  15  16
ENDBRANCH  14  15
ENDBRANCH  13  14
ENDBRANCH  12  13
ENDBRANCH  11  12
ENDBRANCH   1  11
TORSDOF 14
ENDMDL
MODEL 4
REMARK VINA RESULT:    -2.530      4.802      9.813
REMARK INTER + INTRA:          -5.108
REMARK INTER:                  -4.604
REMARK INTRA:                  -0.505
REMARK UNBOUND:                -0.508
REMARK SMILES CCCCCCCCCCCCCCCC(=O)[O-]
REMARK SMILES IDX 9 1 10 2 11 3 12 4 13 5 14 6 15 7 16 8 17 9 18 10 8 11 7 12
REMARK SMILES IDX 6 13 5 14 4 15 3 16 2 17 1 18
REMARK H PARENT
REMARK Flexibility Score: inf
ROOT
ATOM      1  C   UNL     1      26.863  23.924  -1.703  1.00  0.00     0.000 C 
ENDROOT
BRANCH   1   2
ATOM      2  C   UNL     1      27.551  23.347  -2.950  1.00  0.00     0.000 C 
BRANCH   2   3
ATOM      3  C   UNL     1      27.465  21.815  -3.021  1.00  0.00     0.000 C 
BRANCH   3   4
ATOM      4  C   UNL     1      28.781  21.217  -3.541  1.00  0.00     0.000 C 
BRANCH   4   5
ATOM      5  C   UNL     1      28.960  19.744  -3.142  1.00  0.00     0.000 C 
BRANCH   5   6
ATOM      6  C   UNL     1      28.347  19.425  -1.767  1.00  0.00     0.006 C 
BRANCH   6   7
ATOM      7  C   UNL     1      27.886  17.964  -1.664  1.00  0.00     0.053 C 
BRANCH   7   8
ATOM      8  C   UNL     1      28.007  17.440  -0.267  1.00  0.00     0.041 C 
ATOM      9  O   UNL     1      29.125  17.437   0.314  1.00  0.00    -0.550 OA
ATOM     10  O   UNL     1      26.894  16.919   0.380  1.00  0.00    -0.550 OA
ENDBRANCH   7   8
ENDBRANCH   6   7
ENDBRANCH   5   6
ENDBRANCH   4   5
ENDBRANCH   3   4
ENDBRANCH   2   3
ENDBRANCH   1   2
BRANCH   1  11
ATOM     11  C   UNL     1      27.681  25.045  -1.037  1.00  0.00     0.000 C 
BRANCH  11  12
ATOM     12  C   UNL     1      27.566  25.014   0.501  1.00  0.00    -0.000 C 
BRANCH  12  13
ATOM     13  C   UNL     1      28.907  25.232   1.222  1.00  0.00    -0.000 C 
BRANCH  13  14
ATOM     14  C   UNL     1      29.125  26.694   1.649  1.00  0.00    -0.000 C 
BRANCH  14  15
ATOM     15  C   UNL     1      28.924  26.905   3.157  1.00  0.00    -0.000 C 
BRANCH  15  16
ATOM     16  C   UNL     1      28.861  28.394   3.540  1.00  0.00    -0.000 C 
BRANCH  16  17
ATOM     17  C   UNL     1      28.796  28.608   5.060  1.00  0.00    -0.003 C 
ATOM     18  C   UNL     1      28.226  29.975   5.439  1.00  0.00     0.004 C 
ENDBRANCH  16  17
ENDBRANCH  15  16
ENDBRANCH  14  15
ENDBRANCH  13  14
ENDBRANCH  12  13
ENDBRANCH  11  12
ENDBRANCH   1  11
TORSDOF 14
ENDMDL
MODEL 5
REMARK VINA RESULT:    -2.230      4.614     10.627
REMARK INTER + INTRA:          -4.564
REMARK INTER:                  -4.085
REMARK INTRA:                  -0.479
REMARK UNBOUND:                -0.508
REMARK SMILES CCCCCCCCCCCCCCCC(=O)[O-]
REMARK SMILES IDX 9 1 10 2 11 3 12 4 13 5 14 6 15 7 16 8 17 9 18 10 8 11 7 12
REMARK SMILES IDX 6 13 5 14 4 15 3 16 2 17 1 18
REMARK H PARENT
REMARK Flexibility Score: inf
ROOT
ATOM      1  C   UNL     1      28.036  25.084   1.593  1.00  0.00     0.000 C 
ENDROOT
BRANCH   1   2
ATOM      2  C   UNL     1      28.362  25.576   0.174  1.00  0.00     0.000 C 
BRANCH   2   3
ATOM      3  C   UNL     1      28.542  24.425  -0.827  1.00  0.00     0.000 C 
BRANCH   3   4
ATOM      4  C   UNL     1      27.456  24.468  -1.912  1.00  0.00     0.000 C 
BRANCH   4   5
ATOM      5  C   UNL     1      27.508  23.253  -2.851  1.00  0.00     0.000 C 
BRANCH   5   6
ATOM      6  C   UNL     1      28.895  22.587  -2.881  1.00  0.00     0.006 C 
BRANCH   6   7
ATOM      7  C   UNL     1      28.936  21.377  -3.824  1.00  0.00     0.053 C 
BRANCH   7   8
ATOM      8  C   UNL     1      28.470  20.126  -3.146  1.00  0.00     0.041 C 
ATOM      9  O   UNL     1      28.635  19.979  -1.906  1.00  0.00    -0.550 OA
ATOM     10  O   UNL     1      27.888  19.108  -3.888  1.00  0.00    -0.550 OA
ENDBRANCH   7   8
ENDBRANCH   6   7
ENDBRANCH   5   6
ENDBRANCH   4   5
ENDBRANCH   3   4
ENDBRANCH   2   3
ENDBRANCH   1   2
BRANCH   1  11
ATOM     11  C   UNL     1      28.859  25.806   2.675  1.00  0.00     0.000 C 
BRANCH  11  12
ATOM     12  C   UNL     1      28.562  27.319   2.720  1.00  0.00    -0.000 C 
BRANCH  12  13
ATOM     13  C   UNL     1      29.125  28.019   3.970  1.00  0.00    -0.000 C 
BRANCH  13  14
ATOM     14  C   UNL     1      28.060  28.823   4.734  1.00  0.00    -0.000 C 
BRANCH  14  15
ATOM     15  C   UNL     1      28.326  30.335   4.702  1.00  0.00    -0.000 C 
BRANCH  15  16
ATOM     16  C   UNL     1      29.115  30.821   5.932  1.00  0.00    -0.000 C 
BRANCH  16  17
ATOM     17  C   UNL     1      28.254  31.661   6.887  1.00  0.00    -0.003 C 
ATOM     18  C   UNL     1      29.045  32.187   8.085  1.00  0.00     0.004 C 
ENDBRANCH  16  17
ENDBRANCH  15  16
ENDBRANCH  14  15
ENDBRANCH  13  14
ENDBRANCH  12  13
ENDBRANCH  11  12
ENDBRANCH   1  11
TORSDOF 14
ENDMDL
MODEL 6
REMARK VINA RESULT:    -1.946     18.659     21.019
REMARK INTER + INTRA:          -4.047
REMARK INTER:                  -3.498
REMARK INTRA:                  -0.549
REMARK UNBOUND:                -0.508
REMARK SMILES CCCCCCCCCCCCCCCC(=O)[O-]
REMARK SMILES IDX 9 1 10 2 11 3 12 4 13 5 14 6 15 7 16 8 17 9 18 10 8 11 7 12
REMARK SMILES IDX 6 13 5 14 4 15 3 16 2 17 1 18
REMARK H PARENT
REMARK Flexibility Score: inf
ROOT
ATOM      1  C   UNL     1      12.811  29.532  -7.330  1.00  0.00     0.000 C 
ENDROOT
BRANCH   1   2
ATOM      2  C   UNL     1      13.015  30.400  -8.582  1.00  0.00     0.000 C 
BRANCH   2   3
ATOM      3  C   UNL     1      12.467  29.741  -9.856  1.00  0.00     0.000 C 
BRANCH   3   4
ATOM      4  C   UNL     1      12.567  30.698 -11.053  1.00  0.00     0.000 C 
BRANCH   4   5
ATOM      5  C   UNL     1      13.923  31.417 -11.125  1.00  0.00     0.000 C 
BRANCH   5   6
ATOM      6  C   UNL     1      13.824  32.907 -10.756  1.00  0.00     0.006 C 
BRANCH   6   7
ATOM      7  C   UNL     1      15.183  33.616 -10.841  1.00  0.00     0.053 C 
BRANCH   7   8
ATOM      8  C   UNL     1      16.164  33.057  -9.857  1.00  0.00     0.041 C 
ATOM      9  O   UNL     1      16.436  33.693  -8.805  1.00  0.00    -0.550 OA
ATOM     10  O   UNL     1      16.806  31.855 -10.120  1.00  0.00    -0.550 OA
ENDBRANCH   7   8
ENDBRANCH   6   7
ENDBRANCH   5   6
ENDBRANCH   4   5
ENDBRANCH   3   4
ENDBRANCH   2   3
ENDBRANCH   1   2
BRANCH   1  11
ATOM     11  C   UNL     1      11.327  29.227  -7.054  1.00  0.00     0.000 C 
BRANCH  11  12
ATOM     12  C   UNL     1      10.741  28.226  -8.071  1.00  0.00    -0.000 C 
BRANCH  12  13
ATOM     13  C   UNL     1       9.232  28.410  -8.313  1.00  0.00    -0.000 C 
BRANCH  13  14
ATOM     14  C   UNL     1       8.875  28.509  -9.805  1.00  0.00    -0.000 C 
BRANCH  14  15
ATOM     15  C   UNL     1       9.280  29.857 -10.421  1.00  0.00    -0.000 C 
BRANCH  15  16
ATOM     16  C   UNL     1       8.893  31.051  -9.530  1.00  0.00    -0.000 C 
BRANCH  16  17
ATOM     17  C   UNL     1       9.858  32.237  -9.683  1.00  0.00    -0.003 C 
ATOM     18  C   UNL     1       9.492  33.148 -10.854  1.00  0.00     0.004 C 
ENDBRANCH  16  17
ENDBRANCH  15  16
ENDBRANCH  14  15
ENDBRANCH  13  14
ENDBRANCH  12  13
ENDBRANCH  11  12
ENDBRANCH   1  11
TORSDOF 14
ENDMDL
MODEL 7
REMARK VINA RESULT:    -1.884     11.613     14.956
REMARK INTER + INTRA:          -3.934
REMARK INTER:                  -3.347
REMARK INTRA:                  -0.587
REMARK UNBOUND:                -0.508
REMARK SMILES CCCCCCCCCCCCCCCC(=O)[O-]
REMARK SMILES IDX 9 1 10 2 11 3 12 4 13 5 14 6 15 7 16 8 17 9 18 10 8 11 7 12
REMARK SMILES IDX 6 13 5 14 4 15 3 16 2 17 1 18
REMARK H PARENT
REMARK Flexibility Score: inf
ROOT
ATOM      1  C   UNL     1      24.342  24.819 -10.087  1.00  0.00     0.000 C 
ENDROOT
BRANCH   1   2
ATOM      2  C   UNL     1      24.805  23.416 -10.507  1.00  0.00     0.000 C 
BRANCH   2   3
ATOM      3  C   UNL     1      23.673  22.574 -11.114  1.00  0.00     0.000 C 
BRANCH   3   4
ATOM      4  C   UNL     1      22.303  23.067 -10.626  1.00  0.00     0.000 C 
BRANCH   4   5
ATOM      5  C   UNL     1      21.174  22.067 -10.922  1.00  0.00     0.000 C 
BRANCH   5   6
ATOM      6  C   UNL     1      21.683  20.620 -11.051  1.00  0.00     0.006 C 
BRANCH   6   7
ATOM      7  C   UNL     1      20.535  19.602 -11.069  1.00  0.00     0.053 C 
BRANCH   7   8
ATOM      8  C   UNL     1      21.039  18.194 -11.001  1.00  0.00     0.041 C 
ATOM      9  O   UNL     1      22.276  17.962 -11.039  1.00  0.00    -0.550 OA
ATOM     10  O   UNL     1      20.142  17.136 -10.935  1.00  0.00    -0.550 OA
ENDBRANCH   7   8
ENDBRANCH   6   7
ENDBRANCH   5   6
ENDBRANCH   4   5
ENDBRANCH   3   4
ENDBRANCH   2   3
ENDBRANCH   1   2
BRANCH   1  11
ATOM     11  C   UNL     1      24.861  25.923 -11.027  1.00  0.00     0.000 C 
BRANCH  11  12
ATOM     12  C   UNL     1      25.026  27.275 -10.302  1.00  0.00    -0.000 C 
BRANCH  12  13
ATOM     13  C   UNL     1      26.454  27.843 -10.378  1.00  0.00    -0.000 C 
BRANCH  13  14
ATOM     14  C   UNL     1      27.528  26.747 -10.467  1.00  0.00    -0.000 C 
BRANCH  14  15
ATOM     15  C   UNL     1      28.905  27.229  -9.986  1.00  0.00    -0.000 C 
BRANCH  15  16
ATOM     16  C   UNL     1      29.000  27.303  -8.451  1.00  0.00    -0.000 C 
BRANCH  16  17
ATOM     17  C   UNL     1      28.485  28.639  -7.894  1.00  0.00    -0.003 C 
ATOM     18  C   UNL     1      29.123  29.004  -6.554  1.00  0.00     0.004 C 
ENDBRANCH  16  17
ENDBRANCH  15  16
ENDBRANCH  14  15
ENDBRANCH  13  14
ENDBRANCH  12  13
ENDBRANCH  11  12
ENDBRANCH   1  11
TORSDOF 14
ENDMDL
MODEL 8
REMARK VINA RESULT:    -1.670     18.930     21.531
REMARK INTER + INTRA:          -3.545
REMARK INTER:                  -3.776
REMARK INTRA:                   0.232
REMARK UNBOUND:                -0.508
REMARK SMILES CCCCCCCCCCCCCCCC(=O)[O-]
REMARK SMILES IDX 9 1 10 2 11 3 12 4 13 5 14 6 15 7 16 8 17 9 18 10 8 11 7 12
REMARK SMILES IDX 6 13 5 14 4 15 3 16 2 17 1 18
REMARK H PARENT
REMARK Flexibility Score: inf
ROOT
ATOM      1  C   UNL     1      12.124  29.316  -7.809  1.00  0.00     0.000 C 
ENDROOT
BRANCH   1   2
ATOM      2  C   UNL     1      11.203  28.201  -8.331  1.00  0.00     0.000 C 
BRANCH   2   3
ATOM      3  C   UNL     1      11.128  28.163  -9.865  1.00  0.00     0.000 C 
BRANCH   3   4
ATOM      4  C   UNL     1       9.820  28.793 -10.364  1.00  0.00     0.000 C 
BRANCH   4   5
ATOM      5  C   UNL     1      10.046  30.131 -11.086  1.00  0.00     0.000 C 
BRANCH   5   6
ATOM      6  C   UNL     1       8.877  31.113 -10.893  1.00  0.00     0.006 C 
BRANCH   6   7
ATOM      7  C   UNL     1       9.226  32.244  -9.917  1.00  0.00     0.053 C 
BRANCH   7   8
ATOM      8  C   UNL     1       9.053  31.822  -8.491  1.00  0.00     0.041 C 
ATOM      9  O   UNL     1       8.877  30.607  -8.207  1.00  0.00    -0.550 OA
ATOM     10  O   UNL     1       9.047  32.773  -7.479  1.00  0.00    -0.550 OA
ENDBRANCH   7   8
ENDBRANCH   6   7
ENDBRANCH   5   6
ENDBRANCH   4   5
ENDBRANCH   3   4
ENDBRANCH   2   3
ENDBRANCH   1   2
BRANCH   1  11
ATOM     11  C   UNL     1      13.081  29.850  -8.891  1.00  0.00     0.000 C 
BRANCH  11  12
ATOM     12  C   UNL     1      12.472  31.030  -9.675  1.00  0.00    -0.000 C 
BRANCH  12  13
ATOM     13  C   UNL     1      13.514  32.064 -10.137  1.00  0.00    -0.000 C 
BRANCH  13  14
ATOM     14  C   UNL     1      14.948  31.510 -10.129  1.00  0.00    -0.000 C 
BRANCH  14  15
ATOM     15  C   UNL     1      15.817  32.137  -9.028  1.00  0.00    -0.000 C 
BRANCH  15  16
ATOM     16  C   UNL     1      16.042  33.644  -9.242  1.00  0.00    -0.000 C 
BRANCH  16  17
ATOM     17  C   UNL     1      16.112  34.023 -10.729  1.00  0.00    -0.003 C 
ATOM     18  C   UNL     1      15.068  35.069 -11.120  1.00  0.00     0.004 C 
ENDBRANCH  16  17
ENDBRANCH  15  16
ENDBRANCH  14  15
ENDBRANCH  13  14
ENDBRANCH  12  13
ENDBRANCH  11  12
ENDBRANCH   1  11
TORSDOF 14
ENDMDL
