MODEL 1
REMARK VINA RESULT:    -3.418      0.000      0.000
REMARK INTER + INTRA:          -4.615
REMARK INTER:                  -4.417
REMARK INTRA:                  -0.198
REMARK UNBOUND:                -0.198
REMARK SMILES CCCCCCC(=O)[O-]
REMARK SMILES IDX 5 1 6 2 7 3 8 4 9 5 4 6 3 7 2 8 1 9
REMARK H PARENT
REMARK Flexibility Score: inf
ROOT
ATOM      1  C   UNL     1      -5.408  16.413  -6.805  1.00  0.00     0.006 C 
ENDROOT
BRANCH   1   2
ATOM      2  C   UNL     1      -6.562  17.085  -7.555  1.00  0.00     0.053 C 
BRANCH   2   3
ATOM      3  C   UNL     1      -6.556  16.683  -8.996  1.00  0.00     0.041 C 
ATOM      4  O   UNL     1      -5.558  16.088  -9.484  1.00  0.00    -0.550 OA
ATOM      5  O   UNL     1      -7.670  16.922  -9.789  1.00  0.00    -0.550 OA
ENDBRANCH   2   3
ENDBRANCH   1   2
BRANCH   1   6
ATOM      6  C   UNL     1      -4.480  17.457  -6.175  1.00  0.00     0.000 C 
BRANCH   6   7
ATOM      7  C   UNL     1      -4.265  17.172  -4.683  1.00  0.00    -0.000 C 
BRANCH   7   8
ATOM      8  C   UNL     1      -3.939  18.461  -3.919  1.00  0.00    -0.003 C 
ATOM      9  C   UNL     1      -4.165  19.691  -4.792  1.00  0.00     0.004 C 
ENDBRANCH   7   8
ENDBRANCH   6   7
ENDBRANCH   1   6
TORSDOF 5
ENDMDL
MODEL 2
REMARK VINA RESULT:    -3.375      2.076      3.400
REMARK INTER + INTRA:          -4.560
REMARK INTER:                  -4.373
REMARK INTRA:                  -0.186
REMARK UNBOUND:                -0.198
REMARK SMILES CCCCCCC(=O)[O-]
REMARK SMILES IDX 5 1 6 2 7 3 8 4 9 5 4 6 3 7 2 8 1 9
REMARK H PARENT
REMARK Flexibility Score: inf
ROOT
ATOM      1  C   UNL     1      -6.994  16.816  -9.306  1.00  0.00     0.006 C 
ENDROOT
BRANCH   1   2
ATOM      2  C   UNL     1      -7.226  18.045 -10.190  1.00  0.00     0.053 C 
BRANCH   2   3
ATOM      3  C   UNL     1      -8.503  17.905 -10.958  1.00  0.00     0.041 C 
ATOM      4  O   UNL     1      -8.777  18.713 -11.885  1.00  0.00    -0.550 OA
ATOM      5  O   UNL     1      -9.368  16.854 -10.683  1.00  0.00    -0.550 OA
ENDBRANCH   2   3
ENDBRANCH   1   2
BRANCH   1   6
ATOM      6  C   UNL     1      -5.572  16.272  -9.484  1.00  0.00     0.000 C 
BRANCH   6   7
ATOM      7  C   UNL     1      -4.708  16.580  -8.255  1.00  0.00    -0.000 C 
BRANCH   7   8
ATOM      8  C   UNL     1      -5.545  16.543  -6.971  1.00  0.00    -0.003 C 
ATOM      9  C   UNL     1      -4.727  17.001  -5.767  1.00  0.00     0.004 C 
ENDBRANCH   7   8
ENDBRANCH   6   7
ENDBRANCH   1   6
TORSDOF 5
ENDMDL
MODEL 3
REMARK VINA RESULT:    -3.368      2.776      5.744
REMARK INTER + INTRA:          -4.550
REMARK INTER:                  -4.341
REMARK INTRA:                  -0.209
REMARK UNBOUND:                -0.198
REMARK SMILES CCCCCCC(=O)[O-]
REMARK SMILES IDX 5 1 6 2 7 3 8 4 9 5 4 6 3 7 2 8 1 9
REMARK H PARENT
REMARK Flexibility Score: inf
ROOT
ATOM      1  C   UNL     1      -7.159  16.749  -9.472  1.00  0.00     0.006 C 
ENDROOT
BRANCH   1   2
ATOM      2  C   UNL     1      -6.849  17.011  -7.995  1.00  0.00     0.053 C 
BRANCH   2   3
ATOM      3  C   UNL     1      -5.473  16.531  -7.655  1.00  0.00     0.041 C 
ATOM      4  O   UNL     1      -5.156  16.315  -6.455  1.00  0.00    -0.550 OA
ATOM      5  O   UNL     1      -4.556  16.276  -8.667  1.00  0.00    -0.550 OA
ENDBRANCH   2   3
ENDBRANCH   1   2
BRANCH   1   6
ATOM      6  C   UNL     1      -7.283  18.065 -10.249  1.00  0.00     0.000 C 
BRANCH   6   7
ATOM      7  C   UNL     1      -8.601  18.119 -11.031  1.00  0.00    -0.000 C 
BRANCH   7   8
ATOM      8  C   UNL     1      -9.487  16.913 -10.700  1.00  0.00    -0.003 C 
ATOM      9  C   UNL     1     -10.508  16.659 -11.805  1.00  0.00     0.004 C 
ENDBRANCH   7   8
ENDBRANCH   6   7
ENDBRANCH   1   6
TORSDOF 5
ENDMDL
MODEL 4
REMARK VINA RESULT:    -3.322      3.199      4.674
REMARK INTER + INTRA:          -4.491
REMARK INTER:                  -4.346
REMARK INTRA:                  -0.145
REMARK UNBOUND:                -0.198
REMARK SMILES CCCCCCC(=O)[O-]
REMARK SMILES IDX 5 1 6 2 7 3 8 4 9 5 4 6 3 7 2 8 1 9
REMARK H PARENT
REMARK Flexibility Score: inf
ROOT
ATOM      1  C   UNL     1      -8.140  18.053 -10.597  1.00  0.00     0.006 C 
ENDROOT
BRANCH   1   2
ATOM      2  C   UNL     1      -9.159  16.910 -10.567  1.00  0.00     0.053 C 
BRANCH   2   3
ATOM      3  C   UNL     1     -10.392  17.287 -11.326  1.00  0.00     0.041 C 
ATOM      4  O   UNL     1     -10.953  16.450 -12.081  1.00  0.00    -0.550 OA
ATOM      5  O   UNL     1     -10.951  18.549 -11.161  1.00  0.00    -0.550 OA
ENDBRANCH   2   3
ENDBRANCH   1   2
BRANCH   1   6
ATOM      6  C   UNL     1      -6.770  17.581 -10.098  1.00  0.00     0.000 C 
BRANCH   6   7
ATOM      7  C   UNL     1      -6.919  16.584  -8.943  1.00  0.00    -0.000 C 
BRANCH   7   8
ATOM      8  C   UNL     1      -6.551  17.234  -7.604  1.00  0.00    -0.003 C 
ATOM      9  C   UNL     1      -5.411  16.484  -6.922  1.00  0.00     0.004 C 
ENDBRANCH   7   8
ENDBRANCH   6   7
ENDBRANCH   1   6
TORSDOF 5
ENDMDL
MODEL 5
REMARK VINA RESULT:    -3.315      1.526      2.319
REMARK INTER + INTRA:          -4.482
REMARK INTER:                  -4.255
REMARK INTRA:                  -0.227
REMARK UNBOUND:                -0.198
REMARK SMILES CCCCCCC(=O)[O-]
REMARK SMILES IDX 5 1 6 2 7 3 8 4 9 5 4 6 3 7 2 8 1 9
REMARK H PARENT
REMARK Flexibility Score: inf
ROOT
ATOM      1  C   UNL     1      -5.494  16.252  -9.344  1.00  0.00     0.006 C 
ENDROOT
BRANCH   1   2
ATOM      2  C   UNL     1      -6.961  16.630  -9.116  1.00  0.00     0.053 C 
BRANCH   2   3
ATOM      3  C   UNL     1      -7.345  17.788  -9.982  1.00  0.00     0.041 C 
ATOM      4  O   UNL     1      -8.370  17.721 -10.712  1.00  0.00    -0.550 OA
ATOM      5  O   UNL     1      -6.600  18.959  -9.946  1.00  0.00    -0.550 OA
ENDBRANCH   2   3
ENDBRANCH   1   2
BRANCH   1   6
ATOM      6  C   UNL     1      -4.637  16.620  -8.128  1.00  0.00     0.000 C 
BRANCH   6   7
ATOM      7  C   UNL     1      -5.469  16.594  -6.840  1.00  0.00    -0.000 C 
BRANCH   7   8
ATOM      8  C   UNL     1      -4.621  17.000  -5.629  1.00  0.00    -0.003 C 
ATOM      9  C   UNL     1      -4.192  18.461  -5.722  1.00  0.00     0.004 C 
ENDBRANCH   7   8
ENDBRANCH   6   7
ENDBRANCH   1   6
TORSDOF 5
ENDMDL
MODEL 6
REMARK VINA RESULT:    -3.236      1.710      2.455
REMARK INTER + INTRA:          -4.380
REMARK INTER:                  -4.029
REMARK INTRA:                  -0.351
REMARK UNBOUND:                -0.198
REMARK SMILES CCCCCCC(=O)[O-]
REMARK SMILES IDX 5 1 6 2 7 3 8 4 9 5 4 6 3 7 2 8 1 9
REMARK H PARENT
REMARK Flexibility Score: inf
ROOT
ATOM      1  C   UNL     1      -6.776  16.457  -8.753  1.00  0.00     0.006 C 
ENDROOT
BRANCH   1   2
ATOM      2  C   UNL     1      -6.247  17.329  -9.895  1.00  0.00     0.053 C 
BRANCH   2   3
ATOM      3  C   UNL     1      -4.932  16.811 -10.385  1.00  0.00     0.041 C 
ATOM      4  O   UNL     1      -4.525  15.674 -10.026  1.00  0.00    -0.550 OA
ATOM      5  O   UNL     1      -4.177  17.562 -11.278  1.00  0.00    -0.550 OA
ENDBRANCH   2   3
ENDBRANCH   1   2
BRANCH   1   6
ATOM      6  C   UNL     1      -6.538  17.126  -7.395  1.00  0.00     0.000 C 
BRANCH   6   7
ATOM      7  C   UNL     1      -5.346  16.490  -6.670  1.00  0.00    -0.000 C 
BRANCH   7   8
ATOM      8  C   UNL     1      -4.357  17.560  -6.193  1.00  0.00    -0.003 C 
ATOM      9  C   UNL     1      -4.780  18.949  -6.665  1.00  0.00     0.004 C 
ENDBRANCH   7   8
ENDBRANCH   6   7
ENDBRANCH   1   6
TORSDOF 5
ENDMDL
MODEL 7
REMARK VINA RESULT:    -3.225      2.434      4.716
REMARK INTER + INTRA:          -4.365
REMARK INTER:                  -3.982
REMARK INTRA:                  -0.384
REMARK UNBOUND:                -0.198
REMARK SMILES CCCCCCC(=O)[O-]
REMARK SMILES IDX 5 1 6 2 7 3 8 4 9 5 4 6 3 7 2 8 1 9
REMARK H PARENT
REMARK Flexibility Score: inf
ROOT
ATOM      1  C   UNL     1      -6.497  17.022  -7.433  1.00  0.00     0.006 C 
ENDROOT
BRANCH   1   2
ATOM      2  C   UNL     1      -5.293  16.461  -6.670  1.00  0.00     0.053 C 
BRANCH   2   3
ATOM      3  C   UNL     1      -4.395  17.570  -6.221  1.00  0.00     0.041 C 
ATOM      4  O   UNL     1      -4.070  17.671  -5.008  1.00  0.00    -0.550 OA
ATOM      5  O   UNL     1      -3.877  18.464  -7.149  1.00  0.00    -0.550 OA
ENDBRANCH   2   3
ENDBRANCH   1   2
BRANCH   1   6
ATOM      6  C   UNL     1      -6.624  16.370  -8.815  1.00  0.00     0.000 C 
BRANCH   6   7
ATOM      7  C   UNL     1      -6.219  17.349  -9.924  1.00  0.00    -0.000 C 
BRANCH   7   8
ATOM      8  C   UNL     1      -4.762  17.129 -10.347  1.00  0.00    -0.003 C 
ATOM      9  C   UNL     1      -4.373  15.658 -10.237  1.00  0.00     0.004 C 
ENDBRANCH   7   8
ENDBRANCH   6   7
ENDBRANCH   1   6
TORSDOF 5
ENDMDL
MODEL 8
REMARK VINA RESULT:    -3.195      2.990      4.913
REMARK INTER + INTRA:          -4.326
REMARK INTER:                  -4.089
REMARK INTRA:                  -0.237
REMARK UNBOUND:                -0.198
REMARK SMILES CCCCCCC(=O)[O-]
REMARK SMILES IDX 5 1 6 2 7 3 8 4 9 5 4 6 3 7 2 8 1 9
REMARK H PARENT
REMARK Flexibility Score: inf
ROOT
ATOM      1  C   UNL     1      -4.994  16.599  -6.883  1.00  0.00     0.006 C 
ENDROOT
BRANCH   1   2
ATOM      2  C   UNL     1      -4.177  17.832  -6.486  1.00  0.00     0.053 C 
BRANCH   2   3
ATOM      3  C   UNL     1      -4.112  17.961  -4.997  1.00  0.00     0.041 C 
ATOM      4  O   UNL     1      -4.102  19.100  -4.459  1.00  0.00    -0.550 OA
ATOM      5  O   UNL     1      -4.111  16.823  -4.201  1.00  0.00    -0.550 OA
ENDBRANCH   2   3
ENDBRANCH   1   2
BRANCH   1   6
ATOM      6  C   UNL     1      -6.424  16.990  -7.276  1.00  0.00     0.000 C 
BRANCH   6   7
ATOM      7  C   UNL     1      -6.748  16.529  -8.702  1.00  0.00    -0.000 C 
BRANCH   7   8
ATOM      8  C   UNL     1      -5.465  16.281  -9.504  1.00  0.00    -0.003 C 
ATOM      9  C   UNL     1      -5.237  17.384 -10.535  1.00  0.00     0.004 C 
ENDBRANCH   7   8
ENDBRANCH   6   7
ENDBRANCH   1   6
TORSDOF 5
ENDMDL
MODEL 9
REMARK VINA RESULT:    -3.166      3.256      6.173
REMARK INTER + INTRA:          -4.290
REMARK INTER:                  -4.084
REMARK INTRA:                  -0.206
REMARK UNBOUND:                -0.198
REMARK SMILES CCCCCCC(=O)[O-]
REMARK SMILES IDX 5 1 6 2 7 3 8 4 9 5 4 6 3 7 2 8 1 9
REMARK H PARENT
REMARK Flexibility Score: inf
ROOT
ATOM      1  C   UNL     1      -7.262  17.963 -10.317  1.00  0.00     0.006 C 
ENDROOT
BRANCH   1   2
ATOM      2  C   UNL     1      -7.363  16.715  -9.433  1.00  0.00     0.053 C 
BRANCH   2   3
ATOM      3  C   UNL     1      -6.281  16.716  -8.400  1.00  0.00     0.041 C 
ATOM      4  O   UNL     1      -6.544  17.029  -7.208  1.00  0.00    -0.550 OA
ATOM      5  O   UNL     1      -4.993  16.325  -8.741  1.00  0.00    -0.550 OA
ENDBRANCH   2   3
ENDBRANCH   1   2
BRANCH   1   6
ATOM      6  C   UNL     1      -8.584  18.227 -11.047  1.00  0.00     0.000 C 
BRANCH   6   7
ATOM      7  C   UNL     1      -9.520  17.016 -10.946  1.00  0.00    -0.000 C 
BRANCH   7   8
ATOM      8  C   UNL     1     -10.972  17.419 -11.225  1.00  0.00    -0.003 C 
ATOM      9  C   UNL     1     -11.101  18.930 -11.401  1.00  0.00     0.004 C 
ENDBRANCH   7   8
ENDBRANCH   6   7
ENDBRANCH   1   6
TORSDOF 5
ENDMDL
