MODEL 1
REMARK VINA RESULT:    -3.850      0.000      0.000
REMARK INTER + INTRA:          -5.591
REMARK INTER:                  -4.975
REMARK INTRA:                  -0.616
REMARK UNBOUND:                -0.616
REMARK SMILES CO[C@]1(CO)O[C@H](CO)[C@@H](O)[C@@H]1O
REMARK SMILES IDX 3 1 12 2 10 3 7 4 6 5 2 6 1 7 4 8 5 9 13 11 11 13 8 15 9 16
REMARK H PARENT 5 10 13 12 11 14 9 17
REMARK Flexibility Score: inf
ROOT
ATOM      1  C   UNL     1     -14.817   9.396  31.486  1.00  0.00     0.221 C 
ATOM      2  C   UNL     1     -14.076   8.613  30.389  1.00  0.00     0.207 C 
ATOM      3  C   UNL     1     -14.400   9.414  29.151  1.00  0.00     0.180 C 
ATOM      4  C   UNL     1     -14.526  10.830  29.716  1.00  0.00     0.179 C 
ATOM      5  O   UNL     1     -14.764  10.760  31.110  1.00  0.00    -0.337 OA
ENDROOT
BRANCH   1   6
ATOM      6  O   UNL     1     -16.171   8.944  31.521  1.00  0.00    -0.349 OA
ATOM      7  C   UNL     1     -16.829   9.239  32.739  1.00  0.00     0.198 C 
ENDBRANCH   1   6
BRANCH   1   8
ATOM      8  C   UNL     1     -14.120   9.196  32.852  1.00  0.00     0.224 C 
BRANCH   8   9
ATOM      9  O   UNL     1     -13.178   8.158  32.780  1.00  0.00    -0.391 OA
ATOM     10  H   UNL     1     -12.753   8.109  33.675  1.00  0.00     0.210 HD
ENDBRANCH   8   9
ENDBRANCH   1   8
BRANCH   2  11
ATOM     11  O   UNL     1     -14.466   7.261  30.303  1.00  0.00    -0.385 OA
ATOM     12  H   UNL     1     -13.719   6.734  29.915  1.00  0.00     0.211 HD
ENDBRANCH   2  11
BRANCH   3  13
ATOM     13  O   UNL     1     -13.362   9.341  28.207  1.00  0.00    -0.387 OA
ATOM     14  H   UNL     1     -13.543   8.538  27.653  1.00  0.00     0.211 HD
ENDBRANCH   3  13
BRANCH   4  15
ATOM     15  C   UNL     1     -15.649  11.621  29.032  1.00  0.00     0.191 C 
BRANCH  15  16
ATOM     16  O   UNL     1     -16.853  10.905  29.084  1.00  0.00    -0.394 OA
ATOM     17  H   UNL     1     -17.414  11.235  28.335  1.00  0.00     0.210 HD
ENDBRANCH  15  16
ENDBRANCH   4  15
TORSDOF 7
ENDMDL
MODEL 2
REMARK VINA RESULT:    -3.712     18.587     20.145
REMARK INTER + INTRA:          -5.413
REMARK INTER:                  -4.829
REMARK INTRA:                  -0.584
REMARK UNBOUND:                -0.616
REMARK SMILES CO[C@]1(CO)O[C@H](CO)[C@@H](O)[C@@H]1O
REMARK SMILES IDX 3 1 12 2 10 3 7 4 6 5 2 6 1 7 4 8 5 9 13 11 11 13 8 15 9 16
REMARK H PARENT 5 10 13 12 11 14 9 17
REMARK Flexibility Score: inf
ROOT
ATOM      1  C   UNL     1     -15.256  -5.645  17.225  1.00  0.00     0.221 C 
ATOM      2  C   UNL     1     -15.117  -4.889  18.556  1.00  0.00     0.207 C 
ATOM      3  C   UNL     1     -16.506  -5.004  19.136  1.00  0.00     0.180 C 
ATOM      4  C   UNL     1     -16.966  -6.354  18.583  1.00  0.00     0.179 C 
ATOM      5  O   UNL     1     -16.183  -6.691  17.454  1.00  0.00    -0.337 OA
ENDROOT
BRANCH   1   6
ATOM      6  O   UNL     1     -15.763  -4.739  16.246  1.00  0.00    -0.349 OA
ATOM      7  C   UNL     1     -15.702  -5.247  14.927  1.00  0.00     0.198 C 
ENDBRANCH   1   6
BRANCH   1   8
ATOM      8  C   UNL     1     -13.890  -6.233  16.796  1.00  0.00     0.224 C 
BRANCH   8   9
ATOM      9  O   UNL     1     -12.875  -5.275  16.934  1.00  0.00    -0.391 OA
ATOM     10  H   UNL     1     -12.568  -5.063  16.015  1.00  0.00     0.210 HD
ENDBRANCH   8   9
ENDBRANCH   1   8
BRANCH   2  11
ATOM     11  O   UNL     1     -14.680  -3.557  18.403  1.00  0.00    -0.385 OA
ATOM     12  H   UNL     1     -15.472  -2.967  18.301  1.00  0.00     0.211 HD
ENDBRANCH   2  11
BRANCH   3  13
ATOM     13  O   UNL     1     -16.476  -5.020  20.540  1.00  0.00    -0.387 OA
ATOM     14  H   UNL     1     -15.909  -4.255  20.818  1.00  0.00     0.211 HD
ENDBRANCH   3  13
BRANCH   4  15
ATOM     15  C   UNL     1     -18.453  -6.340  18.204  1.00  0.00     0.191 C 
BRANCH  15  16
ATOM     16  O   UNL     1     -18.618  -5.891  16.886  1.00  0.00    -0.394 OA
ATOM     17  H   UNL     1     -18.155  -6.546  16.301  1.00  0.00     0.210 HD
ENDBRANCH  15  16
ENDBRANCH   4  15
TORSDOF 7
ENDMDL
MODEL 3
REMARK VINA RESULT:    -3.702      1.507      3.082
REMARK INTER + INTRA:          -5.399
REMARK INTER:                  -4.763
REMARK INTRA:                  -0.636
REMARK UNBOUND:                -0.616
REMARK SMILES CO[C@]1(CO)O[C@H](CO)[C@@H](O)[C@@H]1O
REMARK SMILES IDX 3 1 12 2 10 3 7 4 6 5 2 6 1 7 4 8 5 9 13 11 11 13 8 15 9 16
REMARK H PARENT 5 10 13 12 11 14 9 17
REMARK Flexibility Score: inf
ROOT
ATOM      1  C   UNL     1     -14.878   8.061  30.592  1.00  0.00     0.221 C 
ATOM      2  C   UNL     1     -14.551   8.713  31.945  1.00  0.00     0.207 C 
ATOM      3  C   UNL     1     -14.512  10.180  31.591  1.00  0.00     0.180 C 
ATOM      4  C   UNL     1     -15.534  10.257  30.456  1.00  0.00     0.179 C 
ATOM      5  O   UNL     1     -15.721   8.967  29.903  1.00  0.00    -0.337 OA
ENDROOT
BRANCH   1   6
ATOM      6  O   UNL     1     -13.657   7.878  29.875  1.00  0.00    -0.349 OA
ATOM      7  C   UNL     1     -13.849   7.459  28.538  1.00  0.00     0.198 C 
ENDBRANCH   1   6
BRANCH   1   8
ATOM      8  C   UNL     1     -15.612   6.716  30.807  1.00  0.00     0.224 C 
BRANCH   8   9
ATOM      9  O   UNL     1     -14.796   5.815  31.507  1.00  0.00    -0.391 OA
ATOM     10  H   UNL     1     -14.291   5.308  30.819  1.00  0.00     0.210 HD
ENDBRANCH   8   9
ENDBRANCH   1   8
BRANCH   2  11
ATOM     11  O   UNL     1     -13.353   8.241  32.521  1.00  0.00    -0.385 OA
ATOM     12  H   UNL     1     -12.829   7.762  31.828  1.00  0.00     0.211 HD
ENDBRANCH   2  11
BRANCH   3  13
ATOM     13  O   UNL     1     -14.906  10.980  32.676  1.00  0.00    -0.387 OA
ATOM     14  H   UNL     1     -14.080  11.403  33.027  1.00  0.00     0.211 HD
ENDBRANCH   3  13
BRANCH   4  15
ATOM     15  C   UNL     1     -15.099  11.238  29.359  1.00  0.00     0.191 C 
BRANCH  15  16
ATOM     16  O   UNL     1     -13.808  10.928  28.909  1.00  0.00    -0.394 OA
ATOM     17  H   UNL     1     -13.634   9.986  29.168  1.00  0.00     0.210 HD
ENDBRANCH  15  16
ENDBRANCH   4  15
TORSDOF 7
ENDMDL
MODEL 4
REMARK VINA RESULT:    -3.685      1.522      3.761
REMARK INTER + INTRA:          -5.378
REMARK INTER:                  -4.756
REMARK INTRA:                  -0.622
REMARK UNBOUND:                -0.616
REMARK SMILES CO[C@]1(CO)O[C@H](CO)[C@@H](O)[C@@H]1O
REMARK SMILES IDX 3 1 12 2 10 3 7 4 6 5 2 6 1 7 4 8 5 9 13 11 11 13 8 15 9 16
REMARK H PARENT 5 10 13 12 11 14 9 17
REMARK Flexibility Score: inf
ROOT
ATOM      1  C   UNL     1     -15.112   9.714  30.238  1.00  0.00     0.221 C 
ATOM      2  C   UNL     1     -14.397   9.933  31.581  1.00  0.00     0.207 C 
ATOM      3  C   UNL     1     -14.362   8.538  32.156  1.00  0.00     0.180 C 
ATOM      4  C   UNL     1     -14.272   7.680  30.893  1.00  0.00     0.179 C 
ATOM      5  O   UNL     1     -14.722   8.432  29.781  1.00  0.00    -0.337 OA
ENDROOT
BRANCH   1   6
ATOM      6  O   UNL     1     -16.520   9.750  30.469  1.00  0.00    -0.349 OA
ATOM      7  C   UNL     1     -17.277   9.954  29.291  1.00  0.00     0.198 C 
ENDBRANCH   1   6
BRANCH   1   8
ATOM      8  C   UNL     1     -14.680  10.793  29.217  1.00  0.00     0.224 C 
BRANCH   8   9
ATOM      9  O   UNL     1     -14.400  12.004  29.868  1.00  0.00    -0.391 OA
ATOM     10  H   UNL     1     -13.504  11.895  30.281  1.00  0.00     0.210 HD
ENDBRANCH   8   9
ENDBRANCH   1   8
BRANCH   2  11
ATOM     11  O   UNL     1     -15.043  10.870  32.416  1.00  0.00    -0.385 OA
ATOM     12  H   UNL     1     -16.024  10.729  32.359  1.00  0.00     0.211 HD
ENDBRANCH   2  11
BRANCH   3  13
ATOM     13  O   UNL     1     -13.235   8.348  32.973  1.00  0.00    -0.387 OA
ATOM     14  H   UNL     1     -12.492   8.086  32.370  1.00  0.00     0.211 HD
ENDBRANCH   3  13
BRANCH   4  15
ATOM     15  C   UNL     1     -15.093   6.389  31.019  1.00  0.00     0.191 C 
BRANCH  15  16
ATOM     16  O   UNL     1     -16.461   6.685  31.098  1.00  0.00    -0.394 OA
ATOM     17  H   UNL     1     -16.935   5.820  31.208  1.00  0.00     0.210 HD
ENDBRANCH  15  16
ENDBRANCH   4  15
TORSDOF 7
ENDMDL
MODEL 5
REMARK VINA RESULT:    -3.665     17.709     19.191
REMARK INTER + INTRA:          -5.352
REMARK INTER:                  -4.777
REMARK INTRA:                  -0.575
REMARK UNBOUND:                -0.616
REMARK SMILES CO[C@]1(CO)O[C@H](CO)[C@@H](O)[C@@H]1O
REMARK SMILES IDX 3 1 12 2 10 3 7 4 6 5 2 6 1 7 4 8 5 9 13 11 11 13 8 15 9 16
REMARK H PARENT 5 10 13 12 11 14 9 17
REMARK Flexibility Score: inf
ROOT
ATOM      1  C   UNL     1     -15.879  -5.890  19.574  1.00  0.00     0.221 C 
ATOM      2  C   UNL     1     -15.999  -4.402  19.207  1.00  0.00     0.207 C 
ATOM      3  C   UNL     1     -15.066  -4.289  18.025  1.00  0.00     0.180 C 
ATOM      4  C   UNL     1     -15.186  -5.678  17.396  1.00  0.00     0.179 C 
ATOM      5  O   UNL     1     -15.684  -6.589  18.358  1.00  0.00    -0.337 OA
ENDROOT
BRANCH   1   6
ATOM      6  O   UNL     1     -14.746  -6.051  20.427  1.00  0.00    -0.349 OA
ATOM      7  C   UNL     1     -14.896  -7.098  21.367  1.00  0.00     0.198 C 
ENDBRANCH   1   6
BRANCH   1   8
ATOM      8  C   UNL     1     -17.177  -6.378  20.262  1.00  0.00     0.224 C 
BRANCH   8   9
ATOM      9  O   UNL     1     -18.044  -5.302  20.501  1.00  0.00    -0.391 OA
ATOM     10  H   UNL     1     -18.529  -5.519  21.339  1.00  0.00     0.210 HD
ENDBRANCH   8   9
ENDBRANCH   1   8
BRANCH   2  11
ATOM     11  O   UNL     1     -15.670  -3.533  20.268  1.00  0.00    -0.385 OA
ATOM     12  H   UNL     1     -16.450  -2.949  20.460  1.00  0.00     0.211 HD
ENDBRANCH   2  11
BRANCH   3  13
ATOM     13  O   UNL     1     -15.490  -3.293  17.130  1.00  0.00    -0.387 OA
ATOM     14  H   UNL     1     -16.222  -2.801  17.584  1.00  0.00     0.211 HD
ENDBRANCH   3  13
BRANCH   4  15
ATOM     15  C   UNL     1     -13.842  -6.177  16.849  1.00  0.00     0.191 C 
BRANCH  15  16
ATOM     16  O   UNL     1     -12.878  -5.162  16.918  1.00  0.00    -0.394 OA
ATOM     17  H   UNL     1     -12.082  -5.554  17.362  1.00  0.00     0.210 HD
ENDBRANCH  15  16
ENDBRANCH   4  15
TORSDOF 7
ENDMDL
MODEL 6
REMARK VINA RESULT:    -3.659     18.034     19.445
REMARK INTER + INTRA:          -5.344
REMARK INTER:                  -4.701
REMARK INTRA:                  -0.644
REMARK UNBOUND:                -0.616
REMARK SMILES CO[C@]1(CO)O[C@H](CO)[C@@H](O)[C@@H]1O
REMARK SMILES IDX 3 1 12 2 10 3 7 4 6 5 2 6 1 7 4 8 5 9 13 11 11 13 8 15 9 16
REMARK H PARENT 5 10 13 12 11 14 9 17
REMARK Flexibility Score: inf
ROOT
ATOM      1  C   UNL     1     -15.426  -4.252  18.323  1.00  0.00     0.221 C 
ATOM      2  C   UNL     1     -14.819  -4.875  17.056  1.00  0.00     0.207 C 
ATOM      3  C   UNL     1     -15.965  -5.699  16.524  1.00  0.00     0.180 C 
ATOM      4  C   UNL     1     -17.177  -4.884  16.979  1.00  0.00     0.179 C 
ATOM      5  O   UNL     1     -16.797  -4.032  18.044  1.00  0.00    -0.337 OA
ENDROOT
BRANCH   1   6
ATOM      6  O   UNL     1     -15.281  -5.184  19.394  1.00  0.00    -0.349 OA
ATOM      7  C   UNL     1     -15.900  -4.760  20.594  1.00  0.00     0.198 C 
ENDBRANCH   1   6
BRANCH   1   8
ATOM      8  C   UNL     1     -14.731  -2.908  18.647  1.00  0.00     0.224 C 
BRANCH   8   9
ATOM      9  O   UNL     1     -13.526  -2.792  17.938  1.00  0.00    -0.391 OA
ATOM     10  H   UNL     1     -13.738  -2.279  17.115  1.00  0.00     0.210 HD
ENDBRANCH   8   9
ENDBRANCH   1   8
BRANCH   2  11
ATOM     11  O   UNL     1     -13.652  -5.628  17.304  1.00  0.00    -0.385 OA
ATOM     12  H   UNL     1     -13.590  -6.356  16.633  1.00  0.00     0.211 HD
ENDBRANCH   2  11
BRANCH   3  13
ATOM     13  O   UNL     1     -15.922  -5.795  15.123  1.00  0.00    -0.387 OA
ATOM     14  H   UNL     1     -15.339  -5.057  14.809  1.00  0.00     0.211 HD
ENDBRANCH   3  13
BRANCH   4  15
ATOM     15  C   UNL     1     -18.341  -5.783  17.416  1.00  0.00     0.191 C 
BRANCH  15  16
ATOM     16  O   UNL     1     -17.907  -6.717  18.367  1.00  0.00    -0.394 OA
ATOM     17  H   UNL     1     -18.652  -7.359  18.497  1.00  0.00     0.210 HD
ENDBRANCH  15  16
ENDBRANCH   4  15
TORSDOF 7
ENDMDL
MODEL 7
REMARK VINA RESULT:    -3.653     18.740     20.141
REMARK INTER + INTRA:          -5.336
REMARK INTER:                  -4.756
REMARK INTRA:                  -0.580
REMARK UNBOUND:                -0.616
REMARK SMILES CO[C@]1(CO)O[C@H](CO)[C@@H](O)[C@@H]1O
REMARK SMILES IDX 3 1 12 2 10 3 7 4 6 5 2 6 1 7 4 8 5 9 13 11 11 13 8 15 9 16
REMARK H PARENT 5 10 13 12 11 14 9 17
REMARK Flexibility Score: inf
ROOT
ATOM      1  C   UNL     1     -16.383  -5.087  17.715  1.00  0.00     0.221 C 
ATOM      2  C   UNL     1     -14.937  -5.283  18.197  1.00  0.00     0.207 C 
ATOM      3  C   UNL     1     -14.203  -5.553  16.906  1.00  0.00     0.180 C 
ATOM      4  C   UNL     1     -15.016  -4.730  15.905  1.00  0.00     0.179 C 
ATOM      5  O   UNL     1     -16.301  -4.473  16.441  1.00  0.00    -0.337 OA
ENDROOT
BRANCH   1   6
ATOM      6  O   UNL     1     -16.998  -6.371  17.608  1.00  0.00    -0.349 OA
ATOM      7  C   UNL     1     -18.389  -6.350  17.867  1.00  0.00     0.198 C 
ENDBRANCH   1   6
BRANCH   1   8
ATOM      8  C   UNL     1     -17.156  -4.171  18.693  1.00  0.00     0.224 C 
BRANCH   8   9
ATOM      9  O   UNL     1     -16.365  -3.862  19.810  1.00  0.00    -0.391 OA
ATOM     10  H   UNL     1     -16.928  -3.296  20.399  1.00  0.00     0.210 HD
ENDBRANCH   8   9
ENDBRANCH   1   8
BRANCH   2  11
ATOM     11  O   UNL     1     -14.797  -6.314  19.149  1.00  0.00    -0.385 OA
ATOM     12  H   UNL     1     -14.102  -6.053  19.807  1.00  0.00     0.211 HD
ENDBRANCH   2  11
BRANCH   3  13
ATOM     13  O   UNL     1     -12.875  -5.099  16.966  1.00  0.00    -0.387 OA
ATOM     14  H   UNL     1     -12.392  -5.546  16.223  1.00  0.00     0.211 HD
ENDBRANCH   3  13
BRANCH   4  15
ATOM     15  C   UNL     1     -15.147  -5.442  14.551  1.00  0.00     0.191 C 
BRANCH  15  16
ATOM     16  O   UNL     1     -15.479  -6.791  14.738  1.00  0.00    -0.394 OA
ATOM     17  H   UNL     1     -14.881  -7.137  15.450  1.00  0.00     0.210 HD
ENDBRANCH  15  16
ENDBRANCH   4  15
TORSDOF 7
ENDMDL
MODEL 8
REMARK VINA RESULT:    -3.590     18.481     20.067
REMARK INTER + INTRA:          -5.255
REMARK INTER:                  -4.687
REMARK INTRA:                  -0.568
REMARK UNBOUND:                -0.616
REMARK SMILES CO[C@]1(CO)O[C@H](CO)[C@@H](O)[C@@H]1O
REMARK SMILES IDX 3 1 12 2 10 3 7 4 6 5 2 6 1 7 4 8 5 9 13 11 11 13 8 15 9 16
REMARK H PARENT 5 10 13 12 11 14 9 17
REMARK Flexibility Score: inf
ROOT
ATOM      1  C   UNL     1     -16.019  -5.742  17.860  1.00  0.00     0.221 C 
ATOM      2  C   UNL     1     -17.478  -5.800  18.342  1.00  0.00     0.207 C 
ATOM      3  C   UNL     1     -17.317  -6.094  19.813  1.00  0.00     0.180 C 
ATOM      4  C   UNL     1     -15.991  -5.398  20.129  1.00  0.00     0.179 C 
ATOM      5  O   UNL     1     -15.264  -5.204  18.930  1.00  0.00    -0.337 OA
ENDROOT
BRANCH   1   6
ATOM      6  O   UNL     1     -15.590  -7.072  17.569  1.00  0.00    -0.349 OA
ATOM      7  C   UNL     1     -14.368  -7.125  16.859  1.00  0.00     0.198 C 
ENDBRANCH   1   6
BRANCH   1   8
ATOM      8  C   UNL     1     -15.901  -4.827  16.617  1.00  0.00     0.224 C 
BRANCH   8   9
ATOM      9  O   UNL     1     -16.931  -5.098  15.705  1.00  0.00    -0.391 OA
ATOM     10  H   UNL     1     -17.772  -4.803  16.142  1.00  0.00     0.210 HD
ENDBRANCH   8   9
ENDBRANCH   1   8
BRANCH   2  11
ATOM     11  O   UNL     1     -18.258  -6.757  17.660  1.00  0.00    -0.385 OA
ATOM     12  H   UNL     1     -17.753  -7.079  16.868  1.00  0.00     0.211 HD
ENDBRANCH   2  11
BRANCH   3  13
ATOM     13  O   UNL     1     -18.366  -5.540  20.566  1.00  0.00    -0.387 OA
ATOM     14  H   UNL     1     -19.052  -5.243  19.914  1.00  0.00     0.211 HD
ENDBRANCH   3  13
BRANCH   4  15
ATOM     15  C   UNL     1     -15.147  -6.199  21.130  1.00  0.00     0.191 C 
BRANCH  15  16
ATOM     16  O   UNL     1     -15.948  -7.125  21.814  1.00  0.00    -0.394 OA
ATOM     17  H   UNL     1     -16.788  -6.654  22.053  1.00  0.00     0.210 HD
ENDBRANCH  15  16
ENDBRANCH   4  15
TORSDOF 7
ENDMDL
MODEL 9
REMARK VINA RESULT:    -2.447     17.944     19.429
REMARK INTER + INTRA:          -3.777
REMARK INTER:                  -3.167
REMARK INTRA:                  -0.610
REMARK UNBOUND:                -0.616
REMARK SMILES CO[C@]1(CO)O[C@H](CO)[C@@H](O)[C@@H]1O
REMARK SMILES IDX 3 1 12 2 10 3 7 4 6 5 2 6 1 7 4 8 5 9 13 11 11 13 8 15 9 16
REMARK H PARENT 5 10 13 12 11 14 9 17
REMARK Flexibility Score: inf
ROOT
ATOM      1  C   UNL     1     -14.968  -4.314  17.248  1.00  0.00     0.221 C 
ATOM      2  C   UNL     1     -15.344  -5.554  18.075  1.00  0.00     0.207 C 
ATOM      3  C   UNL     1     -16.850  -5.471  18.108  1.00  0.00     0.180 C 
ATOM      4  C   UNL     1     -17.158  -4.805  16.766  1.00  0.00     0.179 C 
ATOM      5  O   UNL     1     -16.001  -4.140  16.295  1.00  0.00    -0.337 OA
ENDROOT
BRANCH   1   6
ATOM      6  O   UNL     1     -14.908  -3.191  18.126  1.00  0.00    -0.349 OA
ATOM      7  C   UNL     1     -13.988  -2.200  17.708  1.00  0.00     0.198 C 
ENDBRANCH   1   6
BRANCH   1   8
ATOM      8  C   UNL     1     -13.617  -4.540  16.527  1.00  0.00     0.224 C 
BRANCH   8   9
ATOM      9  O   UNL     1     -12.875  -5.542  17.170  1.00  0.00    -0.391 OA
ATOM     10  H   UNL     1     -12.404  -6.040  16.452  1.00  0.00     0.210 HD
ENDBRANCH   8   9
ENDBRANCH   1   8
BRANCH   2  11
ATOM     11  O   UNL     1     -14.753  -5.576  19.356  1.00  0.00    -0.385 OA
ATOM     12  H   UNL     1     -13.993  -6.214  19.349  1.00  0.00     0.211 HD
ENDBRANCH   2  11
BRANCH   3  13
ATOM     13  O   UNL     1     -17.434  -6.747  18.180  1.00  0.00    -0.387 OA
ATOM     14  H   UNL     1     -17.847  -6.816  19.080  1.00  0.00     0.211 HD
ENDBRANCH   3  13
BRANCH   4  15
ATOM     15  C   UNL     1     -18.325  -3.813  16.873  1.00  0.00     0.191 C 
BRANCH  15  16
ATOM     16  O   UNL     1     -17.963  -2.717  17.668  1.00  0.00    -0.394 OA
ATOM     17  H   UNL     1     -18.731  -2.088  17.653  1.00  0.00     0.210 HD
ENDBRANCH  15  16
ENDBRANCH   4  15
TORSDOF 7
ENDMDL
