MODEL 1
REMARK VINA RESULT:    -3.835      0.000      0.000
REMARK INTER + INTRA:          -6.008
REMARK INTER:                  -5.517
REMARK INTRA:                  -0.491
REMARK UNBOUND:                -0.491
REMARK SMILES CCCCCCCCCO
REMARK SMILES IDX 6 1 5 2 4 3 3 4 2 5 1 6 7 7 8 8 9 9 10 10
REMARK H PARENT 10 11
REMARK Flexibility Score: inf
ROOT
ATOM      1  C   UNL     1      -5.107   9.986  18.201  1.00  0.00     0.000 C 
ENDROOT
BRANCH   1   2
ATOM      2  C   UNL     1      -5.918  10.600  17.053  1.00  0.00     0.000 C 
BRANCH   2   3
ATOM      3  C   UNL     1      -6.787  11.763  17.556  1.00  0.00    -0.000 C 
BRANCH   3   4
ATOM      4  C   UNL     1      -6.330  13.124  17.005  1.00  0.00    -0.000 C 
BRANCH   4   5
ATOM      5  C   UNL     1      -5.718  13.018  15.601  1.00  0.00    -0.003 C 
ATOM      6  C   UNL     1      -6.062  14.244  14.758  1.00  0.00     0.004 C 
ENDBRANCH   4   5
ENDBRANCH   3   4
ENDBRANCH   2   3
ENDBRANCH   1   2
BRANCH   1   7
ATOM      7  C   UNL     1      -3.611   9.958  17.866  1.00  0.00     0.002 C 
BRANCH   7   8
ATOM      8  C   UNL     1      -3.057  11.380  17.704  1.00  0.00     0.028 C 
BRANCH   8   9
ATOM      9  C   UNL     1      -2.428  11.902  18.999  1.00  0.00     0.156 C 
BRANCH   9  10
ATOM     10  O   UNL     1      -2.239  13.291  18.934  1.00  0.00    -0.396 OA
ATOM     11  H   UNL     1      -2.814  13.625  18.197  1.00  0.00     0.210 HD
ENDBRANCH   9  10
ENDBRANCH   8   9
ENDBRANCH   7   8
ENDBRANCH   1   7
TORSDOF 8
ENDMDL
MODEL 2
REMARK VINA RESULT:    -3.831      1.999      2.401
REMARK INTER + INTRA:          -6.002
REMARK INTER:                  -5.734
REMARK INTRA:                  -0.267
REMARK UNBOUND:                -0.491
REMARK SMILES CCCCCCCCCO
REMARK SMILES IDX 6 1 5 2 4 3 3 4 2 5 1 6 7 7 8 8 9 9 10 10
REMARK H PARENT 10 11
REMARK Flexibility Score: inf
ROOT
ATOM      1  C   UNL     1      -3.894  11.679  17.753  1.00  0.00     0.000 C 
ENDROOT
BRANCH   1   2
ATOM      2  C   UNL     1      -5.139  10.956  17.225  1.00  0.00     0.000 C 
BRANCH   2   3
ATOM      3  C   UNL     1      -6.408  11.777  17.499  1.00  0.00    -0.000 C 
BRANCH   3   4
ATOM      4  C   UNL     1      -6.387  13.149  16.806  1.00  0.00    -0.000 C 
BRANCH   4   5
ATOM      5  C   UNL     1      -6.051  13.050  15.311  1.00  0.00    -0.003 C 
ATOM      6  C   UNL     1      -6.133  14.418  14.638  1.00  0.00     0.004 C 
ENDBRANCH   4   5
ENDBRANCH   3   4
ENDBRANCH   2   3
ENDBRANCH   1   2
BRANCH   1   7
ATOM      7  C   UNL     1      -2.637  10.822  17.563  1.00  0.00     0.002 C 
BRANCH   7   8
ATOM      8  C   UNL     1      -2.913   9.354  17.918  1.00  0.00     0.028 C 
BRANCH   8   9
ATOM      9  C   UNL     1      -1.831   8.418  17.370  1.00  0.00     0.156 C 
BRANCH   9  10
ATOM     10  O   UNL     1      -1.653   8.619  15.993  1.00  0.00    -0.396 OA
ATOM     11  H   UNL     1      -0.699   8.860  15.858  1.00  0.00     0.210 HD
ENDBRANCH   9  10
ENDBRANCH   8   9
ENDBRANCH   7   8
ENDBRANCH   1   7
TORSDOF 8
ENDMDL
MODEL 3
REMARK VINA RESULT:    -3.709      1.415      1.859
REMARK INTER + INTRA:          -5.826
REMARK INTER:                  -5.206
REMARK INTRA:                  -0.620
REMARK UNBOUND:                -0.491
REMARK SMILES CCCCCCCCCO
REMARK SMILES IDX 6 1 5 2 4 3 3 4 2 5 1 6 7 7 8 8 9 9 10 10
REMARK H PARENT 10 11
REMARK Flexibility Score: inf
ROOT
ATOM      1  C   UNL     1      -6.517   9.558  16.867  1.00  0.00     0.000 C 
ENDROOT
BRANCH   1   2
ATOM      2  C   UNL     1      -7.246  10.853  16.488  1.00  0.00     0.000 C 
BRANCH   2   3
ATOM      3  C   UNL     1      -6.990  11.952  17.531  1.00  0.00    -0.000 C 
BRANCH   3   4
ATOM      4  C   UNL     1      -6.098  13.082  16.993  1.00  0.00    -0.000 C 
BRANCH   4   5
ATOM      5  C   UNL     1      -5.756  12.908  15.506  1.00  0.00    -0.003 C 
ATOM      6  C   UNL     1      -6.041  14.188  14.725  1.00  0.00     0.004 C 
ENDBRANCH   4   5
ENDBRANCH   3   4
ENDBRANCH   2   3
ENDBRANCH   1   2
BRANCH   1   7
ATOM      7  C   UNL     1      -5.891   9.666  18.262  1.00  0.00     0.002 C 
BRANCH   7   8
ATOM      8  C   UNL     1      -4.420   9.226  18.241  1.00  0.00     0.028 C 
BRANCH   8   9
ATOM      9  C   UNL     1      -3.466  10.419  18.125  1.00  0.00     0.156 C 
BRANCH   9  10
ATOM     10  O   UNL     1      -3.278  10.775  16.781  1.00  0.00    -0.396 OA
ATOM     11  H   UNL     1      -2.559  10.189  16.427  1.00  0.00     0.210 HD
ENDBRANCH   9  10
ENDBRANCH   8   9
ENDBRANCH   7   8
ENDBRANCH   1   7
TORSDOF 8
ENDMDL
MODEL 4
REMARK VINA RESULT:    -3.705      1.615      3.971
REMARK INTER + INTRA:          -5.821
REMARK INTER:                  -5.132
REMARK INTRA:                  -0.689
REMARK UNBOUND:                -0.491
REMARK SMILES CCCCCCCCCO
REMARK SMILES IDX 6 1 5 2 4 3 3 4 2 5 1 6 7 7 8 8 9 9 10 10
REMARK H PARENT 10 11
REMARK Flexibility Score: inf
ROOT
ATOM      1  C   UNL     1      -6.724  10.562  17.016  1.00  0.00     0.000 C 
ENDROOT
BRANCH   1   2
ATOM      2  C   UNL     1      -6.423   9.521  18.101  1.00  0.00     0.000 C 
BRANCH   2   3
ATOM      3  C   UNL     1      -5.011   8.942  17.929  1.00  0.00    -0.000 C 
BRANCH   3   4
ATOM      4  C   UNL     1      -3.935   9.788  18.630  1.00  0.00    -0.000 C 
BRANCH   4   5
ATOM      5  C   UNL     1      -3.065  10.575  17.640  1.00  0.00    -0.003 C 
ATOM      6  C   UNL     1      -2.618  11.906  18.240  1.00  0.00     0.004 C 
ENDBRANCH   4   5
ENDBRANCH   3   4
ENDBRANCH   2   3
ENDBRANCH   1   2
BRANCH   1   7
ATOM      7  C   UNL     1      -7.049  11.926  17.637  1.00  0.00     0.002 C 
BRANCH   7   8
ATOM      8  C   UNL     1      -6.234  13.042  16.971  1.00  0.00     0.028 C 
BRANCH   8   9
ATOM      9  C   UNL     1      -5.926  12.731  15.503  1.00  0.00     0.156 C 
BRANCH   9  10
ATOM     10  O   UNL     1      -4.553  12.869  15.244  1.00  0.00    -0.396 OA
ATOM     11  H   UNL     1      -4.229  11.986  14.929  1.00  0.00     0.210 HD
ENDBRANCH   9  10
ENDBRANCH   8   9
ENDBRANCH   7   8
ENDBRANCH   1   7
TORSDOF 8
ENDMDL
MODEL 5
REMARK VINA RESULT:    -3.623      1.712      4.360
REMARK INTER + INTRA:          -5.702
REMARK INTER:                  -5.252
REMARK INTRA:                  -0.450
REMARK UNBOUND:                -0.491
REMARK SMILES CCCCCCCCCO
REMARK SMILES IDX 6 1 5 2 4 3 3 4 2 5 1 6 7 7 8 8 9 9 10 10
REMARK H PARENT 10 11
REMARK Flexibility Score: inf
ROOT
ATOM      1  C   UNL     1      -5.695  10.643  17.439  1.00  0.00     0.000 C 
ENDROOT
BRANCH   1   2
ATOM      2  C   UNL     1      -4.577   9.718  17.937  1.00  0.00     0.000 C 
BRANCH   2   3
ATOM      3  C   UNL     1      -3.228  10.454  17.967  1.00  0.00    -0.000 C 
BRANCH   3   4
ATOM      4  C   UNL     1      -2.419  10.154  19.240  1.00  0.00    -0.000 C 
BRANCH   4   5
ATOM      5  C   UNL     1      -1.792  11.414  19.852  1.00  0.00    -0.003 C 
ATOM      6  C   UNL     1      -2.016  12.630  18.957  1.00  0.00     0.004 C 
ENDBRANCH   4   5
ENDBRANCH   3   4
ENDBRANCH   2   3
ENDBRANCH   1   2
BRANCH   1   7
ATOM      7  C   UNL     1      -5.231  12.104  17.415  1.00  0.00     0.002 C 
BRANCH   7   8
ATOM      8  C   UNL     1      -6.278  13.003  16.744  1.00  0.00     0.028 C 
BRANCH   8   9
ATOM      9  C   UNL     1      -5.844  13.442  15.342  1.00  0.00     0.156 C 
BRANCH   9  10
ATOM     10  O   UNL     1      -4.539  13.005  15.067  1.00  0.00    -0.396 OA
ATOM     11  H   UNL     1      -3.938  13.779  15.225  1.00  0.00     0.210 HD
ENDBRANCH   9  10
ENDBRANCH   8   9
ENDBRANCH   7   8
ENDBRANCH   1   7
TORSDOF 8
ENDMDL
MODEL 6
REMARK VINA RESULT:    -3.588      5.556      7.737
REMARK INTER + INTRA:          -5.651
REMARK INTER:                  -5.080
REMARK INTRA:                  -0.572
REMARK UNBOUND:                -0.491
REMARK SMILES CCCCCCCCCO
REMARK SMILES IDX 6 1 5 2 4 3 3 4 2 5 1 6 7 7 8 8 9 9 10 10
REMARK H PARENT 10 11
REMARK Flexibility Score: inf
ROOT
ATOM      1  C   UNL     1       2.870  11.681  20.062  1.00  0.00     0.000 C 
ENDROOT
BRANCH   1   2
ATOM      2  C   UNL     1       3.124  10.658  21.176  1.00  0.00     0.000 C 
BRANCH   2   3
ATOM      3  C   UNL     1       2.323   9.369  20.931  1.00  0.00    -0.000 C 
BRANCH   3   4
ATOM      4  C   UNL     1       0.890   9.450  21.481  1.00  0.00    -0.000 C 
BRANCH   4   5
ATOM      5  C   UNL     1      -0.168   9.489  20.369  1.00  0.00    -0.003 C 
ATOM      6  C   UNL     1      -1.031  10.744  20.475  1.00  0.00     0.004 C 
ENDBRANCH   4   5
ENDBRANCH   3   4
ENDBRANCH   2   3
ENDBRANCH   1   2
BRANCH   1   7
ATOM      7  C   UNL     1       2.018  12.849  20.571  1.00  0.00     0.002 C 
BRANCH   7   8
ATOM      8  C   UNL     1       1.406  13.634  19.403  1.00  0.00     0.028 C 
BRANCH   8   9
ATOM      9  C   UNL     1       1.115  15.090  19.779  1.00  0.00     0.156 C 
BRANCH   9  10
ATOM     10  O   UNL     1      -0.137  15.489  19.287  1.00  0.00    -0.396 OA
ATOM     11  H   UNL     1      -0.135  16.481  19.267  1.00  0.00     0.210 HD
ENDBRANCH   9  10
ENDBRANCH   8   9
ENDBRANCH   7   8
ENDBRANCH   1   7
TORSDOF 8
ENDMDL
MODEL 7
REMARK VINA RESULT:    -3.567      2.281      3.127
REMARK INTER + INTRA:          -5.622
REMARK INTER:                  -5.229
REMARK INTRA:                  -0.393
REMARK UNBOUND:                -0.491
REMARK SMILES CCCCCCCCCO
REMARK SMILES IDX 6 1 5 2 4 3 3 4 2 5 1 6 7 7 8 8 9 9 10 10
REMARK H PARENT 10 11
REMARK Flexibility Score: inf
ROOT
ATOM      1  C   UNL     1      -3.864  11.939  17.847  1.00  0.00     0.000 C 
ENDROOT
BRANCH   1   2
ATOM      2  C   UNL     1      -4.873  12.045  16.697  1.00  0.00     0.000 C 
BRANCH   2   3
ATOM      3  C   UNL     1      -6.210  12.619  17.190  1.00  0.00    -0.000 C 
BRANCH   3   4
ATOM      4  C   UNL     1      -7.216  11.524  17.580  1.00  0.00    -0.000 C 
BRANCH   4   5
ATOM      5  C   UNL     1      -6.918  10.179  16.901  1.00  0.00    -0.003 C 
ATOM      6  C   UNL     1      -7.940   9.878  15.808  1.00  0.00     0.004 C 
ENDBRANCH   4   5
ENDBRANCH   3   4
ENDBRANCH   2   3
ENDBRANCH   1   2
BRANCH   1   7
ATOM      7  C   UNL     1      -2.699  11.015  17.474  1.00  0.00     0.002 C 
BRANCH   7   8
ATOM      8  C   UNL     1      -3.029   9.553  17.803  1.00  0.00     0.028 C 
BRANCH   8   9
ATOM      9  C   UNL     1      -1.888   8.606  17.419  1.00  0.00     0.156 C 
BRANCH   9  10
ATOM     10  O   UNL     1      -1.641   8.663  16.038  1.00  0.00    -0.396 OA
ATOM     11  H   UNL     1      -1.976   9.542  15.722  1.00  0.00     0.210 HD
ENDBRANCH   9  10
ENDBRANCH   8   9
ENDBRANCH   7   8
ENDBRANCH   1   7
TORSDOF 8
ENDMDL
MODEL 8
REMARK VINA RESULT:    -3.555      2.832      4.578
REMARK INTER + INTRA:          -5.605
REMARK INTER:                  -5.195
REMARK INTRA:                  -0.410
REMARK UNBOUND:                -0.491
REMARK SMILES CCCCCCCCCO
REMARK SMILES IDX 6 1 5 2 4 3 3 4 2 5 1 6 7 7 8 8 9 9 10 10
REMARK H PARENT 10 11
REMARK Flexibility Score: inf
ROOT
ATOM      1  C   UNL     1      -5.887  11.291  17.485  1.00  0.00     0.000 C 
ENDROOT
BRANCH   1   2
ATOM      2  C   UNL     1      -7.018  10.729  16.613  1.00  0.00     0.000 C 
BRANCH   2   3
ATOM      3  C   UNL     1      -8.313  10.577  17.425  1.00  0.00    -0.000 C 
BRANCH   3   4
ATOM      4  C   UNL     1      -8.442  11.632  18.536  1.00  0.00    -0.000 C 
BRANCH   4   5
ATOM      5  C   UNL     1      -9.124  11.082  19.797  1.00  0.00    -0.003 C 
ATOM      6  C   UNL     1      -8.511   9.748  20.216  1.00  0.00     0.004 C 
ENDBRANCH   4   5
ENDBRANCH   3   4
ENDBRANCH   2   3
ENDBRANCH   1   2
BRANCH   1   7
ATOM      7  C   UNL     1      -5.433  12.664  16.978  1.00  0.00     0.002 C 
BRANCH   7   8
ATOM      8  C   UNL     1      -5.649  12.792  15.464  1.00  0.00     0.028 C 
BRANCH   8   9
ATOM      9  C   UNL     1      -6.059  14.212  15.061  1.00  0.00     0.156 C 
BRANCH   9  10
ATOM     10  O   UNL     1      -6.191  14.313  13.668  1.00  0.00    -0.396 OA
ATOM     11  H   UNL     1      -5.279  14.227  13.285  1.00  0.00     0.210 HD
ENDBRANCH   9  10
ENDBRANCH   8   9
ENDBRANCH   7   8
ENDBRANCH   1   7
TORSDOF 8
ENDMDL
MODEL 9
REMARK VINA RESULT:    -3.511      3.080      4.458
REMARK INTER + INTRA:          -5.541
REMARK INTER:                  -4.940
REMARK INTRA:                  -0.601
REMARK UNBOUND:                -0.491
REMARK SMILES CCCCCCCCCO
REMARK SMILES IDX 6 1 5 2 4 3 3 4 2 5 1 6 7 7 8 8 9 9 10 10
REMARK H PARENT 10 11
REMARK Flexibility Score: inf
ROOT
ATOM      1  C   UNL     1      -7.074  12.722  17.556  1.00  0.00     0.000 C 
ENDROOT
BRANCH   1   2
ATOM      2  C   UNL     1      -7.974  11.751  18.330  1.00  0.00     0.000 C 
BRANCH   2   3
ATOM      3  C   UNL     1      -7.878  10.332  17.749  1.00  0.00    -0.000 C 
BRANCH   3   4
ATOM      4  C   UNL     1      -9.117   9.946  16.925  1.00  0.00    -0.000 C 
BRANCH   4   5
ATOM      5  C   UNL     1      -8.757   9.202  15.631  1.00  0.00    -0.003 C 
ATOM      6  C   UNL     1      -7.296   8.759  15.640  1.00  0.00     0.004 C 
ENDBRANCH   4   5
ENDBRANCH   3   4
ENDBRANCH   2   3
ENDBRANCH   1   2
BRANCH   1   7
ATOM      7  C   UNL     1      -6.039  11.964  16.717  1.00  0.00     0.002 C 
BRANCH   7   8
ATOM      8  C   UNL     1      -6.097  12.399  15.246  1.00  0.00     0.028 C 
BRANCH   8   9
ATOM      9  C   UNL     1      -5.932  13.913  15.088  1.00  0.00     0.156 C 
BRANCH   9  10
ATOM     10  O   UNL     1      -6.185  14.305  13.765  1.00  0.00    -0.396 OA
ATOM     11  H   UNL     1      -6.780  13.615  13.370  1.00  0.00     0.210 HD
ENDBRANCH   9  10
ENDBRANCH   8   9
ENDBRANCH   7   8
ENDBRANCH   1   7
TORSDOF 8
ENDMDL
