MODEL 1
REMARK VINA RESULT:    -5.666      0.000      0.000
REMARK INTER + INTRA:          -6.228
REMARK INTER:                  -6.163
REMARK INTRA:                  -0.065
REMARK UNBOUND:                -0.065
REMARK SMILES COc1cc2ccc(=O)oc2cc1O
REMARK SMILES IDX 3 1 13 2 12 3 11 4 5 5 4 6 6 7 7 8 8 9 9 10 10 11 2 12 1 13
REMARK SMILES IDX 14 14
REMARK H PARENT 14 15
REMARK Flexibility Score: inf
ROOT
ATOM      1  C   UNL     1      44.527 -10.381  16.626  1.00  0.00     0.161 A 
ATOM      2  C   UNL     1      45.295  -9.272  17.030  1.00  0.00     0.161 A 
ATOM      3  C   UNL     1      46.683  -9.272  16.850  1.00  0.00     0.098 A 
ATOM      4  C   UNL     1      47.321 -10.371  16.270  1.00  0.00     0.142 A 
ATOM      5  C   UNL     1      46.561 -11.487  15.862  1.00  0.00     0.022 A 
ATOM      6  C   UNL     1      45.170 -11.491  16.040  1.00  0.00     0.062 A 
ATOM      7  C   UNL     1      47.228 -12.573  15.285  1.00  0.00     0.019 A 
ATOM      8  C   UNL     1      48.613 -12.521  15.130  1.00  0.00     0.094 A 
ATOM      9  C   UNL     1      49.300 -11.381  15.558  1.00  0.00     0.336 A 
ATOM     10  O   UNL     1      50.551 -11.315  15.426  1.00  0.00    -0.246 OA
ATOM     11  O   UNL     1      48.641 -10.362  16.104  1.00  0.00    -0.423 OA
ENDROOT
BRANCH   1  12
ATOM     12  O   UNL     1      43.136 -10.348  16.821  1.00  0.00    -0.493 OA
ATOM     13  C   UNL     1      42.189 -10.001  15.816  1.00  0.00     0.278 C 
ENDBRANCH   1  12
BRANCH   2  14
ATOM     14  O   UNL     1      44.694  -8.156  17.612  1.00  0.00    -0.504 OA
ATOM     15  H   UNL     1      43.745  -7.877  17.394  1.00  0.00     0.293 HD
ENDBRANCH   2  14
TORSDOF 2
ENDMDL
MODEL 2
REMARK VINA RESULT:    -5.264      1.832      5.297
REMARK INTER + INTRA:          -5.791
REMARK INTER:                  -5.732
REMARK INTRA:                  -0.059
REMARK UNBOUND:                -0.065
REMARK SMILES COc1cc2ccc(=O)oc2cc1O
REMARK SMILES IDX 3 1 13 2 12 3 11 4 5 5 4 6 6 7 7 8 8 9 9 10 10 11 2 12 1 13
REMARK SMILES IDX 14 14
REMARK H PARENT 14 15
REMARK Flexibility Score: inf
ROOT
ATOM      1  C   UNL     1      48.973 -10.850  16.319  1.00  0.00     0.161 A 
ATOM      2  C   UNL     1      48.886 -12.080  15.637  1.00  0.00     0.161 A 
ATOM      3  C   UNL     1      47.636 -12.636  15.342  1.00  0.00     0.098 A 
ATOM      4  C   UNL     1      46.463 -11.979  15.720  1.00  0.00     0.142 A 
ATOM      5  C   UNL     1      46.539 -10.747  16.403  1.00  0.00     0.022 A 
ATOM      6  C   UNL     1      47.789 -10.187  16.700  1.00  0.00     0.062 A 
ATOM      7  C   UNL     1      45.347 -10.114  16.769  1.00  0.00     0.019 A 
ATOM      8  C   UNL     1      44.128 -10.712  16.451  1.00  0.00     0.094 A 
ATOM      9  C   UNL     1      44.130 -11.935  15.773  1.00  0.00     0.336 A 
ATOM     10  O   UNL     1      43.040 -12.491  15.476  1.00  0.00    -0.246 OA
ATOM     11  O   UNL     1      45.279 -12.516  15.436  1.00  0.00    -0.423 OA
ENDROOT
BRANCH   1  12
ATOM     12  O   UNL     1      50.243 -10.321  16.597  1.00  0.00    -0.493 OA
ATOM     13  C   UNL     1      50.761 -10.110  17.907  1.00  0.00     0.278 C 
ENDBRANCH   1  12
BRANCH   2  14
ATOM     14  O   UNL     1      50.035 -12.766  15.242  1.00  0.00    -0.504 OA
ATOM     15  H   UNL     1      50.735 -13.074  15.906  1.00  0.00     0.293 HD
ENDBRANCH   2  14
TORSDOF 2
ENDMDL
MODEL 3
REMARK VINA RESULT:    -5.167      2.765      4.883
REMARK INTER + INTRA:          -5.685
REMARK INTER:                  -5.624
REMARK INTRA:                  -0.061
REMARK UNBOUND:                -0.065
REMARK SMILES COc1cc2ccc(=O)oc2cc1O
REMARK SMILES IDX 3 1 13 2 12 3 11 4 5 5 4 6 6 7 7 8 8 9 9 10 10 11 2 12 1 13
REMARK SMILES IDX 14 14
REMARK H PARENT 14 15
REMARK Flexibility Score: inf
ROOT
ATOM      1  C   UNL     1      50.272  -9.286  17.864  1.00  0.00     0.161 A 
ATOM      2  C   UNL     1      49.021  -8.650  17.983  1.00  0.00     0.161 A 
ATOM      3  C   UNL     1      47.874  -9.244  17.442  1.00  0.00     0.098 A 
ATOM      4  C   UNL     1      47.957 -10.470  16.780  1.00  0.00     0.142 A 
ATOM      5  C   UNL     1      49.206 -11.116  16.655  1.00  0.00     0.022 A 
ATOM      6  C   UNL     1      50.357 -10.525  17.196  1.00  0.00     0.062 A 
ATOM      7  C   UNL     1      49.258 -12.343  15.986  1.00  0.00     0.019 A 
ATOM      8  C   UNL     1      48.085 -12.890  15.466  1.00  0.00     0.094 A 
ATOM      9  C   UNL     1      46.883 -12.192  15.628  1.00  0.00     0.336 A 
ATOM     10  O   UNL     1      45.813 -12.669  15.166  1.00  0.00    -0.246 OA
ATOM     11  O   UNL     1      46.862 -11.026  16.269  1.00  0.00    -0.423 OA
ENDROOT
BRANCH   1  12
ATOM     12  O   UNL     1      51.402  -8.664  18.418  1.00  0.00    -0.493 OA
ATOM     13  C   UNL     1      51.910  -8.926  19.722  1.00  0.00     0.278 C 
ENDBRANCH   1  12
BRANCH   2  14
ATOM     14  O   UNL     1      48.897  -7.425  18.637  1.00  0.00    -0.504 OA
ATOM     15  H   UNL     1      48.171  -7.248  19.321  1.00  0.00     0.293 HD
ENDBRANCH   2  14
TORSDOF 2
ENDMDL
MODEL 4
REMARK VINA RESULT:    -5.097     18.800     19.924
REMARK INTER + INTRA:          -5.609
REMARK INTER:                  -5.557
REMARK INTRA:                  -0.052
REMARK UNBOUND:                -0.065
REMARK SMILES COc1cc2ccc(=O)oc2cc1O
REMARK SMILES IDX 3 1 13 2 12 3 11 4 5 5 4 6 6 7 7 8 8 9 9 10 10 11 2 12 1 13
REMARK SMILES IDX 14 14
REMARK H PARENT 14 15
REMARK Flexibility Score: inf
ROOT
ATOM      1  C   UNL     1      55.263  -9.857  33.915  1.00  0.00     0.161 A 
ATOM      2  C   UNL     1      54.447  -8.812  33.440  1.00  0.00     0.161 A 
ATOM      3  C   UNL     1      53.054  -8.916  33.514  1.00  0.00     0.098 A 
ATOM      4  C   UNL     1      52.457 -10.055  34.058  1.00  0.00     0.142 A 
ATOM      5  C   UNL     1      53.265 -11.108  34.537  1.00  0.00     0.022 A 
ATOM      6  C   UNL     1      54.661 -11.008  34.465  1.00  0.00     0.062 A 
ATOM      7  C   UNL     1      52.639 -12.237  35.076  1.00  0.00     0.019 A 
ATOM      8  C   UNL     1      51.246 -12.289  35.125  1.00  0.00     0.094 A 
ATOM      9  C   UNL     1      50.510 -11.207  34.631  1.00  0.00     0.336 A 
ATOM     10  O   UNL     1      49.251 -11.234  34.667  1.00  0.00    -0.246 OA
ATOM     11  O   UNL     1      51.131 -10.145  34.124  1.00  0.00    -0.423 OA
ENDROOT
BRANCH   1  12
ATOM     12  O   UNL     1      56.658  -9.720  33.826  1.00  0.00    -0.493 OA
ATOM     13  C   UNL     1      57.479  -9.147  34.839  1.00  0.00     0.278 C 
ENDBRANCH   1  12
BRANCH   2  14
ATOM     14  O   UNL     1      55.006  -7.658  32.890  1.00  0.00    -0.504 OA
ATOM     15  H   UNL     1      55.070  -7.511  31.890  1.00  0.00     0.293 HD
ENDBRANCH   2  14
TORSDOF 2
ENDMDL
MODEL 5
REMARK VINA RESULT:    -5.090     18.087     19.256
REMARK INTER + INTRA:          -5.602
REMARK INTER:                  -5.550
REMARK INTRA:                  -0.052
REMARK UNBOUND:                -0.065
REMARK SMILES COc1cc2ccc(=O)oc2cc1O
REMARK SMILES IDX 3 1 13 2 12 3 11 4 5 5 4 6 6 7 7 8 8 9 9 10 10 11 2 12 1 13
REMARK SMILES IDX 14 14
REMARK H PARENT 14 15
REMARK Flexibility Score: inf
ROOT
ATOM      1  C   UNL     1      54.848  -9.744  34.044  1.00  0.00     0.161 A 
ATOM      2  C   UNL     1      54.371  -8.650  33.296  1.00  0.00     0.161 A 
ATOM      3  C   UNL     1      53.025  -8.588  32.918  1.00  0.00     0.098 A 
ATOM      4  C   UNL     1      52.141  -9.608  33.277  1.00  0.00     0.142 A 
ATOM      5  C   UNL     1      52.609 -10.708  34.026  1.00  0.00     0.022 A 
ATOM      6  C   UNL     1      53.956 -10.774  34.408  1.00  0.00     0.062 A 
ATOM      7  C   UNL     1      51.700 -11.715  34.371  1.00  0.00     0.019 A 
ATOM      8  C   UNL     1      50.370 -11.604  33.967  1.00  0.00     0.094 A 
ATOM      9  C   UNL     1      49.978 -10.484  33.226  1.00  0.00     0.336 A 
ATOM     10  O   UNL     1      48.782 -10.364  32.853  1.00  0.00    -0.246 OA
ATOM     11  O   UNL     1      50.863  -9.541  32.912  1.00  0.00    -0.423 OA
ENDROOT
BRANCH   1  12
ATOM     12  O   UNL     1      56.204  -9.775  34.408  1.00  0.00    -0.493 OA
ATOM     13  C   UNL     1      57.069 -10.889  34.211  1.00  0.00     0.278 C 
ENDBRANCH   1  12
BRANCH   2  14
ATOM     14  O   UNL     1      55.222  -7.612  32.919  1.00  0.00    -0.504 OA
ATOM     15  H   UNL     1      56.047  -7.368  33.453  1.00  0.00     0.293 HD
ENDBRANCH   2  14
TORSDOF 2
ENDMDL
MODEL 6
REMARK VINA RESULT:    -5.024     18.626     19.262
REMARK INTER + INTRA:          -5.529
REMARK INTER:                  -5.483
REMARK INTRA:                  -0.046
REMARK UNBOUND:                -0.065
REMARK SMILES COc1cc2ccc(=O)oc2cc1O
REMARK SMILES IDX 3 1 13 2 12 3 11 4 5 5 4 6 6 7 7 8 8 9 9 10 10 11 2 12 1 13
REMARK SMILES IDX 14 14
REMARK H PARENT 14 15
REMARK Flexibility Score: inf
ROOT
ATOM      1  C   UNL     1      50.599 -10.640  34.068  1.00  0.00     0.161 A 
ATOM      2  C   UNL     1      50.750 -11.864  34.750  1.00  0.00     0.161 A 
ATOM      3  C   UNL     1      52.027 -12.343  35.064  1.00  0.00     0.098 A 
ATOM      4  C   UNL     1      53.164 -11.615  34.705  1.00  0.00     0.142 A 
ATOM      5  C   UNL     1      53.023 -10.389  34.023  1.00  0.00     0.022 A 
ATOM      6  C   UNL     1      51.746  -9.905  33.707  1.00  0.00     0.062 A 
ATOM      7  C   UNL     1      54.180  -9.682  33.677  1.00  0.00     0.019 A 
ATOM      8  C   UNL     1      55.428 -10.206  34.013  1.00  0.00     0.094 A 
ATOM      9  C   UNL     1      55.490 -11.428  34.690  1.00  0.00     0.336 A 
ATOM     10  O   UNL     1      56.607 -11.918  35.003  1.00  0.00    -0.246 OA
ATOM     11  O   UNL     1      54.374 -12.079  35.007  1.00  0.00    -0.423 OA
ENDROOT
BRANCH   1  12
ATOM     12  O   UNL     1      49.303 -10.188  33.770  1.00  0.00    -0.493 OA
ATOM     13  C   UNL     1      48.964  -9.402  32.632  1.00  0.00     0.278 C 
ENDBRANCH   1  12
BRANCH   2  14
ATOM     14  O   UNL     1      49.639 -12.619  35.125  1.00  0.00    -0.504 OA
ATOM     15  H   UNL     1      49.725 -13.498  35.621  1.00  0.00     0.293 HD
ENDBRANCH   2  14
TORSDOF 2
ENDMDL
MODEL 7
REMARK VINA RESULT:    -5.006      1.161      4.932
REMARK INTER + INTRA:          -5.511
REMARK INTER:                  -5.466
REMARK INTRA:                  -0.044
REMARK UNBOUND:                -0.065
REMARK SMILES COc1cc2ccc(=O)oc2cc1O
REMARK SMILES IDX 3 1 13 2 12 3 11 4 5 5 4 6 6 7 7 8 8 9 9 10 10 11 2 12 1 13
REMARK SMILES IDX 14 14
REMARK H PARENT 14 15
REMARK Flexibility Score: inf
ROOT
ATOM      1  C   UNL     1      47.694 -10.834  16.379  1.00  0.00     0.161 A 
ATOM      2  C   UNL     1      47.627  -9.630  17.108  1.00  0.00     0.161 A 
ATOM      3  C   UNL     1      46.388  -9.098  17.479  1.00  0.00     0.098 A 
ATOM      4  C   UNL     1      45.204  -9.752  17.130  1.00  0.00     0.142 A 
ATOM      5  C   UNL     1      45.259 -10.958  16.400  1.00  0.00     0.022 A 
ATOM      6  C   UNL     1      46.499 -11.495  16.027  1.00  0.00     0.062 A 
ATOM      7  C   UNL     1      44.057 -11.590  16.066  1.00  0.00     0.019 A 
ATOM      8  C   UNL     1      42.848 -11.016  16.460  1.00  0.00     0.094 A 
ATOM      9  C   UNL     1      42.871  -9.818  17.182  1.00  0.00     0.336 A 
ATOM     10  O   UNL     1      41.792  -9.284  17.547  1.00  0.00    -0.246 OA
ATOM     11  O   UNL     1      44.029  -9.238  17.487  1.00  0.00    -0.423 OA
ENDROOT
BRANCH   1  12
ATOM     12  O   UNL     1      48.954 -11.341  16.024  1.00  0.00    -0.493 OA
ATOM     13  C   UNL     1      49.205 -12.690  15.645  1.00  0.00     0.278 C 
ENDBRANCH   1  12
BRANCH   2  14
ATOM     14  O   UNL     1      48.787  -8.948  17.475  1.00  0.00    -0.504 OA
ATOM     15  H   UNL     1      49.136  -8.947  18.426  1.00  0.00     0.293 HD
ENDBRANCH   2  14
TORSDOF 2
ENDMDL
MODEL 8
REMARK VINA RESULT:    -4.925     18.539     19.199
REMARK INTER + INTRA:          -5.422
REMARK INTER:                  -5.359
REMARK INTRA:                  -0.064
REMARK UNBOUND:                -0.065
REMARK SMILES COc1cc2ccc(=O)oc2cc1O
REMARK SMILES IDX 3 1 13 2 12 3 11 4 5 5 4 6 6 7 7 8 8 9 9 10 10 11 2 12 1 13
REMARK SMILES IDX 14 14
REMARK H PARENT 14 15
REMARK Flexibility Score: inf
ROOT
ATOM      1  C   UNL     1      52.243 -10.447  34.046  1.00  0.00     0.161 A 
ATOM      2  C   UNL     1      52.280  -9.195  33.402  1.00  0.00     0.161 A 
ATOM      3  C   UNL     1      53.506  -8.595  33.096  1.00  0.00     0.098 A 
ATOM      4  C   UNL     1      54.706  -9.230  33.426  1.00  0.00     0.142 A 
ATOM      5  C   UNL     1      54.680 -10.484  34.071  1.00  0.00     0.022 A 
ATOM      6  C   UNL     1      53.453 -11.089  34.379  1.00  0.00     0.062 A 
ATOM      7  C   UNL     1      55.898 -11.095  34.389  1.00  0.00     0.019 A 
ATOM      8  C   UNL     1      57.092 -10.453  34.063  1.00  0.00     0.094 A 
ATOM      9  C   UNL     1      57.040  -9.211  33.423  1.00  0.00     0.336 A 
ATOM     10  O   UNL     1      58.107  -8.615  33.120  1.00  0.00    -0.246 OA
ATOM     11  O   UNL     1      55.868  -8.652  33.132  1.00  0.00    -0.423 OA
ENDROOT
BRANCH   1  12
ATOM     12  O   UNL     1      50.994 -11.021  34.337  1.00  0.00    -0.493 OA
ATOM     13  C   UNL     1      50.336 -11.981  33.517  1.00  0.00     0.278 C 
ENDBRANCH   1  12
BRANCH   2  14
ATOM     14  O   UNL     1      51.103  -8.530  33.056  1.00  0.00    -0.504 OA
ATOM     15  H   UNL     1      50.304  -9.014  32.664  1.00  0.00     0.293 HD
ENDBRANCH   2  14
TORSDOF 2
ENDMDL
MODEL 9
REMARK VINA RESULT:    -4.766     18.921     20.150
REMARK INTER + INTRA:          -5.249
REMARK INTER:                  -5.184
REMARK INTRA:                  -0.065
REMARK UNBOUND:                -0.065
REMARK SMILES COc1cc2ccc(=O)oc2cc1O
REMARK SMILES IDX 3 1 13 2 12 3 11 4 5 5 4 6 6 7 7 8 8 9 9 10 10 11 2 12 1 13
REMARK SMILES IDX 14 14
REMARK H PARENT 14 15
REMARK Flexibility Score: inf
ROOT
ATOM      1  C   UNL     1      55.750 -10.171  34.010  1.00  0.00     0.161 A 
ATOM      2  C   UNL     1      55.490 -11.440  34.563  1.00  0.00     0.161 A 
ATOM      3  C   UNL     1      54.172 -11.882  34.722  1.00  0.00     0.098 A 
ATOM      4  C   UNL     1      53.101 -11.073  34.334  1.00  0.00     0.142 A 
ATOM      5  C   UNL     1      53.352  -9.800  33.779  1.00  0.00     0.022 A 
ATOM      6  C   UNL     1      54.671  -9.353  33.618  1.00  0.00     0.062 A 
ATOM      7  C   UNL     1      52.260  -9.012  33.401  1.00  0.00     0.019 A 
ATOM      8  C   UNL     1      50.967  -9.501  33.581  1.00  0.00     0.094 A 
ATOM      9  C   UNL     1      50.796 -10.773  34.138  1.00  0.00     0.336 A 
ATOM     10  O   UNL     1      49.636 -11.233  34.309  1.00  0.00    -0.246 OA
ATOM     11  O   UNL     1      51.852 -11.502  34.489  1.00  0.00    -0.423 OA
ENDROOT
BRANCH   1  12
ATOM     12  O   UNL     1      57.085  -9.758  33.865  1.00  0.00    -0.493 OA
ATOM     13  C   UNL     1      57.776  -8.919  34.784  1.00  0.00     0.278 C 
ENDBRANCH   1  12
BRANCH   2  14
ATOM     14  O   UNL     1      56.531 -12.277  34.962  1.00  0.00    -0.504 OA
ATOM     15  H   UNL     1      57.499 -11.978  34.957  1.00  0.00     0.293 HD
ENDBRANCH   2  14
TORSDOF 2
ENDMDL
