MODEL 1
REMARK VINA RESULT:     0.358      0.000      0.000
REMARK INTER + INTRA:           0.836
REMARK INTER:                   0.610
REMARK INTRA:                   0.226
REMARK UNBOUND:                 0.226
REMARK SMILES CCCCCCCCCCCCCC(=O)[O-]
REMARK SMILES IDX 8 1 9 2 10 3 11 4 12 5 13 6 14 7 15 8 16 9 7 10 6 11 5 12
REMARK SMILES IDX 4 13 3 14 2 15 1 16
REMARK H PARENT
REMARK Flexibility Score: inf
ROOT
ATOM      1  C   UNL     1      66.683  56.333   9.155  1.00  0.00     0.000 C 
ENDROOT
BRANCH   1   2
ATOM      2  C   UNL     1      66.548  57.129  10.459  1.00  0.00     0.000 C 
BRANCH   2   3
ATOM      3  C   UNL     1      65.104  57.089  10.981  1.00  0.00     0.000 C 
BRANCH   3   4
ATOM      4  C   UNL     1      64.372  55.782  10.622  1.00  0.00     0.000 C 
BRANCH   4   5
ATOM      5  C   UNL     1      62.916  55.690  11.122  1.00  0.00     0.006 C 
BRANCH   5   6
ATOM      6  C   UNL     1      61.893  56.428  10.244  1.00  0.00     0.053 C 
BRANCH   6   7
ATOM      7  C   UNL     1      62.522  57.541   9.464  1.00  0.00     0.041 C 
ATOM      8  O   UNL     1      62.347  58.737   9.813  1.00  0.00    -0.550 OA
ATOM      9  O   UNL     1      63.272  57.259   8.329  1.00  0.00    -0.550 OA
ENDBRANCH   6   7
ENDBRANCH   5   6
ENDBRANCH   4   5
ENDBRANCH   3   4
ENDBRANCH   2   3
ENDBRANCH   1   2
BRANCH   1  10
ATOM     10  C   UNL     1      67.624  55.133   9.337  1.00  0.00     0.000 C 
BRANCH  10  11
ATOM     11  C   UNL     1      68.131  54.994  10.780  1.00  0.00    -0.000 C 
BRANCH  11  12
ATOM     12  C   UNL     1      69.077  53.795  10.962  1.00  0.00    -0.000 C 
BRANCH  12  13
ATOM     13  C   UNL     1      70.556  54.213  11.019  1.00  0.00    -0.000 C 
BRANCH  13  14
ATOM     14  C   UNL     1      70.776  55.666  10.575  1.00  0.00    -0.000 C 
BRANCH  14  15
ATOM     15  C   UNL     1      72.098  56.213  11.123  1.00  0.00    -0.003 C 
ATOM     16  C   UNL     1      72.185  57.727  10.949  1.00  0.00     0.004 C 
ENDBRANCH  14  15
ENDBRANCH  13  14
ENDBRANCH  12  13
ENDBRANCH  11  12
ENDBRANCH  10  11
ENDBRANCH   1  10
TORSDOF 12
ENDMDL
MODEL 2
REMARK VINA RESULT:     2.217      4.254      6.249
REMARK INTER + INTRA:           3.998
REMARK INTER:                   4.582
REMARK INTRA:                  -0.584
REMARK UNBOUND:                 0.226
REMARK SMILES CCCCCCCCCCCCCC(=O)[O-]
REMARK SMILES IDX 8 1 9 2 10 3 11 4 12 5 13 6 14 7 15 8 16 9 7 10 6 11 5 12
REMARK SMILES IDX 4 13 3 14 2 15 1 16
REMARK H PARENT
REMARK Flexibility Score: inf
ROOT
ATOM      1  C   UNL     1      66.629  52.803  10.088  1.00  0.00     0.000 C 
ENDROOT
BRANCH   1   2
ATOM      2  C   UNL     1      66.662  54.085  10.931  1.00  0.00     0.000 C 
BRANCH   2   3
ATOM      3  C   UNL     1      67.274  55.249  10.138  1.00  0.00     0.000 C 
BRANCH   3   4
ATOM      4  C   UNL     1      66.664  56.613  10.507  1.00  0.00     0.000 C 
BRANCH   4   5
ATOM      5  C   UNL     1      65.122  56.651  10.544  1.00  0.00     0.006 C 
BRANCH   5   6
ATOM      6  C   UNL     1      64.503  57.934   9.967  1.00  0.00     0.053 C 
BRANCH   6   7
ATOM      7  C   UNL     1      63.006  57.910  10.025  1.00  0.00     0.041 C 
ATOM      8  O   UNL     1      62.395  58.565  10.909  1.00  0.00    -0.550 OA
ATOM      9  O   UNL     1      62.288  57.137   9.122  1.00  0.00    -0.550 OA
ENDBRANCH   6   7
ENDBRANCH   5   6
ENDBRANCH   4   5
ENDBRANCH   3   4
ENDBRANCH   2   3
ENDBRANCH   1   2
BRANCH   1  10
ATOM     10  C   UNL     1      67.306  51.641  10.828  1.00  0.00     0.000 C 
BRANCH  10  11
ATOM     11  C   UNL     1      66.338  50.485  11.125  1.00  0.00    -0.000 C 
BRANCH  11  12
ATOM     12  C   UNL     1      64.864  50.927  11.099  1.00  0.00    -0.000 C 
BRANCH  12  13
ATOM     13  C   UNL     1      63.895  49.741  10.965  1.00  0.00    -0.000 C 
BRANCH  13  14
ATOM     14  C   UNL     1      64.602  48.383  11.094  1.00  0.00    -0.000 C 
BRANCH  14  15
ATOM     15  C   UNL     1      63.656  47.235  10.726  1.00  0.00    -0.003 C 
ATOM     16  C   UNL     1      62.373  47.761  10.086  1.00  0.00     0.004 C 
ENDBRANCH  14  15
ENDBRANCH  13  14
ENDBRANCH  12  13
ENDBRANCH  11  12
ENDBRANCH  10  11
ENDBRANCH   1  10
TORSDOF 12
ENDMDL
