MODEL 1
REMARK VINA RESULT:    -2.572      0.000      0.000
REMARK INTER + INTRA:          -2.572
REMARK INTER:                  -2.572
REMARK INTRA:                   0.000
REMARK UNBOUND:                 0.000
REMARK SMILES CC(=O)[O-]
REMARK SMILES IDX 1 1 2 2 3 3 4 4
REMARK H PARENT
REMARK Flexibility Score: inf
ROOT
ATOM      1  C   UNL     1      13.133 -22.810  20.088  1.00  0.00     0.063 C 
ATOM      2  C   UNL     1      14.572 -23.138  20.301  1.00  0.00     0.038 C 
ATOM      3  O   UNL     1      15.093 -22.991  21.437  1.00  0.00    -0.550 OA
ATOM      4  O   UNL     1      15.329 -23.660  19.259  1.00  0.00    -0.550 OA
ENDROOT
TORSDOF 0
ENDMDL
MODEL 2
REMARK VINA RESULT:    -2.549      0.493      1.688
REMARK INTER + INTRA:          -2.549
REMARK INTER:                  -2.549
REMARK INTRA:                   0.000
REMARK UNBOUND:                 0.000
REMARK SMILES CC(=O)[O-]
REMARK SMILES IDX 1 1 2 2 3 3 4 4
REMARK H PARENT
REMARK Flexibility Score: inf
ROOT
ATOM      1  C   UNL     1      12.872 -22.692  20.011  1.00  0.00     0.063 C 
ATOM      2  C   UNL     1      14.295 -22.872  20.417  1.00  0.00     0.038 C 
ATOM      3  O   UNL     1      15.134 -23.326  19.595  1.00  0.00    -0.550 OA
ATOM      4  O   UNL     1      14.712 -22.489  21.686  1.00  0.00    -0.550 OA
ENDROOT
TORSDOF 0
ENDMDL
MODEL 3
REMARK VINA RESULT:    -2.453      1.592      1.857
REMARK INTER + INTRA:          -2.453
REMARK INTER:                  -2.453
REMARK INTRA:                   0.000
REMARK UNBOUND:                 0.000
REMARK SMILES CC(=O)[O-]
REMARK SMILES IDX 1 1 2 2 3 3 4 4
REMARK H PARENT
REMARK Flexibility Score: inf
ROOT
ATOM      1  C   UNL     1      15.057 -23.667  19.688  1.00  0.00     0.063 C 
ATOM      2  C   UNL     1      14.043 -22.850  20.415  1.00  0.00     0.038 C 
ATOM      3  O   UNL     1      14.314 -22.365  21.544  1.00  0.00    -0.550 OA
ATOM      4  O   UNL     1      12.816 -22.576  19.824  1.00  0.00    -0.550 OA
ENDROOT
TORSDOF 0
ENDMDL
MODEL 4
REMARK VINA RESULT:    -2.425      1.615      1.750
REMARK INTER + INTRA:          -2.425
REMARK INTER:                  -2.425
REMARK INTRA:                   0.000
REMARK UNBOUND:                 0.000
REMARK SMILES CC(=O)[O-]
REMARK SMILES IDX 1 1 2 2 3 3 4 4
REMARK H PARENT
REMARK Flexibility Score: inf
ROOT
ATOM      1  C   UNL     1      14.269 -22.613  21.845  1.00  0.00     0.063 C 
ATOM      2  C   UNL     1      14.064 -22.875  20.391  1.00  0.00     0.038 C 
ATOM      3  O   UNL     1      12.941 -22.666  19.863  1.00  0.00    -0.550 OA
ATOM      4  O   UNL     1      15.126 -23.300  19.603  1.00  0.00    -0.550 OA
ENDROOT
TORSDOF 0
ENDMDL
MODEL 5
REMARK VINA RESULT:    -2.213      2.468      2.604
REMARK INTER + INTRA:          -2.213
REMARK INTER:                  -2.213
REMARK INTRA:                   0.000
REMARK UNBOUND:                 0.000
REMARK SMILES CC(=O)[O-]
REMARK SMILES IDX 1 1 2 2 3 3 4 4
REMARK H PARENT
REMARK Flexibility Score: inf
ROOT
ATOM      1  C   UNL     1      13.386 -22.912  20.071  1.00  0.00     0.063 C 
ATOM      2  C   UNL     1      12.586 -23.891  20.862  1.00  0.00     0.038 C 
ATOM      3  O   UNL     1      11.939 -23.509  21.872  1.00  0.00    -0.550 OA
ATOM      4  O   UNL     1      12.508 -25.217  20.455  1.00  0.00    -0.550 OA
ENDROOT
TORSDOF 0
ENDMDL
MODEL 6
REMARK VINA RESULT:    -2.132      7.425      7.836
REMARK INTER + INTRA:          -2.132
REMARK INTER:                  -2.132
REMARK INTRA:                   0.000
REMARK UNBOUND:                 0.000
REMARK SMILES CC(=O)[O-]
REMARK SMILES IDX 1 1 2 2 3 3 4 4
REMARK H PARENT
REMARK Flexibility Score: inf
ROOT
ATOM      1  C   UNL     1       9.495 -24.462  24.606  1.00  0.00     0.063 C 
ATOM      2  C   UNL     1       9.680 -24.639  26.075  1.00  0.00     0.038 C 
ATOM      3  O   UNL     1      10.091 -23.682  26.781  1.00  0.00    -0.550 OA
ATOM      4  O   UNL     1       9.347 -25.846  26.679  1.00  0.00    -0.550 OA
ENDROOT
TORSDOF 0
ENDMDL
MODEL 7
REMARK VINA RESULT:    -2.119      6.602      7.108
REMARK INTER + INTRA:          -2.119
REMARK INTER:                  -2.119
REMARK INTRA:                   0.000
REMARK UNBOUND:                 0.000
REMARK SMILES CC(=O)[O-]
REMARK SMILES IDX 1 1 2 2 3 3 4 4
REMARK H PARENT
REMARK Flexibility Score: inf
ROOT
ATOM      1  C   UNL     1       9.120 -25.237  22.337  1.00  0.00     0.063 C 
ATOM      2  C   UNL     1       8.396 -24.150  23.057  1.00  0.00     0.038 C 
ATOM      3  O   UNL     1       7.228 -23.833  22.713  1.00  0.00    -0.550 OA
ATOM      4  O   UNL     1       8.988 -23.521  24.145  1.00  0.00    -0.550 OA
ENDROOT
TORSDOF 0
ENDMDL
MODEL 8
REMARK VINA RESULT:    -2.104      1.806      1.955
REMARK INTER + INTRA:          -2.104
REMARK INTER:                  -2.104
REMARK INTRA:                   0.000
REMARK UNBOUND:                 0.000
REMARK SMILES CC(=O)[O-]
REMARK SMILES IDX 1 1 2 2 3 3 4 4
REMARK H PARENT
REMARK Flexibility Score: inf
ROOT
ATOM      1  C   UNL     1      14.651 -23.310  19.997  1.00  0.00     0.063 C 
ATOM      2  C   UNL     1      14.644 -24.628  20.693  1.00  0.00     0.038 C 
ATOM      3  O   UNL     1      15.280 -24.779  21.768  1.00  0.00    -0.550 OA
ATOM      4  O   UNL     1      13.889 -25.679  20.186  1.00  0.00    -0.550 OA
ENDROOT
TORSDOF 0
ENDMDL
MODEL 9
REMARK VINA RESULT:    -2.067      2.745      3.125
REMARK INTER + INTRA:          -2.067
REMARK INTER:                  -2.067
REMARK INTRA:                   0.000
REMARK UNBOUND:                 0.000
REMARK SMILES CC(=O)[O-]
REMARK SMILES IDX 1 1 2 2 3 3 4 4
REMARK H PARENT
REMARK Flexibility Score: inf
ROOT
ATOM      1  C   UNL     1      14.243 -21.479  23.851  1.00  0.00     0.063 C 
ATOM      2  C   UNL     1      13.814 -22.238  22.641  1.00  0.00     0.038 C 
ATOM      3  O   UNL     1      12.592 -22.334  22.356  1.00  0.00    -0.550 OA
ATOM      4  O   UNL     1      14.764 -22.796  21.795  1.00  0.00    -0.550 OA
ENDROOT
TORSDOF 0
ENDMDL
